MODEL        1
REMARK 921   NORMALIZED FREE ENERGY PREDICTED BY IDOCK:   -5.69 KCAL/MOL
REMARK 922        TOTAL FREE ENERGY PREDICTED BY IDOCK:  -11.80 KCAL/MOL
REMARK 923 INTER-LIGAND FREE ENERGY PREDICTED BY IDOCK:  -10.68 KCAL/MOL
REMARK 924 INTRA-LIGAND FREE ENERGY PREDICTED BY IDOCK:   -1.12 KCAL/MOL
REMARK 927      BINDING AFFINITY PREDICTED BY RF-SCORE:    0.00 PKD
ROOT
HETATM    1  C   UNL     1     -12.434  16.298  74.173  1.00  0.00    -0.651 C  
HETATM    2  C   UNL     1     -13.361  15.694  73.134  1.00  0.00    -0.660 C  
ENDROOT
BRANCH   2   3
HETATM    3  C   UNL     1     -12.694  15.648  71.763  1.00  0.00    -0.519 C  
BRANCH   3   4
HETATM    4  C   UNL     1     -12.587  14.213  71.259  1.00  0.00    -0.438 C  
BRANCH   4   5
HETATM    5  C   UNL     1     -13.408  13.268  72.128  1.00  0.00    -0.618 C  
BRANCH   5   6
HETATM    6  C   UNL     1     -13.111  11.820  71.759  1.00  0.00    -0.480 C  
BRANCH   6   7
HETATM    7  C   UNL     1     -12.358  11.746  70.440  1.00  0.00    -0.362 C  
BRANCH   7   8
HETATM    8  C   UNL     1     -11.411  10.551  70.427  1.00  0.00    -0.427 C  
BRANCH   8   9
HETATM    9  C   UNL     1     -10.667  10.509  69.102  1.00  0.00    -0.266 C  
BRANCH   9  10
HETATM   10  C   UNL     1     -11.536  10.992  67.945  1.00  0.00    -0.358 C  
BRANCH  10  11
HETATM   11  C   UNL     1     -10.852  12.115  67.147  1.00  0.00    -0.286 C  
BRANCH  11  12
HETATM   12  C   UNL     1     -11.050  11.916  65.644  1.00  0.00    -0.310 C  
BRANCH  12  13
HETATM   13  N   UNL     1     -11.590  13.148  64.901  1.00  0.00    -0.312 N  
HETATM   14  C   UNL     1     -12.069  12.790  63.498  1.00  0.00    -0.559 C  
HETATM   15  C   UNL     1     -12.755  13.766  65.681  1.00  0.00    -0.478 C  
BRANCH  13  16
HETATM   16  C   UNL     1     -10.463  14.241  64.820  1.00  0.00    -0.395 C  
BRANCH  16  17
HETATM   17  C   UNL     1     -10.598  15.314  65.906  1.00  0.00    -0.335 C  
BRANCH  17  18
HETATM   18  O   UNL     1     -10.589  16.626  65.350  1.00  0.00    -0.537 OA 
BRANCH  18  19
HETATM   19  C   UNL     1     -10.403  17.606  66.300  1.00  0.00    -0.342 A  
HETATM   20  C   UNL     1     -10.075  17.158  67.578  1.00  0.00    -0.301 A  
HETATM   21  C   UNL     1      -9.913  18.073  68.621  1.00  0.00    -0.396 A  
HETATM   22  C   UNL     1     -10.066  19.440  68.388  1.00  0.00    -0.538 A  
HETATM   23  C   UNL     1     -10.359  19.895  67.105  1.00  0.00    -0.581 A  
HETATM   24  C   UNL     1     -10.518  18.981  66.064  1.00  0.00    -0.530 A  
ENDBRANCH  18  19
ENDBRANCH  17  18
ENDBRANCH  16  17
ENDBRANCH  13  16
ENDBRANCH  12  13
ENDBRANCH  11  12
ENDBRANCH  10  11
ENDBRANCH   9  10
ENDBRANCH   8   9
ENDBRANCH   7   8
ENDBRANCH   6   7
ENDBRANCH   5   6
ENDBRANCH   4   5
ENDBRANCH   3   4
ENDBRANCH   2   3
TORSDOF 15
ENDMDL
MODEL        2
REMARK 921   NORMALIZED FREE ENERGY PREDICTED BY IDOCK:   -5.65 KCAL/MOL
REMARK 922        TOTAL FREE ENERGY PREDICTED BY IDOCK:  -11.73 KCAL/MOL
REMARK 923 INTER-LIGAND FREE ENERGY PREDICTED BY IDOCK:   -9.85 KCAL/MOL
REMARK 924 INTRA-LIGAND FREE ENERGY PREDICTED BY IDOCK:   -1.89 KCAL/MOL
REMARK 927      BINDING AFFINITY PREDICTED BY RF-SCORE:    0.00 PKD
ROOT
HETATM    1  C   UNL     1     -13.459  12.357  72.095  1.00  0.00    -0.481 C  
HETATM    2  C   UNL     1     -14.134  13.698  72.326  1.00  0.00    -0.602 C  
ENDROOT
BRANCH   2   3
HETATM    3  C   UNL     1     -13.175  14.691  72.974  1.00  0.00    -0.587 C  
BRANCH   3   4
HETATM    4  C   UNL     1     -12.718  15.740  71.966  1.00  0.00    -0.518 C  
BRANCH   4   5
HETATM    5  C   UNL     1     -11.315  15.432  71.457  1.00  0.00    -0.461 C  
BRANCH   5   6
HETATM    6  C   UNL     1     -11.254  15.597  69.944  1.00  0.00    -0.335 C  
BRANCH   6   7
HETATM    7  C   UNL     1     -12.158  14.586  69.257  1.00  0.00    -0.325 C  
BRANCH   7   8
HETATM    8  C   UNL     1     -11.474  13.227  69.168  1.00  0.00    -0.357 C  
BRANCH   8   9
HETATM    9  C   UNL     1     -10.128  13.381  68.477  1.00  0.00    -0.208 C  
BRANCH   9  10
HETATM   10  C   UNL     1      -9.689  12.092  67.791  1.00  0.00    -0.192 C  
BRANCH  10  11
HETATM   11  C   UNL     1      -9.723  12.219  66.258  1.00  0.00    -0.254 C  
BRANCH  11  12
HETATM   12  C   UNL     1     -11.153  12.089  65.730  1.00  0.00    -0.324 C  
BRANCH  12  13
HETATM   13  N   UNL     1     -11.636  13.283  64.892  1.00  0.00    -0.314 N  
HETATM   14  C   UNL     1     -11.953  12.870  63.460  1.00  0.00    -0.556 C  
HETATM   15  C   UNL     1     -12.891  13.896  65.522  1.00  0.00    -0.431 C  
BRANCH  13  16
HETATM   16  C   UNL     1     -10.531  14.401  64.896  1.00  0.00    -0.423 C  
BRANCH  16  17
HETATM   17  C   UNL     1     -10.966  15.663  65.651  1.00  0.00    -0.272 C  
BRANCH  17  18
HETATM   18  O   UNL     1     -10.169  16.789  65.290  1.00  0.00    -0.607 OA 
BRANCH  18  19
HETATM   19  C   UNL     1     -10.122  17.746  66.280  1.00  0.00    -0.344 A  
HETATM   20  C   UNL     1     -10.467  19.039  65.890  1.00  0.00    -0.468 A  
HETATM   21  C   UNL     1     -10.404  20.088  66.811  1.00  0.00    -0.564 A  
HETATM   22  C   UNL     1     -10.010  19.846  68.127  1.00  0.00    -0.551 A  
HETATM   23  C   UNL     1      -9.699  18.550  68.530  1.00  0.00    -0.399 A  
HETATM   24  C   UNL     1      -9.764  17.504  67.612  1.00  0.00    -0.275 A  
ENDBRANCH  18  19
ENDBRANCH  17  18
ENDBRANCH  16  17
ENDBRANCH  13  16
ENDBRANCH  12  13
ENDBRANCH  11  12
ENDBRANCH  10  11
ENDBRANCH   9  10
ENDBRANCH   8   9
ENDBRANCH   7   8
ENDBRANCH   6   7
ENDBRANCH   5   6
ENDBRANCH   4   5
ENDBRANCH   3   4
ENDBRANCH   2   3
TORSDOF 15
ENDMDL
MODEL        3
REMARK 921   NORMALIZED FREE ENERGY PREDICTED BY IDOCK:   -5.58 KCAL/MOL
REMARK 922        TOTAL FREE ENERGY PREDICTED BY IDOCK:  -11.60 KCAL/MOL
REMARK 923 INTER-LIGAND FREE ENERGY PREDICTED BY IDOCK:   -9.38 KCAL/MOL
REMARK 924 INTRA-LIGAND FREE ENERGY PREDICTED BY IDOCK:   -2.22 KCAL/MOL
REMARK 927      BINDING AFFINITY PREDICTED BY RF-SCORE:    0.00 PKD
ROOT
HETATM    1  C   UNL     1     -12.494  12.122  63.575  1.00  0.00    -0.666 C  
HETATM    2  C   UNL     1     -10.977  12.141  63.508  1.00  0.00    -0.521 C  
ENDROOT
BRANCH   2   3
HETATM    3  C   UNL     1     -10.389  10.824  64.005  1.00  0.00    -0.357 C  
BRANCH   3   4
HETATM    4  C   UNL     1      -9.704  11.010  65.354  1.00  0.00    -0.279 C  
BRANCH   4   5
HETATM    5  C   UNL     1     -10.266  10.043  66.389  1.00  0.00    -0.290 C  
BRANCH   5   6
HETATM    6  C   UNL     1     -10.947  10.812  67.515  1.00  0.00    -0.372 C  
BRANCH   6   7
HETATM    7  C   UNL     1     -10.621  12.295  67.425  1.00  0.00    -0.247 C  
BRANCH   7   8
HETATM    8  C   UNL     1     -11.895  13.130  67.494  1.00  0.00    -0.409 C  
BRANCH   8   9
HETATM    9  C   UNL     1     -11.768  14.324  66.561  1.00  0.00    -0.409 C  
BRANCH   9  10
HETATM   10  C   UNL     1     -10.320  14.576  66.153  1.00  0.00    -0.305 C  
BRANCH  10  11
HETATM   11  C   UNL     1     -10.099  16.028  65.695  1.00  0.00    -0.384 C  
BRANCH  11  12
HETATM   12  C   UNL     1      -8.820  16.605  66.305  1.00  0.00    -0.312 C  
BRANCH  12  13
HETATM   13  N   UNL     1      -9.053  17.652  67.406  1.00  0.00    -0.237 N  
HETATM   14  C   UNL     1      -7.988  18.743  67.376  1.00  0.00    -0.239 C  
HETATM   15  C   UNL     1     -10.431  18.299  67.237  1.00  0.00    -0.398 C  
BRANCH  13  16
HETATM   16  C   UNL     1      -9.052  16.941  68.808  1.00  0.00    -0.254 C  
BRANCH  16  17
HETATM   17  C   UNL     1     -10.465  16.692  69.348  1.00  0.00    -0.320 C  
BRANCH  17  18
HETATM   18  O   UNL     1     -10.474  15.667  70.339  1.00  0.00    -0.315 OA 
BRANCH  18  19
HETATM   19  C   UNL     1     -11.667  15.599  71.024  1.00  0.00    -0.403 A  
HETATM   20  C   UNL     1     -11.613  15.945  72.373  1.00  0.00    -0.483 A  
HETATM   21  C   UNL     1     -12.761  15.862  73.164  1.00  0.00    -0.631 A  
HETATM   22  C   UNL     1     -13.971  15.446  72.607  1.00  0.00    -0.590 A  
HETATM   23  C   UNL     1     -14.037  15.133  71.251  1.00  0.00    -0.537 A  
HETATM   24  C   UNL     1     -12.892  15.219  70.462  1.00  0.00    -0.421 A  
ENDBRANCH  18  19
ENDBRANCH  17  18
ENDBRANCH  16  17
ENDBRANCH  13  16
ENDBRANCH  12  13
ENDBRANCH  11  12
ENDBRANCH  10  11
ENDBRANCH   9  10
ENDBRANCH   8   9
ENDBRANCH   7   8
ENDBRANCH   6   7
ENDBRANCH   5   6
ENDBRANCH   4   5
ENDBRANCH   3   4
ENDBRANCH   2   3
TORSDOF 15
ENDMDL
MODEL        4
REMARK 921   NORMALIZED FREE ENERGY PREDICTED BY IDOCK:   -5.58 KCAL/MOL
REMARK 922        TOTAL FREE ENERGY PREDICTED BY IDOCK:  -11.60 KCAL/MOL
REMARK 923 INTER-LIGAND FREE ENERGY PREDICTED BY IDOCK:   -9.98 KCAL/MOL
REMARK 924 INTRA-LIGAND FREE ENERGY PREDICTED BY IDOCK:   -1.62 KCAL/MOL
REMARK 927      BINDING AFFINITY PREDICTED BY RF-SCORE:    0.00 PKD
ROOT
HETATM    1  C   UNL     1     -10.893   9.238  71.634  1.00  0.00    -0.418 C  
HETATM    2  C   UNL     1     -11.941   9.882  70.744  1.00  0.00    -0.410 C  
ENDROOT
BRANCH   2   3
HETATM    3  C   UNL     1     -12.967  10.650  71.571  1.00  0.00    -0.566 C  
BRANCH   3   4
HETATM    4  C   UNL     1     -12.783  12.154  71.404  1.00  0.00    -0.368 C  
BRANCH   4   5
HETATM    5  C   UNL     1     -13.613  12.921  72.426  1.00  0.00    -0.577 C  
BRANCH   5   6
HETATM    6  C   UNL     1     -13.595  14.411  72.108  1.00  0.00    -0.529 C  
BRANCH   6   7
HETATM    7  C   UNL     1     -12.337  15.062  72.660  1.00  0.00    -0.446 C  
BRANCH   7   8
HETATM    8  C   UNL     1     -11.505  15.665  71.533  1.00  0.00    -0.494 C  
BRANCH   8   9
HETATM    9  C   UNL     1     -12.321  15.675  70.251  1.00  0.00    -0.402 C  
BRANCH   9  10
HETATM   10  C   UNL     1     -11.478  15.302  69.036  1.00  0.00    -0.338 C  
BRANCH  10  11
HETATM   11  C   UNL     1     -12.024  14.054  68.322  1.00  0.00    -0.384 C  
BRANCH  11  12
HETATM   12  C   UNL     1     -12.282  14.341  66.841  1.00  0.00    -0.331 C  
BRANCH  12  13
HETATM   13  N   UNL     1     -11.443  13.495  65.871  1.00  0.00    -0.313 N  
HETATM   14  C   UNL     1     -10.427  12.633  66.613  1.00  0.00    -0.245 C  
HETATM   15  C   UNL     1     -12.354  12.584  65.041  1.00  0.00    -0.453 C  
BRANCH  13  16
HETATM   16  C   UNL     1     -10.704  14.444  64.859  1.00  0.00    -0.426 C  
BRANCH  16  17
HETATM   17  C   UNL     1     -10.744  15.916  65.289  1.00  0.00    -0.424 C  
BRANCH  17  18
HETATM   18  O   UNL     1      -9.469  16.363  65.740  1.00  0.00    -0.464 OA 
BRANCH  18  19
HETATM   19  C   UNL     1      -9.538  17.544  66.446  1.00  0.00    -0.269 A  
HETATM   20  C   UNL     1      -8.546  17.738  67.404  1.00  0.00    -0.233 A  
HETATM   21  C   UNL     1      -8.559  18.883  68.205  1.00  0.00    -0.364 A  
HETATM   22  C   UNL     1      -9.557  19.845  68.041  1.00  0.00    -0.482 A  
HETATM   23  C   UNL     1     -10.530  19.672  67.061  1.00  0.00    -0.600 A  
HETATM   24  C   UNL     1     -10.515  18.531  66.261  1.00  0.00    -0.441 A  
ENDBRANCH  18  19
ENDBRANCH  17  18
ENDBRANCH  16  17
ENDBRANCH  13  16
ENDBRANCH  12  13
ENDBRANCH  11  12
ENDBRANCH  10  11
ENDBRANCH   9  10
ENDBRANCH   8   9
ENDBRANCH   7   8
ENDBRANCH   6   7
ENDBRANCH   5   6
ENDBRANCH   4   5
ENDBRANCH   3   4
ENDBRANCH   2   3
TORSDOF 15
ENDMDL
MODEL        5
REMARK 921   NORMALIZED FREE ENERGY PREDICTED BY IDOCK:   -5.56 KCAL/MOL
REMARK 922        TOTAL FREE ENERGY PREDICTED BY IDOCK:  -11.56 KCAL/MOL
REMARK 923 INTER-LIGAND FREE ENERGY PREDICTED BY IDOCK:   -9.31 KCAL/MOL
REMARK 924 INTRA-LIGAND FREE ENERGY PREDICTED BY IDOCK:   -2.25 KCAL/MOL
REMARK 927      BINDING AFFINITY PREDICTED BY RF-SCORE:    0.00 PKD
ROOT
HETATM    1  C   UNL     1     -10.221  15.453  69.820  1.00  0.00    -0.278 C  
HETATM    2  C   UNL     1     -11.674  15.886  69.756  1.00  0.00    -0.323 C  
ENDROOT
BRANCH   2   3
HETATM    3  C   UNL     1     -12.378  15.649  71.088  1.00  0.00    -0.482 C  
BRANCH   3   4
HETATM    4  C   UNL     1     -13.816  15.195  70.869  1.00  0.00    -0.312 C  
BRANCH   4   5
HETATM    5  C   UNL     1     -14.293  14.317  72.020  1.00  0.00    -0.629 C  
BRANCH   5   6
HETATM    6  C   UNL     1     -13.164  13.414  72.497  1.00  0.00    -0.517 C  
BRANCH   6   7
HETATM    7  C   UNL     1     -13.159  12.105  71.723  1.00  0.00    -0.457 C  
BRANCH   7   8
HETATM    8  C   UNL     1     -12.068  12.114  70.658  1.00  0.00    -0.344 C  
BRANCH   8   9
HETATM    9  C   UNL     1     -12.263  10.930  69.724  1.00  0.00    -0.381 C  
BRANCH   9  10
HETATM   10  C   UNL     1     -11.566  11.143  68.383  1.00  0.00    -0.376 C  
BRANCH  10  11
HETATM   11  C   UNL     1     -11.758  12.577  67.860  1.00  0.00    -0.416 C  
BRANCH  11  12
HETATM   12  C   UNL     1     -10.561  13.015  67.016  1.00  0.00    -0.257 C  
BRANCH  12  13
HETATM   13  N   UNL     1     -10.818  13.031  65.501  1.00  0.00    -0.275 N  
HETATM   14  C   UNL     1     -10.098  11.886  64.798  1.00  0.00    -0.262 C  
HETATM   15  C   UNL     1     -12.320  12.922  65.219  1.00  0.00    -0.490 C  
BRANCH  13  16
HETATM   16  C   UNL     1     -10.342  14.407  64.908  1.00  0.00    -0.389 C  
BRANCH  16  17
HETATM   17  C   UNL     1      -9.891  15.396  65.990  1.00  0.00    -0.326 C  
BRANCH  17  18
HETATM   18  O   UNL     1     -10.152  16.744  65.609  1.00  0.00    -0.534 OA 
BRANCH  18  19
HETATM   19  C   UNL     1      -9.850  17.646  66.605  1.00  0.00    -0.309 A  
HETATM   20  C   UNL     1      -8.574  17.539  67.154  1.00  0.00    -0.238 A  
HETATM   21  C   UNL     1      -8.189  18.378  68.203  1.00  0.00    -0.303 A  
HETATM   22  C   UNL     1      -9.074  19.337  68.697  1.00  0.00    -0.428 A  
HETATM   23  C   UNL     1     -10.338  19.471  68.128  1.00  0.00    -0.550 A  
HETATM   24  C   UNL     1     -10.720  18.635  67.080  1.00  0.00    -0.433 A  
ENDBRANCH  18  19
ENDBRANCH  17  18
ENDBRANCH  16  17
ENDBRANCH  13  16
ENDBRANCH  12  13
ENDBRANCH  11  12
ENDBRANCH  10  11
ENDBRANCH   9  10
ENDBRANCH   8   9
ENDBRANCH   7   8
ENDBRANCH   6   7
ENDBRANCH   5   6
ENDBRANCH   4   5
ENDBRANCH   3   4
ENDBRANCH   2   3
TORSDOF 15
ENDMDL
MODEL        6
REMARK 921   NORMALIZED FREE ENERGY PREDICTED BY IDOCK:   -5.46 KCAL/MOL
REMARK 922        TOTAL FREE ENERGY PREDICTED BY IDOCK:  -11.38 KCAL/MOL
REMARK 923 INTER-LIGAND FREE ENERGY PREDICTED BY IDOCK:   -9.43 KCAL/MOL
REMARK 924 INTRA-LIGAND FREE ENERGY PREDICTED BY IDOCK:   -1.95 KCAL/MOL
REMARK 927      BINDING AFFINITY PREDICTED BY RF-SCORE:    0.00 PKD
ROOT
HETATM    1  C   UNL     1     -10.231   7.107  68.379  1.00  0.00    -0.194 C  
HETATM    2  C   UNL     1     -10.492   7.168  69.874  1.00  0.00    -0.237 C  
ENDROOT
BRANCH   2   3
HETATM    3  C   UNL     1     -11.847   6.559  70.220  1.00  0.00    -0.361 C  
BRANCH   3   4
HETATM    4  C   UNL     1     -12.226   6.867  71.664  1.00  0.00    -0.403 C  
BRANCH   4   5
HETATM    5  C   UNL     1     -11.767   8.264  72.063  1.00  0.00    -0.407 C  
BRANCH   5   6
HETATM    6  C   UNL     1     -12.970   9.177  72.264  1.00  0.00    -0.492 C  
BRANCH   6   7
HETATM    7  C   UNL     1     -12.870  10.401  71.366  1.00  0.00    -0.556 C  
BRANCH   7   8
HETATM    8  C   UNL     1     -11.570  10.379  70.569  1.00  0.00    -0.433 C  
BRANCH   8   9
HETATM    9  C   UNL     1     -11.681  11.337  69.394  1.00  0.00    -0.409 C  
BRANCH   9  10
HETATM   10  C   UNL     1     -11.317  10.663  68.075  1.00  0.00    -0.350 C  
BRANCH  10  11
HETATM   11  C   UNL     1     -10.214  11.431  67.326  1.00  0.00    -0.229 C  
BRANCH  11  12
HETATM   12  C   UNL     1     -10.813  12.339  66.252  1.00  0.00    -0.278 C  
BRANCH  12  13
HETATM   13  N   UNL     1     -10.553  13.839  66.465  1.00  0.00    -0.277 N  
HETATM   14  C   UNL     1      -9.181  14.088  67.080  1.00  0.00    -0.254 C  
HETATM   15  C   UNL     1     -10.642  14.586  65.130  1.00  0.00    -0.410 C  
BRANCH  13  16
HETATM   16  C   UNL     1     -11.673  14.433  67.395  1.00  0.00    -0.397 C  
BRANCH  16  17
HETATM   17  C   UNL     1     -11.143  14.849  68.772  1.00  0.00    -0.264 C  
BRANCH  17  18
HETATM   18  O   UNL     1     -12.032  15.752  69.424  1.00  0.00    -0.370 OA 
BRANCH  18  19
HETATM   19  C   UNL     1     -12.332  15.367  70.712  1.00  0.00    -0.396 A  
HETATM   20  C   UNL     1     -11.774  16.146  71.724  1.00  0.00    -0.568 A  
HETATM   21  C   UNL     1     -11.981  15.807  73.063  1.00  0.00    -0.596 A  
HETATM   22  C   UNL     1     -12.757  14.696  73.396  1.00  0.00    -0.528 A  
HETATM   23  C   UNL     1     -13.346  13.936  72.389  1.00  0.00    -0.629 A  
HETATM   24  C   UNL     1     -13.141  14.276  71.053  1.00  0.00    -0.394 A  
ENDBRANCH  18  19
ENDBRANCH  17  18
ENDBRANCH  16  17
ENDBRANCH  13  16
ENDBRANCH  12  13
ENDBRANCH  11  12
ENDBRANCH  10  11
ENDBRANCH   9  10
ENDBRANCH   8   9
ENDBRANCH   7   8
ENDBRANCH   6   7
ENDBRANCH   5   6
ENDBRANCH   4   5
ENDBRANCH   3   4
ENDBRANCH   2   3
TORSDOF 15
ENDMDL
MODEL        7
REMARK 921   NORMALIZED FREE ENERGY PREDICTED BY IDOCK:   -5.42 KCAL/MOL
REMARK 922        TOTAL FREE ENERGY PREDICTED BY IDOCK:  -11.30 KCAL/MOL
REMARK 923 INTER-LIGAND FREE ENERGY PREDICTED BY IDOCK:   -9.31 KCAL/MOL
REMARK 924 INTRA-LIGAND FREE ENERGY PREDICTED BY IDOCK:   -1.99 KCAL/MOL
REMARK 927      BINDING AFFINITY PREDICTED BY RF-SCORE:    0.00 PKD
ROOT
HETATM    1  C   UNL     1     -14.022   8.800  71.893  1.00  0.00    -0.493 C  
HETATM    2  C   UNL     1     -13.774   7.360  71.480  1.00  0.00    -0.467 C  
ENDROOT
BRANCH   2   3
HETATM    3  C   UNL     1     -12.281   7.061  71.396  1.00  0.00    -0.407 C  
BRANCH   3   4
HETATM    4  C   UNL     1     -11.527   7.744  72.532  1.00  0.00    -0.428 C  
BRANCH   4   5
HETATM    5  C   UNL     1     -10.264   8.424  72.017  1.00  0.00    -0.364 C  
BRANCH   5   6
HETATM    6  C   UNL     1     -10.209   8.354  70.496  1.00  0.00    -0.216 C  
BRANCH   6   7
HETATM    7  C   UNL     1     -10.063   9.745  69.899  1.00  0.00    -0.288 C  
BRANCH   7   8
HETATM    8  C   UNL     1     -11.342  10.552  70.096  1.00  0.00    -0.400 C  
BRANCH   8   9
HETATM    9  C   UNL     1     -11.837  11.051  68.748  1.00  0.00    -0.352 C  
BRANCH   9  10
HETATM   10  C   UNL     1     -11.018  10.482  67.594  1.00  0.00    -0.375 C  
BRANCH  10  11
HETATM   11  C   UNL     1     -10.616  11.572  66.585  1.00  0.00    -0.294 C  
BRANCH  11  12
HETATM   12  C   UNL     1     -10.461  12.927  67.278  1.00  0.00    -0.234 C  
BRANCH  12  13
HETATM   13  N   UNL     1     -10.942  14.128  66.447  1.00  0.00    -0.307 N  
HETATM   14  C   UNL     1     -10.290  14.152  65.069  1.00  0.00    -0.418 C  
HETATM   15  C   UNL     1     -12.463  14.077  66.276  1.00  0.00    -0.400 C  
BRANCH  13  16
HETATM   16  C   UNL     1     -10.614  15.457  67.220  1.00  0.00    -0.294 C  
BRANCH  16  17
HETATM   17  C   UNL     1     -11.591  15.733  68.368  1.00  0.00    -0.338 C  
BRANCH  17  18
HETATM   18  O   UNL     1     -10.917  15.812  69.621  1.00  0.00    -0.255 OA 
BRANCH  18  19
HETATM   19  C   UNL     1     -11.692  15.372  70.671  1.00  0.00    -0.339 A  
HETATM   20  C   UNL     1     -12.294  14.126  70.501  1.00  0.00    -0.434 A  
HETATM   21  C   UNL     1     -13.138  13.615  71.490  1.00  0.00    -0.431 A  
HETATM   22  C   UNL     1     -13.372  14.340  72.659  1.00  0.00    -0.619 A  
HETATM   23  C   UNL     1     -12.746  15.569  72.848  1.00  0.00    -0.545 A  
HETATM   24  C   UNL     1     -11.902  16.078  71.862  1.00  0.00    -0.619 A  
ENDBRANCH  18  19
ENDBRANCH  17  18
ENDBRANCH  16  17
ENDBRANCH  13  16
ENDBRANCH  12  13
ENDBRANCH  11  12
ENDBRANCH  10  11
ENDBRANCH   9  10
ENDBRANCH   8   9
ENDBRANCH   7   8
ENDBRANCH   6   7
ENDBRANCH   5   6
ENDBRANCH   4   5
ENDBRANCH   3   4
ENDBRANCH   2   3
TORSDOF 15
ENDMDL
MODEL        8
REMARK 921   NORMALIZED FREE ENERGY PREDICTED BY IDOCK:   -5.38 KCAL/MOL
REMARK 922        TOTAL FREE ENERGY PREDICTED BY IDOCK:  -11.22 KCAL/MOL
REMARK 923 INTER-LIGAND FREE ENERGY PREDICTED BY IDOCK:   -9.82 KCAL/MOL
REMARK 924 INTRA-LIGAND FREE ENERGY PREDICTED BY IDOCK:   -1.40 KCAL/MOL
REMARK 927      BINDING AFFINITY PREDICTED BY RF-SCORE:    0.00 PKD
ROOT
HETATM    1  C   UNL     1     -13.941   7.283  71.389  1.00  0.00    -0.429 C  
HETATM    2  C   UNL     1     -14.294   8.682  71.861  1.00  0.00    -0.492 C  
ENDROOT
BRANCH   2   3
HETATM    3  C   UNL     1     -13.039   9.491  72.168  1.00  0.00    -0.522 C  
BRANCH   3   4
HETATM    4  C   UNL     1     -12.936  10.703  71.248  1.00  0.00    -0.513 C  
BRANCH   4   5
HETATM    5  C   UNL     1     -13.256  11.988  72.001  1.00  0.00    -0.481 C  
BRANCH   5   6
HETATM    6  C   UNL     1     -12.718  13.193  71.240  1.00  0.00    -0.396 C  
BRANCH   6   7
HETATM    7  C   UNL     1     -12.112  12.764  69.913  1.00  0.00    -0.329 C  
BRANCH   7   8
HETATM    8  C   UNL     1     -11.761  13.980  69.063  1.00  0.00    -0.368 C  
BRANCH   8   9
HETATM    9  C   UNL     1     -10.316  13.875  68.602  1.00  0.00    -0.237 C  
BRANCH   9  10
HETATM   10  C   UNL     1      -9.946  12.449  68.208  1.00  0.00    -0.224 C  
BRANCH  10  11
HETATM   11  C   UNL     1      -9.734  12.312  66.690  1.00  0.00    -0.229 C  
BRANCH  11  12
HETATM   12  C   UNL     1     -11.063  12.073  65.972  1.00  0.00    -0.320 C  
BRANCH  12  13
HETATM   13  N   UNL     1     -11.472  13.189  64.997  1.00  0.00    -0.301 N  
HETATM   14  C   UNL     1     -11.756  12.640  63.604  1.00  0.00    -0.522 C  
HETATM   15  C   UNL     1     -12.723  13.908  65.513  1.00  0.00    -0.499 C  
BRANCH  13  16
HETATM   16  C   UNL     1     -10.326  14.263  64.927  1.00  0.00    -0.401 C  
BRANCH  16  17
HETATM   17  C   UNL     1     -10.765  15.636  65.450  1.00  0.00    -0.408 C  
BRANCH  17  18
HETATM   18  O   UNL     1      -9.657  16.521  65.591  1.00  0.00    -0.511 OA 
BRANCH  18  19
HETATM   19  C   UNL     1      -9.891  17.525  66.505  1.00  0.00    -0.310 A  
HETATM   20  C   UNL     1     -10.314  18.742  65.974  1.00  0.00    -0.467 A  
HETATM   21  C   UNL     1     -10.530  19.836  66.816  1.00  0.00    -0.610 A  
HETATM   22  C   UNL     1     -10.340  19.712  68.193  1.00  0.00    -0.561 A  
HETATM   23  C   UNL     1      -9.952  18.488  68.731  1.00  0.00    -0.417 A  
HETATM   24  C   UNL     1      -9.738  17.397  67.891  1.00  0.00    -0.272 A  
ENDBRANCH  18  19
ENDBRANCH  17  18
ENDBRANCH  16  17
ENDBRANCH  13  16
ENDBRANCH  12  13
ENDBRANCH  11  12
ENDBRANCH  10  11
ENDBRANCH   9  10
ENDBRANCH   8   9
ENDBRANCH   7   8
ENDBRANCH   6   7
ENDBRANCH   5   6
ENDBRANCH   4   5
ENDBRANCH   3   4
ENDBRANCH   2   3
TORSDOF 15
ENDMDL
MODEL        9
REMARK 921   NORMALIZED FREE ENERGY PREDICTED BY IDOCK:   -5.37 KCAL/MOL
REMARK 922        TOTAL FREE ENERGY PREDICTED BY IDOCK:  -11.21 KCAL/MOL
REMARK 923 INTER-LIGAND FREE ENERGY PREDICTED BY IDOCK:   -9.03 KCAL/MOL
REMARK 924 INTRA-LIGAND FREE ENERGY PREDICTED BY IDOCK:   -2.18 KCAL/MOL
REMARK 927      BINDING AFFINITY PREDICTED BY RF-SCORE:    0.00 PKD
ROOT
HETATM    1  C   UNL     1      -9.380  10.477  63.659  1.00  0.00    -0.324 C  
HETATM    2  C   UNL     1     -10.103  11.779  63.362  1.00  0.00    -0.470 C  
ENDROOT
BRANCH   2   3
HETATM    3  C   UNL     1     -11.612  11.615  63.506  1.00  0.00    -0.408 C  
BRANCH   3   4
HETATM    4  C   UNL     1     -12.320  12.958  63.366  1.00  0.00    -0.498 C  
BRANCH   4   5
HETATM    5  C   UNL     1     -11.793  13.961  64.385  1.00  0.00    -0.456 C  
BRANCH   5   6
HETATM    6  C   UNL     1     -12.786  14.122  65.528  1.00  0.00    -0.468 C  
BRANCH   6   7
HETATM    7  C   UNL     1     -12.060  14.209  66.862  1.00  0.00    -0.466 C  
BRANCH   7   8
HETATM    8  C   UNL     1     -10.571  13.931  66.682  1.00  0.00    -0.274 C  
BRANCH   8   9
HETATM    9  C   UNL     1     -10.124  12.896  67.702  1.00  0.00    -0.221 C  
BRANCH   9  10
HETATM   10  C   UNL     1     -10.310  11.472  67.187  1.00  0.00    -0.248 C  
BRANCH  10  11
HETATM   11  C   UNL     1      -9.834  10.427  68.211  1.00  0.00    -0.169 C  
BRANCH  11  12
HETATM   12  C   UNL     1     -11.022   9.762  68.906  1.00  0.00    -0.150 C  
BRANCH  12  13
HETATM   13  N   UNL     1     -10.682   9.077  70.239  1.00  0.00    -0.221 N  
HETATM   14  C   UNL     1     -10.792   7.560  70.133  1.00  0.00    -0.249 C  
HETATM   15  C   UNL     1      -9.258   9.442  70.672  1.00  0.00    -0.242 C  
BRANCH  13  16
HETATM   16  C   UNL     1     -11.649   9.609  71.358  1.00  0.00    -0.400 C  
BRANCH  16  17
HETATM   17  C   UNL     1     -12.644  10.652  70.836  1.00  0.00    -0.407 C  
BRANCH  17  18
HETATM   18  O   UNL     1     -13.203  11.419  71.899  1.00  0.00    -0.484 OA 
BRANCH  18  19
HETATM   19  C   UNL     1     -13.167  12.774  71.653  1.00  0.00    -0.317 A  
HETATM   20  C   UNL     1     -12.196  13.202  70.750  1.00  0.00    -0.375 A  
HETATM   21  C   UNL     1     -12.049  14.563  70.472  1.00  0.00    -0.395 A  
HETATM   22  C   UNL     1     -12.881  15.500  71.084  1.00  0.00    -0.551 A  
HETATM   23  C   UNL     1     -13.876  15.075  71.960  1.00  0.00    -0.578 A  
HETATM   24  C   UNL     1     -14.024  13.716  72.235  1.00  0.00    -0.661 A  
ENDBRANCH  18  19
ENDBRANCH  17  18
ENDBRANCH  16  17
ENDBRANCH  13  16
ENDBRANCH  12  13
ENDBRANCH  11  12
ENDBRANCH  10  11
ENDBRANCH   9  10
ENDBRANCH   8   9
ENDBRANCH   7   8
ENDBRANCH   6   7
ENDBRANCH   5   6
ENDBRANCH   4   5
ENDBRANCH   3   4
ENDBRANCH   2   3
TORSDOF 15
ENDMDL
MODEL       10
REMARK 921   NORMALIZED FREE ENERGY PREDICTED BY IDOCK:   -5.35 KCAL/MOL
REMARK 922        TOTAL FREE ENERGY PREDICTED BY IDOCK:  -11.16 KCAL/MOL
REMARK 923 INTER-LIGAND FREE ENERGY PREDICTED BY IDOCK:   -9.19 KCAL/MOL
REMARK 924 INTRA-LIGAND FREE ENERGY PREDICTED BY IDOCK:   -1.97 KCAL/MOL
REMARK 927      BINDING AFFINITY PREDICTED BY RF-SCORE:    0.00 PKD
ROOT
HETATM    1  C   UNL     1      -6.128  17.825  66.814  1.00  0.00    -0.194 C  
HETATM    2  C   UNL     1      -6.318  18.466  65.451  1.00  0.00    -0.273 C  
ENDROOT
BRANCH   2   3
HETATM    3  C   UNL     1      -7.285  19.643  65.528  1.00  0.00    -0.246 C  
BRANCH   3   4
HETATM    4  C   UNL     1      -7.138  20.380  66.854  1.00  0.00    -0.328 C  
BRANCH   4   5
HETATM    5  C   UNL     1      -8.491  20.561  67.531  1.00  0.00    -0.316 C  
BRANCH   5   6
HETATM    6  C   UNL     1      -9.614  20.171  66.578  1.00  0.00    -0.529 C  
BRANCH   6   7
HETATM    7  C   UNL     1     -10.615  19.260  67.272  1.00  0.00    -0.590 C  
BRANCH   7   8
HETATM    8  C   UNL     1      -9.895  18.208  68.108  1.00  0.00    -0.350 C  
BRANCH   8   9
HETATM    9  C   UNL     1     -10.270  16.821  67.609  1.00  0.00    -0.289 C  
BRANCH   9  10
HETATM   10  C   UNL     1      -9.551  16.470  66.310  1.00  0.00    -0.333 C  
BRANCH  10  11
HETATM   11  C   UNL     1     -10.275  15.353  65.539  1.00  0.00    -0.411 C  
BRANCH  11  12
HETATM   12  C   UNL     1     -11.331  14.680  66.416  1.00  0.00    -0.348 C  
BRANCH  12  13
HETATM   13  N   UNL     1     -11.474  13.165  66.197  1.00  0.00    -0.317 N  
HETATM   14  C   UNL     1     -12.577  12.847  65.194  1.00  0.00    -0.471 C  
HETATM   15  C   UNL     1     -10.154  12.579  65.686  1.00  0.00    -0.269 C  
BRANCH  13  16
HETATM   16  C   UNL     1     -11.781  12.468  67.572  1.00  0.00    -0.374 C  
BRANCH  16  17
HETATM   17  C   UNL     1     -11.653  13.423  68.764  1.00  0.00    -0.325 C  
BRANCH  17  18
HETATM   18  O   UNL     1     -12.298  12.903  69.923  1.00  0.00    -0.209 OA 
BRANCH  18  19
HETATM   19  C   UNL     1     -12.446  13.844  70.917  1.00  0.00    -0.375 A  
HETATM   20  C   UNL     1     -11.777  15.050  70.717  1.00  0.00    -0.371 A  
HETATM   21  C   UNL     1     -11.826  16.049  71.692  1.00  0.00    -0.582 A  
HETATM   22  C   UNL     1     -12.556  15.853  72.864  1.00  0.00    -0.581 A  
HETATM   23  C   UNL     1     -13.255  14.664  73.053  1.00  0.00    -0.587 A  
HETATM   24  C   UNL     1     -13.208  13.668  72.079  1.00  0.00    -0.522 A  
ENDBRANCH  18  19
ENDBRANCH  17  18
ENDBRANCH  16  17
ENDBRANCH  13  16
ENDBRANCH  12  13
ENDBRANCH  11  12
ENDBRANCH  10  11
ENDBRANCH   9  10
ENDBRANCH   8   9
ENDBRANCH   7   8
ENDBRANCH   6   7
ENDBRANCH   5   6
ENDBRANCH   4   5
ENDBRANCH   3   4
ENDBRANCH   2   3
TORSDOF 15
ENDMDL
MODEL       11
REMARK 921   NORMALIZED FREE ENERGY PREDICTED BY IDOCK:   -5.33 KCAL/MOL
REMARK 922        TOTAL FREE ENERGY PREDICTED BY IDOCK:  -11.13 KCAL/MOL
REMARK 923 INTER-LIGAND FREE ENERGY PREDICTED BY IDOCK:   -9.08 KCAL/MOL
REMARK 924 INTRA-LIGAND FREE ENERGY PREDICTED BY IDOCK:   -2.05 KCAL/MOL
REMARK 927      BINDING AFFINITY PREDICTED BY RF-SCORE:    0.00 PKD
ROOT
HETATM    1  C   UNL     1     -12.523  11.993  63.497  1.00  0.00    -0.654 C  
HETATM    2  C   UNL     1     -11.157  12.621  63.707  1.00  0.00    -0.504 C  
ENDROOT
BRANCH   2   3
HETATM    3  C   UNL     1     -10.048  11.586  63.558  1.00  0.00    -0.446 C  
BRANCH   3   4
HETATM    4  C   UNL     1     -10.152  10.519  64.642  1.00  0.00    -0.408 C  
BRANCH   4   5
HETATM    5  C   UNL     1      -8.794  10.259  65.284  1.00  0.00    -0.200 C  
BRANCH   5   6
HETATM    6  C   UNL     1      -8.973   9.615  66.653  1.00  0.00    -0.166 C  
BRANCH   6   7
HETATM    7  C   UNL     1     -10.429   9.668  67.085  1.00  0.00    -0.317 C  
BRANCH   7   8
HETATM    8  C   UNL     1     -10.550  10.220  68.502  1.00  0.00    -0.240 C  
BRANCH   8   9
HETATM    9  C   UNL     1     -11.695  11.219  68.560  1.00  0.00    -0.378 C  
BRANCH   9  10
HETATM   10  C   UNL     1     -11.751  12.094  67.311  1.00  0.00    -0.369 C  
BRANCH  10  11
HETATM   11  C   UNL     1     -10.740  13.252  67.378  1.00  0.00    -0.266 C  
BRANCH  11  12
HETATM   12  C   UNL     1     -11.398  14.575  66.985  1.00  0.00    -0.349 C  
BRANCH  12  13
HETATM   13  N   UNL     1     -10.427  15.759  66.857  1.00  0.00    -0.311 N  
HETATM   14  C   UNL     1      -8.977  15.291  66.809  1.00  0.00    -0.262 C  
HETATM   15  C   UNL     1     -10.733  16.558  65.586  1.00  0.00    -0.248 C  
BRANCH  13  16
HETATM   16  C   UNL     1     -10.636  16.735  68.071  1.00  0.00    -0.347 C  
BRANCH  16  17
HETATM   17  C   UNL     1     -10.251  16.103  69.414  1.00  0.00    -0.266 C  
BRANCH  17  18
HETATM   18  O   UNL     1     -11.005  16.657  70.489  1.00  0.00    -0.223 OA 
BRANCH  18  19
HETATM   19  C   UNL     1     -11.787  15.721  71.128  1.00  0.00    -0.425 A  
HETATM   20  C   UNL     1     -12.239  16.073  72.398  1.00  0.00    -0.603 A  
HETATM   21  C   UNL     1     -12.999  15.171  73.147  1.00  0.00    -0.627 A  
HETATM   22  C   UNL     1     -13.321  13.919  72.623  1.00  0.00    -0.640 A  
HETATM   23  C   UNL     1     -12.902  13.576  71.340  1.00  0.00    -0.440 A  
HETATM   24  C   UNL     1     -12.146  14.478  70.593  1.00  0.00    -0.392 A  
ENDBRANCH  18  19
ENDBRANCH  17  18
ENDBRANCH  16  17
ENDBRANCH  13  16
ENDBRANCH  12  13
ENDBRANCH  11  12
ENDBRANCH  10  11
ENDBRANCH   9  10
ENDBRANCH   8   9
ENDBRANCH   7   8
ENDBRANCH   6   7
ENDBRANCH   5   6
ENDBRANCH   4   5
ENDBRANCH   3   4
ENDBRANCH   2   3
TORSDOF 15
ENDMDL
MODEL       12
REMARK 921   NORMALIZED FREE ENERGY PREDICTED BY IDOCK:   -5.33 KCAL/MOL
REMARK 922        TOTAL FREE ENERGY PREDICTED BY IDOCK:  -11.12 KCAL/MOL
REMARK 923 INTER-LIGAND FREE ENERGY PREDICTED BY IDOCK:   -8.90 KCAL/MOL
REMARK 924 INTRA-LIGAND FREE ENERGY PREDICTED BY IDOCK:   -2.22 KCAL/MOL
REMARK 927      BINDING AFFINITY PREDICTED BY RF-SCORE:    0.00 PKD
ROOT
HETATM    1  C   UNL     1     -10.660  16.340  67.709  1.00  0.00    -0.314 C  
HETATM    2  C   UNL     1     -10.087  15.047  67.158  1.00  0.00    -0.239 C  
ENDROOT
BRANCH   2   3
HETATM    3  C   UNL     1     -10.826  14.612  65.896  1.00  0.00    -0.312 C  
BRANCH   3   4
HETATM    4  C   UNL     1     -12.197  14.042  66.240  1.00  0.00    -0.493 C  
BRANCH   4   5
HETATM    5  C   UNL     1     -12.766  13.246  65.072  1.00  0.00    -0.438 C  
BRANCH   5   6
HETATM    6  C   UNL     1     -11.808  13.287  63.889  1.00  0.00    -0.522 C  
BRANCH   6   7
HETATM    7  C   UNL     1     -11.374  11.883  63.500  1.00  0.00    -0.516 C  
BRANCH   7   8
HETATM    8  C   UNL     1      -9.912  11.650  63.866  1.00  0.00    -0.358 C  
BRANCH   8   9
HETATM    9  C   UNL     1      -9.828  10.629  64.989  1.00  0.00    -0.353 C  
BRANCH   9  10
HETATM   10  C   UNL     1      -9.575  11.289  66.341  1.00  0.00    -0.223 C  
BRANCH  10  11
HETATM   11  C   UNL     1     -10.585  10.823  67.403  1.00  0.00    -0.287 C  
BRANCH  11  12
HETATM   12  C   UNL     1     -10.022  11.013  68.813  1.00  0.00    -0.207 C  
BRANCH  12  13
HETATM   13  N   UNL     1     -10.025   9.743  69.679  1.00  0.00    -0.209 N  
HETATM   14  C   UNL     1     -10.297   8.496  68.844  1.00  0.00    -0.210 C  
HETATM   15  C   UNL     1      -8.676   9.583  70.386  1.00  0.00    -0.223 C  
BRANCH  13  16
HETATM   16  C   UNL     1     -11.115   9.884  70.803  1.00  0.00    -0.347 C  
BRANCH  16  17
HETATM   17  C   UNL     1     -12.147  10.976  70.496  1.00  0.00    -0.377 C  
BRANCH  17  18
HETATM   18  O   UNL     1     -12.711  11.513  71.689  1.00  0.00    -0.353 OA 
BRANCH  18  19
HETATM   19  C   UNL     1     -12.981  12.860  71.590  1.00  0.00    -0.313 A  
HETATM   20  C   UNL     1     -12.289  13.547  70.595  1.00  0.00    -0.432 A  
HETATM   21  C   UNL     1     -12.459  14.926  70.448  1.00  0.00    -0.403 A  
HETATM   22  C   UNL     1     -13.332  15.621  71.285  1.00  0.00    -0.485 A  
HETATM   23  C   UNL     1     -14.053  14.933  72.258  1.00  0.00    -0.600 A  
HETATM   24  C   UNL     1     -13.884  13.557  72.403  1.00  0.00    -0.687 A  
ENDBRANCH  18  19
ENDBRANCH  17  18
ENDBRANCH  16  17
ENDBRANCH  13  16
ENDBRANCH  12  13
ENDBRANCH  11  12
ENDBRANCH  10  11
ENDBRANCH   9  10
ENDBRANCH   8   9
ENDBRANCH   7   8
ENDBRANCH   6   7
ENDBRANCH   5   6
ENDBRANCH   4   5
ENDBRANCH   3   4
ENDBRANCH   2   3
TORSDOF 15
ENDMDL
MODEL       13
REMARK 921   NORMALIZED FREE ENERGY PREDICTED BY IDOCK:   -5.33 KCAL/MOL
REMARK 922        TOTAL FREE ENERGY PREDICTED BY IDOCK:  -11.12 KCAL/MOL
REMARK 923 INTER-LIGAND FREE ENERGY PREDICTED BY IDOCK:   -9.37 KCAL/MOL
REMARK 924 INTRA-LIGAND FREE ENERGY PREDICTED BY IDOCK:   -1.75 KCAL/MOL
REMARK 927      BINDING AFFINITY PREDICTED BY RF-SCORE:    0.00 PKD
ROOT
HETATM    1  C   UNL     1     -11.091  10.815  68.401  1.00  0.00    -0.323 C  
HETATM    2  C   UNL     1     -11.699  11.551  69.581  1.00  0.00    -0.419 C  
ENDROOT
BRANCH   2   3
HETATM    3  C   UNL     1     -12.050  10.586  70.709  1.00  0.00    -0.470 C  
BRANCH   3   4
HETATM    4  C   UNL     1     -12.982  11.247  71.718  1.00  0.00    -0.519 C  
BRANCH   4   5
HETATM    5  C   UNL     1     -12.964  12.763  71.566  1.00  0.00    -0.388 C  
BRANCH   5   6
HETATM    6  C   UNL     1     -14.033  13.394  72.448  1.00  0.00    -0.605 C  
BRANCH   6   7
HETATM    7  C   UNL     1     -13.901  14.909  72.451  1.00  0.00    -0.587 C  
BRANCH   7   8
HETATM    8  C   UNL     1     -12.472  15.324  72.782  1.00  0.00    -0.490 C  
BRANCH   8   9
HETATM    9  C   UNL     1     -11.970  16.296  71.726  1.00  0.00    -0.473 C  
BRANCH   9  10
HETATM   10  C   UNL     1     -10.994  15.633  70.759  1.00  0.00    -0.343 C  
BRANCH  10  11
HETATM   11  C   UNL     1     -10.952  16.358  69.403  1.00  0.00    -0.325 C  
BRANCH  11  12
HETATM   12  C   UNL     1      -9.511  16.531  68.921  1.00  0.00    -0.260 C  
BRANCH  12  13
HETATM   13  N   UNL     1      -9.274  17.774  68.049  1.00  0.00    -0.266 N  
HETATM   14  C   UNL     1     -10.585  18.460  67.683  1.00  0.00    -0.408 C  
HETATM   15  C   UNL     1      -8.378  18.774  68.787  1.00  0.00    -0.287 C  
BRANCH  13  16
HETATM   16  C   UNL     1      -8.507  17.353  66.743  1.00  0.00    -0.254 C  
BRANCH  16  17
HETATM   17  C   UNL     1      -8.852  15.932  66.283  1.00  0.00    -0.351 C  
BRANCH  17  18
HETATM   18  O   UNL     1      -9.887  15.936  65.303  1.00  0.00    -0.408 OA 
BRANCH  18  19
HETATM   19  C   UNL     1     -10.597  14.756  65.274  1.00  0.00    -0.395 A  
HETATM   20  C   UNL     1     -11.658  14.664  66.172  1.00  0.00    -0.332 A  
HETATM   21  C   UNL     1     -12.409  13.488  66.252  1.00  0.00    -0.440 A  
HETATM   22  C   UNL     1     -12.110  12.406  65.425  1.00  0.00    -0.428 A  
HETATM   23  C   UNL     1     -11.073  12.506  64.501  1.00  0.00    -0.357 A  
HETATM   24  C   UNL     1     -10.326  13.680  64.420  1.00  0.00    -0.242 A  
ENDBRANCH  18  19
ENDBRANCH  17  18
ENDBRANCH  16  17
ENDBRANCH  13  16
ENDBRANCH  12  13
ENDBRANCH  11  12
ENDBRANCH  10  11
ENDBRANCH   9  10
ENDBRANCH   8   9
ENDBRANCH   7   8
ENDBRANCH   6   7
ENDBRANCH   5   6
ENDBRANCH   4   5
ENDBRANCH   3   4
ENDBRANCH   2   3
TORSDOF 15
ENDMDL
MODEL       14
REMARK 921   NORMALIZED FREE ENERGY PREDICTED BY IDOCK:   -5.32 KCAL/MOL
REMARK 922        TOTAL FREE ENERGY PREDICTED BY IDOCK:  -11.10 KCAL/MOL
REMARK 923 INTER-LIGAND FREE ENERGY PREDICTED BY IDOCK:   -9.44 KCAL/MOL
REMARK 924 INTRA-LIGAND FREE ENERGY PREDICTED BY IDOCK:   -1.66 KCAL/MOL
REMARK 927      BINDING AFFINITY PREDICTED BY RF-SCORE:    0.00 PKD
ROOT
HETATM    1  C   UNL     1      -8.611  10.806  62.885  1.00  0.00    -0.201 C  
HETATM    2  C   UNL     1      -9.156  10.478  64.263  1.00  0.00    -0.256 C  
ENDROOT
BRANCH   2   3
HETATM    3  C   UNL     1     -10.586  10.984  64.423  1.00  0.00    -0.395 C  
BRANCH   3   4
HETATM    4  C   UNL     1     -10.883  12.093  63.421  1.00  0.00    -0.474 C  
BRANCH   4   5
HETATM    5  C   UNL     1     -12.301  12.624  63.599  1.00  0.00    -0.584 C  
BRANCH   5   6
HETATM    6  C   UNL     1     -12.656  12.694  65.078  1.00  0.00    -0.504 C  
BRANCH   6   7
HETATM    7  C   UNL     1     -12.657  14.136  65.562  1.00  0.00    -0.501 C  
BRANCH   7   8
HETATM    8  C   UNL     1     -11.870  14.267  66.861  1.00  0.00    -0.458 C  
BRANCH   8   9
HETATM    9  C   UNL     1     -10.382  14.177  66.563  1.00  0.00    -0.284 C  
BRANCH   9  10
HETATM   10  C   UNL     1      -9.939  15.229  65.552  1.00  0.00    -0.383 C  
BRANCH  10  11
HETATM   11  C   UNL     1      -8.787  16.094  66.094  1.00  0.00    -0.367 C  
BRANCH  11  12
HETATM   12  C   UNL     1      -9.281  17.493  66.464  1.00  0.00    -0.267 C  
BRANCH  12  13
HETATM   13  N   UNL     1      -8.989  17.912  67.913  1.00  0.00    -0.259 N  
HETATM   14  C   UNL     1      -7.978  16.980  68.573  1.00  0.00    -0.249 C  
HETATM   15  C   UNL     1      -8.442  19.343  67.950  1.00  0.00    -0.313 C  
BRANCH  13  16
HETATM   16  C   UNL     1     -10.330  17.915  68.733  1.00  0.00    -0.307 C  
BRANCH  16  17
HETATM   17  C   UNL     1     -10.458  16.706  69.667  1.00  0.00    -0.237 C  
BRANCH  17  18
HETATM   18  O   UNL     1     -11.721  16.063  69.519  1.00  0.00    -0.325 OA 
BRANCH  18  19
HETATM   19  C   UNL     1     -12.235  15.617  70.717  1.00  0.00    -0.418 A  
HETATM   20  C   UNL     1     -11.783  16.281  71.856  1.00  0.00    -0.518 A  
HETATM   21  C   UNL     1     -12.209  15.870  73.121  1.00  0.00    -0.622 A  
HETATM   22  C   UNL     1     -13.099  14.804  73.252  1.00  0.00    -0.550 A  
HETATM   23  C   UNL     1     -13.581  14.161  72.116  1.00  0.00    -0.568 A  
HETATM   24  C   UNL     1     -13.157  14.572  70.853  1.00  0.00    -0.405 A  
ENDBRANCH  18  19
ENDBRANCH  17  18
ENDBRANCH  16  17
ENDBRANCH  13  16
ENDBRANCH  12  13
ENDBRANCH  11  12
ENDBRANCH  10  11
ENDBRANCH   9  10
ENDBRANCH   8   9
ENDBRANCH   7   8
ENDBRANCH   6   7
ENDBRANCH   5   6
ENDBRANCH   4   5
ENDBRANCH   3   4
ENDBRANCH   2   3
TORSDOF 15
ENDMDL
MODEL       15
REMARK 921   NORMALIZED FREE ENERGY PREDICTED BY IDOCK:   -5.32 KCAL/MOL
REMARK 922        TOTAL FREE ENERGY PREDICTED BY IDOCK:  -11.10 KCAL/MOL
REMARK 923 INTER-LIGAND FREE ENERGY PREDICTED BY IDOCK:   -9.24 KCAL/MOL
REMARK 924 INTRA-LIGAND FREE ENERGY PREDICTED BY IDOCK:   -1.86 KCAL/MOL
REMARK 927      BINDING AFFINITY PREDICTED BY RF-SCORE:    0.00 PKD
ROOT
HETATM    1  C   UNL     1     -11.925   6.878  72.078  1.00  0.00    -0.342 C  
HETATM    2  C   UNL     1     -10.925   7.859  72.664  1.00  0.00    -0.440 C  
ENDROOT
BRANCH   2   3
HETATM    3  C   UNL     1     -10.744   9.069  71.752  1.00  0.00    -0.437 C  
BRANCH   3   4
HETATM    4  C   UNL     1     -12.084   9.735  71.462  1.00  0.00    -0.493 C  
BRANCH   4   5
HETATM    5  C   UNL     1     -12.041  10.498  70.144  1.00  0.00    -0.380 C  
BRANCH   5   6
HETATM    6  C   UNL     1     -10.649  10.412  69.530  1.00  0.00    -0.274 C  
BRANCH   6   7
HETATM    7  C   UNL     1     -10.538  11.328  68.321  1.00  0.00    -0.228 C  
BRANCH   7   8
HETATM    8  C   UNL     1     -11.908  11.874  67.933  1.00  0.00    -0.308 C  
BRANCH   8   9
HETATM    9  C   UNL     1     -11.770  12.758  66.704  1.00  0.00    -0.459 C  
BRANCH   9  10
HETATM   10  C   UNL     1     -10.310  13.046  66.371  1.00  0.00    -0.287 C  
BRANCH  10  11
HETATM   11  C   UNL     1     -10.162  14.277  65.460  1.00  0.00    -0.379 C  
BRANCH  11  12
HETATM   12  C   UNL     1     -10.873  15.490  66.062  1.00  0.00    -0.300 C  
BRANCH  12  13
HETATM   13  N   UNL     1      -9.933  16.565  66.631  1.00  0.00    -0.263 N  
HETATM   14  C   UNL     1      -8.485  16.313  66.227  1.00  0.00    -0.334 C  
HETATM   15  C   UNL     1     -10.354  17.951  66.133  1.00  0.00    -0.352 C  
BRANCH  13  16
HETATM   16  C   UNL     1     -10.058  16.586  68.198  1.00  0.00    -0.255 C  
BRANCH  16  17
HETATM   17  C   UNL     1     -11.329  15.893  68.703  1.00  0.00    -0.376 C  
BRANCH  17  18
HETATM   18  O   UNL     1     -11.023  14.801  69.564  1.00  0.00    -0.257 OA 
BRANCH  18  19
HETATM   19  C   UNL     1     -11.789  14.795  70.709  1.00  0.00    -0.312 A  
HETATM   20  C   UNL     1     -11.543  15.829  71.610  1.00  0.00    -0.537 A  
HETATM   21  C   UNL     1     -12.235  15.882  72.822  1.00  0.00    -0.604 A  
HETATM   22  C   UNL     1     -13.186  14.910  73.132  1.00  0.00    -0.568 A  
HETATM   23  C   UNL     1     -13.462  13.895  72.220  1.00  0.00    -0.623 A  
HETATM   24  C   UNL     1     -12.772  13.844  71.010  1.00  0.00    -0.428 A  
ENDBRANCH  18  19
ENDBRANCH  17  18
ENDBRANCH  16  17
ENDBRANCH  13  16
ENDBRANCH  12  13
ENDBRANCH  11  12
ENDBRANCH  10  11
ENDBRANCH   9  10
ENDBRANCH   8   9
ENDBRANCH   7   8
ENDBRANCH   6   7
ENDBRANCH   5   6
ENDBRANCH   4   5
ENDBRANCH   3   4
ENDBRANCH   2   3
TORSDOF 15
ENDMDL
MODEL       16
REMARK 921   NORMALIZED FREE ENERGY PREDICTED BY IDOCK:   -5.31 KCAL/MOL
REMARK 922        TOTAL FREE ENERGY PREDICTED BY IDOCK:  -11.10 KCAL/MOL
REMARK 923 INTER-LIGAND FREE ENERGY PREDICTED BY IDOCK:   -9.94 KCAL/MOL
REMARK 924 INTRA-LIGAND FREE ENERGY PREDICTED BY IDOCK:   -1.16 KCAL/MOL
REMARK 927      BINDING AFFINITY PREDICTED BY RF-SCORE:    0.00 PKD
ROOT
HETATM    1  C   UNL     1     -10.416   5.146  69.840  1.00  0.00    -0.296 C  
HETATM    2  C   UNL     1     -10.930   6.558  69.624  1.00  0.00    -0.394 C  
ENDROOT
BRANCH   2   3
HETATM    3  C   UNL     1     -11.524   7.129  70.908  1.00  0.00    -0.333 C  
BRANCH   3   4
HETATM    4  C   UNL     1     -10.587   8.159  71.527  1.00  0.00    -0.282 C  
BRANCH   4   5
HETATM    5  C   UNL     1     -10.975   9.572  71.107  1.00  0.00    -0.438 C  
BRANCH   5   6
HETATM    6  C   UNL     1     -12.375   9.906  71.606  1.00  0.00    -0.496 C  
BRANCH   6   7
HETATM    7  C   UNL     1     -12.763  11.321  71.210  1.00  0.00    -0.510 C  
BRANCH   7   8
HETATM    8  C   UNL     1     -11.992  11.763  69.971  1.00  0.00    -0.421 C  
BRANCH   8   9
HETATM    9  C   UNL     1     -11.971  13.282  69.903  1.00  0.00    -0.400 C  
BRANCH   9  10
HETATM   10  C   UNL     1     -11.875  13.786  68.466  1.00  0.00    -0.406 C  
BRANCH  10  11
HETATM   11  C   UNL     1     -11.560  12.648  67.481  1.00  0.00    -0.418 C  
BRANCH  11  12
HETATM   12  C   UNL     1     -10.605  13.123  66.384  1.00  0.00    -0.286 C  
BRANCH  12  13
HETATM   13  N   UNL     1     -11.249  13.274  64.997  1.00  0.00    -0.298 N  
HETATM   14  C   UNL     1     -10.400  12.623  63.911  1.00  0.00    -0.377 C  
HETATM   15  C   UNL     1     -12.642  12.636  64.989  1.00  0.00    -0.430 C  
BRANCH  13  16
HETATM   16  C   UNL     1     -11.446  14.802  64.680  1.00  0.00    -0.381 C  
BRANCH  16  17
HETATM   17  C   UNL     1     -10.346  15.680  65.288  1.00  0.00    -0.375 C  
BRANCH  17  18
HETATM   18  O   UNL     1     -10.623  17.066  65.105  1.00  0.00    -0.688 OA 
BRANCH  18  19
HETATM   19  C   UNL     1     -10.466  17.797  66.262  1.00  0.00    -0.307 A  
HETATM   20  C   UNL     1     -10.316  19.172  66.096  1.00  0.00    -0.561 A  
HETATM   21  C   UNL     1     -10.102  19.993  67.206  1.00  0.00    -0.577 A  
HETATM   22  C   UNL     1     -10.051  19.444  68.487  1.00  0.00    -0.527 A  
HETATM   23  C   UNL     1     -10.235  18.075  68.662  1.00  0.00    -0.385 A  
HETATM   24  C   UNL     1     -10.451  17.257  67.554  1.00  0.00    -0.356 A  
ENDBRANCH  18  19
ENDBRANCH  17  18
ENDBRANCH  16  17
ENDBRANCH  13  16
ENDBRANCH  12  13
ENDBRANCH  11  12
ENDBRANCH  10  11
ENDBRANCH   9  10
ENDBRANCH   8   9
ENDBRANCH   7   8
ENDBRANCH   6   7
ENDBRANCH   5   6
ENDBRANCH   4   5
ENDBRANCH   3   4
ENDBRANCH   2   3
TORSDOF 15
ENDMDL
MODEL       17
REMARK 921   NORMALIZED FREE ENERGY PREDICTED BY IDOCK:   -5.31 KCAL/MOL
REMARK 922        TOTAL FREE ENERGY PREDICTED BY IDOCK:  -11.09 KCAL/MOL
REMARK 923 INTER-LIGAND FREE ENERGY PREDICTED BY IDOCK:   -9.02 KCAL/MOL
REMARK 924 INTRA-LIGAND FREE ENERGY PREDICTED BY IDOCK:   -2.07 KCAL/MOL
REMARK 927      BINDING AFFINITY PREDICTED BY RF-SCORE:    0.00 PKD
ROOT
HETATM    1  C   UNL     1     -10.545  11.747  63.567  1.00  0.00    -0.499 C  
HETATM    2  C   UNL     1     -11.786  12.616  63.469  1.00  0.00    -0.619 C  
ENDROOT
BRANCH   2   3
HETATM    3  C   UNL     1     -12.604  12.553  64.755  1.00  0.00    -0.493 C  
BRANCH   3   4
HETATM    4  C   UNL     1     -12.552  13.884  65.497  1.00  0.00    -0.560 C  
BRANCH   4   5
HETATM    5  C   UNL     1     -12.247  13.673  66.975  1.00  0.00    -0.373 C  
BRANCH   5   6
HETATM    6  C   UNL     1     -11.650  12.289  67.199  1.00  0.00    -0.423 C  
BRANCH   6   7
HETATM    7  C   UNL     1     -10.345  12.387  67.973  1.00  0.00    -0.220 C  
BRANCH   7   8
HETATM    8  C   UNL     1      -9.153  12.363  67.022  1.00  0.00    -0.207 C  
BRANCH   8   9
HETATM    9  C   UNL     1      -8.858  13.775  66.544  1.00  0.00    -0.006 C  
BRANCH   9  10
HETATM   10  C   UNL     1      -7.689  14.399  67.301  1.00  0.00    -0.164 C  
BRANCH  10  11
HETATM   11  C   UNL     1      -7.587  15.913  67.049  1.00  0.00    -0.264 C  
BRANCH  11  12
HETATM   12  C   UNL     1      -8.913  16.471  66.528  1.00  0.00    -0.278 C  
BRANCH  12  13
HETATM   13  N   UNL     1      -9.509  17.602  67.381  1.00  0.00    -0.253 N  
HETATM   14  C   UNL     1      -8.550  18.038  68.483  1.00  0.00    -0.297 C  
HETATM   15  C   UNL     1      -9.835  18.812  66.500  1.00  0.00    -0.368 C  
BRANCH  13  16
HETATM   16  C   UNL     1     -10.865  17.118  68.011  1.00  0.00    -0.317 C  
BRANCH  16  17
HETATM   17  C   UNL     1     -10.669  16.057  69.100  1.00  0.00    -0.272 C  
BRANCH  17  18
HETATM   18  O   UNL     1     -10.925  16.587  70.398  1.00  0.00    -0.309 OA 
BRANCH  18  19
HETATM   19  C   UNL     1     -11.704  15.753  71.169  1.00  0.00    -0.428 A  
HETATM   20  C   UNL     1     -12.147  14.588  70.546  1.00  0.00    -0.395 A  
HETATM   21  C   UNL     1     -12.983  13.702  71.230  1.00  0.00    -0.399 A  
HETATM   22  C   UNL     1     -13.367  13.970  72.544  1.00  0.00    -0.639 A  
HETATM   23  C   UNL     1     -12.898  15.114  73.183  1.00  0.00    -0.606 A  
HETATM   24  C   UNL     1     -12.062  15.997  72.501  1.00  0.00    -0.635 A  
ENDBRANCH  18  19
ENDBRANCH  17  18
ENDBRANCH  16  17
ENDBRANCH  13  16
ENDBRANCH  12  13
ENDBRANCH  11  12
ENDBRANCH  10  11
ENDBRANCH   9  10
ENDBRANCH   8   9
ENDBRANCH   7   8
ENDBRANCH   6   7
ENDBRANCH   5   6
ENDBRANCH   4   5
ENDBRANCH   3   4
ENDBRANCH   2   3
TORSDOF 15
ENDMDL
MODEL       18
REMARK 921   NORMALIZED FREE ENERGY PREDICTED BY IDOCK:   -5.28 KCAL/MOL
REMARK 922        TOTAL FREE ENERGY PREDICTED BY IDOCK:  -11.03 KCAL/MOL
REMARK 923 INTER-LIGAND FREE ENERGY PREDICTED BY IDOCK:   -9.87 KCAL/MOL
REMARK 924 INTRA-LIGAND FREE ENERGY PREDICTED BY IDOCK:   -1.17 KCAL/MOL
REMARK 927      BINDING AFFINITY PREDICTED BY RF-SCORE:    0.00 PKD
ROOT
HETATM    1  C   UNL     1     -10.787   7.379  69.915  1.00  0.00    -0.259 C  
HETATM    2  C   UNL     1     -11.651   7.648  71.134  1.00  0.00    -0.301 C  
ENDROOT
BRANCH   2   3
HETATM    3  C   UNL     1     -11.304   8.991  71.768  1.00  0.00    -0.447 C  
BRANCH   3   4
HETATM    4  C   UNL     1     -11.859  10.142  70.937  1.00  0.00    -0.468 C  
BRANCH   4   5
HETATM    5  C   UNL     1     -12.982  10.858  71.677  1.00  0.00    -0.569 C  
BRANCH   5   6
HETATM    6  C   UNL     1     -12.921  12.356  71.408  1.00  0.00    -0.348 C  
BRANCH   6   7
HETATM    7  C   UNL     1     -13.738  13.120  72.437  1.00  0.00    -0.640 C  
BRANCH   7   8
HETATM    8  C   UNL     1     -14.043  14.530  71.943  1.00  0.00    -0.595 C  
BRANCH   8   9
HETATM    9  C   UNL     1     -13.271  15.538  72.779  1.00  0.00    -0.605 C  
BRANCH   9  10
HETATM   10  C   UNL     1     -12.030  16.048  72.052  1.00  0.00    -0.622 C  
BRANCH  10  11
HETATM   11  C   UNL     1     -12.131  15.838  70.531  1.00  0.00    -0.407 C  
BRANCH  11  12
HETATM   12  C   UNL     1     -10.876  15.152  69.990  1.00  0.00    -0.254 C  
BRANCH  12  13
HETATM   13  N   UNL     1     -10.276  15.811  68.739  1.00  0.00    -0.210 N  
HETATM   14  C   UNL     1     -10.859  17.200  68.504  1.00  0.00    -0.281 C  
HETATM   15  C   UNL     1      -8.755  15.929  68.881  1.00  0.00    -0.225 C  
BRANCH  13  16
HETATM   16  C   UNL     1     -10.548  14.897  67.489  1.00  0.00    -0.266 C  
BRANCH  16  17
HETATM   17  C   UNL     1     -10.813  13.436  67.869  1.00  0.00    -0.247 C  
BRANCH  17  18
HETATM   18  O   UNL     1     -11.990  12.937  67.238  1.00  0.00    -0.372 OA 
BRANCH  18  19
HETATM   19  C   UNL     1     -11.759  12.495  65.954  1.00  0.00    -0.426 A  
HETATM   20  C   UNL     1     -10.666  11.647  65.791  1.00  0.00    -0.331 A  
HETATM   21  C   UNL     1     -10.321  11.184  64.519  1.00  0.00    -0.400 A  
HETATM   22  C   UNL     1     -11.076  11.557  63.406  1.00  0.00    -0.370 A  
HETATM   23  C   UNL     1     -12.190  12.376  63.569  1.00  0.00    -0.661 A  
HETATM   24  C   UNL     1     -12.535  12.836  64.839  1.00  0.00    -0.563 A  
ENDBRANCH  18  19
ENDBRANCH  17  18
ENDBRANCH  16  17
ENDBRANCH  13  16
ENDBRANCH  12  13
ENDBRANCH  11  12
ENDBRANCH  10  11
ENDBRANCH   9  10
ENDBRANCH   8   9
ENDBRANCH   7   8
ENDBRANCH   6   7
ENDBRANCH   5   6
ENDBRANCH   4   5
ENDBRANCH   3   4
ENDBRANCH   2   3
TORSDOF 15
ENDMDL
MODEL       19
REMARK 921   NORMALIZED FREE ENERGY PREDICTED BY IDOCK:   -5.28 KCAL/MOL
REMARK 922        TOTAL FREE ENERGY PREDICTED BY IDOCK:  -11.03 KCAL/MOL
REMARK 923 INTER-LIGAND FREE ENERGY PREDICTED BY IDOCK:   -8.84 KCAL/MOL
REMARK 924 INTRA-LIGAND FREE ENERGY PREDICTED BY IDOCK:   -2.19 KCAL/MOL
REMARK 927      BINDING AFFINITY PREDICTED BY RF-SCORE:    0.00 PKD
ROOT
HETATM    1  C   UNL     1     -10.210   9.965  66.833  1.00  0.00    -0.302 C  
HETATM    2  C   UNL     1      -9.505   9.204  65.725  1.00  0.00    -0.322 C  
ENDROOT
BRANCH   2   3
HETATM    3  C   UNL     1      -9.142  10.129  64.568  1.00  0.00    -0.280 C  
BRANCH   3   4
HETATM    4  C   UNL     1      -9.987  11.397  64.602  1.00  0.00    -0.315 C  
BRANCH   4   5
HETATM    5  C   UNL     1     -10.785  11.556  63.314  1.00  0.00    -0.374 C  
BRANCH   5   6
HETATM    6  C   UNL     1     -12.082  12.308  63.585  1.00  0.00    -0.648 C  
BRANCH   6   7
HETATM    7  C   UNL     1     -12.294  12.490  65.080  1.00  0.00    -0.496 C  
BRANCH   7   8
HETATM    8  C   UNL     1     -12.699  13.926  65.395  1.00  0.00    -0.525 C  
BRANCH   8   9
HETATM    9  C   UNL     1     -11.822  14.884  64.605  1.00  0.00    -0.412 C  
BRANCH   9  10
HETATM   10  C   UNL     1     -10.466  15.097  65.272  1.00  0.00    -0.434 C  
BRANCH  10  11
HETATM   11  C   UNL     1     -10.265  16.559  65.704  1.00  0.00    -0.316 C  
BRANCH  11  12
HETATM   12  C   UNL     1      -8.987  16.713  66.531  1.00  0.00    -0.277 C  
BRANCH  12  13
HETATM   13  N   UNL     1      -9.209  17.236  67.959  1.00  0.00    -0.250 N  
HETATM   14  C   UNL     1      -7.941  17.859  68.531  1.00  0.00    -0.298 C  
HETATM   15  C   UNL     1     -10.327  18.284  67.971  1.00  0.00    -0.391 C  
BRANCH  13  16
HETATM   16  C   UNL     1      -9.686  16.051  68.877  1.00  0.00    -0.232 C  
BRANCH  16  17
HETATM   17  C   UNL     1     -11.156  16.178  69.294  1.00  0.00    -0.327 C  
BRANCH  17  18
HETATM   18  O   UNL     1     -11.974  15.226  68.621  1.00  0.00    -0.320 OA 
BRANCH  18  19
HETATM   19  C   UNL     1     -12.118  14.052  69.327  1.00  0.00    -0.338 A  
HETATM   20  C   UNL     1     -12.674  14.174  70.599  1.00  0.00    -0.389 A  
HETATM   21  C   UNL     1     -12.815  13.046  71.412  1.00  0.00    -0.385 A  
HETATM   22  C   UNL     1     -12.414  11.792  70.952  1.00  0.00    -0.416 A  
HETATM   23  C   UNL     1     -11.891  11.660  69.668  1.00  0.00    -0.419 A  
HETATM   24  C   UNL     1     -11.752  12.785  68.857  1.00  0.00    -0.370 A  
ENDBRANCH  18  19
ENDBRANCH  17  18
ENDBRANCH  16  17
ENDBRANCH  13  16
ENDBRANCH  12  13
ENDBRANCH  11  12
ENDBRANCH  10  11
ENDBRANCH   9  10
ENDBRANCH   8   9
ENDBRANCH   7   8
ENDBRANCH   6   7
ENDBRANCH   5   6
ENDBRANCH   4   5
ENDBRANCH   3   4
ENDBRANCH   2   3
TORSDOF 15
ENDMDL
MODEL       20
REMARK 921   NORMALIZED FREE ENERGY PREDICTED BY IDOCK:   -5.26 KCAL/MOL
REMARK 922        TOTAL FREE ENERGY PREDICTED BY IDOCK:  -11.00 KCAL/MOL
REMARK 923 INTER-LIGAND FREE ENERGY PREDICTED BY IDOCK:   -9.56 KCAL/MOL
REMARK 924 INTRA-LIGAND FREE ENERGY PREDICTED BY IDOCK:   -1.44 KCAL/MOL
REMARK 927      BINDING AFFINITY PREDICTED BY RF-SCORE:    0.00 PKD
ROOT
HETATM    1  C   UNL     1     -11.685  15.022  69.941  1.00  0.00    -0.343 C  
HETATM    2  C   UNL     1     -12.789  15.578  70.823  1.00  0.00    -0.513 C  
ENDROOT
BRANCH   2   3
HETATM    3  C   UNL     1     -13.457  14.470  71.630  1.00  0.00    -0.452 C  
BRANCH   3   4
HETATM    4  C   UNL     1     -12.695  13.158  71.484  1.00  0.00    -0.366 C  
BRANCH   4   5
HETATM    5  C   UNL     1     -13.523  11.986  71.999  1.00  0.00    -0.364 C  
BRANCH   5   6
HETATM    6  C   UNL     1     -12.951  10.671  71.486  1.00  0.00    -0.566 C  
BRANCH   6   7
HETATM    7  C   UNL     1     -12.180  10.888  70.193  1.00  0.00    -0.423 C  
BRANCH   7   8
HETATM    8  C   UNL     1     -10.815  10.213  70.262  1.00  0.00    -0.370 C  
BRANCH   8   9
HETATM    9  C   UNL     1     -10.065  10.456  68.962  1.00  0.00    -0.227 C  
BRANCH   9  10
HETATM   10  C   UNL     1     -11.014  10.716  67.797  1.00  0.00    -0.364 C  
BRANCH  10  11
HETATM   11  C   UNL     1     -10.453  11.767  66.824  1.00  0.00    -0.260 C  
BRANCH  11  12
HETATM   12  C   UNL     1     -11.581  12.479  66.077  1.00  0.00    -0.406 C  
BRANCH  12  13
HETATM   13  N   UNL     1     -11.126  13.289  64.853  1.00  0.00    -0.315 N  
HETATM   14  C   UNL     1     -10.344  12.426  63.869  1.00  0.00    -0.423 C  
HETATM   15  C   UNL     1     -12.340  13.886  64.134  1.00  0.00    -0.335 C  
BRANCH  13  16
HETATM   16  C   UNL     1     -10.240  14.496  65.330  1.00  0.00    -0.389 C  
BRANCH  16  17
HETATM   17  C   UNL     1     -11.061  15.758  65.621  1.00  0.00    -0.155 C  
BRANCH  17  18
HETATM   18  O   UNL     1     -10.333  16.941  65.303  1.00  0.00    -0.624 OA 
BRANCH  18  19
HETATM   19  C   UNL     1     -10.201  17.791  66.379  1.00  0.00    -0.365 A  
HETATM   20  C   UNL     1     -10.453  19.137  66.123  1.00  0.00    -0.558 A  
HETATM   21  C   UNL     1     -10.299  20.084  67.140  1.00  0.00    -0.554 A  
HETATM   22  C   UNL     1      -9.907  19.686  68.418  1.00  0.00    -0.531 A  
HETATM   23  C   UNL     1      -9.689  18.337  68.687  1.00  0.00    -0.379 A  
HETATM   24  C   UNL     1      -9.845  17.393  67.674  1.00  0.00    -0.282 A  
ENDBRANCH  18  19
ENDBRANCH  17  18
ENDBRANCH  16  17
ENDBRANCH  13  16
ENDBRANCH  12  13
ENDBRANCH  11  12
ENDBRANCH  10  11
ENDBRANCH   9  10
ENDBRANCH   8   9
ENDBRANCH   7   8
ENDBRANCH   6   7
ENDBRANCH   5   6
ENDBRANCH   4   5
ENDBRANCH   3   4
ENDBRANCH   2   3
TORSDOF 15
ENDMDL
MODEL       21
REMARK 921   NORMALIZED FREE ENERGY PREDICTED BY IDOCK:   -5.24 KCAL/MOL
REMARK 922        TOTAL FREE ENERGY PREDICTED BY IDOCK:  -10.97 KCAL/MOL
REMARK 923 INTER-LIGAND FREE ENERGY PREDICTED BY IDOCK:   -9.68 KCAL/MOL
REMARK 924 INTRA-LIGAND FREE ENERGY PREDICTED BY IDOCK:   -1.28 KCAL/MOL
REMARK 927      BINDING AFFINITY PREDICTED BY RF-SCORE:    0.00 PKD
ROOT
HETATM    1  C   UNL     1      -9.987   7.264  69.427  1.00  0.00    -0.170 C  
HETATM    2  C   UNL     1     -11.106   6.281  69.723  1.00  0.00    -0.473 C  
ENDROOT
BRANCH   2   3
HETATM    3  C   UNL     1     -11.384   6.201  71.221  1.00  0.00    -0.335 C  
BRANCH   3   4
HETATM    4  C   UNL     1     -12.601   7.040  71.592  1.00  0.00    -0.419 C  
BRANCH   4   5
HETATM    5  C   UNL     1     -12.183   8.421  72.083  1.00  0.00    -0.434 C  
BRANCH   5   6
HETATM    6  C   UNL     1     -13.372   9.373  72.056  1.00  0.00    -0.525 C  
BRANCH   6   7
HETATM    7  C   UNL     1     -12.993  10.686  71.390  1.00  0.00    -0.545 C  
BRANCH   7   8
HETATM    8  C   UNL     1     -11.724  10.522  70.560  1.00  0.00    -0.443 C  
BRANCH   8   9
HETATM    9  C   UNL     1     -11.772  11.466  69.370  1.00  0.00    -0.406 C  
BRANCH   9  10
HETATM   10  C   UNL     1     -11.751  12.928  69.802  1.00  0.00    -0.351 C  
BRANCH  10  11
HETATM   11  C   UNL     1     -11.633  13.879  68.598  1.00  0.00    -0.363 C  
BRANCH  11  12
HETATM   12  C   UNL     1     -11.755  13.111  67.281  1.00  0.00    -0.374 C  
BRANCH  12  13
HETATM   13  N   UNL     1     -10.583  13.319  66.308  1.00  0.00    -0.286 N  
HETATM   14  C   UNL     1      -9.275  13.563  67.051  1.00  0.00    -0.246 C  
HETATM   15  C   UNL     1     -10.421  12.092  65.406  1.00  0.00    -0.270 C  
BRANCH  13  16
HETATM   16  C   UNL     1     -10.901  14.538  65.367  1.00  0.00    -0.354 C  
BRANCH  16  17
HETATM   17  C   UNL     1      -9.879  15.674  65.501  1.00  0.00    -0.291 C  
BRANCH  17  18
HETATM   18  O   UNL     1     -10.449  16.934  65.157  1.00  0.00    -0.663 OA 
BRANCH  18  19
HETATM   19  C   UNL     1     -10.340  17.862  66.169  1.00  0.00    -0.352 A  
HETATM   20  C   UNL     1     -10.239  17.344  67.459  1.00  0.00    -0.332 A  
HETATM   21  C   UNL     1     -10.172  18.206  68.557  1.00  0.00    -0.399 A  
HETATM   22  C   UNL     1     -10.191  19.589  68.368  1.00  0.00    -0.536 A  
HETATM   23  C   UNL     1     -10.256  20.110  67.078  1.00  0.00    -0.558 A  
HETATM   24  C   UNL     1     -10.321  19.250  65.984  1.00  0.00    -0.556 A  
ENDBRANCH  18  19
ENDBRANCH  17  18
ENDBRANCH  16  17
ENDBRANCH  13  16
ENDBRANCH  12  13
ENDBRANCH  11  12
ENDBRANCH  10  11
ENDBRANCH   9  10
ENDBRANCH   8   9
ENDBRANCH   7   8
ENDBRANCH   6   7
ENDBRANCH   5   6
ENDBRANCH   4   5
ENDBRANCH   3   4
ENDBRANCH   2   3
TORSDOF 15
ENDMDL
MODEL       22
REMARK 921   NORMALIZED FREE ENERGY PREDICTED BY IDOCK:   -5.23 KCAL/MOL
REMARK 922        TOTAL FREE ENERGY PREDICTED BY IDOCK:  -10.94 KCAL/MOL
REMARK 923 INTER-LIGAND FREE ENERGY PREDICTED BY IDOCK:   -9.19 KCAL/MOL
REMARK 924 INTRA-LIGAND FREE ENERGY PREDICTED BY IDOCK:   -1.75 KCAL/MOL
REMARK 927      BINDING AFFINITY PREDICTED BY RF-SCORE:    0.00 PKD
ROOT
HETATM    1  C   UNL     1      -8.239  19.871  67.668  1.00  0.00    -0.349 C  
HETATM    2  C   UNL     1      -9.412  19.925  66.707  1.00  0.00    -0.510 C  
ENDROOT
BRANCH   2   3
HETATM    3  C   UNL     1     -10.644  19.252  67.305  1.00  0.00    -0.590 C  
BRANCH   3   4
HETATM    4  C   UNL     1     -10.241  18.174  68.305  1.00  0.00    -0.402 C  
BRANCH   4   5
HETATM    5  C   UNL     1     -10.552  16.784  67.763  1.00  0.00    -0.341 C  
BRANCH   5   6
HETATM    6  C   UNL     1      -9.339  16.217  67.036  1.00  0.00    -0.235 C  
BRANCH   6   7
HETATM    7  C   UNL     1      -9.772  15.358  65.859  1.00  0.00    -0.392 C  
BRANCH   7   8
HETATM    8  C   UNL     1     -11.274  15.100  65.905  1.00  0.00    -0.280 C  
BRANCH   8   9
HETATM    9  C   UNL     1     -11.746  14.611  64.545  1.00  0.00    -0.410 C  
BRANCH   9  10
HETATM   10  C   UNL     1     -11.290  13.183  64.264  1.00  0.00    -0.427 C  
BRANCH  10  11
HETATM   11  C   UNL     1     -11.762  12.207  65.356  1.00  0.00    -0.379 C  
BRANCH  11  12
HETATM   12  C   UNL     1     -10.583  11.427  65.939  1.00  0.00    -0.263 C  
BRANCH  12  13
HETATM   13  N   UNL     1     -10.544  11.379  67.475  1.00  0.00    -0.204 N  
HETATM   14  C   UNL     1     -10.431   9.948  67.987  1.00  0.00    -0.222 C  
HETATM   15  C   UNL     1      -9.355  12.190  67.999  1.00  0.00    -0.197 C  
BRANCH  13  16
HETATM   16  C   UNL     1     -11.844  12.053  68.047  1.00  0.00    -0.269 C  
BRANCH  16  17
HETATM   17  C   UNL     1     -11.644  12.629  69.454  1.00  0.00    -0.306 C  
BRANCH  17  18
HETATM   18  O   UNL     1     -11.830  14.042  69.472  1.00  0.00    -0.282 OA 
BRANCH  18  19
HETATM   19  C   UNL     1     -12.179  14.516  70.717  1.00  0.00    -0.333 A  
HETATM   20  C   UNL     1     -13.120  13.761  71.414  1.00  0.00    -0.413 A  
HETATM   21  C   UNL     1     -13.573  14.186  72.665  1.00  0.00    -0.618 A  
HETATM   22  C   UNL     1     -13.077  15.361  73.231  1.00  0.00    -0.642 A  
HETATM   23  C   UNL     1     -12.110  16.100  72.555  1.00  0.00    -0.644 A  
HETATM   24  C   UNL     1     -11.656  15.674  71.307  1.00  0.00    -0.485 A  
ENDBRANCH  18  19
ENDBRANCH  17  18
ENDBRANCH  16  17
ENDBRANCH  13  16
ENDBRANCH  12  13
ENDBRANCH  11  12
ENDBRANCH  10  11
ENDBRANCH   9  10
ENDBRANCH   8   9
ENDBRANCH   7   8
ENDBRANCH   6   7
ENDBRANCH   5   6
ENDBRANCH   4   5
ENDBRANCH   3   4
ENDBRANCH   2   3
TORSDOF 15
ENDMDL
MODEL       23
REMARK 921   NORMALIZED FREE ENERGY PREDICTED BY IDOCK:   -5.22 KCAL/MOL
REMARK 922        TOTAL FREE ENERGY PREDICTED BY IDOCK:  -10.93 KCAL/MOL
REMARK 923 INTER-LIGAND FREE ENERGY PREDICTED BY IDOCK:   -9.61 KCAL/MOL
REMARK 924 INTRA-LIGAND FREE ENERGY PREDICTED BY IDOCK:   -1.32 KCAL/MOL
REMARK 927      BINDING AFFINITY PREDICTED BY RF-SCORE:    0.00 PKD
ROOT
HETATM    1  C   UNL     1     -10.837   7.014  67.204  1.00  0.00    -0.427 C  
HETATM    2  C   UNL     1     -10.173   8.271  67.736  1.00  0.00    -0.282 C  
ENDROOT
BRANCH   2   3
HETATM    3  C   UNL     1      -9.798   8.114  69.206  1.00  0.00    -0.182 C  
BRANCH   3   4
HETATM    4  C   UNL     1     -10.850   7.301  69.950  1.00  0.00    -0.264 C  
BRANCH   4   5
HETATM    5  C   UNL     1     -10.838   7.625  71.439  1.00  0.00    -0.250 C  
BRANCH   5   6
HETATM    6  C   UNL     1     -10.950   9.128  71.653  1.00  0.00    -0.445 C  
BRANCH   6   7
HETATM    7  C   UNL     1     -12.400   9.534  71.863  1.00  0.00    -0.450 C  
BRANCH   7   8
HETATM    8  C   UNL     1     -12.723  10.799  71.075  1.00  0.00    -0.513 C  
BRANCH   8   9
HETATM    9  C   UNL     1     -11.628  11.053  70.052  1.00  0.00    -0.427 C  
BRANCH   9  10
HETATM   10  C   UNL     1     -11.904  12.300  69.219  1.00  0.00    -0.363 C  
BRANCH  10  11
HETATM   11  C   UNL     1     -11.632  12.061  67.724  1.00  0.00    -0.400 C  
BRANCH  11  12
HETATM   12  C   UNL     1     -12.105  13.250  66.886  1.00  0.00    -0.332 C  
BRANCH  12  13
HETATM   13  N   UNL     1     -11.583  13.261  65.440  1.00  0.00    -0.312 N  
HETATM   14  C   UNL     1     -10.172  12.692  65.350  1.00  0.00    -0.284 C  
HETATM   15  C   UNL     1     -12.509  12.439  64.538  1.00  0.00    -0.435 C  
BRANCH  13  16
HETATM   16  C   UNL     1     -11.603  14.735  64.893  1.00  0.00    -0.401 C  
BRANCH  16  17
HETATM   17  C   UNL     1     -10.497  15.608  65.497  1.00  0.00    -0.404 C  
BRANCH  17  18
HETATM   18  O   UNL     1     -10.616  16.965  65.081  1.00  0.00    -0.679 OA 
BRANCH  18  19
HETATM   19  C   UNL     1     -10.420  17.857  66.112  1.00  0.00    -0.321 A  
HETATM   20  C   UNL     1     -10.211  17.295  67.369  1.00  0.00    -0.325 A  
HETATM   21  C   UNL     1     -10.050  18.118  68.487  1.00  0.00    -0.413 A  
HETATM   22  C   UNL     1     -10.083  19.505  68.349  1.00  0.00    -0.546 A  
HETATM   23  C   UNL     1     -10.256  20.072  67.089  1.00  0.00    -0.580 A  
HETATM   24  C   UNL     1     -10.414  19.251  65.974  1.00  0.00    -0.573 A  
ENDBRANCH  18  19
ENDBRANCH  17  18
ENDBRANCH  16  17
ENDBRANCH  13  16
ENDBRANCH  12  13
ENDBRANCH  11  12
ENDBRANCH  10  11
ENDBRANCH   9  10
ENDBRANCH   8   9
ENDBRANCH   7   8
ENDBRANCH   6   7
ENDBRANCH   5   6
ENDBRANCH   4   5
ENDBRANCH   3   4
ENDBRANCH   2   3
TORSDOF 15
ENDMDL
MODEL       24
REMARK 921   NORMALIZED FREE ENERGY PREDICTED BY IDOCK:   -5.21 KCAL/MOL
REMARK 922        TOTAL FREE ENERGY PREDICTED BY IDOCK:  -10.90 KCAL/MOL
REMARK 923 INTER-LIGAND FREE ENERGY PREDICTED BY IDOCK:   -9.03 KCAL/MOL
REMARK 924 INTRA-LIGAND FREE ENERGY PREDICTED BY IDOCK:   -1.88 KCAL/MOL
REMARK 927      BINDING AFFINITY PREDICTED BY RF-SCORE:    0.00 PKD
ROOT
HETATM    1  C   UNL     1     -12.330  15.754  74.550  1.00  0.00    -0.776 C  
HETATM    2  C   UNL     1     -12.463  15.874  73.042  1.00  0.00    -0.599 C  
ENDROOT
BRANCH   2   3
HETATM    3  C   UNL     1     -13.891  15.587  72.592  1.00  0.00    -0.654 C  
BRANCH   3   4
HETATM    4  C   UNL     1     -13.934  15.252  71.106  1.00  0.00    -0.462 C  
BRANCH   4   5
HETATM    5  C   UNL     1     -12.529  15.182  70.521  1.00  0.00    -0.429 C  
BRANCH   5   6
HETATM    6  C   UNL     1     -12.333  13.869  69.773  1.00  0.00    -0.330 C  
BRANCH   6   7
HETATM    7  C   UNL     1     -12.199  12.710  70.748  1.00  0.00    -0.331 C  
BRANCH   7   8
HETATM    8  C   UNL     1     -11.941  11.406  70.001  1.00  0.00    -0.442 C  
BRANCH   8   9
HETATM    9  C   UNL     1     -10.949  11.655  68.875  1.00  0.00    -0.282 C  
BRANCH   9  10
HETATM   10  C   UNL     1     -11.113  10.650  67.740  1.00  0.00    -0.385 C  
BRANCH  10  11
HETATM   11  C   UNL     1     -10.783  11.273  66.372  1.00  0.00    -0.320 C  
BRANCH  11  12
HETATM   12  C   UNL     1     -11.849  12.290  65.963  1.00  0.00    -0.341 C  
BRANCH  12  13
HETATM   13  N   UNL     1     -11.685  12.851  64.541  1.00  0.00    -0.344 N  
HETATM   14  C   UNL     1     -10.249  12.715  64.048  1.00  0.00    -0.338 C  
HETATM   15  C   UNL     1     -12.616  12.114  63.572  1.00  0.00    -0.506 C  
BRANCH  13  16
HETATM   16  C   UNL     1     -12.116  14.363  64.527  1.00  0.00    -0.481 C  
BRANCH  16  17
HETATM   17  C   UNL     1     -10.930  15.320  64.688  1.00  0.00    -0.304 C  
BRANCH  17  18
HETATM   18  O   UNL     1     -10.884  15.882  65.997  1.00  0.00    -0.305 OA 
BRANCH  18  19
HETATM   19  C   UNL     1      -9.689  15.640  66.638  1.00  0.00    -0.249 A  
HETATM   20  C   UNL     1      -8.617  16.438  66.245  1.00  0.00    -0.375 A  
HETATM   21  C   UNL     1      -7.352  16.236  66.803  1.00  0.00    -0.244 A  
HETATM   22  C   UNL     1      -7.158  15.246  67.766  1.00  0.00    -0.180 A  
HETATM   23  C   UNL     1      -8.234  14.470  68.187  1.00  0.00    -0.146 A  
HETATM   24  C   UNL     1      -9.496  14.673  67.632  1.00  0.00    -0.205 A  
ENDBRANCH  18  19
ENDBRANCH  17  18
ENDBRANCH  16  17
ENDBRANCH  13  16
ENDBRANCH  12  13
ENDBRANCH  11  12
ENDBRANCH  10  11
ENDBRANCH   9  10
ENDBRANCH   8   9
ENDBRANCH   7   8
ENDBRANCH   6   7
ENDBRANCH   5   6
ENDBRANCH   4   5
ENDBRANCH   3   4
ENDBRANCH   2   3
TORSDOF 15
ENDMDL
MODEL       25
REMARK 921   NORMALIZED FREE ENERGY PREDICTED BY IDOCK:   -5.18 KCAL/MOL
REMARK 922        TOTAL FREE ENERGY PREDICTED BY IDOCK:  -10.85 KCAL/MOL
REMARK 923 INTER-LIGAND FREE ENERGY PREDICTED BY IDOCK:   -9.34 KCAL/MOL
REMARK 924 INTRA-LIGAND FREE ENERGY PREDICTED BY IDOCK:   -1.51 KCAL/MOL
REMARK 927      BINDING AFFINITY PREDICTED BY RF-SCORE:    0.00 PKD
ROOT
HETATM    1  C   UNL     1     -10.807  14.192  66.847  1.00  0.00    -0.296 C  
HETATM    2  C   UNL     1     -12.034  13.582  66.193  1.00  0.00    -0.454 C  
ENDROOT
BRANCH   2   3
HETATM    3  C   UNL     1     -12.331  14.249  64.854  1.00  0.00    -0.435 C  
BRANCH   3   4
HETATM    4  C   UNL     1     -12.088  13.283  63.701  1.00  0.00    -0.551 C  
BRANCH   4   5
HETATM    5  C   UNL     1     -11.702  11.902  64.218  1.00  0.00    -0.388 C  
BRANCH   5   6
HETATM    6  C   UNL     1     -10.443  11.408  63.516  1.00  0.00    -0.477 C  
BRANCH   6   7
HETATM    7  C   UNL     1      -9.751  10.338  64.346  1.00  0.00    -0.381 C  
BRANCH   7   8
HETATM    8  C   UNL     1      -9.814  10.683  65.829  1.00  0.00    -0.296 C  
BRANCH   8   9
HETATM    9  C   UNL     1      -9.664   9.413  66.651  1.00  0.00    -0.280 C  
BRANCH   9  10
HETATM   10  C   UNL     1     -10.737   9.302  67.729  1.00  0.00    -0.270 C  
BRANCH  10  11
HETATM   11  C   UNL     1     -10.126   9.093  69.125  1.00  0.00    -0.199 C  
BRANCH  11  12
HETATM   12  C   UNL     1     -10.839   7.964  69.870  1.00  0.00    -0.221 C  
BRANCH  12  13
HETATM   13  N   UNL     1     -11.465   8.378  71.212  1.00  0.00    -0.271 N  
HETATM   14  C   UNL     1     -12.876   7.822  71.367  1.00  0.00    -0.298 C  
HETATM   15  C   UNL     1     -10.603   7.875  72.374  1.00  0.00    -0.298 C  
BRANCH  13  16
HETATM   16  C   UNL     1     -11.492   9.946  71.310  1.00  0.00    -0.361 C  
BRANCH  16  17
HETATM   17  C   UNL     1     -12.891  10.531  71.078  1.00  0.00    -0.407 C  
BRANCH  17  18
HETATM   18  O   UNL     1     -13.236  11.475  72.088  1.00  0.00    -0.505 OA 
BRANCH  18  19
HETATM   19  C   UNL     1     -13.143  12.779  71.651  1.00  0.00    -0.331 A  
HETATM   20  C   UNL     1     -13.957  13.699  72.310  1.00  0.00    -0.661 A  
HETATM   21  C   UNL     1     -13.969  15.037  71.907  1.00  0.00    -0.604 A  
HETATM   22  C   UNL     1     -13.158  15.462  70.855  1.00  0.00    -0.528 A  
HETATM   23  C   UNL     1     -12.317  14.554  70.218  1.00  0.00    -0.408 A  
HETATM   24  C   UNL     1     -12.304  13.220  70.621  1.00  0.00    -0.416 A  
ENDBRANCH  18  19
ENDBRANCH  17  18
ENDBRANCH  16  17
ENDBRANCH  13  16
ENDBRANCH  12  13
ENDBRANCH  11  12
ENDBRANCH  10  11
ENDBRANCH   9  10
ENDBRANCH   8   9
ENDBRANCH   7   8
ENDBRANCH   6   7
ENDBRANCH   5   6
ENDBRANCH   4   5
ENDBRANCH   3   4
ENDBRANCH   2   3
TORSDOF 15
ENDMDL
MODEL       26
REMARK 921   NORMALIZED FREE ENERGY PREDICTED BY IDOCK:   -5.18 KCAL/MOL
REMARK 922        TOTAL FREE ENERGY PREDICTED BY IDOCK:  -10.84 KCAL/MOL
REMARK 923 INTER-LIGAND FREE ENERGY PREDICTED BY IDOCK:   -9.08 KCAL/MOL
REMARK 924 INTRA-LIGAND FREE ENERGY PREDICTED BY IDOCK:   -1.76 KCAL/MOL
REMARK 927      BINDING AFFINITY PREDICTED BY RF-SCORE:    0.00 PKD
ROOT
HETATM    1  C   UNL     1     -12.658  15.636  73.903  1.00  0.00    -0.767 C  
HETATM    2  C   UNL     1     -13.563  15.582  72.686  1.00  0.00    -0.657 C  
ENDROOT
BRANCH   2   3
HETATM    3  C   UNL     1     -13.215  14.393  71.795  1.00  0.00    -0.435 C  
BRANCH   3   4
HETATM    4  C   UNL     1     -12.718  14.863  70.433  1.00  0.00    -0.370 C  
BRANCH   4   5
HETATM    5  C   UNL     1     -11.199  14.993  70.422  1.00  0.00    -0.290 C  
BRANCH   5   6
HETATM    6  C   UNL     1     -10.788  16.321  69.799  1.00  0.00    -0.356 C  
BRANCH   6   7
HETATM    7  C   UNL     1     -11.352  16.451  68.393  1.00  0.00    -0.268 C  
BRANCH   7   8
HETATM    8  C   UNL     1     -10.414  17.269  67.511  1.00  0.00    -0.356 C  
BRANCH   8   9
HETATM    9  C   UNL     1     -10.203  16.546  66.190  1.00  0.00    -0.360 C  
BRANCH   9  10
HETATM   10  C   UNL     1      -9.006  15.603  66.242  1.00  0.00    -0.377 C  
BRANCH  10  11
HETATM   11  C   UNL     1      -9.441  14.128  66.268  1.00  0.00    -0.264 C  
BRANCH  11  12
HETATM   12  C   UNL     1     -10.368  13.810  65.094  1.00  0.00    -0.372 C  
BRANCH  12  13
HETATM   13  N   UNL     1     -11.618  12.997  65.468  1.00  0.00    -0.332 N  
HETATM   14  C   UNL     1     -12.703  13.882  66.071  1.00  0.00    -0.362 C  
HETATM   15  C   UNL     1     -12.181  12.295  64.228  1.00  0.00    -0.425 C  
BRANCH  13  16
HETATM   16  C   UNL     1     -11.217  11.870  66.488  1.00  0.00    -0.327 C  
BRANCH  16  17
HETATM   17  C   UNL     1     -11.876  12.048  67.860  1.00  0.00    -0.250 C  
BRANCH  17  18
HETATM   18  O   UNL     1     -10.923  11.954  68.915  1.00  0.00    -0.222 OA 
BRANCH  18  19
HETATM   19  C   UNL     1     -11.306  11.070  69.900  1.00  0.00    -0.287 A  
HETATM   20  C   UNL     1     -10.340  10.148  70.297  1.00  0.00    -0.234 A  
HETATM   21  C   UNL     1     -10.648   9.179  71.256  1.00  0.00    -0.399 A  
HETATM   22  C   UNL     1     -11.918   9.139  71.832  1.00  0.00    -0.443 A  
HETATM   23  C   UNL     1     -12.875  10.081  71.465  1.00  0.00    -0.537 A  
HETATM   24  C   UNL     1     -12.567  11.048  70.510  1.00  0.00    -0.390 A  
ENDBRANCH  18  19
ENDBRANCH  17  18
ENDBRANCH  16  17
ENDBRANCH  13  16
ENDBRANCH  12  13
ENDBRANCH  11  12
ENDBRANCH  10  11
ENDBRANCH   9  10
ENDBRANCH   8   9
ENDBRANCH   7   8
ENDBRANCH   6   7
ENDBRANCH   5   6
ENDBRANCH   4   5
ENDBRANCH   3   4
ENDBRANCH   2   3
TORSDOF 15
ENDMDL
MODEL       27
REMARK 921   NORMALIZED FREE ENERGY PREDICTED BY IDOCK:   -5.16 KCAL/MOL
REMARK 922        TOTAL FREE ENERGY PREDICTED BY IDOCK:  -10.81 KCAL/MOL
REMARK 923 INTER-LIGAND FREE ENERGY PREDICTED BY IDOCK:   -9.21 KCAL/MOL
REMARK 924 INTRA-LIGAND FREE ENERGY PREDICTED BY IDOCK:   -1.61 KCAL/MOL
REMARK 927      BINDING AFFINITY PREDICTED BY RF-SCORE:    0.00 PKD
ROOT
HETATM    1  C   UNL     1     -10.533   9.892  70.100  1.00  0.00    -0.339 C  
HETATM    2  C   UNL     1      -9.669   9.368  68.966  1.00  0.00    -0.166 C  
ENDROOT
BRANCH   2   3
HETATM    3  C   UNL     1     -10.443   9.342  67.652  1.00  0.00    -0.328 C  
BRANCH   3   4
HETATM    4  C   UNL     1     -10.892  10.745  67.260  1.00  0.00    -0.344 C  
BRANCH   4   5
HETATM    5  C   UNL     1      -9.725  11.560  66.716  1.00  0.00    -0.220 C  
BRANCH   5   6
HETATM    6  C   UNL     1      -9.375  11.102  65.306  1.00  0.00    -0.243 C  
BRANCH   6   7
HETATM    7  C   UNL     1     -10.625  11.003  64.447  1.00  0.00    -0.395 C  
BRANCH   7   8
HETATM    8  C   UNL     1     -10.846  12.294  63.667  1.00  0.00    -0.522 C  
BRANCH   8   9
HETATM    9  C   UNL     1     -12.122  12.965  64.149  1.00  0.00    -0.503 C  
BRANCH   9  10
HETATM   10  C   UNL     1     -11.918  14.454  64.411  1.00  0.00    -0.471 C  
BRANCH  10  11
HETATM   11  C   UNL     1     -10.537  14.742  65.025  1.00  0.00    -0.452 C  
BRANCH  11  12
HETATM   12  C   UNL     1     -10.441  16.194  65.497  1.00  0.00    -0.386 C  
BRANCH  12  13
HETATM   13  N   UNL     1      -9.663  16.389  66.808  1.00  0.00    -0.241 N  
HETATM   14  C   UNL     1      -9.128  15.066  67.345  1.00  0.00    -0.186 C  
HETATM   15  C   UNL     1      -8.488  17.347  66.587  1.00  0.00    -0.261 C  
BRANCH  13  16
HETATM   16  C   UNL     1     -10.603  17.060  67.875  1.00  0.00    -0.365 C  
BRANCH  16  17
HETATM   17  C   UNL     1     -11.235  16.043  68.833  1.00  0.00    -0.353 C  
BRANCH  17  18
HETATM   18  O   UNL     1     -11.129  16.467  70.189  1.00  0.00    -0.355 OA 
BRANCH  18  19
HETATM   19  C   UNL     1     -11.839  15.664  71.054  1.00  0.00    -0.400 A  
HETATM   20  C   UNL     1     -12.080  14.363  70.616  1.00  0.00    -0.404 A  
HETATM   21  C   UNL     1     -12.833  13.487  71.402  1.00  0.00    -0.440 A  
HETATM   22  C   UNL     1     -13.336  13.903  72.634  1.00  0.00    -0.640 A  
HETATM   23  C   UNL     1     -13.068  15.191  73.092  1.00  0.00    -0.625 A  
HETATM   24  C   UNL     1     -12.315  16.063  72.309  1.00  0.00    -0.570 A  
ENDBRANCH  18  19
ENDBRANCH  17  18
ENDBRANCH  16  17
ENDBRANCH  13  16
ENDBRANCH  12  13
ENDBRANCH  11  12
ENDBRANCH  10  11
ENDBRANCH   9  10
ENDBRANCH   8   9
ENDBRANCH   7   8
ENDBRANCH   6   7
ENDBRANCH   5   6
ENDBRANCH   4   5
ENDBRANCH   3   4
ENDBRANCH   2   3
TORSDOF 15
ENDMDL
MODEL       28
REMARK 921   NORMALIZED FREE ENERGY PREDICTED BY IDOCK:   -5.16 KCAL/MOL
REMARK 922        TOTAL FREE ENERGY PREDICTED BY IDOCK:  -10.80 KCAL/MOL
REMARK 923 INTER-LIGAND FREE ENERGY PREDICTED BY IDOCK:   -8.79 KCAL/MOL
REMARK 924 INTRA-LIGAND FREE ENERGY PREDICTED BY IDOCK:   -2.01 KCAL/MOL
REMARK 927      BINDING AFFINITY PREDICTED BY RF-SCORE:    0.00 PKD
ROOT
HETATM    1  C   UNL     1     -12.387  13.822  64.572  1.00  0.00    -0.399 C  
HETATM    2  C   UNL     1     -12.014  13.018  63.340  1.00  0.00    -0.592 C  
ENDROOT
BRANCH   2   3
HETATM    3  C   UNL     1     -11.077  11.869  63.697  1.00  0.00    -0.517 C  
BRANCH   3   4
HETATM    4  C   UNL     1     -10.855  11.798  65.204  1.00  0.00    -0.351 C  
BRANCH   4   5
HETATM    5  C   UNL     1     -10.163  10.497  65.593  1.00  0.00    -0.315 C  
BRANCH   5   6
HETATM    6  C   UNL     1     -10.120  10.355  67.109  1.00  0.00    -0.254 C  
BRANCH   6   7
HETATM    7  C   UNL     1     -11.164  11.247  67.761  1.00  0.00    -0.354 C  
BRANCH   7   8
HETATM    8  C   UNL     1     -10.875  11.415  69.249  1.00  0.00    -0.242 C  
BRANCH   8   9
HETATM    9  C   UNL     1     -11.635  10.359  70.035  1.00  0.00    -0.378 C  
BRANCH   9  10
HETATM   10  C   UNL     1     -12.406  10.964  71.204  1.00  0.00    -0.479 C  
BRANCH  10  11
HETATM   11  C   UNL     1     -12.737  12.447  70.963  1.00  0.00    -0.315 C  
BRANCH  11  12
HETATM   12  C   UNL     1     -13.177  13.126  72.261  1.00  0.00    -0.453 C  
BRANCH  12  13
HETATM   13  N   UNL     1     -12.973  14.650  72.287  1.00  0.00    -0.335 N  
HETATM   14  C   UNL     1     -14.164  15.384  71.681  1.00  0.00    -0.515 C  
HETATM   15  C   UNL     1     -12.773  15.131  73.727  1.00  0.00    -0.525 C  
BRANCH  13  16
HETATM   16  C   UNL     1     -11.662  15.011  71.499  1.00  0.00    -0.370 C  
BRANCH  16  17
HETATM   17  C   UNL     1     -11.924  15.928  70.298  1.00  0.00    -0.305 C  
BRANCH  17  18
HETATM   18  O   UNL     1     -10.732  16.578  69.866  1.00  0.00    -0.329 OA 
BRANCH  18  19
HETATM   19  C   UNL     1     -10.387  16.251  68.573  1.00  0.00    -0.261 A  
HETATM   20  C   UNL     1      -9.834  14.984  68.393  1.00  0.00    -0.222 A  
HETATM   21  C   UNL     1      -9.408  14.579  67.126  1.00  0.00    -0.225 A  
HETATM   22  C   UNL     1      -9.545  15.433  66.031  1.00  0.00    -0.382 A  
HETATM   23  C   UNL     1     -10.129  16.686  66.199  1.00  0.00    -0.361 A  
HETATM   24  C   UNL     1     -10.557  17.089  67.463  1.00  0.00    -0.310 A  
ENDBRANCH  18  19
ENDBRANCH  17  18
ENDBRANCH  16  17
ENDBRANCH  13  16
ENDBRANCH  12  13
ENDBRANCH  11  12
ENDBRANCH  10  11
ENDBRANCH   9  10
ENDBRANCH   8   9
ENDBRANCH   7   8
ENDBRANCH   6   7
ENDBRANCH   5   6
ENDBRANCH   4   5
ENDBRANCH   3   4
ENDBRANCH   2   3
TORSDOF 15
ENDMDL
MODEL       29
REMARK 921   NORMALIZED FREE ENERGY PREDICTED BY IDOCK:   -5.15 KCAL/MOL
REMARK 922        TOTAL FREE ENERGY PREDICTED BY IDOCK:  -10.78 KCAL/MOL
REMARK 923 INTER-LIGAND FREE ENERGY PREDICTED BY IDOCK:   -8.91 KCAL/MOL
REMARK 924 INTRA-LIGAND FREE ENERGY PREDICTED BY IDOCK:   -1.87 KCAL/MOL
REMARK 927      BINDING AFFINITY PREDICTED BY RF-SCORE:    0.00 PKD
ROOT
HETATM    1  C   UNL     1     -12.498  15.849  74.279  1.00  0.00    -0.773 C  
HETATM    2  C   UNL     1     -12.703  15.940  72.777  1.00  0.00    -0.562 C  
ENDROOT
BRANCH   2   3
HETATM    3  C   UNL     1     -14.006  15.267  72.359  1.00  0.00    -0.642 C  
BRANCH   3   4
HETATM    4  C   UNL     1     -13.780  13.790  72.055  1.00  0.00    -0.572 C  
BRANCH   4   5
HETATM    5  C   UNL     1     -12.660  13.608  71.038  1.00  0.00    -0.441 C  
BRANCH   5   6
HETATM    6  C   UNL     1     -12.411  12.126  70.787  1.00  0.00    -0.391 C  
BRANCH   6   7
HETATM    7  C   UNL     1     -13.179  11.276  71.787  1.00  0.00    -0.480 C  
BRANCH   7   8
HETATM    8  C   UNL     1     -12.709   9.826  71.733  1.00  0.00    -0.519 C  
BRANCH   8   9
HETATM    9  C   UNL     1     -13.898   8.901  71.939  1.00  0.00    -0.492 C  
BRANCH   9  10
HETATM   10  C   UNL     1     -13.568   7.459  71.566  1.00  0.00    -0.454 C  
BRANCH  10  11
HETATM   11  C   UNL     1     -12.051   7.204  71.554  1.00  0.00    -0.377 C  
BRANCH  11  12
HETATM   12  C   UNL     1     -11.597   6.677  70.192  1.00  0.00    -0.386 C  
BRANCH  12  13
HETATM   13  N   UNL     1     -10.294   7.301  69.666  1.00  0.00    -0.215 N  
HETATM   14  C   UNL     1      -9.659   8.223  70.701  1.00  0.00    -0.171 C  
HETATM   15  C   UNL     1      -9.293   6.202  69.299  1.00  0.00    -0.134 C  
BRANCH  13  16
HETATM   16  C   UNL     1     -10.598   8.102  68.348  1.00  0.00    -0.099 C  
BRANCH  16  17
HETATM   17  C   UNL     1     -10.663   9.617  68.575  1.00  0.00    -0.200 C  
BRANCH  17  18
HETATM   18  O   UNL     1     -11.008  10.310  67.379  1.00  0.00    -0.293 OA 
BRANCH  18  19
HETATM   19  C   UNL     1     -10.932  11.679  67.517  1.00  0.00    -0.259 A  
HETATM   20  C   UNL     1      -9.780  12.164  68.133  1.00  0.00    -0.208 A  
HETATM   21  C   UNL     1      -9.631  13.534  68.362  1.00  0.00    -0.196 A  
HETATM   22  C   UNL     1     -10.627  14.426  67.962  1.00  0.00    -0.241 A  
HETATM   23  C   UNL     1     -11.764  13.949  67.314  1.00  0.00    -0.418 A  
HETATM   24  C   UNL     1     -11.911  12.582  67.085  1.00  0.00    -0.386 A  
ENDBRANCH  18  19
ENDBRANCH  17  18
ENDBRANCH  16  17
ENDBRANCH  13  16
ENDBRANCH  12  13
ENDBRANCH  11  12
ENDBRANCH  10  11
ENDBRANCH   9  10
ENDBRANCH   8   9
ENDBRANCH   7   8
ENDBRANCH   6   7
ENDBRANCH   5   6
ENDBRANCH   4   5
ENDBRANCH   3   4
ENDBRANCH   2   3
TORSDOF 15
ENDMDL
MODEL       30
REMARK 921   NORMALIZED FREE ENERGY PREDICTED BY IDOCK:   -5.13 KCAL/MOL
REMARK 922        TOTAL FREE ENERGY PREDICTED BY IDOCK:  -10.74 KCAL/MOL
REMARK 923 INTER-LIGAND FREE ENERGY PREDICTED BY IDOCK:   -8.91 KCAL/MOL
REMARK 924 INTRA-LIGAND FREE ENERGY PREDICTED BY IDOCK:   -1.84 KCAL/MOL
REMARK 927      BINDING AFFINITY PREDICTED BY RF-SCORE:    0.00 PKD
ROOT
HETATM    1  C   UNL     1     -12.416  15.675  74.453  1.00  0.00    -0.790 C  
HETATM    2  C   UNL     1     -12.714  16.045  73.011  1.00  0.00    -0.593 C  
ENDROOT
BRANCH   2   3
HETATM    3  C   UNL     1     -13.973  15.343  72.514  1.00  0.00    -0.640 C  
BRANCH   3   4
HETATM    4  C   UNL     1     -13.619  14.079  71.738  1.00  0.00    -0.476 C  
BRANCH   4   5
HETATM    5  C   UNL     1     -12.209  14.168  71.166  1.00  0.00    -0.435 C  
BRANCH   5   6
HETATM    6  C   UNL     1     -12.189  13.661  69.730  1.00  0.00    -0.350 C  
BRANCH   6   7
HETATM    7  C   UNL     1     -11.865  14.792  68.766  1.00  0.00    -0.330 C  
BRANCH   7   8
HETATM    8  C   UNL     1     -11.928  14.303  67.323  1.00  0.00    -0.439 C  
BRANCH   8   9
HETATM    9  C   UNL     1     -11.873  12.784  67.300  1.00  0.00    -0.414 C  
BRANCH   9  10
HETATM   10  C   UNL     1     -11.221  12.258  66.025  1.00  0.00    -0.375 C  
BRANCH  10  11
HETATM   11  C   UNL     1      -9.788  11.760  66.279  1.00  0.00    -0.245 C  
BRANCH  11  12
HETATM   12  C   UNL     1      -9.688  11.044  67.626  1.00  0.00    -0.168 C  
BRANCH  12  13
HETATM   13  N   UNL     1      -9.293   9.561  67.535  1.00  0.00    -0.126 N  
HETATM   14  C   UNL     1     -10.512   8.669  67.328  1.00  0.00    -0.289 C  
HETATM   15  C   UNL     1      -8.317   9.346  66.374  1.00  0.00    -0.115 C  
BRANCH  13  16
HETATM   16  C   UNL     1      -8.539   9.143  68.849  1.00  0.00    -0.131 C  
BRANCH  16  17
HETATM   17  C   UNL     1      -9.011   9.927  70.080  1.00  0.00    -0.169 C  
BRANCH  17  18
HETATM   18  O   UNL     1      -9.513   9.059  71.092  1.00  0.00    -0.241 OA 
BRANCH  18  19
HETATM   19  C   UNL     1     -10.839   9.293  71.384  1.00  0.00    -0.364 A  
HETATM   20  C   UNL     1     -11.445   8.371  72.234  1.00  0.00    -0.454 A  
HETATM   21  C   UNL     1     -12.800   8.495  72.551  1.00  0.00    -0.310 A  
HETATM   22  C   UNL     1     -13.550   9.550  72.030  1.00  0.00    -0.492 A  
HETATM   23  C   UNL     1     -12.940  10.495  71.209  1.00  0.00    -0.532 A  
HETATM   24  C   UNL     1     -11.587  10.371  70.895  1.00  0.00    -0.428 A  
ENDBRANCH  18  19
ENDBRANCH  17  18
ENDBRANCH  16  17
ENDBRANCH  13  16
ENDBRANCH  12  13
ENDBRANCH  11  12
ENDBRANCH  10  11
ENDBRANCH   9  10
ENDBRANCH   8   9
ENDBRANCH   7   8
ENDBRANCH   6   7
ENDBRANCH   5   6
ENDBRANCH   4   5
ENDBRANCH   3   4
ENDBRANCH   2   3
TORSDOF 15
ENDMDL
MODEL       31
REMARK 921   NORMALIZED FREE ENERGY PREDICTED BY IDOCK:   -5.09 KCAL/MOL
REMARK 922        TOTAL FREE ENERGY PREDICTED BY IDOCK:  -10.67 KCAL/MOL
REMARK 923 INTER-LIGAND FREE ENERGY PREDICTED BY IDOCK:   -8.22 KCAL/MOL
REMARK 924 INTRA-LIGAND FREE ENERGY PREDICTED BY IDOCK:   -2.45 KCAL/MOL
REMARK 927      BINDING AFFINITY PREDICTED BY RF-SCORE:    0.00 PKD
ROOT
HETATM    1  C   UNL     1     -11.475  14.822  64.830  1.00  0.00    -0.412 C  
HETATM    2  C   UNL     1     -12.493  13.871  65.435  1.00  0.00    -0.528 C  
ENDROOT
BRANCH   2   3
HETATM    3  C   UNL     1     -12.179  12.424  65.067  1.00  0.00    -0.465 C  
BRANCH   3   4
HETATM    4  C   UNL     1     -11.701  12.323  63.623  1.00  0.00    -0.591 C  
BRANCH   4   5
HETATM    5  C   UNL     1     -10.462  11.442  63.519  1.00  0.00    -0.477 C  
BRANCH   5   6
HETATM    6  C   UNL     1      -9.856  11.218  64.898  1.00  0.00    -0.310 C  
BRANCH   6   7
HETATM    7  C   UNL     1      -9.577   9.741  65.129  1.00  0.00    -0.356 C  
BRANCH   7   8
HETATM    8  C   UNL     1     -10.101   9.302  66.492  1.00  0.00    -0.343 C  
BRANCH   8   9
HETATM    9  C   UNL     1      -9.831   7.818  66.684  1.00  0.00    -0.295 C  
BRANCH   9  10
HETATM   10  C   UNL     1     -10.778   7.195  67.704  1.00  0.00    -0.314 C  
BRANCH  10  11
HETATM   11  C   UNL     1     -10.306   7.442  69.148  1.00  0.00    -0.208 C  
BRANCH  11  12
HETATM   12  C   UNL     1     -11.451   7.233  70.140  1.00  0.00    -0.165 C  
BRANCH  12  13
HETATM   13  N   UNL     1     -11.575   8.327  71.213  1.00  0.00    -0.275 N  
HETATM   14  C   UNL     1     -13.019   8.502  71.670  1.00  0.00    -0.343 C  
HETATM   15  C   UNL     1     -10.709   7.976  72.427  1.00  0.00    -0.320 C  
BRANCH  13  16
HETATM   16  C   UNL     1     -11.026   9.683  70.638  1.00  0.00    -0.320 C  
BRANCH  16  17
HETATM   17  C   UNL     1     -12.130  10.722  70.411  1.00  0.00    -0.354 C  
BRANCH  17  18
HETATM   18  O   UNL     1     -12.185  11.138  69.049  1.00  0.00    -0.469 OA 
BRANCH  18  19
HETATM   19  C   UNL     1     -11.521  12.324  68.828  1.00  0.00    -0.311 A  
HETATM   20  C   UNL     1     -12.151  13.471  69.308  1.00  0.00    -0.335 A  
HETATM   21  C   UNL     1     -11.579  14.727  69.090  1.00  0.00    -0.330 A  
HETATM   22  C   UNL     1     -10.371  14.841  68.403  1.00  0.00    -0.233 A  
HETATM   23  C   UNL     1      -9.720  13.695  67.952  1.00  0.00    -0.234 A  
HETATM   24  C   UNL     1     -10.289  12.442  68.172  1.00  0.00    -0.231 A  
ENDBRANCH  18  19
ENDBRANCH  17  18
ENDBRANCH  16  17
ENDBRANCH  13  16
ENDBRANCH  12  13
ENDBRANCH  11  12
ENDBRANCH  10  11
ENDBRANCH   9  10
ENDBRANCH   8   9
ENDBRANCH   7   8
ENDBRANCH   6   7
ENDBRANCH   5   6
ENDBRANCH   4   5
ENDBRANCH   3   4
ENDBRANCH   2   3
TORSDOF 15
ENDMDL
MODEL       32
REMARK 921   NORMALIZED FREE ENERGY PREDICTED BY IDOCK:   -5.08 KCAL/MOL
REMARK 922        TOTAL FREE ENERGY PREDICTED BY IDOCK:  -10.66 KCAL/MOL
REMARK 923 INTER-LIGAND FREE ENERGY PREDICTED BY IDOCK:   -9.08 KCAL/MOL
REMARK 924 INTRA-LIGAND FREE ENERGY PREDICTED BY IDOCK:   -1.58 KCAL/MOL
REMARK 927      BINDING AFFINITY PREDICTED BY RF-SCORE:    0.00 PKD
ROOT
HETATM    1  C   UNL     1      -5.792  20.577  68.896  1.00  0.00    -0.376 C  
HETATM    2  C   UNL     1      -6.788  19.626  68.256  1.00  0.00    -0.324 C  
ENDROOT
BRANCH   2   3
HETATM    3  C   UNL     1      -7.019  19.978  66.790  1.00  0.00    -0.250 C  
BRANCH   3   4
HETATM    4  C   UNL     1      -8.468  19.718  66.392  1.00  0.00    -0.391 C  
BRANCH   4   5
HETATM    5  C   UNL     1      -9.427  20.485  67.294  1.00  0.00    -0.559 C  
BRANCH   5   6
HETATM    6  C   UNL     1     -10.570  19.582  67.738  1.00  0.00    -0.542 C  
BRANCH   6   7
HETATM    7  C   UNL     1     -10.402  18.183  67.167  1.00  0.00    -0.391 C  
BRANCH   7   8
HETATM    8  C   UNL     1     -10.264  17.157  68.287  1.00  0.00    -0.334 C  
BRANCH   8   9
HETATM    9  C   UNL     1     -10.156  15.765  67.687  1.00  0.00    -0.247 C  
BRANCH   9  10
HETATM   10  C   UNL     1     -10.018  15.808  66.169  1.00  0.00    -0.334 C  
BRANCH  10  11
HETATM   11  C   UNL     1     -11.127  15.003  65.471  1.00  0.00    -0.358 C  
BRANCH  11  12
HETATM   12  C   UNL     1     -10.538  13.841  64.670  1.00  0.00    -0.425 C  
BRANCH  12  13
HETATM   13  N   UNL     1     -11.328  12.527  64.773  1.00  0.00    -0.303 N  
HETATM   14  C   UNL     1     -12.329  12.384  63.632  1.00  0.00    -0.548 C  
HETATM   15  C   UNL     1     -10.370  11.331  64.745  1.00  0.00    -0.307 C  
BRANCH  13  16
HETATM   16  C   UNL     1     -12.077  12.479  66.154  1.00  0.00    -0.286 C  
BRANCH  16  17
HETATM   17  C   UNL     1     -11.365  11.598  67.187  1.00  0.00    -0.306 C  
BRANCH  17  18
HETATM   18  O   UNL     1     -10.821  12.375  68.250  1.00  0.00    -0.217 OA 
BRANCH  18  19
HETATM   19  C   UNL     1     -11.572  12.300  69.402  1.00  0.00    -0.314 A  
HETATM   20  C   UNL     1     -11.972  13.519  69.946  1.00  0.00    -0.416 A  
HETATM   21  C   UNL     1     -12.698  13.549  71.140  1.00  0.00    -0.425 A  
HETATM   22  C   UNL     1     -13.038  12.361  71.787  1.00  0.00    -0.446 A  
HETATM   23  C   UNL     1     -12.671  11.139  71.228  1.00  0.00    -0.531 A  
HETATM   24  C   UNL     1     -11.949  11.110  70.036  1.00  0.00    -0.447 A  
ENDBRANCH  18  19
ENDBRANCH  17  18
ENDBRANCH  16  17
ENDBRANCH  13  16
ENDBRANCH  12  13
ENDBRANCH  11  12
ENDBRANCH  10  11
ENDBRANCH   9  10
ENDBRANCH   8   9
ENDBRANCH   7   8
ENDBRANCH   6   7
ENDBRANCH   5   6
ENDBRANCH   4   5
ENDBRANCH   3   4
ENDBRANCH   2   3
TORSDOF 15
ENDMDL
MODEL       33
REMARK 921   NORMALIZED FREE ENERGY PREDICTED BY IDOCK:   -5.07 KCAL/MOL
REMARK 922        TOTAL FREE ENERGY PREDICTED BY IDOCK:  -10.65 KCAL/MOL
REMARK 923 INTER-LIGAND FREE ENERGY PREDICTED BY IDOCK:   -7.80 KCAL/MOL
REMARK 924 INTRA-LIGAND FREE ENERGY PREDICTED BY IDOCK:   -2.85 KCAL/MOL
REMARK 927      BINDING AFFINITY PREDICTED BY RF-SCORE:    0.00 PKD
ROOT
HETATM    1  C   UNL     1     -12.439  12.137  63.543  1.00  0.00    -0.666 C  
HETATM    2  C   UNL     1     -12.324  13.005  64.783  1.00  0.00    -0.490 C  
ENDROOT
BRANCH   2   3
HETATM    3  C   UNL     1     -11.266  14.088  64.599  1.00  0.00    -0.377 C  
BRANCH   3   4
HETATM    4  C   UNL     1     -10.947  14.766  65.927  1.00  0.00    -0.335 C  
BRANCH   4   5
HETATM    5  C   UNL     1     -11.861  14.254  67.034  1.00  0.00    -0.455 C  
BRANCH   5   6
HETATM    6  C   UNL     1     -11.197  14.438  68.393  1.00  0.00    -0.294 C  
BRANCH   6   7
HETATM    7  C   UNL     1     -11.643  13.352  69.359  1.00  0.00    -0.365 C  
BRANCH   7   8
HETATM    8  C   UNL     1     -12.028  12.084  68.603  1.00  0.00    -0.290 C  
BRANCH   8   9
HETATM    9  C   UNL     1     -11.935  10.889  69.539  1.00  0.00    -0.401 C  
BRANCH   9  10
HETATM   10  C   UNL     1     -12.638  11.151  70.867  1.00  0.00    -0.483 C  
BRANCH  10  11
HETATM   11  C   UNL     1     -12.586   9.924  71.793  1.00  0.00    -0.506 C  
BRANCH  11  12
HETATM   12  C   UNL     1     -11.253   9.186  71.648  1.00  0.00    -0.377 C  
BRANCH  12  13
HETATM   13  N   UNL     1     -11.369   7.654  71.637  1.00  0.00    -0.246 N  
HETATM   14  C   UNL     1     -10.933   7.050  72.967  1.00  0.00    -0.292 C  
HETATM   15  C   UNL     1     -12.814   7.235  71.351  1.00  0.00    -0.382 C  
BRANCH  13  16
HETATM   16  C   UNL     1     -10.487   7.076  70.471  1.00  0.00    -0.208 C  
BRANCH  16  17
HETATM   17  C   UNL     1      -9.599   8.139  69.814  1.00  0.00    -0.171 C  
BRANCH  17  18
HETATM   18  O   UNL     1      -9.368   7.851  68.438  1.00  0.00    -0.141 OA 
BRANCH  18  19
HETATM   19  C   UNL     1      -9.374   8.980  67.650  1.00  0.00    -0.136 A  
HETATM   20  C   UNL     1      -8.662  10.070  68.146  1.00  0.00    -0.122 A  
HETATM   21  C   UNL     1      -8.648  11.277  67.442  1.00  0.00    -0.136 A  
HETATM   22  C   UNL     1      -9.333  11.394  66.232  1.00  0.00    -0.228 A  
HETATM   23  C   UNL     1     -10.016  10.297  65.715  1.00  0.00    -0.337 A  
HETATM   24  C   UNL     1     -10.028   9.092  66.417  1.00  0.00    -0.358 A  
ENDBRANCH  18  19
ENDBRANCH  17  18
ENDBRANCH  16  17
ENDBRANCH  13  16
ENDBRANCH  12  13
ENDBRANCH  11  12
ENDBRANCH  10  11
ENDBRANCH   9  10
ENDBRANCH   8   9
ENDBRANCH   7   8
ENDBRANCH   6   7
ENDBRANCH   5   6
ENDBRANCH   4   5
ENDBRANCH   3   4
ENDBRANCH   2   3
TORSDOF 15
ENDMDL
MODEL       34
REMARK 921   NORMALIZED FREE ENERGY PREDICTED BY IDOCK:   -5.07 KCAL/MOL
REMARK 922        TOTAL FREE ENERGY PREDICTED BY IDOCK:  -10.64 KCAL/MOL
REMARK 923 INTER-LIGAND FREE ENERGY PREDICTED BY IDOCK:   -8.90 KCAL/MOL
REMARK 924 INTRA-LIGAND FREE ENERGY PREDICTED BY IDOCK:   -1.74 KCAL/MOL
REMARK 927      BINDING AFFINITY PREDICTED BY RF-SCORE:    0.00 PKD
ROOT
HETATM    1  C   UNL     1     -11.786   6.691  70.497  1.00  0.00    -0.430 C  
HETATM    2  C   UNL     1     -11.336   6.840  71.940  1.00  0.00    -0.306 C  
ENDROOT
BRANCH   2   3
HETATM    3  C   UNL     1     -11.783   8.178  72.519  1.00  0.00    -0.457 C  
BRANCH   3   4
HETATM    4  C   UNL     1     -11.694   9.280  71.470  1.00  0.00    -0.450 C  
BRANCH   4   5
HETATM    5  C   UNL     1     -12.798  10.312  71.668  1.00  0.00    -0.568 C  
BRANCH   5   6
HETATM    6  C   UNL     1     -12.502  11.565  70.855  1.00  0.00    -0.464 C  
BRANCH   6   7
HETATM    7  C   UNL     1     -11.545  11.251  69.715  1.00  0.00    -0.408 C  
BRANCH   7   8
HETATM    8  C   UNL     1     -11.386  12.459  68.799  1.00  0.00    -0.339 C  
BRANCH   8   9
HETATM    9  C   UNL     1     -11.919  13.699  69.498  1.00  0.00    -0.397 C  
BRANCH   9  10
HETATM   10  C   UNL     1     -11.891  14.923  68.588  1.00  0.00    -0.332 C  
BRANCH  10  11
HETATM   11  C   UNL     1     -11.082  16.076  69.205  1.00  0.00    -0.331 C  
BRANCH  11  12
HETATM   12  C   UNL     1      -9.716  16.209  68.530  1.00  0.00    -0.217 C  
BRANCH  12  13
HETATM   13  N   UNL     1      -9.440  17.587  67.909  1.00  0.00    -0.271 N  
HETATM   14  C   UNL     1     -10.061  18.708  68.736  1.00  0.00    -0.353 C  
HETATM   15  C   UNL     1      -7.931  17.826  67.802  1.00  0.00    -0.225 C  
BRANCH  13  16
HETATM   16  C   UNL     1     -10.012  17.621  66.445  1.00  0.00    -0.334 C  
BRANCH  16  17
HETATM   17  C   UNL     1      -9.829  16.291  65.705  1.00  0.00    -0.299 C  
BRANCH  17  18
HETATM   18  O   UNL     1     -11.007  15.920  64.996  1.00  0.00    -0.425 OA 
BRANCH  18  19
HETATM   19  C   UNL     1     -11.173  14.555  64.916  1.00  0.00    -0.391 A  
HETATM   20  C   UNL     1     -10.158  13.786  65.483  1.00  0.00    -0.303 A  
HETATM   21  C   UNL     1     -10.212  12.392  65.410  1.00  0.00    -0.302 A  
HETATM   22  C   UNL     1     -11.286  11.761  64.783  1.00  0.00    -0.313 A  
HETATM   23  C   UNL     1     -12.320  12.524  64.246  1.00  0.00    -0.541 A  
HETATM   24  C   UNL     1     -12.267  13.915  64.321  1.00  0.00    -0.447 A  
ENDBRANCH  18  19
ENDBRANCH  17  18
ENDBRANCH  16  17
ENDBRANCH  13  16
ENDBRANCH  12  13
ENDBRANCH  11  12
ENDBRANCH  10  11
ENDBRANCH   9  10
ENDBRANCH   8   9
ENDBRANCH   7   8
ENDBRANCH   6   7
ENDBRANCH   5   6
ENDBRANCH   4   5
ENDBRANCH   3   4
ENDBRANCH   2   3
TORSDOF 15
ENDMDL
MODEL       35
REMARK 921   NORMALIZED FREE ENERGY PREDICTED BY IDOCK:   -5.07 KCAL/MOL
REMARK 922        TOTAL FREE ENERGY PREDICTED BY IDOCK:  -10.64 KCAL/MOL
REMARK 923 INTER-LIGAND FREE ENERGY PREDICTED BY IDOCK:   -9.25 KCAL/MOL
REMARK 924 INTRA-LIGAND FREE ENERGY PREDICTED BY IDOCK:   -1.40 KCAL/MOL
REMARK 927      BINDING AFFINITY PREDICTED BY RF-SCORE:    0.00 PKD
ROOT
HETATM    1  C   UNL     1     -14.257   8.657  71.788  1.00  0.00    -0.490 C  
HETATM    2  C   UNL     1     -13.912   7.250  71.334  1.00  0.00    -0.429 C  
ENDROOT
BRANCH   2   3
HETATM    3  C   UNL     1     -12.401   7.043  71.286  1.00  0.00    -0.426 C  
BRANCH   3   4
HETATM    4  C   UNL     1     -11.722   7.729  72.466  1.00  0.00    -0.393 C  
BRANCH   4   5
HETATM    5  C   UNL     1     -10.568   8.606  71.997  1.00  0.00    -0.421 C  
BRANCH   5   6
HETATM    6  C   UNL     1     -10.362   8.450  70.496  1.00  0.00    -0.220 C  
BRANCH   6   7
HETATM    7  C   UNL     1     -10.052   9.793  69.854  1.00  0.00    -0.288 C  
BRANCH   7   8
HETATM    8  C   UNL     1     -11.287  10.686  69.851  1.00  0.00    -0.386 C  
BRANCH   8   9
HETATM    9  C   UNL     1     -11.659  11.033  68.418  1.00  0.00    -0.372 C  
BRANCH   9  10
HETATM   10  C   UNL     1     -10.728  10.364  67.412  1.00  0.00    -0.338 C  
BRANCH  10  11
HETATM   11  C   UNL     1     -10.635  11.162  66.100  1.00  0.00    -0.305 C  
BRANCH  11  12
HETATM   12  C   UNL     1     -10.380  12.644  66.379  1.00  0.00    -0.249 C  
BRANCH  12  13
HETATM   13  N   UNL     1     -11.400  13.600  65.740  1.00  0.00    -0.303 N  
HETATM   14  C   UNL     1     -12.481  12.839  64.981  1.00  0.00    -0.506 C  
HETATM   15  C   UNL     1     -12.063  14.462  66.819  1.00  0.00    -0.365 C  
BRANCH  13  16
HETATM   16  C   UNL     1     -10.652  14.582  64.767  1.00  0.00    -0.377 C  
BRANCH  16  17
HETATM   17  C   UNL     1      -9.833  15.645  65.509  1.00  0.00    -0.291 C  
BRANCH  17  18
HETATM   18  O   UNL     1     -10.337  16.956  65.269  1.00  0.00    -0.624 OA 
BRANCH  18  19
HETATM   19  C   UNL     1     -10.173  17.794  66.350  1.00  0.00    -0.365 A  
HETATM   20  C   UNL     1      -9.502  17.252  67.444  1.00  0.00    -0.245 A  
HETATM   21  C   UNL     1      -9.329  18.009  68.605  1.00  0.00    -0.293 A  
HETATM   22  C   UNL     1      -9.813  19.315  68.672  1.00  0.00    -0.500 A  
HETATM   23  C   UNL     1     -10.453  19.874  67.569  1.00  0.00    -0.535 A  
HETATM   24  C   UNL     1     -10.623  19.119  66.410  1.00  0.00    -0.522 A  
ENDBRANCH  18  19
ENDBRANCH  17  18
ENDBRANCH  16  17
ENDBRANCH  13  16
ENDBRANCH  12  13
ENDBRANCH  11  12
ENDBRANCH  10  11
ENDBRANCH   9  10
ENDBRANCH   8   9
ENDBRANCH   7   8
ENDBRANCH   6   7
ENDBRANCH   5   6
ENDBRANCH   4   5
ENDBRANCH   3   4
ENDBRANCH   2   3
TORSDOF 15
ENDMDL
MODEL       36
REMARK 921   NORMALIZED FREE ENERGY PREDICTED BY IDOCK:   -5.06 KCAL/MOL
REMARK 922        TOTAL FREE ENERGY PREDICTED BY IDOCK:  -10.61 KCAL/MOL
REMARK 923 INTER-LIGAND FREE ENERGY PREDICTED BY IDOCK:   -8.99 KCAL/MOL
REMARK 924 INTRA-LIGAND FREE ENERGY PREDICTED BY IDOCK:   -1.62 KCAL/MOL
REMARK 927      BINDING AFFINITY PREDICTED BY RF-SCORE:    0.00 PKD
ROOT
HETATM    1  C   UNL     1      -9.777  19.898  67.809  1.00  0.00    -0.516 C  
HETATM    2  C   UNL     1     -10.761  18.914  67.201  1.00  0.00    -0.506 C  
ENDROOT
BRANCH   2   3
HETATM    3  C   UNL     1     -10.045  17.670  66.685  1.00  0.00    -0.335 C  
BRANCH   3   4
HETATM    4  C   UNL     1     -10.389  16.454  67.537  1.00  0.00    -0.288 C  
BRANCH   4   5
HETATM    5  C   UNL     1     -10.502  15.200  66.677  1.00  0.00    -0.287 C  
BRANCH   5   6
HETATM    6  C   UNL     1     -10.627  15.577  65.207  1.00  0.00    -0.446 C  
BRANCH   6   7
HETATM    7  C   UNL     1     -11.929  15.049  64.626  1.00  0.00    -0.363 C  
BRANCH   7   8
HETATM    8  C   UNL     1     -12.127  13.583  64.997  1.00  0.00    -0.428 C  
BRANCH   8   9
HETATM    9  C   UNL     1     -12.030  12.727  63.744  1.00  0.00    -0.585 C  
BRANCH   9  10
HETATM   10  C   UNL     1     -10.894  11.713  63.835  1.00  0.00    -0.471 C  
BRANCH  10  11
HETATM   11  C   UNL     1     -10.207  11.746  65.211  1.00  0.00    -0.307 C  
BRANCH  11  12
HETATM   12  C   UNL     1     -10.184  10.354  65.844  1.00  0.00    -0.234 C  
BRANCH  12  13
HETATM   13  N   UNL     1      -9.977  10.347  67.367  1.00  0.00    -0.181 N  
HETATM   14  C   UNL     1      -9.521   8.980  67.865  1.00  0.00    -0.141 C  
HETATM   15  C   UNL     1      -8.930  11.394  67.762  1.00  0.00    -0.147 C  
BRANCH  13  16
HETATM   16  C   UNL     1     -11.320  10.755  68.075  1.00  0.00    -0.307 C  
BRANCH  16  17
HETATM   17  C   UNL     1     -11.113  11.784  69.193  1.00  0.00    -0.238 C  
BRANCH  17  18
HETATM   18  O   UNL     1     -12.101  11.656  70.212  1.00  0.00    -0.340 OA 
BRANCH  18  19
HETATM   19  C   UNL     1     -12.516  12.872  70.707  1.00  0.00    -0.286 A  
HETATM   20  C   UNL     1     -13.203  12.832  71.919  1.00  0.00    -0.511 A  
HETATM   21  C   UNL     1     -13.706  14.009  72.479  1.00  0.00    -0.651 A  
HETATM   22  C   UNL     1     -13.512  15.232  71.836  1.00  0.00    -0.547 A  
HETATM   23  C   UNL     1     -12.796  15.282  70.643  1.00  0.00    -0.462 A  
HETATM   24  C   UNL     1     -12.292  14.107  70.086  1.00  0.00    -0.413 A  
ENDBRANCH  18  19
ENDBRANCH  17  18
ENDBRANCH  16  17
ENDBRANCH  13  16
ENDBRANCH  12  13
ENDBRANCH  11  12
ENDBRANCH  10  11
ENDBRANCH   9  10
ENDBRANCH   8   9
ENDBRANCH   7   8
ENDBRANCH   6   7
ENDBRANCH   5   6
ENDBRANCH   4   5
ENDBRANCH   3   4
ENDBRANCH   2   3
TORSDOF 15
ENDMDL
MODEL       37
REMARK 921   NORMALIZED FREE ENERGY PREDICTED BY IDOCK:   -5.05 KCAL/MOL
REMARK 922        TOTAL FREE ENERGY PREDICTED BY IDOCK:  -10.61 KCAL/MOL
REMARK 923 INTER-LIGAND FREE ENERGY PREDICTED BY IDOCK:   -8.62 KCAL/MOL
REMARK 924 INTRA-LIGAND FREE ENERGY PREDICTED BY IDOCK:   -1.99 KCAL/MOL
REMARK 927      BINDING AFFINITY PREDICTED BY RF-SCORE:    0.00 PKD
ROOT
HETATM    1  C   UNL     1     -10.538  16.731  69.258  1.00  0.00    -0.336 C  
HETATM    2  C   UNL     1     -10.620  15.658  70.330  1.00  0.00    -0.329 C  
ENDROOT
BRANCH   2   3
HETATM    3  C   UNL     1     -11.680  16.002  71.371  1.00  0.00    -0.536 C  
BRANCH   3   4
HETATM    4  C   UNL     1     -13.013  15.348  71.024  1.00  0.00    -0.556 C  
BRANCH   4   5
HETATM    5  C   UNL     1     -13.790  14.992  72.286  1.00  0.00    -0.596 C  
BRANCH   5   6
HETATM    6  C   UNL     1     -14.140  13.510  72.289  1.00  0.00    -0.564 C  
BRANCH   6   7
HETATM    7  C   UNL     1     -13.040  12.697  71.625  1.00  0.00    -0.421 C  
BRANCH   7   8
HETATM    8  C   UNL     1     -13.283  11.204  71.818  1.00  0.00    -0.486 C  
BRANCH   8   9
HETATM    9  C   UNL     1     -12.214  10.417  71.077  1.00  0.00    -0.498 C  
BRANCH   9  10
HETATM   10  C   UNL     1     -11.995   9.038  71.689  1.00  0.00    -0.426 C  
BRANCH  10  11
HETATM   11  C   UNL     1     -10.544   8.557  71.516  1.00  0.00    -0.333 C  
BRANCH  11  12
HETATM   12  C   UNL     1     -10.338   7.929  70.137  1.00  0.00    -0.215 C  
BRANCH  12  13
HETATM   13  N   UNL     1      -9.115   8.457  69.370  1.00  0.00    -0.153 N  
HETATM   14  C   UNL     1      -8.666   9.815  69.898  1.00  0.00    -0.217 C  
HETATM   15  C   UNL     1      -7.951   7.468  69.488  1.00  0.00    -0.126 C  
BRANCH  13  16
HETATM   16  C   UNL     1      -9.468   8.565  67.842  1.00  0.00    -0.139 C  
BRANCH  16  17
HETATM   17  C   UNL     1     -10.685   9.458  67.575  1.00  0.00    -0.222 C  
BRANCH  17  18
HETATM   18  O   UNL     1     -10.484  10.291  66.437  1.00  0.00    -0.224 OA 
BRANCH  18  19
HETATM   19  C   UNL     1     -10.998  11.557  66.607  1.00  0.00    -0.296 A  
HETATM   20  C   UNL     1     -11.221  11.950  67.925  1.00  0.00    -0.325 A  
HETATM   21  C   UNL     1     -11.785  13.199  68.198  1.00  0.00    -0.391 A  
HETATM   22  C   UNL     1     -12.117  14.064  67.155  1.00  0.00    -0.436 A  
HETATM   23  C   UNL     1     -11.864  13.690  65.838  1.00  0.00    -0.406 A  
HETATM   24  C   UNL     1     -11.298  12.446  65.566  1.00  0.00    -0.387 A  
ENDBRANCH  18  19
ENDBRANCH  17  18
ENDBRANCH  16  17
ENDBRANCH  13  16
ENDBRANCH  12  13
ENDBRANCH  11  12
ENDBRANCH  10  11
ENDBRANCH   9  10
ENDBRANCH   8   9
ENDBRANCH   7   8
ENDBRANCH   6   7
ENDBRANCH   5   6
ENDBRANCH   4   5
ENDBRANCH   3   4
ENDBRANCH   2   3
TORSDOF 15
ENDMDL
MODEL       38
REMARK 921   NORMALIZED FREE ENERGY PREDICTED BY IDOCK:   -5.04 KCAL/MOL
REMARK 922        TOTAL FREE ENERGY PREDICTED BY IDOCK:  -10.59 KCAL/MOL
REMARK 923 INTER-LIGAND FREE ENERGY PREDICTED BY IDOCK:   -8.35 KCAL/MOL
REMARK 924 INTRA-LIGAND FREE ENERGY PREDICTED BY IDOCK:   -2.24 KCAL/MOL
REMARK 927      BINDING AFFINITY PREDICTED BY RF-SCORE:    0.00 PKD
ROOT
HETATM    1  C   UNL     1     -12.270  12.571  63.432  1.00  0.00    -0.613 C  
HETATM    2  C   UNL     1     -11.402  11.363  63.737  1.00  0.00    -0.310 C  
ENDROOT
BRANCH   2   3
HETATM    3  C   UNL     1      -9.965  11.590  63.280  1.00  0.00    -0.435 C  
BRANCH   3   4
HETATM    4  C   UNL     1      -9.046  10.498  63.816  1.00  0.00    -0.258 C  
BRANCH   4   5
HETATM    5  C   UNL     1      -9.622   9.874  65.082  1.00  0.00    -0.367 C  
BRANCH   5   6
HETATM    6  C   UNL     1      -8.806  10.297  66.297  1.00  0.00    -0.161 C  
BRANCH   6   7
HETATM    7  C   UNL     1      -9.603  11.250  67.173  1.00  0.00    -0.194 C  
BRANCH   7   8
HETATM    8  C   UNL     1      -9.226  12.697  66.875  1.00  0.00    -0.216 C  
BRANCH   8   9
HETATM    9  C   UNL     1     -10.462  13.460  66.427  1.00  0.00    -0.286 C  
BRANCH   9  10
HETATM   10  C   UNL     1     -10.123  14.542  65.406  1.00  0.00    -0.394 C  
BRANCH  10  11
HETATM   11  C   UNL     1      -9.336  15.701  66.041  1.00  0.00    -0.384 C  
BRANCH  11  12
HETATM   12  C   UNL     1     -10.238  16.546  66.942  1.00  0.00    -0.296 C  
BRANCH  12  13
HETATM   13  N   UNL     1      -9.567  17.043  68.232  1.00  0.00    -0.263 N  
HETATM   14  C   UNL     1      -8.300  16.254  68.545  1.00  0.00    -0.204 C  
HETATM   15  C   UNL     1      -9.208  18.527  68.103  1.00  0.00    -0.309 C  
BRANCH  13  16
HETATM   16  C   UNL     1     -10.583  16.922  69.426  1.00  0.00    -0.292 C  
BRANCH  16  17
HETATM   17  C   UNL     1     -11.533  15.728  69.278  1.00  0.00    -0.365 C  
BRANCH  17  18
HETATM   18  O   UNL     1     -12.310  15.528  70.456  1.00  0.00    -0.375 OA 
BRANCH  18  19
HETATM   19  C   UNL     1     -12.468  14.197  70.769  1.00  0.00    -0.366 A  
HETATM   20  C   UNL     1     -11.821  13.294  69.928  1.00  0.00    -0.380 A  
HETATM   21  C   UNL     1     -11.960  11.919  70.135  1.00  0.00    -0.413 A  
HETATM   22  C   UNL     1     -12.735  11.442  71.193  1.00  0.00    -0.479 A  
HETATM   23  C   UNL     1     -13.355  12.341  72.057  1.00  0.00    -0.491 A  
HETATM   24  C   UNL     1     -13.213  13.712  71.851  1.00  0.00    -0.497 A  
ENDBRANCH  18  19
ENDBRANCH  17  18
ENDBRANCH  16  17
ENDBRANCH  13  16
ENDBRANCH  12  13
ENDBRANCH  11  12
ENDBRANCH  10  11
ENDBRANCH   9  10
ENDBRANCH   8   9
ENDBRANCH   7   8
ENDBRANCH   6   7
ENDBRANCH   5   6
ENDBRANCH   4   5
ENDBRANCH   3   4
ENDBRANCH   2   3
TORSDOF 15
ENDMDL
MODEL       39
REMARK 921   NORMALIZED FREE ENERGY PREDICTED BY IDOCK:   -5.03 KCAL/MOL
REMARK 922        TOTAL FREE ENERGY PREDICTED BY IDOCK:  -10.56 KCAL/MOL
REMARK 923 INTER-LIGAND FREE ENERGY PREDICTED BY IDOCK:   -9.40 KCAL/MOL
REMARK 924 INTRA-LIGAND FREE ENERGY PREDICTED BY IDOCK:   -1.16 KCAL/MOL
REMARK 927      BINDING AFFINITY PREDICTED BY RF-SCORE:    0.00 PKD
ROOT
HETATM    1  C   UNL     1     -10.796  14.474  64.886  1.00  0.00    -0.436 C  
HETATM    2  C   UNL     1     -12.011  13.709  65.381  1.00  0.00    -0.400 C  
ENDROOT
BRANCH   2   3
HETATM    3  C   UNL     1     -12.028  12.288  64.828  1.00  0.00    -0.429 C  
BRANCH   3   4
HETATM    4  C   UNL     1     -10.920  12.093  63.800  1.00  0.00    -0.494 C  
BRANCH   4   5
HETATM    5  C   UNL     1     -10.078  10.867  64.132  1.00  0.00    -0.416 C  
BRANCH   5   6
HETATM    6  C   UNL     1     -10.129  10.580  65.627  1.00  0.00    -0.333 C  
BRANCH   6   7
HETATM    7  C   UNL     1      -9.500   9.231  65.937  1.00  0.00    -0.325 C  
BRANCH   7   8
HETATM    8  C   UNL     1     -10.211   8.563  67.109  1.00  0.00    -0.355 C  
BRANCH   8   9
HETATM    9  C   UNL     1     -10.302   7.066  66.859  1.00  0.00    -0.338 C  
BRANCH   9  10
HETATM   10  C   UNL     1     -10.950   6.332  68.029  1.00  0.00    -0.418 C  
BRANCH  10  11
HETATM   11  C   UNL     1     -10.555   6.950  69.381  1.00  0.00    -0.254 C  
BRANCH  11  12
HETATM   12  C   UNL     1     -11.655   6.738  70.421  1.00  0.00    -0.367 C  
BRANCH  12  13
HETATM   13  N   UNL     1     -11.941   7.960  71.309  1.00  0.00    -0.296 N  
HETATM   14  C   UNL     1     -13.430   8.101  71.604  1.00  0.00    -0.332 C  
HETATM   15  C   UNL     1     -11.181   7.840  72.633  1.00  0.00    -0.381 C  
BRANCH  13  16
HETATM   16  C   UNL     1     -11.411   9.255  70.594  1.00  0.00    -0.275 C  
BRANCH  16  17
HETATM   17  C   UNL     1     -12.208  10.510  70.970  1.00  0.00    -0.400 C  
BRANCH  17  18
HETATM   18  O   UNL     1     -11.712  11.665  70.301  1.00  0.00    -0.325 OA 
BRANCH  18  19
HETATM   19  C   UNL     1     -12.336  12.824  70.706  1.00  0.00    -0.287 A  
HETATM   20  C   UNL     1     -13.232  12.693  71.765  1.00  0.00    -0.457 A  
HETATM   21  C   UNL     1     -13.951  13.803  72.216  1.00  0.00    -0.672 A  
HETATM   22  C   UNL     1     -13.766  15.051  71.621  1.00  0.00    -0.553 A  
HETATM   23  C   UNL     1     -12.845  15.194  70.586  1.00  0.00    -0.440 A  
HETATM   24  C   UNL     1     -12.127  14.087  70.138  1.00  0.00    -0.419 A  
ENDBRANCH  18  19
ENDBRANCH  17  18
ENDBRANCH  16  17
ENDBRANCH  13  16
ENDBRANCH  12  13
ENDBRANCH  11  12
ENDBRANCH  10  11
ENDBRANCH   9  10
ENDBRANCH   8   9
ENDBRANCH   7   8
ENDBRANCH   6   7
ENDBRANCH   5   6
ENDBRANCH   4   5
ENDBRANCH   3   4
ENDBRANCH   2   3
TORSDOF 15
ENDMDL
MODEL       40
REMARK 921   NORMALIZED FREE ENERGY PREDICTED BY IDOCK:   -5.02 KCAL/MOL
REMARK 922        TOTAL FREE ENERGY PREDICTED BY IDOCK:  -10.55 KCAL/MOL
REMARK 923 INTER-LIGAND FREE ENERGY PREDICTED BY IDOCK:   -8.41 KCAL/MOL
REMARK 924 INTRA-LIGAND FREE ENERGY PREDICTED BY IDOCK:   -2.14 KCAL/MOL
REMARK 927      BINDING AFFINITY PREDICTED BY RF-SCORE:    0.00 PKD
ROOT
HETATM    1  C   UNL     1     -10.850  16.080  69.183  1.00  0.00    -0.281 C  
HETATM    2  C   UNL     1     -12.072  15.807  70.042  1.00  0.00    -0.344 C  
ENDROOT
BRANCH   2   3
HETATM    3  C   UNL     1     -11.723  15.859  71.526  1.00  0.00    -0.545 C  
BRANCH   3   4
HETATM    4  C   UNL     1     -12.983  15.792  72.381  1.00  0.00    -0.546 C  
BRANCH   4   5
HETATM    5  C   UNL     1     -13.110  14.434  73.060  1.00  0.00    -0.581 C  
BRANCH   5   6
HETATM    6  C   UNL     1     -13.964  13.499  72.213  1.00  0.00    -0.638 C  
BRANCH   6   7
HETATM    7  C   UNL     1     -13.195  12.233  71.871  1.00  0.00    -0.481 C  
BRANCH   7   8
HETATM    8  C   UNL     1     -12.385  12.424  70.593  1.00  0.00    -0.367 C  
BRANCH   8   9
HETATM    9  C   UNL     1     -12.008  11.066  70.024  1.00  0.00    -0.430 C  
BRANCH   9  10
HETATM   10  C   UNL     1     -11.800  11.119  68.514  1.00  0.00    -0.330 C  
BRANCH  10  11
HETATM   11  C   UNL     1     -11.821  12.563  67.984  1.00  0.00    -0.382 C  
BRANCH  11  12
HETATM   12  C   UNL     1     -10.709  12.785  66.958  1.00  0.00    -0.253 C  
BRANCH  12  13
HETATM   13  N   UNL     1     -11.203  13.055  65.528  1.00  0.00    -0.285 N  
HETATM   14  C   UNL     1     -12.677  13.443  65.509  1.00  0.00    -0.410 C  
HETATM   15  C   UNL     1     -10.385  14.183  64.891  1.00  0.00    -0.408 C  
BRANCH  13  16
HETATM   16  C   UNL     1     -10.974  11.773  64.648  1.00  0.00    -0.310 C  
BRANCH  16  17
HETATM   17  C   UNL     1      -9.647  11.070  64.957  1.00  0.00    -0.247 C  
BRANCH  17  18
HETATM   18  O   UNL     1      -9.822   9.664  65.106  1.00  0.00    -0.295 OA 
BRANCH  18  19
HETATM   19  C   UNL     1      -9.564   9.228  66.387  1.00  0.00    -0.238 A  
HETATM   20  C   UNL     1     -10.374   8.193  66.850  1.00  0.00    -0.401 A  
HETATM   21  C   UNL     1     -10.222   7.715  68.154  1.00  0.00    -0.236 A  
HETATM   22  C   UNL     1      -9.251   8.260  68.995  1.00  0.00    -0.147 A  
HETATM   23  C   UNL     1      -8.416   9.270  68.525  1.00  0.00    -0.123 A  
HETATM   24  C   UNL     1      -8.567   9.745  67.223  1.00  0.00    -0.128 A  
ENDBRANCH  18  19
ENDBRANCH  17  18
ENDBRANCH  16  17
ENDBRANCH  13  16
ENDBRANCH  12  13
ENDBRANCH  11  12
ENDBRANCH  10  11
ENDBRANCH   9  10
ENDBRANCH   8   9
ENDBRANCH   7   8
ENDBRANCH   6   7
ENDBRANCH   5   6
ENDBRANCH   4   5
ENDBRANCH   3   4
ENDBRANCH   2   3
TORSDOF 15
ENDMDL
MODEL       41
REMARK 921   NORMALIZED FREE ENERGY PREDICTED BY IDOCK:   -5.02 KCAL/MOL
REMARK 922        TOTAL FREE ENERGY PREDICTED BY IDOCK:  -10.55 KCAL/MOL
REMARK 923 INTER-LIGAND FREE ENERGY PREDICTED BY IDOCK:   -9.36 KCAL/MOL
REMARK 924 INTRA-LIGAND FREE ENERGY PREDICTED BY IDOCK:   -1.19 KCAL/MOL
REMARK 927      BINDING AFFINITY PREDICTED BY RF-SCORE:    0.00 PKD
ROOT
HETATM    1  C   UNL     1     -10.268   5.347  66.356  1.00  0.00    -0.268 C  
HETATM    2  C   UNL     1     -11.103   6.461  66.962  1.00  0.00    -0.405 C  
ENDROOT
BRANCH   2   3
HETATM    3  C   UNL     1     -10.221   7.485  67.669  1.00  0.00    -0.275 C  
BRANCH   3   4
HETATM    4  C   UNL     1     -10.432   8.877  67.085  1.00  0.00    -0.344 C  
BRANCH   4   5
HETATM    5  C   UNL     1      -9.177   9.364  66.369  1.00  0.00    -0.215 C  
BRANCH   5   6
HETATM    6  C   UNL     1      -9.514   9.789  64.946  1.00  0.00    -0.331 C  
BRANCH   6   7
HETATM    7  C   UNL     1     -10.293  11.094  64.946  1.00  0.00    -0.375 C  
BRANCH   7   8
HETATM    8  C   UNL     1     -10.431  11.638  63.528  1.00  0.00    -0.498 C  
BRANCH   8   9
HETATM    9  C   UNL     1     -11.597  12.612  63.470  1.00  0.00    -0.584 C  
BRANCH   9  10
HETATM   10  C   UNL     1     -12.511  12.478  64.684  1.00  0.00    -0.539 C  
BRANCH  10  11
HETATM   11  C   UNL     1     -12.622  13.799  65.465  1.00  0.00    -0.551 C  
BRANCH  11  12
HETATM   12  C   UNL     1     -12.145  13.623  66.907  1.00  0.00    -0.386 C  
BRANCH  12  13
HETATM   13  N   UNL     1     -10.953  14.511  67.300  1.00  0.00    -0.297 N  
HETATM   14  C   UNL     1     -11.376  15.631  68.244  1.00  0.00    -0.356 C  
HETATM   15  C   UNL     1      -9.869  13.670  67.981  1.00  0.00    -0.244 C  
BRANCH  13  16
HETATM   16  C   UNL     1     -10.310  15.120  66.001  1.00  0.00    -0.311 C  
BRANCH  16  17
HETATM   17  C   UNL     1      -8.881  15.626  66.227  1.00  0.00    -0.329 C  
BRANCH  17  18
HETATM   18  O   UNL     1      -8.712  16.953  65.735  1.00  0.00    -0.512 OA 
BRANCH  18  19
HETATM   19  C   UNL     1      -9.154  17.910  66.622  1.00  0.00    -0.267 A  
HETATM   20  C   UNL     1     -10.226  18.688  66.191  1.00  0.00    -0.450 A  
HETATM   21  C   UNL     1     -10.715  19.717  67.000  1.00  0.00    -0.575 A  
HETATM   22  C   UNL     1     -10.143  19.963  68.248  1.00  0.00    -0.571 A  
HETATM   23  C   UNL     1      -9.094  19.165  68.698  1.00  0.00    -0.414 A  
HETATM   24  C   UNL     1      -8.608  18.137  67.892  1.00  0.00    -0.259 A  
ENDBRANCH  18  19
ENDBRANCH  17  18
ENDBRANCH  16  17
ENDBRANCH  13  16
ENDBRANCH  12  13
ENDBRANCH  11  12
ENDBRANCH  10  11
ENDBRANCH   9  10
ENDBRANCH   8   9
ENDBRANCH   7   8
ENDBRANCH   6   7
ENDBRANCH   5   6
ENDBRANCH   4   5
ENDBRANCH   3   4
ENDBRANCH   2   3
TORSDOF 15
ENDMDL
MODEL       42
REMARK 921   NORMALIZED FREE ENERGY PREDICTED BY IDOCK:   -5.01 KCAL/MOL
REMARK 922        TOTAL FREE ENERGY PREDICTED BY IDOCK:  -10.54 KCAL/MOL
REMARK 923 INTER-LIGAND FREE ENERGY PREDICTED BY IDOCK:   -9.14 KCAL/MOL
REMARK 924 INTRA-LIGAND FREE ENERGY PREDICTED BY IDOCK:   -1.39 KCAL/MOL
REMARK 927      BINDING AFFINITY PREDICTED BY RF-SCORE:    0.00 PKD
ROOT
HETATM    1  C   UNL     1      -8.695   8.538  70.813  1.00  0.00    -0.183 C  
HETATM    2  C   UNL     1      -9.466   7.362  71.388  1.00  0.00    -0.160 C  
ENDROOT
BRANCH   2   3
HETATM    3  C   UNL     1     -10.791   7.165  70.658  1.00  0.00    -0.268 C  
BRANCH   3   4
HETATM    4  C   UNL     1     -11.952   7.122  71.645  1.00  0.00    -0.353 C  
BRANCH   4   5
HETATM    5  C   UNL     1     -12.030   8.411  72.453  1.00  0.00    -0.451 C  
BRANCH   5   6
HETATM    6  C   UNL     1     -13.390   9.070  72.266  1.00  0.00    -0.523 C  
BRANCH   6   7
HETATM    7  C   UNL     1     -13.237  10.449  71.644  1.00  0.00    -0.502 C  
BRANCH   7   8
HETATM    8  C   UNL     1     -11.851  10.612  71.030  1.00  0.00    -0.396 C  
BRANCH   8   9
HETATM    9  C   UNL     1     -11.985  11.137  69.610  1.00  0.00    -0.429 C  
BRANCH   9  10
HETATM   10  C   UNL     1     -11.241  10.261  68.607  1.00  0.00    -0.263 C  
BRANCH  10  11
HETATM   11  C   UNL     1     -11.119  10.942  67.233  1.00  0.00    -0.350 C  
BRANCH  11  12
HETATM   12  C   UNL     1     -11.374  12.446  67.343  1.00  0.00    -0.321 C  
BRANCH  12  13
HETATM   13  N   UNL     1     -11.228  13.218  66.022  1.00  0.00    -0.294 N  
HETATM   14  C   UNL     1     -10.872  12.289  64.867  1.00  0.00    -0.302 C  
HETATM   15  C   UNL     1     -12.534  13.945  65.689  1.00  0.00    -0.505 C  
BRANCH  13  16
HETATM   16  C   UNL     1     -10.120  14.321  66.185  1.00  0.00    -0.313 C  
BRANCH  16  17
HETATM   17  C   UNL     1     -10.681  15.745  66.095  1.00  0.00    -0.290 C  
BRANCH  17  18
HETATM   18  O   UNL     1     -10.696  16.382  67.369  1.00  0.00    -0.322 OA 
BRANCH  18  19
HETATM   19  C   UNL     1     -10.396  17.725  67.296  1.00  0.00    -0.363 A  
HETATM   20  C   UNL     1     -10.007  18.326  68.491  1.00  0.00    -0.413 A  
HETATM   21  C   UNL     1      -9.728  19.695  68.528  1.00  0.00    -0.493 A  
HETATM   22  C   UNL     1      -9.824  20.464  67.368  1.00  0.00    -0.587 A  
HETATM   23  C   UNL     1     -10.178  19.861  66.164  1.00  0.00    -0.611 A  
HETATM   24  C   UNL     1     -10.453  18.495  66.127  1.00  0.00    -0.447 A  
ENDBRANCH  18  19
ENDBRANCH  17  18
ENDBRANCH  16  17
ENDBRANCH  13  16
ENDBRANCH  12  13
ENDBRANCH  11  12
ENDBRANCH  10  11
ENDBRANCH   9  10
ENDBRANCH   8   9
ENDBRANCH   7   8
ENDBRANCH   6   7
ENDBRANCH   5   6
ENDBRANCH   4   5
ENDBRANCH   3   4
ENDBRANCH   2   3
TORSDOF 15
ENDMDL
MODEL       43
REMARK 921   NORMALIZED FREE ENERGY PREDICTED BY IDOCK:   -5.01 KCAL/MOL
REMARK 922        TOTAL FREE ENERGY PREDICTED BY IDOCK:  -10.53 KCAL/MOL
REMARK 923 INTER-LIGAND FREE ENERGY PREDICTED BY IDOCK:   -8.42 KCAL/MOL
REMARK 924 INTRA-LIGAND FREE ENERGY PREDICTED BY IDOCK:   -2.11 KCAL/MOL
REMARK 927      BINDING AFFINITY PREDICTED BY RF-SCORE:    0.00 PKD
ROOT
HETATM    1  C   UNL     1     -12.144  14.150  69.697  1.00  0.00    -0.400 C  
HETATM    2  C   UNL     1     -11.168  14.042  68.539  1.00  0.00    -0.291 C  
ENDROOT
BRANCH   2   3
HETATM    3  C   UNL     1     -11.884  13.642  67.253  1.00  0.00    -0.429 C  
BRANCH   3   4
HETATM    4  C   UNL     1     -11.464  14.541  66.096  1.00  0.00    -0.357 C  
BRANCH   4   5
HETATM    5  C   UNL     1     -12.231  14.191  64.827  1.00  0.00    -0.457 C  
BRANCH   5   6
HETATM    6  C   UNL     1     -12.654  12.728  64.853  1.00  0.00    -0.541 C  
BRANCH   6   7
HETATM    7  C   UNL     1     -12.168  12.006  63.605  1.00  0.00    -0.642 C  
BRANCH   7   8
HETATM    8  C   UNL     1     -10.647  12.049  63.517  1.00  0.00    -0.514 C  
BRANCH   8   9
HETATM    9  C   UNL     1     -10.062  10.875  64.286  1.00  0.00    -0.413 C  
BRANCH   9  10
HETATM   10  C   UNL     1      -9.475  11.308  65.626  1.00  0.00    -0.254 C  
BRANCH  10  11
HETATM   11  C   UNL     1     -10.059  10.496  66.795  1.00  0.00    -0.270 C  
BRANCH  11  12
HETATM   12  C   UNL     1      -8.949   9.803  67.587  1.00  0.00    -0.128 C  
BRANCH  12  13
HETATM   13  N   UNL     1      -9.110   8.280  67.714  1.00  0.00    -0.132 N  
HETATM   14  C   UNL     1     -10.460   7.813  67.181  1.00  0.00    -0.343 C  
HETATM   15  C   UNL     1      -7.996   7.565  66.942  1.00  0.00    -0.115 C  
BRANCH  13  16
HETATM   16  C   UNL     1      -8.957   7.866  69.223  1.00  0.00    -0.145 C  
BRANCH  16  17
HETATM   17  C   UNL     1      -8.921   9.072  70.169  1.00  0.00    -0.184 C  
BRANCH  17  18
HETATM   18  O   UNL     1      -9.467   8.753  71.446  1.00  0.00    -0.210 OA 
BRANCH  18  19
HETATM   19  C   UNL     1     -10.787   9.126  71.568  1.00  0.00    -0.366 A  
HETATM   20  C   UNL     1     -11.166  10.261  70.854  1.00  0.00    -0.311 A  
HETATM   21  C   UNL     1     -12.472  10.747  70.952  1.00  0.00    -0.500 A  
HETATM   22  C   UNL     1     -13.409  10.091  71.752  1.00  0.00    -0.492 A  
HETATM   23  C   UNL     1     -13.044   8.936  72.439  1.00  0.00    -0.476 A  
HETATM   24  C   UNL     1     -11.742   8.451  72.340  1.00  0.00    -0.452 A  
ENDBRANCH  18  19
ENDBRANCH  17  18
ENDBRANCH  16  17
ENDBRANCH  13  16
ENDBRANCH  12  13
ENDBRANCH  11  12
ENDBRANCH  10  11
ENDBRANCH   9  10
ENDBRANCH   8   9
ENDBRANCH   7   8
ENDBRANCH   6   7
ENDBRANCH   5   6
ENDBRANCH   4   5
ENDBRANCH   3   4
ENDBRANCH   2   3
TORSDOF 15
ENDMDL
MODEL       44
REMARK 921   NORMALIZED FREE ENERGY PREDICTED BY IDOCK:   -5.01 KCAL/MOL
REMARK 922        TOTAL FREE ENERGY PREDICTED BY IDOCK:  -10.53 KCAL/MOL
REMARK 923 INTER-LIGAND FREE ENERGY PREDICTED BY IDOCK:   -8.95 KCAL/MOL
REMARK 924 INTRA-LIGAND FREE ENERGY PREDICTED BY IDOCK:   -1.58 KCAL/MOL
REMARK 927      BINDING AFFINITY PREDICTED BY RF-SCORE:    0.00 PKD
ROOT
HETATM    1  C   UNL     1     -12.027  11.104  70.493  1.00  0.00    -0.475 C  
HETATM    2  C   UNL     1     -12.441  10.218  71.654  1.00  0.00    -0.491 C  
ENDROOT
BRANCH   2   3
HETATM    3  C   UNL     1     -11.530   8.999  71.767  1.00  0.00    -0.442 C  
BRANCH   3   4
HETATM    4  C   UNL     1     -10.652   8.862  70.529  1.00  0.00    -0.262 C  
BRANCH   4   5
HETATM    5  C   UNL     1     -10.697   7.440  69.983  1.00  0.00    -0.258 C  
BRANCH   5   6
HETATM    6  C   UNL     1      -9.379   7.095  69.302  1.00  0.00    -0.146 C  
BRANCH   6   7
HETATM    7  C   UNL     1      -9.614   6.671  67.861  1.00  0.00    -0.121 C  
BRANCH   7   8
HETATM    8  C   UNL     1     -10.730   7.498  67.233  1.00  0.00    -0.365 C  
BRANCH   8   9
HETATM    9  C   UNL     1     -10.134   8.720  66.552  1.00  0.00    -0.349 C  
BRANCH   9  10
HETATM   10  C   UNL     1     -10.711  10.019  67.107  1.00  0.00    -0.279 C  
BRANCH  10  11
HETATM   11  C   UNL     1     -10.073  11.255  66.451  1.00  0.00    -0.260 C  
BRANCH  11  12
HETATM   12  C   UNL     1     -11.141  12.271  66.046  1.00  0.00    -0.309 C  
BRANCH  12  13
HETATM   13  N   UNL     1     -10.806  13.728  66.403  1.00  0.00    -0.286 N  
HETATM   14  C   UNL     1      -9.479  13.832  67.145  1.00  0.00    -0.244 C  
HETATM   15  C   UNL     1     -10.733  14.580  65.132  1.00  0.00    -0.406 C  
BRANCH  13  16
HETATM   16  C   UNL     1     -11.962  14.324  67.286  1.00  0.00    -0.405 C  
BRANCH  16  17
HETATM   17  C   UNL     1     -11.540  14.553  68.742  1.00  0.00    -0.312 C  
BRANCH  17  18
HETATM   18  O   UNL     1     -12.304  15.590  69.352  1.00  0.00    -0.266 OA 
BRANCH  18  19
HETATM   19  C   UNL     1     -12.561  15.349  70.683  1.00  0.00    -0.439 A  
HETATM   20  C   UNL     1     -11.894  16.172  71.589  1.00  0.00    -0.557 A  
HETATM   21  C   UNL     1     -12.051  15.974  72.963  1.00  0.00    -0.628 A  
HETATM   22  C   UNL     1     -12.886  14.962  73.437  1.00  0.00    -0.638 A  
HETATM   23  C   UNL     1     -13.582  14.160  72.537  1.00  0.00    -0.644 A  
HETATM   24  C   UNL     1     -13.427  14.359  71.166  1.00  0.00    -0.368 A  
ENDBRANCH  18  19
ENDBRANCH  17  18
ENDBRANCH  16  17
ENDBRANCH  13  16
ENDBRANCH  12  13
ENDBRANCH  11  12
ENDBRANCH  10  11
ENDBRANCH   9  10
ENDBRANCH   8   9
ENDBRANCH   7   8
ENDBRANCH   6   7
ENDBRANCH   5   6
ENDBRANCH   4   5
ENDBRANCH   3   4
ENDBRANCH   2   3
TORSDOF 15
ENDMDL
MODEL       45
REMARK 921   NORMALIZED FREE ENERGY PREDICTED BY IDOCK:   -5.00 KCAL/MOL
REMARK 922        TOTAL FREE ENERGY PREDICTED BY IDOCK:  -10.50 KCAL/MOL
REMARK 923 INTER-LIGAND FREE ENERGY PREDICTED BY IDOCK:   -9.59 KCAL/MOL
REMARK 924 INTRA-LIGAND FREE ENERGY PREDICTED BY IDOCK:   -0.92 KCAL/MOL
REMARK 927      BINDING AFFINITY PREDICTED BY RF-SCORE:    0.00 PKD
ROOT
HETATM    1  C   UNL     1      -9.910   5.412  67.029  1.00  0.00    -0.181 C  
HETATM    2  C   UNL     1     -10.686   6.715  67.102  1.00  0.00    -0.440 C  
ENDROOT
BRANCH   2   3
HETATM    3  C   UNL     1      -9.761   7.889  67.407  1.00  0.00    -0.210 C  
BRANCH   3   4
HETATM    4  C   UNL     1      -9.945   9.005  66.385  1.00  0.00    -0.370 C  
BRANCH   4   5
HETATM    5  C   UNL     1      -8.850   8.961  65.326  1.00  0.00    -0.227 C  
BRANCH   5   6
HETATM    6  C   UNL     1      -9.172   9.927  64.193  1.00  0.00    -0.312 C  
BRANCH   6   7
HETATM    7  C   UNL     1     -10.319  10.847  64.582  1.00  0.00    -0.407 C  
BRANCH   7   8
HETATM    8  C   UNL     1     -10.730  11.722  63.403  1.00  0.00    -0.468 C  
BRANCH   8   9
HETATM    9  C   UNL     1     -12.227  11.982  63.464  1.00  0.00    -0.653 C  
BRANCH   9  10
HETATM   10  C   UNL     1     -12.661  12.490  64.835  1.00  0.00    -0.469 C  
BRANCH  10  11
HETATM   11  C   UNL     1     -12.386  13.995  65.001  1.00  0.00    -0.458 C  
BRANCH  11  12
HETATM   12  C   UNL     1     -12.056  14.333  66.455  1.00  0.00    -0.429 C  
BRANCH  12  13
HETATM   13  N   UNL     1     -10.747  15.115  66.649  1.00  0.00    -0.306 N  
HETATM   14  C   UNL     1      -9.536  14.189  66.652  1.00  0.00    -0.289 C  
HETATM   15  C   UNL     1     -10.579  16.148  65.530  1.00  0.00    -0.377 C  
BRANCH  13  16
HETATM   16  C   UNL     1     -10.815  15.914  68.001  1.00  0.00    -0.317 C  
BRANCH  16  17
HETATM   17  C   UNL     1     -10.331  15.093  69.202  1.00  0.00    -0.249 C  
BRANCH  17  18
HETATM   18  O   UNL     1     -11.305  14.135  69.608  1.00  0.00    -0.258 OA 
BRANCH  18  19
HETATM   19  C   UNL     1     -11.943  14.488  70.776  1.00  0.00    -0.322 A  
HETATM   20  C   UNL     1     -11.467  15.637  71.405  1.00  0.00    -0.488 A  
HETATM   21  C   UNL     1     -12.017  16.049  72.621  1.00  0.00    -0.646 A  
HETATM   22  C   UNL     1     -13.055  15.323  73.206  1.00  0.00    -0.630 A  
HETATM   23  C   UNL     1     -13.558  14.195  72.563  1.00  0.00    -0.644 A  
HETATM   24  C   UNL     1     -13.010  13.785  71.349  1.00  0.00    -0.433 A  
ENDBRANCH  18  19
ENDBRANCH  17  18
ENDBRANCH  16  17
ENDBRANCH  13  16
ENDBRANCH  12  13
ENDBRANCH  11  12
ENDBRANCH  10  11
ENDBRANCH   9  10
ENDBRANCH   8   9
ENDBRANCH   7   8
ENDBRANCH   6   7
ENDBRANCH   5   6
ENDBRANCH   4   5
ENDBRANCH   3   4
ENDBRANCH   2   3
TORSDOF 15
ENDMDL
MODEL       46
REMARK 921   NORMALIZED FREE ENERGY PREDICTED BY IDOCK:   -4.99 KCAL/MOL
REMARK 922        TOTAL FREE ENERGY PREDICTED BY IDOCK:  -10.49 KCAL/MOL
REMARK 923 INTER-LIGAND FREE ENERGY PREDICTED BY IDOCK:   -8.08 KCAL/MOL
REMARK 924 INTRA-LIGAND FREE ENERGY PREDICTED BY IDOCK:   -2.41 KCAL/MOL
REMARK 927      BINDING AFFINITY PREDICTED BY RF-SCORE:    0.00 PKD
ROOT
HETATM    1  C   UNL     1      -9.257   7.333  67.047  1.00  0.00    -0.170 C  
HETATM    2  C   UNL     1     -10.525   8.168  67.082  1.00  0.00    -0.396 C  
ENDROOT
BRANCH   2   3
HETATM    3  C   UNL     1     -10.253   9.598  66.626  1.00  0.00    -0.302 C  
BRANCH   3   4
HETATM    4  C   UNL     1      -9.441  10.355  67.670  1.00  0.00    -0.165 C  
BRANCH   4   5
HETATM    5  C   UNL     1     -10.155  11.633  68.094  1.00  0.00    -0.202 C  
BRANCH   5   6
HETATM    6  C   UNL     1     -11.567  11.316  68.571  1.00  0.00    -0.384 C  
BRANCH   6   7
HETATM    7  C   UNL     1     -11.917  12.143  69.797  1.00  0.00    -0.372 C  
BRANCH   7   8
HETATM    8  C   UNL     1     -12.007  13.623  69.440  1.00  0.00    -0.394 C  
BRANCH   8   9
HETATM    9  C   UNL     1     -12.178  14.441  70.710  1.00  0.00    -0.413 C  
BRANCH   9  10
HETATM   10  C   UNL     1     -11.488  15.797  70.611  1.00  0.00    -0.415 C  
BRANCH  10  11
HETATM   11  C   UNL     1     -11.198  16.186  69.152  1.00  0.00    -0.336 C  
BRANCH  11  12
HETATM   12  C   UNL     1      -9.711  16.480  68.949  1.00  0.00    -0.257 C  
BRANCH  12  13
HETATM   13  N   UNL     1      -9.413  17.625  67.969  1.00  0.00    -0.274 N  
HETATM   14  C   UNL     1     -10.683  18.372  67.577  1.00  0.00    -0.365 C  
HETATM   15  C   UNL     1      -8.428  18.616  68.599  1.00  0.00    -0.306 C  
BRANCH  13  16
HETATM   16  C   UNL     1      -8.715  17.043  66.686  1.00  0.00    -0.251 C  
BRANCH  16  17
HETATM   17  C   UNL     1      -9.674  16.236  65.804  1.00  0.00    -0.264 C  
BRANCH  17  18
HETATM   18  O   UNL     1      -9.347  14.849  65.807  1.00  0.00    -0.272 OA 
BRANCH  18  19
HETATM   19  C   UNL     1     -10.398  14.053  65.408  1.00  0.00    -0.359 A  
HETATM   20  C   UNL     1     -11.637  14.358  65.968  1.00  0.00    -0.364 A  
HETATM   21  C   UNL     1     -12.755  13.578  65.663  1.00  0.00    -0.478 A  
HETATM   22  C   UNL     1     -12.641  12.499  64.786  1.00  0.00    -0.493 A  
HETATM   23  C   UNL     1     -11.413  12.212  64.196  1.00  0.00    -0.460 A  
HETATM   24  C   UNL     1     -10.299  12.992  64.499  1.00  0.00    -0.386 A  
ENDBRANCH  18  19
ENDBRANCH  17  18
ENDBRANCH  16  17
ENDBRANCH  13  16
ENDBRANCH  12  13
ENDBRANCH  11  12
ENDBRANCH  10  11
ENDBRANCH   9  10
ENDBRANCH   8   9
ENDBRANCH   7   8
ENDBRANCH   6   7
ENDBRANCH   5   6
ENDBRANCH   4   5
ENDBRANCH   3   4
ENDBRANCH   2   3
TORSDOF 15
ENDMDL
MODEL       47
REMARK 921   NORMALIZED FREE ENERGY PREDICTED BY IDOCK:   -4.99 KCAL/MOL
REMARK 922        TOTAL FREE ENERGY PREDICTED BY IDOCK:  -10.49 KCAL/MOL
REMARK 923 INTER-LIGAND FREE ENERGY PREDICTED BY IDOCK:   -8.79 KCAL/MOL
REMARK 924 INTRA-LIGAND FREE ENERGY PREDICTED BY IDOCK:   -1.70 KCAL/MOL
REMARK 927      BINDING AFFINITY PREDICTED BY RF-SCORE:    0.00 PKD
ROOT
HETATM    1  C   UNL     1     -10.630   7.600  67.278  1.00  0.00    -0.388 C  
HETATM    2  C   UNL     1     -10.814   6.248  67.945  1.00  0.00    -0.417 C  
ENDROOT
BRANCH   2   3
HETATM    3  C   UNL     1     -11.316   6.406  69.377  1.00  0.00    -0.443 C  
BRANCH   3   4
HETATM    4  C   UNL     1     -10.425   5.642  70.350  1.00  0.00    -0.355 C  
BRANCH   4   5
HETATM    5  C   UNL     1     -10.630   6.135  71.778  1.00  0.00    -0.268 C  
BRANCH   5   6
HETATM    6  C   UNL     1     -11.968   6.852  71.902  1.00  0.00    -0.363 C  
BRANCH   6   7
HETATM    7  C   UNL     1     -11.777   8.251  72.468  1.00  0.00    -0.451 C  
BRANCH   7   8
HETATM    8  C   UNL     1     -12.999   9.117  72.184  1.00  0.00    -0.498 C  
BRANCH   8   9
HETATM    9  C   UNL     1     -12.560  10.408  71.513  1.00  0.00    -0.544 C  
BRANCH   9  10
HETATM   10  C   UNL     1     -12.079  10.172  70.085  1.00  0.00    -0.224 C  
BRANCH  10  11
HETATM   11  C   UNL     1     -10.897  11.086  69.721  1.00  0.00    -0.205 C  
BRANCH  11  12
HETATM   12  C   UNL     1     -11.072  11.674  68.320  1.00  0.00    -0.234 C  
BRANCH  12  13
HETATM   13  N   UNL     1      -9.924  12.588  67.861  1.00  0.00    -0.206 N  
HETATM   14  C   UNL     1      -8.563  11.969  68.159  1.00  0.00    -0.173 C  
HETATM   15  C   UNL     1     -10.030  12.855  66.357  1.00  0.00    -0.267 C  
BRANCH  13  16
HETATM   16  C   UNL     1     -10.050  13.980  68.581  1.00  0.00    -0.217 C  
BRANCH  16  17
HETATM   17  C   UNL     1     -11.488  14.512  68.598  1.00  0.00    -0.293 C  
BRANCH  17  18
HETATM   18  O   UNL     1     -11.613  15.653  69.442  1.00  0.00    -0.321 OA 
BRANCH  18  19
HETATM   19  C   UNL     1     -12.063  15.334  70.704  1.00  0.00    -0.354 A  
HETATM   20  C   UNL     1     -13.023  14.327  70.770  1.00  0.00    -0.368 A  
HETATM   21  C   UNL     1     -13.577  13.966  72.001  1.00  0.00    -0.566 A  
HETATM   22  C   UNL     1     -13.162  14.601  73.172  1.00  0.00    -0.515 A  
HETATM   23  C   UNL     1     -12.177  15.583  73.116  1.00  0.00    -0.580 A  
HETATM   24  C   UNL     1     -11.624  15.941  71.887  1.00  0.00    -0.542 A  
ENDBRANCH  18  19
ENDBRANCH  17  18
ENDBRANCH  16  17
ENDBRANCH  13  16
ENDBRANCH  12  13
ENDBRANCH  11  12
ENDBRANCH  10  11
ENDBRANCH   9  10
ENDBRANCH   8   9
ENDBRANCH   7   8
ENDBRANCH   6   7
ENDBRANCH   5   6
ENDBRANCH   4   5
ENDBRANCH   3   4
ENDBRANCH   2   3
TORSDOF 15
ENDMDL
MODEL       48
REMARK 921   NORMALIZED FREE ENERGY PREDICTED BY IDOCK:   -4.98 KCAL/MOL
REMARK 922        TOTAL FREE ENERGY PREDICTED BY IDOCK:  -10.47 KCAL/MOL
REMARK 923 INTER-LIGAND FREE ENERGY PREDICTED BY IDOCK:   -8.47 KCAL/MOL
REMARK 924 INTRA-LIGAND FREE ENERGY PREDICTED BY IDOCK:   -2.01 KCAL/MOL
REMARK 927      BINDING AFFINITY PREDICTED BY RF-SCORE:    0.00 PKD
ROOT
HETATM    1  C   UNL     1     -10.247   8.631  72.219  1.00  0.00    -0.372 C  
HETATM    2  C   UNL     1     -11.215   7.488  72.468  1.00  0.00    -0.381 C  
ENDROOT
BRANCH   2   3
HETATM    3  C   UNL     1     -11.920   7.076  71.180  1.00  0.00    -0.398 C  
BRANCH   3   4
HETATM    4  C   UNL     1     -11.231   5.873  70.546  1.00  0.00    -0.293 C  
BRANCH   4   5
HETATM    5  C   UNL     1     -10.698   6.218  69.160  1.00  0.00    -0.362 C  
BRANCH   5   6
HETATM    6  C   UNL     1      -9.280   6.766  69.262  1.00  0.00    -0.141 C  
BRANCH   6   7
HETATM    7  C   UNL     1      -9.183   8.128  68.594  1.00  0.00    -0.143 C  
BRANCH   7   8
HETATM    8  C   UNL     1     -10.517   8.517  67.967  1.00  0.00    -0.249 C  
BRANCH   8   9
HETATM    9  C   UNL     1     -10.348   9.802  67.172  1.00  0.00    -0.311 C  
BRANCH   9  10
HETATM   10  C   UNL     1      -9.751   9.542  65.792  1.00  0.00    -0.357 C  
BRANCH  10  11
HETATM   11  C   UNL     1     -10.071  10.680  64.808  1.00  0.00    -0.412 C  
BRANCH  11  12
HETATM   12  C   UNL     1      -9.845  12.046  65.459  1.00  0.00    -0.229 C  
BRANCH  12  13
HETATM   13  N   UNL     1     -10.940  13.083  65.165  1.00  0.00    -0.288 N  
HETATM   14  C   UNL     1     -10.395  14.506  65.226  1.00  0.00    -0.410 C  
HETATM   15  C   UNL     1     -11.539  12.840  63.776  1.00  0.00    -0.481 C  
BRANCH  13  16
HETATM   16  C   UNL     1     -12.109  12.912  66.202  1.00  0.00    -0.393 C  
BRANCH  16  17
HETATM   17  C   UNL     1     -11.845  13.647  67.521  1.00  0.00    -0.381 C  
BRANCH  17  18
HETATM   18  O   UNL     1     -11.170  12.813  68.459  1.00  0.00    -0.243 OA 
BRANCH  18  19
HETATM   19  C   UNL     1     -11.884  12.636  69.624  1.00  0.00    -0.311 A  
HETATM   20  C   UNL     1     -12.286  13.802  70.272  1.00  0.00    -0.429 A  
HETATM   21  C   UNL     1     -12.973  13.727  71.487  1.00  0.00    -0.444 A  
HETATM   22  C   UNL     1     -13.274  12.486  72.049  1.00  0.00    -0.524 A  
HETATM   23  C   UNL     1     -12.905  11.318  71.387  1.00  0.00    -0.515 A  
HETATM   24  C   UNL     1     -12.221  11.393  70.175  1.00  0.00    -0.401 A  
ENDBRANCH  18  19
ENDBRANCH  17  18
ENDBRANCH  16  17
ENDBRANCH  13  16
ENDBRANCH  12  13
ENDBRANCH  11  12
ENDBRANCH  10  11
ENDBRANCH   9  10
ENDBRANCH   8   9
ENDBRANCH   7   8
ENDBRANCH   6   7
ENDBRANCH   5   6
ENDBRANCH   4   5
ENDBRANCH   3   4
ENDBRANCH   2   3
TORSDOF 15
ENDMDL
MODEL       49
REMARK 921   NORMALIZED FREE ENERGY PREDICTED BY IDOCK:   -4.98 KCAL/MOL
REMARK 922        TOTAL FREE ENERGY PREDICTED BY IDOCK:  -10.47 KCAL/MOL
REMARK 923 INTER-LIGAND FREE ENERGY PREDICTED BY IDOCK:   -9.04 KCAL/MOL
REMARK 924 INTRA-LIGAND FREE ENERGY PREDICTED BY IDOCK:   -1.43 KCAL/MOL
REMARK 927      BINDING AFFINITY PREDICTED BY RF-SCORE:    0.00 PKD
ROOT
HETATM    1  C   UNL     1     -10.418   5.389  66.584  1.00  0.00    -0.356 C  
HETATM    2  C   UNL     1     -10.864   6.726  67.150  1.00  0.00    -0.462 C  
ENDROOT
BRANCH   2   3
HETATM    3  C   UNL     1      -9.687   7.688  67.277  1.00  0.00    -0.221 C  
BRANCH   3   4
HETATM    4  C   UNL     1      -9.839   8.860  66.315  1.00  0.00    -0.355 C  
BRANCH   4   5
HETATM    5  C   UNL     1      -8.813   8.780  65.191  1.00  0.00    -0.177 C  
BRANCH   5   6
HETATM    6  C   UNL     1      -9.105   9.836  64.133  1.00  0.00    -0.289 C  
BRANCH   6   7
HETATM    7  C   UNL     1     -10.247  10.737  64.575  1.00  0.00    -0.428 C  
BRANCH   7   8
HETATM    8  C   UNL     1     -10.478  11.851  63.560  1.00  0.00    -0.505 C  
BRANCH   8   9
HETATM    9  C   UNL     1     -11.963  12.171  63.488  1.00  0.00    -0.619 C  
BRANCH   9  10
HETATM   10  C   UNL     1     -12.511  12.633  64.834  1.00  0.00    -0.564 C  
BRANCH  10  11
HETATM   11  C   UNL     1     -11.865  13.952  65.292  1.00  0.00    -0.365 C  
BRANCH  11  12
HETATM   12  C   UNL     1     -12.205  14.248  66.754  1.00  0.00    -0.352 C  
BRANCH  12  13
HETATM   13  N   UNL     1     -11.064  14.891  67.558  1.00  0.00    -0.307 N  
HETATM   14  C   UNL     1     -10.089  15.634  66.652  1.00  0.00    -0.273 C  
HETATM   15  C   UNL     1     -11.631  15.872  68.588  1.00  0.00    -0.380 C  
BRANCH  13  16
HETATM   16  C   UNL     1     -10.303  13.774  68.363  1.00  0.00    -0.247 C  
BRANCH  16  17
HETATM   17  C   UNL     1     -11.178  12.549  68.650  1.00  0.00    -0.278 C  
BRANCH  17  18
HETATM   18  O   UNL     1     -11.909  12.701  69.864  1.00  0.00    -0.318 OA 
BRANCH  18  19
HETATM   19  C   UNL     1     -12.077  11.511  70.536  1.00  0.00    -0.378 A  
HETATM   20  C   UNL     1     -11.286  10.450  70.100  1.00  0.00    -0.393 A  
HETATM   21  C   UNL     1     -11.418   9.189  70.688  1.00  0.00    -0.310 A  
HETATM   22  C   UNL     1     -12.331   8.988  71.723  1.00  0.00    -0.438 A  
HETATM   23  C   UNL     1     -13.098  10.053  72.187  1.00  0.00    -0.482 A  
HETATM   24  C   UNL     1     -12.964  11.311  71.601  1.00  0.00    -0.537 A  
ENDBRANCH  18  19
ENDBRANCH  17  18
ENDBRANCH  16  17
ENDBRANCH  13  16
ENDBRANCH  12  13
ENDBRANCH  11  12
ENDBRANCH  10  11
ENDBRANCH   9  10
ENDBRANCH   8   9
ENDBRANCH   7   8
ENDBRANCH   6   7
ENDBRANCH   5   6
ENDBRANCH   4   5
ENDBRANCH   3   4
ENDBRANCH   2   3
TORSDOF 15
ENDMDL
MODEL       50
REMARK 921   NORMALIZED FREE ENERGY PREDICTED BY IDOCK:   -4.97 KCAL/MOL
REMARK 922        TOTAL FREE ENERGY PREDICTED BY IDOCK:  -10.45 KCAL/MOL
REMARK 923 INTER-LIGAND FREE ENERGY PREDICTED BY IDOCK:   -8.79 KCAL/MOL
REMARK 924 INTRA-LIGAND FREE ENERGY PREDICTED BY IDOCK:   -1.66 KCAL/MOL
REMARK 927      BINDING AFFINITY PREDICTED BY RF-SCORE:    0.00 PKD
ROOT
HETATM    1  C   UNL     1     -11.200  16.247  70.215  1.00  0.00    -0.343 C  
HETATM    2  C   UNL     1     -12.366  15.469  70.798  1.00  0.00    -0.463 C  
ENDROOT
BRANCH   2   3
HETATM    3  C   UNL     1     -12.396  14.041  70.262  1.00  0.00    -0.425 C  
BRANCH   3   4
HETATM    4  C   UNL     1     -11.303  13.830  69.220  1.00  0.00    -0.325 C  
BRANCH   4   5
HETATM    5  C   UNL     1     -11.854  13.125  67.987  1.00  0.00    -0.398 C  
BRANCH   5   6
HETATM    6  C   UNL     1     -11.710  14.017  66.761  1.00  0.00    -0.430 C  
BRANCH   6   7
HETATM    7  C   UNL     1     -12.730  13.639  65.699  1.00  0.00    -0.505 C  
BRANCH   7   8
HETATM    8  C   UNL     1     -12.079  13.589  64.321  1.00  0.00    -0.482 C  
BRANCH   8   9
HETATM    9  C   UNL     1     -11.849  12.140  63.922  1.00  0.00    -0.558 C  
BRANCH   9  10
HETATM   10  C   UNL     1     -10.371  11.840  63.694  1.00  0.00    -0.476 C  
BRANCH  10  11
HETATM   11  C   UNL     1      -9.951  10.508  64.338  1.00  0.00    -0.410 C  
BRANCH  11  12
HETATM   12  C   UNL     1     -10.202  10.527  65.846  1.00  0.00    -0.245 C  
BRANCH  12  13
HETATM   13  N   UNL     1      -9.461   9.433  66.632  1.00  0.00    -0.165 N  
HETATM   14  C   UNL     1     -10.303   8.168  66.759  1.00  0.00    -0.291 C  
HETATM   15  C   UNL     1      -8.142   9.084  65.935  1.00  0.00    -0.108 C  
BRANCH  13  16
HETATM   16  C   UNL     1      -9.093   9.978  68.059  1.00  0.00    -0.131 C  
BRANCH  16  17
HETATM   17  C   UNL     1      -9.315   8.942  69.167  1.00  0.00    -0.148 C  
BRANCH  17  18
HETATM   18  O   UNL     1      -9.399   9.557  70.450  1.00  0.00    -0.242 OA 
BRANCH  18  19
HETATM   19  C   UNL     1     -10.648   9.434  71.018  1.00  0.00    -0.330 A  
HETATM   20  C   UNL     1     -11.551  10.454  70.725  1.00  0.00    -0.450 A  
HETATM   21  C   UNL     1     -12.828  10.443  71.293  1.00  0.00    -0.533 A  
HETATM   22  C   UNL     1     -13.210   9.407  72.145  1.00  0.00    -0.541 A  
HETATM   23  C   UNL     1     -12.323   8.367  72.412  1.00  0.00    -0.412 A  
HETATM   24  C   UNL     1     -11.051   8.377  71.843  1.00  0.00    -0.378 A  
ENDBRANCH  18  19
ENDBRANCH  17  18
ENDBRANCH  16  17
ENDBRANCH  13  16
ENDBRANCH  12  13
ENDBRANCH  11  12
ENDBRANCH  10  11
ENDBRANCH   9  10
ENDBRANCH   8   9
ENDBRANCH   7   8
ENDBRANCH   6   7
ENDBRANCH   5   6
ENDBRANCH   4   5
ENDBRANCH   3   4
ENDBRANCH   2   3
TORSDOF 15
ENDMDL
MODEL       51
REMARK 921   NORMALIZED FREE ENERGY PREDICTED BY IDOCK:   -4.97 KCAL/MOL
REMARK 922        TOTAL FREE ENERGY PREDICTED BY IDOCK:  -10.44 KCAL/MOL
REMARK 923 INTER-LIGAND FREE ENERGY PREDICTED BY IDOCK:   -8.21 KCAL/MOL
REMARK 924 INTRA-LIGAND FREE ENERGY PREDICTED BY IDOCK:   -2.23 KCAL/MOL
REMARK 927      BINDING AFFINITY PREDICTED BY RF-SCORE:    0.00 PKD
ROOT
HETATM    1  C   UNL     1      -9.469  19.050  66.568  1.00  0.00    -0.375 C  
HETATM    2  C   UNL     1     -10.648  18.339  67.207  1.00  0.00    -0.406 C  
ENDROOT
BRANCH   2   3
HETATM    3  C   UNL     1     -10.192  17.435  68.347  1.00  0.00    -0.362 C  
BRANCH   3   4
HETATM    4  C   UNL     1     -11.278  16.429  68.710  1.00  0.00    -0.313 C  
BRANCH   4   5
HETATM    5  C   UNL     1     -11.232  16.088  70.194  1.00  0.00    -0.376 C  
BRANCH   5   6
HETATM    6  C   UNL     1     -12.537  15.432  70.626  1.00  0.00    -0.491 C  
BRANCH   6   7
HETATM    7  C   UNL     1     -12.370  13.925  70.737  1.00  0.00    -0.449 C  
BRANCH   7   8
HETATM    8  C   UNL     1     -13.258  13.365  71.842  1.00  0.00    -0.522 C  
BRANCH   8   9
HETATM    9  C   UNL     1     -13.188  11.846  71.828  1.00  0.00    -0.426 C  
BRANCH   9  10
HETATM   10  C   UNL     1     -12.340  11.327  70.671  1.00  0.00    -0.477 C  
BRANCH  10  11
HETATM   11  C   UNL     1     -11.651   9.996  71.019  1.00  0.00    -0.476 C  
BRANCH  11  12
HETATM   12  C   UNL     1     -11.035   9.358  69.773  1.00  0.00    -0.215 C  
BRANCH  12  13
HETATM   13  N   UNL     1      -9.515   9.143  69.850  1.00  0.00    -0.174 N  
HETATM   14  C   UNL     1      -9.050   8.937  71.287  1.00  0.00    -0.253 C  
HETATM   15  C   UNL     1      -9.111   7.922  69.017  1.00  0.00    -0.144 C  
BRANCH  13  16
HETATM   16  C   UNL     1      -8.783  10.385  69.222  1.00  0.00    -0.150 C  
BRANCH  16  17
HETATM   17  C   UNL     1      -9.623  11.090  68.151  1.00  0.00    -0.171 C  
BRANCH  17  18
HETATM   18  O   UNL     1      -9.640  12.502  68.344  1.00  0.00    -0.217 OA 
BRANCH  18  19
HETATM   19  C   UNL     1     -10.331  13.166  67.355  1.00  0.00    -0.239 A  
HETATM   20  C   UNL     1      -9.562  13.952  66.500  1.00  0.00    -0.299 A  
HETATM   21  C   UNL     1     -10.178  14.703  65.495  1.00  0.00    -0.395 A  
HETATM   22  C   UNL     1     -11.563  14.659  65.332  1.00  0.00    -0.345 A  
HETATM   23  C   UNL     1     -12.332  13.847  66.162  1.00  0.00    -0.504 A  
HETATM   24  C   UNL     1     -11.717  13.097  67.163  1.00  0.00    -0.430 A  
ENDBRANCH  18  19
ENDBRANCH  17  18
ENDBRANCH  16  17
ENDBRANCH  13  16
ENDBRANCH  12  13
ENDBRANCH  11  12
ENDBRANCH  10  11
ENDBRANCH   9  10
ENDBRANCH   8   9
ENDBRANCH   7   8
ENDBRANCH   6   7
ENDBRANCH   5   6
ENDBRANCH   4   5
ENDBRANCH   3   4
ENDBRANCH   2   3
TORSDOF 15
ENDMDL
MODEL       52
REMARK 921   NORMALIZED FREE ENERGY PREDICTED BY IDOCK:   -4.96 KCAL/MOL
REMARK 922        TOTAL FREE ENERGY PREDICTED BY IDOCK:  -10.43 KCAL/MOL
REMARK 923 INTER-LIGAND FREE ENERGY PREDICTED BY IDOCK:   -9.34 KCAL/MOL
REMARK 924 INTRA-LIGAND FREE ENERGY PREDICTED BY IDOCK:   -1.09 KCAL/MOL
REMARK 927      BINDING AFFINITY PREDICTED BY RF-SCORE:    0.00 PKD
ROOT
HETATM    1  C   UNL     1     -13.039  10.635  71.716  1.00  0.00    -0.571 C  
HETATM    2  C   UNL     1     -12.840   9.137  71.853  1.00  0.00    -0.466 C  
ENDROOT
BRANCH   2   3
HETATM    3  C   UNL     1     -11.364   8.792  72.025  1.00  0.00    -0.441 C  
BRANCH   3   4
HETATM    4  C   UNL     1     -11.156   7.282  72.031  1.00  0.00    -0.277 C  
BRANCH   4   5
HETATM    5  C   UNL     1     -11.908   6.623  70.880  1.00  0.00    -0.434 C  
BRANCH   5   6
HETATM    6  C   UNL     1     -10.932   5.921  69.946  1.00  0.00    -0.444 C  
BRANCH   6   7
HETATM    7  C   UNL     1     -10.963   6.553  68.563  1.00  0.00    -0.360 C  
BRANCH   7   8
HETATM    8  C   UNL     1      -9.809   7.536  68.395  1.00  0.00    -0.173 C  
BRANCH   8   9
HETATM    9  C   UNL     1     -10.349   8.957  68.403  1.00  0.00    -0.237 C  
BRANCH   9  10
HETATM   10  C   UNL     1     -10.281   9.599  67.022  1.00  0.00    -0.308 C  
BRANCH  10  11
HETATM   11  C   UNL     1     -10.901  11.007  67.014  1.00  0.00    -0.334 C  
BRANCH  11  12
HETATM   12  C   UNL     1     -10.439  11.801  65.791  1.00  0.00    -0.260 C  
BRANCH  12  13
HETATM   13  N   UNL     1     -11.412  12.901  65.338  1.00  0.00    -0.313 N  
HETATM   14  C   UNL     1     -12.349  12.403  64.243  1.00  0.00    -0.455 C  
HETATM   15  C   UNL     1     -12.250  13.387  66.525  1.00  0.00    -0.356 C  
BRANCH  13  16
HETATM   16  C   UNL     1     -10.592  14.138  64.820  1.00  0.00    -0.418 C  
BRANCH  16  17
HETATM   17  C   UNL     1     -11.072  15.463  65.425  1.00  0.00    -0.326 C  
BRANCH  17  18
HETATM   18  O   UNL     1     -10.087  16.485  65.294  1.00  0.00    -0.564 OA 
BRANCH  18  19
HETATM   19  C   UNL     1     -10.182  17.444  66.277  1.00  0.00    -0.341 A  
HETATM   20  C   UNL     1     -10.469  18.736  65.840  1.00  0.00    -0.424 A  
HETATM   21  C   UNL     1     -10.538  19.787  66.757  1.00  0.00    -0.586 A  
HETATM   22  C   UNL     1     -10.335  19.549  68.117  1.00  0.00    -0.550 A  
HETATM   23  C   UNL     1     -10.083  18.255  68.563  1.00  0.00    -0.419 A  
HETATM   24  C   UNL     1     -10.016  17.206  67.647  1.00  0.00    -0.283 A  
ENDBRANCH  18  19
ENDBRANCH  17  18
ENDBRANCH  16  17
ENDBRANCH  13  16
ENDBRANCH  12  13
ENDBRANCH  11  12
ENDBRANCH  10  11
ENDBRANCH   9  10
ENDBRANCH   8   9
ENDBRANCH   7   8
ENDBRANCH   6   7
ENDBRANCH   5   6
ENDBRANCH   4   5
ENDBRANCH   3   4
ENDBRANCH   2   3
TORSDOF 15
ENDMDL
MODEL       53
REMARK 921   NORMALIZED FREE ENERGY PREDICTED BY IDOCK:   -4.95 KCAL/MOL
REMARK 922        TOTAL FREE ENERGY PREDICTED BY IDOCK:  -10.42 KCAL/MOL
REMARK 923 INTER-LIGAND FREE ENERGY PREDICTED BY IDOCK:   -8.30 KCAL/MOL
REMARK 924 INTRA-LIGAND FREE ENERGY PREDICTED BY IDOCK:   -2.12 KCAL/MOL
REMARK 927      BINDING AFFINITY PREDICTED BY RF-SCORE:    0.00 PKD
ROOT
HETATM    1  C   UNL     1     -11.600  15.311  68.143  1.00  0.00    -0.344 C  
HETATM    2  C   UNL     1     -12.193  15.434  69.535  1.00  0.00    -0.277 C  
ENDROOT
BRANCH   2   3
HETATM    3  C   UNL     1     -11.187  16.038  70.509  1.00  0.00    -0.397 C  
BRANCH   3   4
HETATM    4  C   UNL     1     -11.790  16.165  71.904  1.00  0.00    -0.605 C  
BRANCH   4   5
HETATM    5  C   UNL     1     -13.219  15.635  71.930  1.00  0.00    -0.537 C  
BRANCH   5   6
HETATM    6  C   UNL     1     -13.344  14.503  72.942  1.00  0.00    -0.579 C  
BRANCH   6   7
HETATM    7  C   UNL     1     -13.850  13.236  72.271  1.00  0.00    -0.637 C  
BRANCH   7   8
HETATM    8  C   UNL     1     -12.747  12.591  71.439  1.00  0.00    -0.345 C  
BRANCH   8   9
HETATM    9  C   UNL     1     -12.946  11.084  71.415  1.00  0.00    -0.517 C  
BRANCH   9  10
HETATM   10  C   UNL     1     -12.253  10.437  70.220  1.00  0.00    -0.349 C  
BRANCH  10  11
HETATM   11  C   UNL     1     -11.538  11.477  69.342  1.00  0.00    -0.388 C  
BRANCH  11  12
HETATM   12  C   UNL     1     -11.636  11.103  67.862  1.00  0.00    -0.251 C  
BRANCH  12  13
HETATM   13  N   UNL     1     -10.307  10.669  67.223  1.00  0.00    -0.208 N  
HETATM   14  C   UNL     1     -10.290  10.945  65.724  1.00  0.00    -0.241 C  
HETATM   15  C   UNL     1      -9.138  11.412  67.879  1.00  0.00    -0.164 C  
BRANCH  13  16
HETATM   16  C   UNL     1     -10.080   9.136  67.489  1.00  0.00    -0.228 C  
BRANCH  16  17
HETATM   17  C   UNL     1      -8.998   8.870  68.543  1.00  0.00    -0.134 C  
BRANCH  17  18
HETATM   18  O   UNL     1      -9.140   7.576  69.123  1.00  0.00    -0.139 OA 
BRANCH  18  19
HETATM   19  C   UNL     1      -9.967   7.574  70.224  1.00  0.00    -0.192 A  
HETATM   20  C   UNL     1      -9.493   8.263  71.340  1.00  0.00    -0.227 A  
HETATM   21  C   UNL     1     -10.238   8.278  72.522  1.00  0.00    -0.386 A  
HETATM   22  C   UNL     1     -11.465   7.617  72.589  1.00  0.00    -0.403 A  
HETATM   23  C   UNL     1     -11.959   6.958  71.466  1.00  0.00    -0.386 A  
HETATM   24  C   UNL     1     -11.216   6.945  70.286  1.00  0.00    -0.363 A  
ENDBRANCH  18  19
ENDBRANCH  17  18
ENDBRANCH  16  17
ENDBRANCH  13  16
ENDBRANCH  12  13
ENDBRANCH  11  12
ENDBRANCH  10  11
ENDBRANCH   9  10
ENDBRANCH   8   9
ENDBRANCH   7   8
ENDBRANCH   6   7
ENDBRANCH   5   6
ENDBRANCH   4   5
ENDBRANCH   3   4
ENDBRANCH   2   3
TORSDOF 15
ENDMDL
MODEL       54
REMARK 921   NORMALIZED FREE ENERGY PREDICTED BY IDOCK:   -4.93 KCAL/MOL
REMARK 922        TOTAL FREE ENERGY PREDICTED BY IDOCK:  -10.37 KCAL/MOL
REMARK 923 INTER-LIGAND FREE ENERGY PREDICTED BY IDOCK:   -8.79 KCAL/MOL
REMARK 924 INTRA-LIGAND FREE ENERGY PREDICTED BY IDOCK:   -1.58 KCAL/MOL
REMARK 927      BINDING AFFINITY PREDICTED BY RF-SCORE:    0.00 PKD
ROOT
HETATM    1  C   UNL     1     -11.320  14.091  65.943  1.00  0.00    -0.317 C  
HETATM    2  C   UNL     1     -12.610  13.670  65.261  1.00  0.00    -0.512 C  
ENDROOT
BRANCH   2   3
HETATM    3  C   UNL     1     -12.402  12.415  64.421  1.00  0.00    -0.532 C  
BRANCH   3   4
HETATM    4  C   UNL     1     -10.960  12.320  63.935  1.00  0.00    -0.464 C  
BRANCH   4   5
HETATM    5  C   UNL     1     -10.376  10.943  64.226  1.00  0.00    -0.436 C  
BRANCH   5   6
HETATM    6  C   UNL     1      -9.598  10.966  65.536  1.00  0.00    -0.266 C  
BRANCH   6   7
HETATM    7  C   UNL     1     -10.176   9.963  66.521  1.00  0.00    -0.292 C  
BRANCH   7   8
HETATM    8  C   UNL     1     -11.215  10.627  67.418  1.00  0.00    -0.280 C  
BRANCH   8   9
HETATM    9  C   UNL     1     -10.545  11.119  68.691  1.00  0.00    -0.222 C  
BRANCH   9  10
HETATM   10  C   UNL     1     -11.555  11.372  69.805  1.00  0.00    -0.407 C  
BRANCH  10  11
HETATM   11  C   UNL     1     -12.157  12.786  69.721  1.00  0.00    -0.305 C  
BRANCH  11  12
HETATM   12  C   UNL     1     -12.400  13.360  71.117  1.00  0.00    -0.259 C  
BRANCH  12  13
HETATM   13  N   UNL     1     -12.719  14.864  71.144  1.00  0.00    -0.317 N  
HETATM   14  C   UNL     1     -14.152  15.124  71.593  1.00  0.00    -0.549 C  
HETATM   15  C   UNL     1     -11.761  15.590  72.093  1.00  0.00    -0.476 C  
BRANCH  13  16
HETATM   16  C   UNL     1     -12.487  15.468  69.711  1.00  0.00    -0.156 C  
BRANCH  16  17
HETATM   17  C   UNL     1     -11.278  16.409  69.652  1.00  0.00    -0.257 C  
BRANCH  17  18
HETATM   18  O   UNL     1     -10.838  16.612  68.312  1.00  0.00    -0.334 OA 
BRANCH  18  19
HETATM   19  C   UNL     1     -10.037  17.725  68.178  1.00  0.00    -0.362 A  
HETATM   20  C   UNL     1     -10.657  18.861  67.661  1.00  0.00    -0.501 A  
HETATM   21  C   UNL     1      -9.917  20.025  67.443  1.00  0.00    -0.571 A  
HETATM   22  C   UNL     1      -8.557  20.063  67.753  1.00  0.00    -0.347 A  
HETATM   23  C   UNL     1      -7.941  18.942  68.303  1.00  0.00    -0.343 A  
HETATM   24  C   UNL     1      -8.681  17.781  68.523  1.00  0.00    -0.284 A  
ENDBRANCH  18  19
ENDBRANCH  17  18
ENDBRANCH  16  17
ENDBRANCH  13  16
ENDBRANCH  12  13
ENDBRANCH  11  12
ENDBRANCH  10  11
ENDBRANCH   9  10
ENDBRANCH   8   9
ENDBRANCH   7   8
ENDBRANCH   6   7
ENDBRANCH   5   6
ENDBRANCH   4   5
ENDBRANCH   3   4
ENDBRANCH   2   3
TORSDOF 15
ENDMDL
MODEL       55
REMARK 921   NORMALIZED FREE ENERGY PREDICTED BY IDOCK:   -4.90 KCAL/MOL
REMARK 922        TOTAL FREE ENERGY PREDICTED BY IDOCK:  -10.31 KCAL/MOL
REMARK 923 INTER-LIGAND FREE ENERGY PREDICTED BY IDOCK:   -8.77 KCAL/MOL
REMARK 924 INTRA-LIGAND FREE ENERGY PREDICTED BY IDOCK:   -1.54 KCAL/MOL
REMARK 927      BINDING AFFINITY PREDICTED BY RF-SCORE:    0.00 PKD
ROOT
HETATM    1  C   UNL     1     -12.233  12.040  63.545  1.00  0.00    -0.653 C  
HETATM    2  C   UNL     1     -10.818  11.489  63.555  1.00  0.00    -0.473 C  
ENDROOT
BRANCH   2   3
HETATM    3  C   UNL     1     -10.294  11.349  64.981  1.00  0.00    -0.342 C  
BRANCH   3   4
HETATM    4  C   UNL     1      -9.753   9.945  65.225  1.00  0.00    -0.383 C  
BRANCH   4   5
HETATM    5  C   UNL     1     -10.062   9.481  66.643  1.00  0.00    -0.321 C  
BRANCH   5   6
HETATM    6  C   UNL     1      -8.875   9.753  67.558  1.00  0.00    -0.129 C  
BRANCH   6   7
HETATM    7  C   UNL     1      -9.234   9.458  69.005  1.00  0.00    -0.145 C  
BRANCH   7   8
HETATM    8  C   UNL     1     -10.743   9.531  69.211  1.00  0.00    -0.240 C  
BRANCH   8   9
HETATM    9  C   UNL     1     -11.049  10.422  70.404  1.00  0.00    -0.371 C  
BRANCH   9  10
HETATM   10  C   UNL     1     -11.959  11.587  70.027  1.00  0.00    -0.435 C  
BRANCH  10  11
HETATM   11  C   UNL     1     -11.718  12.055  68.581  1.00  0.00    -0.380 C  
BRANCH  11  12
HETATM   12  C   UNL     1     -10.707  13.201  68.538  1.00  0.00    -0.259 C  
BRANCH  12  13
HETATM   13  N   UNL     1     -11.083  14.350  67.589  1.00  0.00    -0.290 N  
HETATM   14  C   UNL     1     -12.278  13.987  66.715  1.00  0.00    -0.404 C  
HETATM   15  C   UNL     1     -11.421  15.609  68.394  1.00  0.00    -0.369 C  
BRANCH  13  16
HETATM   16  C   UNL     1      -9.845  14.704  66.687  1.00  0.00    -0.269 C  
BRANCH  16  17
HETATM   17  C   UNL     1     -10.157  15.791  65.651  1.00  0.00    -0.371 C  
BRANCH  17  18
HETATM   18  O   UNL     1      -9.126  16.773  65.597  1.00  0.00    -0.489 OA 
BRANCH  18  19
HETATM   19  C   UNL     1      -9.413  17.889  66.350  1.00  0.00    -0.267 A  
HETATM   20  C   UNL     1      -8.540  18.152  67.404  1.00  0.00    -0.244 A  
HETATM   21  C   UNL     1      -8.775  19.235  68.255  1.00  0.00    -0.377 A  
HETATM   22  C   UNL     1      -9.875  20.067  68.048  1.00  0.00    -0.522 A  
HETATM   23  C   UNL     1     -10.731  19.829  66.975  1.00  0.00    -0.542 A  
HETATM   24  C   UNL     1     -10.494  18.750  66.125  1.00  0.00    -0.499 A  
ENDBRANCH  18  19
ENDBRANCH  17  18
ENDBRANCH  16  17
ENDBRANCH  13  16
ENDBRANCH  12  13
ENDBRANCH  11  12
ENDBRANCH  10  11
ENDBRANCH   9  10
ENDBRANCH   8   9
ENDBRANCH   7   8
ENDBRANCH   6   7
ENDBRANCH   5   6
ENDBRANCH   4   5
ENDBRANCH   3   4
ENDBRANCH   2   3
TORSDOF 15
ENDMDL
MODEL       56
REMARK 921   NORMALIZED FREE ENERGY PREDICTED BY IDOCK:   -4.90 KCAL/MOL
REMARK 922        TOTAL FREE ENERGY PREDICTED BY IDOCK:  -10.31 KCAL/MOL
REMARK 923 INTER-LIGAND FREE ENERGY PREDICTED BY IDOCK:   -7.66 KCAL/MOL
REMARK 924 INTRA-LIGAND FREE ENERGY PREDICTED BY IDOCK:   -2.65 KCAL/MOL
REMARK 927      BINDING AFFINITY PREDICTED BY RF-SCORE:    0.00 PKD
ROOT
HETATM    1  C   UNL     1     -12.212  12.093  63.644  1.00  0.00    -0.663 C  
HETATM    2  C   UNL     1     -11.573  12.801  64.826  1.00  0.00    -0.368 C  
ENDROOT
BRANCH   2   3
HETATM    3  C   UNL     1     -12.519  13.839  65.421  1.00  0.00    -0.532 C  
BRANCH   3   4
HETATM    4  C   UNL     1     -12.134  14.162  66.860  1.00  0.00    -0.466 C  
BRANCH   4   5
HETATM    5  C   UNL     1     -10.758  13.600  67.196  1.00  0.00    -0.279 C  
BRANCH   5   6
HETATM    6  C   UNL     1     -10.725  13.114  68.639  1.00  0.00    -0.274 C  
BRANCH   6   7
HETATM    7  C   UNL     1     -11.777  12.041  68.869  1.00  0.00    -0.383 C  
BRANCH   7   8
HETATM    8  C   UNL     1     -12.108  11.922  70.353  1.00  0.00    -0.421 C  
BRANCH   8   9
HETATM    9  C   UNL     1     -12.003  10.467  70.779  1.00  0.00    -0.462 C  
BRANCH   9  10
HETATM   10  C   UNL     1     -13.192  10.037  71.633  1.00  0.00    -0.518 C  
BRANCH  10  11
HETATM   11  C   UNL     1     -13.111   8.550  72.019  1.00  0.00    -0.403 C  
BRANCH  11  12
HETATM   12  C   UNL     1     -11.693   8.173  72.450  1.00  0.00    -0.399 C  
BRANCH  12  13
HETATM   13  N   UNL     1     -11.145   6.893  71.800  1.00  0.00    -0.238 N  
HETATM   14  C   UNL     1     -11.324   5.682  72.709  1.00  0.00    -0.299 C  
HETATM   15  C   UNL     1     -11.862   6.627  70.472  1.00  0.00    -0.370 C  
BRANCH  13  16
HETATM   16  C   UNL     1      -9.622   7.092  71.464  1.00  0.00    -0.158 C  
BRANCH  16  17
HETATM   17  C   UNL     1      -9.389   7.589  70.033  1.00  0.00    -0.154 C  
BRANCH  17  18
HETATM   18  O   UNL     1      -9.038   8.969  70.009  1.00  0.00    -0.153 OA 
BRANCH  18  19
HETATM   19  C   UNL     1      -9.023   9.493  68.735  1.00  0.00    -0.133 A  
HETATM   20  C   UNL     1     -10.001   9.009  67.868  1.00  0.00    -0.220 A  
HETATM   21  C   UNL     1     -10.037   9.443  66.541  1.00  0.00    -0.332 A  
HETATM   22  C   UNL     1      -9.105  10.373  66.079  1.00  0.00    -0.187 A  
HETATM   23  C   UNL     1      -8.148  10.885  66.950  1.00  0.00    -0.137 A  
HETATM   24  C   UNL     1      -8.113  10.453  68.275  1.00  0.00    -0.113 A  
ENDBRANCH  18  19
ENDBRANCH  17  18
ENDBRANCH  16  17
ENDBRANCH  13  16
ENDBRANCH  12  13
ENDBRANCH  11  12
ENDBRANCH  10  11
ENDBRANCH   9  10
ENDBRANCH   8   9
ENDBRANCH   7   8
ENDBRANCH   6   7
ENDBRANCH   5   6
ENDBRANCH   4   5
ENDBRANCH   3   4
ENDBRANCH   2   3
TORSDOF 15
ENDMDL
MODEL       57
REMARK 921   NORMALIZED FREE ENERGY PREDICTED BY IDOCK:   -4.86 KCAL/MOL
REMARK 922        TOTAL FREE ENERGY PREDICTED BY IDOCK:  -10.25 KCAL/MOL
REMARK 923 INTER-LIGAND FREE ENERGY PREDICTED BY IDOCK:   -7.85 KCAL/MOL
REMARK 924 INTRA-LIGAND FREE ENERGY PREDICTED BY IDOCK:   -2.40 KCAL/MOL
REMARK 927      BINDING AFFINITY PREDICTED BY RF-SCORE:    0.00 PKD
ROOT
HETATM    1  C   UNL     1      -8.051   8.173  70.814  1.00  0.00    -0.102 C  
HETATM    2  C   UNL     1      -8.389   6.971  69.949  1.00  0.00    -0.139 C  
ENDROOT
BRANCH   2   3
HETATM    3  C   UNL     1      -9.468   6.112  70.601  1.00  0.00    -0.185 C  
BRANCH   3   4
HETATM    4  C   UNL     1     -10.303   5.398  69.545  1.00  0.00    -0.350 C  
BRANCH   4   5
HETATM    5  C   UNL     1     -11.119   6.393  68.729  1.00  0.00    -0.404 C  
BRANCH   5   6
HETATM    6  C   UNL     1     -10.854   6.200  67.242  1.00  0.00    -0.438 C  
BRANCH   6   7
HETATM    7  C   UNL     1     -10.126   7.405  66.666  1.00  0.00    -0.253 C  
BRANCH   7   8
HETATM    8  C   UNL     1     -10.483   8.669  67.441  1.00  0.00    -0.351 C  
BRANCH   8   9
HETATM    9  C   UNL     1      -9.625   9.823  66.947  1.00  0.00    -0.228 C  
BRANCH   9  10
HETATM   10  C   UNL     1      -9.811  10.073  65.454  1.00  0.00    -0.384 C  
BRANCH  10  11
HETATM   11  C   UNL     1     -10.423  11.456  65.177  1.00  0.00    -0.351 C  
BRANCH  11  12
HETATM   12  C   UNL     1     -10.266  12.376  66.388  1.00  0.00    -0.234 C  
BRANCH  12  13
HETATM   13  N   UNL     1     -11.290  13.520  66.460  1.00  0.00    -0.311 N  
HETATM   14  C   UNL     1     -10.618  14.882  66.325  1.00  0.00    -0.308 C  
HETATM   15  C   UNL     1     -12.331  13.368  65.347  1.00  0.00    -0.477 C  
BRANCH  13  16
HETATM   16  C   UNL     1     -12.065  13.438  67.825  1.00  0.00    -0.259 C  
BRANCH  16  17
HETATM   17  C   UNL     1     -11.519  12.347  68.753  1.00  0.00    -0.304 C  
BRANCH  17  18
HETATM   18  O   UNL     1     -11.886  12.583  70.110  1.00  0.00    -0.324 OA 
BRANCH  18  19
HETATM   19  C   UNL     1     -12.193  11.423  70.787  1.00  0.00    -0.376 A  
HETATM   20  C   UNL     1     -11.395  10.319  70.493  1.00  0.00    -0.422 A  
HETATM   21  C   UNL     1     -11.658   9.085  71.093  1.00  0.00    -0.372 A  
HETATM   22  C   UNL     1     -12.710   8.953  72.000  1.00  0.00    -0.456 A  
HETATM   23  C   UNL     1     -13.488  10.062  72.323  1.00  0.00    -0.346 A  
HETATM   24  C   UNL     1     -13.224  11.293  71.726  1.00  0.00    -0.480 A  
ENDBRANCH  18  19
ENDBRANCH  17  18
ENDBRANCH  16  17
ENDBRANCH  13  16
ENDBRANCH  12  13
ENDBRANCH  11  12
ENDBRANCH  10  11
ENDBRANCH   9  10
ENDBRANCH   8   9
ENDBRANCH   7   8
ENDBRANCH   6   7
ENDBRANCH   5   6
ENDBRANCH   4   5
ENDBRANCH   3   4
ENDBRANCH   2   3
TORSDOF 15
ENDMDL
MODEL       58
REMARK 921   NORMALIZED FREE ENERGY PREDICTED BY IDOCK:   -4.85 KCAL/MOL
REMARK 922        TOTAL FREE ENERGY PREDICTED BY IDOCK:  -10.23 KCAL/MOL
REMARK 923 INTER-LIGAND FREE ENERGY PREDICTED BY IDOCK:   -8.79 KCAL/MOL
REMARK 924 INTRA-LIGAND FREE ENERGY PREDICTED BY IDOCK:   -1.44 KCAL/MOL
REMARK 927      BINDING AFFINITY PREDICTED BY RF-SCORE:    0.00 PKD
ROOT
HETATM    1  C   UNL     1      -5.183  20.651  68.303  1.00  0.00    -0.283 C  
HETATM    2  C   UNL     1      -6.114  21.200  67.237  1.00  0.00    -0.403 C  
ENDROOT
BRANCH   2   3
HETATM    3  C   UNL     1      -7.297  20.265  67.008  1.00  0.00    -0.327 C  
BRANCH   3   4
HETATM    4  C   UNL     1      -7.412  19.249  68.138  1.00  0.00    -0.324 C  
BRANCH   4   5
HETATM    5  C   UNL     1      -8.788  19.312  68.790  1.00  0.00    -0.387 C  
BRANCH   5   6
HETATM    6  C   UNL     1      -9.778  20.011  67.868  1.00  0.00    -0.517 C  
BRANCH   6   7
HETATM    7  C   UNL     1     -10.781  19.017  67.305  1.00  0.00    -0.556 C  
BRANCH   7   8
HETATM    8  C   UNL     1     -10.465  18.701  65.847  1.00  0.00    -0.395 C  
BRANCH   8   9
HETATM    9  C   UNL     1     -10.443  17.194  65.648  1.00  0.00    -0.208 C  
BRANCH   9  10
HETATM   10  C   UNL     1      -9.160  16.568  66.185  1.00  0.00    -0.342 C  
BRANCH  10  11
HETATM   11  C   UNL     1      -9.415  15.185  66.809  1.00  0.00    -0.260 C  
BRANCH  11  12
HETATM   12  C   UNL     1     -10.165  14.276  65.834  1.00  0.00    -0.324 C  
BRANCH  12  13
HETATM   13  N   UNL     1     -11.550  13.820  66.322  1.00  0.00    -0.336 N  
HETATM   14  C   UNL     1     -11.959  14.543  67.600  1.00  0.00    -0.320 C  
HETATM   15  C   UNL     1     -12.604  14.086  65.242  1.00  0.00    -0.470 C  
BRANCH  13  16
HETATM   16  C   UNL     1     -11.528  12.268  66.566  1.00  0.00    -0.381 C  
BRANCH  16  17
HETATM   17  C   UNL     1     -11.207  11.899  68.019  1.00  0.00    -0.257 C  
BRANCH  17  18
HETATM   18  O   UNL     1     -12.334  11.326  68.675  1.00  0.00    -0.534 OA 
BRANCH  18  19
HETATM   19  C   UNL     1     -11.979  10.500  69.718  1.00  0.00    -0.238 A  
HETATM   20  C   UNL     1     -12.865  10.464  70.793  1.00  0.00    -0.450 A  
HETATM   21  C   UNL     1     -12.569   9.692  71.920  1.00  0.00    -0.481 A  
HETATM   22  C   UNL     1     -11.394   8.943  71.970  1.00  0.00    -0.427 A  
HETATM   23  C   UNL     1     -10.522   8.948  70.884  1.00  0.00    -0.299 A  
HETATM   24  C   UNL     1     -10.819   9.716  69.759  1.00  0.00    -0.274 A  
ENDBRANCH  18  19
ENDBRANCH  17  18
ENDBRANCH  16  17
ENDBRANCH  13  16
ENDBRANCH  12  13
ENDBRANCH  11  12
ENDBRANCH  10  11
ENDBRANCH   9  10
ENDBRANCH   8   9
ENDBRANCH   7   8
ENDBRANCH   6   7
ENDBRANCH   5   6
ENDBRANCH   4   5
ENDBRANCH   3   4
ENDBRANCH   2   3
TORSDOF 15
ENDMDL
MODEL       59
REMARK 921   NORMALIZED FREE ENERGY PREDICTED BY IDOCK:   -4.85 KCAL/MOL
REMARK 922        TOTAL FREE ENERGY PREDICTED BY IDOCK:  -10.22 KCAL/MOL
REMARK 923 INTER-LIGAND FREE ENERGY PREDICTED BY IDOCK:   -8.62 KCAL/MOL
REMARK 924 INTRA-LIGAND FREE ENERGY PREDICTED BY IDOCK:   -1.59 KCAL/MOL
REMARK 927      BINDING AFFINITY PREDICTED BY RF-SCORE:    0.00 PKD
ROOT
HETATM    1  C   UNL     1      -8.948   7.780  73.679  1.00  0.00    -0.335 C  
HETATM    2  C   UNL     1     -10.381   7.277  73.696  1.00  0.00    -0.399 C  
ENDROOT
BRANCH   2   3
HETATM    3  C   UNL     1     -10.496   5.923  73.004  1.00  0.00    -0.247 C  
BRANCH   3   4
HETATM    4  C   UNL     1      -9.729   5.920  71.687  1.00  0.00    -0.185 C  
BRANCH   4   5
HETATM    5  C   UNL     1     -10.681   5.832  70.501  1.00  0.00    -0.361 C  
BRANCH   5   6
HETATM    6  C   UNL     1     -11.256   7.206  70.183  1.00  0.00    -0.295 C  
BRANCH   6   7
HETATM    7  C   UNL     1     -10.169   8.138  69.671  1.00  0.00    -0.205 C  
BRANCH   7   8
HETATM    8  C   UNL     1     -10.165   9.443  70.459  1.00  0.00    -0.332 C  
BRANCH   8   9
HETATM    9  C   UNL     1     -11.562   9.716  70.994  1.00  0.00    -0.436 C  
BRANCH   9  10
HETATM   10  C   UNL     1     -12.118  11.042  70.486  1.00  0.00    -0.470 C  
BRANCH  10  11
HETATM   11  C   UNL     1     -11.136  11.746  69.533  1.00  0.00    -0.199 C  
BRANCH  11  12
HETATM   12  C   UNL     1     -11.858  12.267  68.290  1.00  0.00    -0.310 C  
BRANCH  12  13
HETATM   13  N   UNL     1     -11.170  13.457  67.602  1.00  0.00    -0.265 N  
HETATM   14  C   UNL     1     -10.088  12.994  66.633  1.00  0.00    -0.251 C  
HETATM   15  C   UNL     1     -12.200  14.291  66.834  1.00  0.00    -0.331 C  
BRANCH  13  16
HETATM   16  C   UNL     1     -10.545  14.398  68.695  1.00  0.00    -0.252 C  
BRANCH  16  17
HETATM   17  C   UNL     1     -11.284  15.736  68.820  1.00  0.00    -0.342 C  
BRANCH  17  18
HETATM   18  O   UNL     1     -11.004  16.374  70.063  1.00  0.00    -0.354 OA 
BRANCH  18  19
HETATM   19  C   UNL     1     -11.880  16.004  71.060  1.00  0.00    -0.394 A  
HETATM   20  C   UNL     1     -13.025  15.328  70.642  1.00  0.00    -0.442 A  
HETATM   21  C   UNL     1     -13.997  14.954  71.573  1.00  0.00    -0.571 A  
HETATM   22  C   UNL     1     -13.822  15.242  72.927  1.00  0.00    -0.459 A  
HETATM   23  C   UNL     1     -12.663  15.886  73.354  1.00  0.00    -0.676 A  
HETATM   24  C   UNL     1     -11.693  16.257  72.424  1.00  0.00    -0.512 A  
ENDBRANCH  18  19
ENDBRANCH  17  18
ENDBRANCH  16  17
ENDBRANCH  13  16
ENDBRANCH  12  13
ENDBRANCH  11  12
ENDBRANCH  10  11
ENDBRANCH   9  10
ENDBRANCH   8   9
ENDBRANCH   7   8
ENDBRANCH   6   7
ENDBRANCH   5   6
ENDBRANCH   4   5
ENDBRANCH   3   4
ENDBRANCH   2   3
TORSDOF 15
ENDMDL
MODEL       60
REMARK 921   NORMALIZED FREE ENERGY PREDICTED BY IDOCK:   -4.83 KCAL/MOL
REMARK 922        TOTAL FREE ENERGY PREDICTED BY IDOCK:  -10.19 KCAL/MOL
REMARK 923 INTER-LIGAND FREE ENERGY PREDICTED BY IDOCK:   -8.61 KCAL/MOL
REMARK 924 INTRA-LIGAND FREE ENERGY PREDICTED BY IDOCK:   -1.59 KCAL/MOL
REMARK 927      BINDING AFFINITY PREDICTED BY RF-SCORE:    0.00 PKD
ROOT
HETATM    1  C   UNL     1     -11.516   7.100  71.191  1.00  0.00    -0.322 C  
HETATM    2  C   UNL     1     -12.567   8.183  71.358  1.00  0.00    -0.301 C  
ENDROOT
BRANCH   2   3
HETATM    3  C   UNL     1     -11.921   9.553  71.533  1.00  0.00    -0.475 C  
BRANCH   3   4
HETATM    4  C   UNL     1     -12.425  10.530  70.477  1.00  0.00    -0.433 C  
BRANCH   4   5
HETATM    5  C   UNL     1     -11.486  10.570  69.278  1.00  0.00    -0.323 C  
BRANCH   5   6
HETATM    6  C   UNL     1     -10.066  10.225  69.708  1.00  0.00    -0.244 C  
BRANCH   6   7
HETATM    7  C   UNL     1      -9.422   9.268  68.717  1.00  0.00    -0.150 C  
BRANCH   7   8
HETATM    8  C   UNL     1     -10.305   9.094  67.486  1.00  0.00    -0.324 C  
BRANCH   8   9
HETATM    9  C   UNL     1      -9.465   9.268  66.231  1.00  0.00    -0.284 C  
BRANCH   9  10
HETATM   10  C   UNL     1     -10.066  10.301  65.283  1.00  0.00    -0.359 C  
BRANCH  10  11
HETATM   11  C   UNL     1     -10.019  11.719  65.878  1.00  0.00    -0.266 C  
BRANCH  11  12
HETATM   12  C   UNL     1     -11.423  12.317  65.974  1.00  0.00    -0.381 C  
BRANCH  12  13
HETATM   13  N   UNL     1     -11.719  13.422  64.948  1.00  0.00    -0.337 N  
HETATM   14  C   UNL     1     -12.115  12.839  63.596  1.00  0.00    -0.543 C  
HETATM   15  C   UNL     1     -12.852  14.322  65.452  1.00  0.00    -0.302 C  
BRANCH  13  16
HETATM   16  C   UNL     1     -10.449  14.335  64.788  1.00  0.00    -0.395 C  
BRANCH  16  17
HETATM   17  C   UNL     1     -10.636  15.726  65.404  1.00  0.00    -0.421 C  
BRANCH  17  18
HETATM   18  O   UNL     1      -9.551  16.069  66.261  1.00  0.00    -0.261 OA 
BRANCH  18  19
HETATM   19  C   UNL     1      -9.732  17.280  66.891  1.00  0.00    -0.273 A  
HETATM   20  C   UNL     1     -10.511  18.211  66.206  1.00  0.00    -0.374 A  
HETATM   21  C   UNL     1     -10.713  19.486  66.741  1.00  0.00    -0.569 A  
HETATM   22  C   UNL     1     -10.149  19.830  67.969  1.00  0.00    -0.571 A  
HETATM   23  C   UNL     1      -9.399  18.892  68.675  1.00  0.00    -0.415 A  
HETATM   24  C   UNL     1      -9.200  17.620  68.142  1.00  0.00    -0.282 A  
ENDBRANCH  18  19
ENDBRANCH  17  18
ENDBRANCH  16  17
ENDBRANCH  13  16
ENDBRANCH  12  13
ENDBRANCH  11  12
ENDBRANCH  10  11
ENDBRANCH   9  10
ENDBRANCH   8   9
ENDBRANCH   7   8
ENDBRANCH   6   7
ENDBRANCH   5   6
ENDBRANCH   4   5
ENDBRANCH   3   4
ENDBRANCH   2   3
TORSDOF 15
ENDMDL
MODEL       61
REMARK 921   NORMALIZED FREE ENERGY PREDICTED BY IDOCK:   -4.83 KCAL/MOL
REMARK 922        TOTAL FREE ENERGY PREDICTED BY IDOCK:  -10.19 KCAL/MOL
REMARK 923 INTER-LIGAND FREE ENERGY PREDICTED BY IDOCK:   -8.17 KCAL/MOL
REMARK 924 INTRA-LIGAND FREE ENERGY PREDICTED BY IDOCK:   -2.02 KCAL/MOL
REMARK 927      BINDING AFFINITY PREDICTED BY RF-SCORE:    0.00 PKD
ROOT
HETATM    1  C   UNL     1     -12.189  12.582  63.426  1.00  0.00    -0.613 C  
HETATM    2  C   UNL     1     -12.409  12.649  64.927  1.00  0.00    -0.563 C  
ENDROOT
BRANCH   2   3
HETATM    3  C   UNL     1     -12.386  14.091  65.422  1.00  0.00    -0.495 C  
BRANCH   3   4
HETATM    4  C   UNL     1     -11.246  14.869  64.774  1.00  0.00    -0.393 C  
BRANCH   4   5
HETATM    5  C   UNL     1     -10.134  15.145  65.778  1.00  0.00    -0.373 C  
BRANCH   5   6
HETATM    6  C   UNL     1     -10.444  16.405  66.576  1.00  0.00    -0.282 C  
BRANCH   6   7
HETATM    7  C   UNL     1     -10.351  16.132  68.069  1.00  0.00    -0.271 C  
BRANCH   7   8
HETATM    8  C   UNL     1     -11.707  15.709  68.623  1.00  0.00    -0.364 C  
BRANCH   8   9
HETATM    9  C   UNL     1     -11.529  14.507  69.536  1.00  0.00    -0.330 C  
BRANCH   9  10
HETATM   10  C   UNL     1     -11.822  13.195  68.814  1.00  0.00    -0.361 C  
BRANCH  10  11
HETATM   11  C   UNL     1     -10.535  12.521  68.308  1.00  0.00    -0.243 C  
BRANCH  11  12
HETATM   12  C   UNL     1     -10.829  11.123  67.763  1.00  0.00    -0.239 C  
BRANCH  12  13
HETATM   13  N   UNL     1      -9.609  10.396  67.177  1.00  0.00    -0.162 N  
HETATM   14  C   UNL     1     -10.026   9.278  66.228  1.00  0.00    -0.286 C  
HETATM   15  C   UNL     1      -8.719  11.385  66.418  1.00  0.00    -0.185 C  
BRANCH  13  16
HETATM   16  C   UNL     1      -8.741   9.809  68.349  1.00  0.00    -0.120 C  
BRANCH  16  17
HETATM   17  C   UNL     1      -9.519   8.818  69.225  1.00  0.00    -0.161 C  
BRANCH  17  18
HETATM   18  O   UNL     1      -9.505   9.210  70.595  1.00  0.00    -0.218 OA 
BRANCH  18  19
HETATM   19  C   UNL     1     -10.762   9.218  71.157  1.00  0.00    -0.333 A  
HETATM   20  C   UNL     1     -11.115   8.076  71.873  1.00  0.00    -0.333 A  
HETATM   21  C   UNL     1     -12.387   7.970  72.441  1.00  0.00    -0.299 A  
HETATM   22  C   UNL     1     -13.307   9.010  72.307  1.00  0.00    -0.523 A  
HETATM   23  C   UNL     1     -12.947  10.168  71.623  1.00  0.00    -0.561 A  
HETATM   24  C   UNL     1     -11.676  10.275  71.059  1.00  0.00    -0.461 A  
ENDBRANCH  18  19
ENDBRANCH  17  18
ENDBRANCH  16  17
ENDBRANCH  13  16
ENDBRANCH  12  13
ENDBRANCH  11  12
ENDBRANCH  10  11
ENDBRANCH   9  10
ENDBRANCH   8   9
ENDBRANCH   7   8
ENDBRANCH   6   7
ENDBRANCH   5   6
ENDBRANCH   4   5
ENDBRANCH   3   4
ENDBRANCH   2   3
TORSDOF 15
ENDMDL
MODEL       62
REMARK 921   NORMALIZED FREE ENERGY PREDICTED BY IDOCK:   -4.83 KCAL/MOL
REMARK 922        TOTAL FREE ENERGY PREDICTED BY IDOCK:  -10.19 KCAL/MOL
REMARK 923 INTER-LIGAND FREE ENERGY PREDICTED BY IDOCK:   -8.58 KCAL/MOL
REMARK 924 INTRA-LIGAND FREE ENERGY PREDICTED BY IDOCK:   -1.61 KCAL/MOL
REMARK 927      BINDING AFFINITY PREDICTED BY RF-SCORE:    0.00 PKD
ROOT
HETATM    1  C   UNL     1      -9.097   7.263  66.920  1.00  0.00    -0.162 C  
HETATM    2  C   UNL     1     -10.244   7.029  67.887  1.00  0.00    -0.224 C  
ENDROOT
BRANCH   2   3
HETATM    3  C   UNL     1      -9.743   6.433  69.198  1.00  0.00    -0.148 C  
BRANCH   3   4
HETATM    4  C   UNL     1     -10.874   5.733  69.943  1.00  0.00    -0.417 C  
BRANCH   4   5
HETATM    5  C   UNL     1     -11.846   6.747  70.536  1.00  0.00    -0.418 C  
BRANCH   5   6
HETATM    6  C   UNL     1     -11.257   7.366  71.797  1.00  0.00    -0.277 C  
BRANCH   6   7
HETATM    7  C   UNL     1     -11.696   8.815  71.939  1.00  0.00    -0.429 C  
BRANCH   7   8
HETATM    8  C   UNL     1     -11.227   9.638  70.744  1.00  0.00    -0.403 C  
BRANCH   8   9
HETATM    9  C   UNL     1     -12.208  10.772  70.494  1.00  0.00    -0.457 C  
BRANCH   9  10
HETATM   10  C   UNL     1     -13.274  10.853  71.582  1.00  0.00    -0.471 C  
BRANCH  10  11
HETATM   11  C   UNL     1     -13.390  12.271  72.165  1.00  0.00    -0.473 C  
BRANCH  11  12
HETATM   12  C   UNL     1     -12.673  13.288  71.276  1.00  0.00    -0.323 C  
BRANCH  12  13
HETATM   13  N   UNL     1     -12.741  14.739  71.780  1.00  0.00    -0.313 N  
HETATM   14  C   UNL     1     -14.133  15.331  71.597  1.00  0.00    -0.541 C  
HETATM   15  C   UNL     1     -12.366  14.799  73.264  1.00  0.00    -0.320 C  
BRANCH  13  16
HETATM   16  C   UNL     1     -11.683  15.607  71.006  1.00  0.00    -0.403 C  
BRANCH  16  17
HETATM   17  C   UNL     1     -11.779  15.443  69.485  1.00  0.00    -0.346 C  
BRANCH  17  18
HETATM   18  O   UNL     1     -10.667  14.719  68.965  1.00  0.00    -0.235 OA 
BRANCH  18  19
HETATM   19  C   UNL     1     -11.017  13.874  67.936  1.00  0.00    -0.250 A  
HETATM   20  C   UNL     1     -11.851  14.418  66.961  1.00  0.00    -0.437 A  
HETATM   21  C   UNL     1     -12.300  13.625  65.901  1.00  0.00    -0.516 A  
HETATM   22  C   UNL     1     -11.907  12.290  65.805  1.00  0.00    -0.417 A  
HETATM   23  C   UNL     1     -11.045  11.752  66.758  1.00  0.00    -0.360 A  
HETATM   24  C   UNL     1     -10.596  12.544  67.813  1.00  0.00    -0.235 A  
ENDBRANCH  18  19
ENDBRANCH  17  18
ENDBRANCH  16  17
ENDBRANCH  13  16
ENDBRANCH  12  13
ENDBRANCH  11  12
ENDBRANCH  10  11
ENDBRANCH   9  10
ENDBRANCH   8   9
ENDBRANCH   7   8
ENDBRANCH   6   7
ENDBRANCH   5   6
ENDBRANCH   4   5
ENDBRANCH   3   4
ENDBRANCH   2   3
TORSDOF 15
ENDMDL
MODEL       63
REMARK 921   NORMALIZED FREE ENERGY PREDICTED BY IDOCK:   -4.82 KCAL/MOL
REMARK 922        TOTAL FREE ENERGY PREDICTED BY IDOCK:  -10.18 KCAL/MOL
REMARK 923 INTER-LIGAND FREE ENERGY PREDICTED BY IDOCK:   -8.52 KCAL/MOL
REMARK 924 INTRA-LIGAND FREE ENERGY PREDICTED BY IDOCK:   -1.66 KCAL/MOL
REMARK 927      BINDING AFFINITY PREDICTED BY RF-SCORE:    0.00 PKD
ROOT
HETATM    1  C   UNL     1     -13.008   9.312  71.491  1.00  0.00    -0.429 C  
HETATM    2  C   UNL     1     -12.939  10.489  70.534  1.00  0.00    -0.289 C  
ENDROOT
BRANCH   2   3
HETATM    3  C   UNL     1     -11.494  10.905  70.279  1.00  0.00    -0.391 C  
BRANCH   3   4
HETATM    4  C   UNL     1     -11.387  11.741  69.009  1.00  0.00    -0.338 C  
BRANCH   4   5
HETATM    5  C   UNL     1     -11.328  10.852  67.773  1.00  0.00    -0.366 C  
BRANCH   5   6
HETATM    6  C   UNL     1      -9.880  10.613  67.364  1.00  0.00    -0.198 C  
BRANCH   6   7
HETATM    7  C   UNL     1      -9.577  11.298  66.040  1.00  0.00    -0.245 C  
BRANCH   7   8
HETATM    8  C   UNL     1     -10.601  10.901  64.982  1.00  0.00    -0.287 C  
BRANCH   8   9
HETATM    9  C   UNL     1     -11.082  12.145  64.252  1.00  0.00    -0.403 C  
BRANCH   9  10
HETATM   10  C   UNL     1     -12.402  12.661  64.817  1.00  0.00    -0.556 C  
BRANCH  10  11
HETATM   11  C   UNL     1     -12.382  14.186  65.016  1.00  0.00    -0.452 C  
BRANCH  11  12
HETATM   12  C   UNL     1     -11.835  14.550  66.397  1.00  0.00    -0.349 C  
BRANCH  12  13
HETATM   13  N   UNL     1     -10.611  15.479  66.376  1.00  0.00    -0.307 N  
HETATM   14  C   UNL     1      -9.374  14.764  65.845  1.00  0.00    -0.154 C  
HETATM   15  C   UNL     1     -10.892  16.703  65.499  1.00  0.00    -0.163 C  
BRANCH  13  16
HETATM   16  C   UNL     1     -10.339  16.012  67.830  1.00  0.00    -0.279 C  
BRANCH  16  17
HETATM   17  C   UNL     1     -11.434  15.611  68.824  1.00  0.00    -0.376 C  
BRANCH  17  18
HETATM   18  O   UNL     1     -10.888  14.965  69.971  1.00  0.00    -0.239 OA 
BRANCH  18  19
HETATM   19  C   UNL     1     -11.681  15.105  71.089  1.00  0.00    -0.353 A  
HETATM   20  C   UNL     1     -12.927  14.486  71.031  1.00  0.00    -0.423 A  
HETATM   21  C   UNL     1     -13.822  14.612  72.097  1.00  0.00    -0.569 A  
HETATM   22  C   UNL     1     -13.469  15.346  73.229  1.00  0.00    -0.467 A  
HETATM   23  C   UNL     1     -12.211  15.937  73.306  1.00  0.00    -0.625 A  
HETATM   24  C   UNL     1     -11.317  15.809  72.244  1.00  0.00    -0.260 A  
ENDBRANCH  18  19
ENDBRANCH  17  18
ENDBRANCH  16  17
ENDBRANCH  13  16
ENDBRANCH  12  13
ENDBRANCH  11  12
ENDBRANCH  10  11
ENDBRANCH   9  10
ENDBRANCH   8   9
ENDBRANCH   7   8
ENDBRANCH   6   7
ENDBRANCH   5   6
ENDBRANCH   4   5
ENDBRANCH   3   4
ENDBRANCH   2   3
TORSDOF 15
ENDMDL
MODEL       64
REMARK 921   NORMALIZED FREE ENERGY PREDICTED BY IDOCK:   -4.80 KCAL/MOL
REMARK 922        TOTAL FREE ENERGY PREDICTED BY IDOCK:  -10.14 KCAL/MOL
REMARK 923 INTER-LIGAND FREE ENERGY PREDICTED BY IDOCK:   -7.85 KCAL/MOL
REMARK 924 INTRA-LIGAND FREE ENERGY PREDICTED BY IDOCK:   -2.29 KCAL/MOL
REMARK 927      BINDING AFFINITY PREDICTED BY RF-SCORE:    0.00 PKD
ROOT
HETATM    1  C   UNL     1     -12.141  13.259  65.002  1.00  0.00    -0.447 C  
HETATM    2  C   UNL     1     -11.122  14.353  65.268  1.00  0.00    -0.344 C  
ENDROOT
BRANCH   2   3
HETATM    3  C   UNL     1     -11.405  15.057  66.591  1.00  0.00    -0.289 C  
BRANCH   3   4
HETATM    4  C   UNL     1     -10.458  16.235  66.792  1.00  0.00    -0.287 C  
BRANCH   4   5
HETATM    5  C   UNL     1      -9.010  15.765  66.865  1.00  0.00    -0.266 C  
BRANCH   5   6
HETATM    6  C   UNL     1      -8.714  15.179  68.239  1.00  0.00    -0.171 C  
BRANCH   6   7
HETATM    7  C   UNL     1      -8.143  13.776  68.113  1.00  0.00    -0.155 C  
BRANCH   7   8
HETATM    8  C   UNL     1      -9.259  12.737  68.140  1.00  0.00    -0.212 C  
BRANCH   8   9
HETATM    9  C   UNL     1      -8.950  11.637  67.137  1.00  0.00    -0.173 C  
BRANCH   9  10
HETATM   10  C   UNL     1     -10.173  10.771  66.848  1.00  0.00    -0.274 C  
BRANCH  10  11
HETATM   11  C   UNL     1     -10.211   9.519  67.741  1.00  0.00    -0.265 C  
BRANCH  11  12
HETATM   12  C   UNL     1     -11.161   9.720  68.923  1.00  0.00    -0.099 C  
BRANCH  12  13
HETATM   13  N   UNL     1     -10.681   9.095  70.242  1.00  0.00    -0.220 N  
HETATM   14  C   UNL     1     -10.914   7.588  70.266  1.00  0.00    -0.250 C  
HETATM   15  C   UNL     1      -9.188   9.370  70.445  1.00  0.00    -0.257 C  
BRANCH  13  16
HETATM   16  C   UNL     1     -11.436   9.773  71.443  1.00  0.00    -0.365 C  
BRANCH  16  17
HETATM   17  C   UNL     1     -12.571  10.697  70.985  1.00  0.00    -0.416 C  
BRANCH  17  18
HETATM   18  O   UNL     1     -13.029  11.529  72.047  1.00  0.00    -0.433 OA 
BRANCH  18  19
HETATM   19  C   UNL     1     -13.038  12.865  71.711  1.00  0.00    -0.360 A  
HETATM   20  C   UNL     1     -12.281  13.215  70.595  1.00  0.00    -0.402 A  
HETATM   21  C   UNL     1     -12.188  14.553  70.203  1.00  0.00    -0.399 A  
HETATM   22  C   UNL     1     -12.864  15.544  70.916  1.00  0.00    -0.535 A  
HETATM   23  C   UNL     1     -13.650  15.194  72.011  1.00  0.00    -0.549 A  
HETATM   24  C   UNL     1     -13.744  13.859  72.400  1.00  0.00    -0.678 A  
ENDBRANCH  18  19
ENDBRANCH  17  18
ENDBRANCH  16  17
ENDBRANCH  13  16
ENDBRANCH  12  13
ENDBRANCH  11  12
ENDBRANCH  10  11
ENDBRANCH   9  10
ENDBRANCH   8   9
ENDBRANCH   7   8
ENDBRANCH   6   7
ENDBRANCH   5   6
ENDBRANCH   4   5
ENDBRANCH   3   4
ENDBRANCH   2   3
TORSDOF 15
ENDMDL
MODEL       65
REMARK 921   NORMALIZED FREE ENERGY PREDICTED BY IDOCK:   -4.80 KCAL/MOL
REMARK 922        TOTAL FREE ENERGY PREDICTED BY IDOCK:  -10.14 KCAL/MOL
REMARK 923 INTER-LIGAND FREE ENERGY PREDICTED BY IDOCK:   -8.15 KCAL/MOL
REMARK 924 INTRA-LIGAND FREE ENERGY PREDICTED BY IDOCK:   -1.99 KCAL/MOL
REMARK 927      BINDING AFFINITY PREDICTED BY RF-SCORE:    0.00 PKD
ROOT
HETATM    1  C   UNL     1     -13.379  10.705  71.874  1.00  0.00    -0.454 C  
HETATM    2  C   UNL     1     -13.236   9.242  72.253  1.00  0.00    -0.535 C  
ENDROOT
BRANCH   2   3
HETATM    3  C   UNL     1     -12.228   8.537  71.352  1.00  0.00    -0.343 C  
BRANCH   3   4
HETATM    4  C   UNL     1     -10.843   9.157  71.498  1.00  0.00    -0.436 C  
BRANCH   4   5
HETATM    5  C   UNL     1     -10.307   9.618  70.148  1.00  0.00    -0.315 C  
BRANCH   5   6
HETATM    6  C   UNL     1      -8.786   9.694  70.182  1.00  0.00    -0.266 C  
BRANCH   6   7
HETATM    7  C   UNL     1      -8.233  10.000  68.799  1.00  0.00    -0.115 C  
BRANCH   7   8
HETATM    8  C   UNL     1      -8.490  11.456  68.427  1.00  0.00    -0.155 C  
BRANCH   8   9
HETATM    9  C   UNL     1      -8.741  11.560  66.931  1.00  0.00    -0.181 C  
BRANCH   9  10
HETATM   10  C   UNL     1      -8.783  10.189  66.265  1.00  0.00    -0.152 C  
BRANCH  10  11
HETATM   11  C   UNL     1      -9.933  10.082  65.249  1.00  0.00    -0.368 C  
BRANCH  11  12
HETATM   12  C   UNL     1     -10.905  11.253  65.398  1.00  0.00    -0.188 C  
BRANCH  12  13
HETATM   13  N   UNL     1     -10.997  12.169  64.168  1.00  0.00    -0.330 N  
HETATM   14  C   UNL     1      -9.940  11.817  63.127  1.00  0.00    -0.344 C  
HETATM   15  C   UNL     1     -12.383  12.054  63.526  1.00  0.00    -0.551 C  
BRANCH  13  16
HETATM   16  C   UNL     1     -10.827  13.665  64.620  1.00  0.00    -0.407 C  
BRANCH  16  17
HETATM   17  C   UNL     1     -11.951  14.135  65.552  1.00  0.00    -0.391 C  
BRANCH  17  18
HETATM   18  O   UNL     1     -11.473  15.064  66.521  1.00  0.00    -0.330 OA 
BRANCH  18  19
HETATM   19  C   UNL     1     -11.692  14.643  67.814  1.00  0.00    -0.359 A  
HETATM   20  C   UNL     1     -11.899  15.650  68.754  1.00  0.00    -0.336 A  
HETATM   21  C   UNL     1     -12.082  15.326  70.100  1.00  0.00    -0.394 A  
HETATM   22  C   UNL     1     -12.072  13.992  70.510  1.00  0.00    -0.424 A  
HETATM   23  C   UNL     1     -11.901  12.980  69.570  1.00  0.00    -0.385 A  
HETATM   24  C   UNL     1     -11.720  13.304  68.226  1.00  0.00    -0.388 A  
ENDBRANCH  18  19
ENDBRANCH  17  18
ENDBRANCH  16  17
ENDBRANCH  13  16
ENDBRANCH  12  13
ENDBRANCH  11  12
ENDBRANCH  10  11
ENDBRANCH   9  10
ENDBRANCH   8   9
ENDBRANCH   7   8
ENDBRANCH   6   7
ENDBRANCH   5   6
ENDBRANCH   4   5
ENDBRANCH   3   4
ENDBRANCH   2   3
TORSDOF 15
ENDMDL
MODEL       66
REMARK 921   NORMALIZED FREE ENERGY PREDICTED BY IDOCK:   -4.79 KCAL/MOL
REMARK 922        TOTAL FREE ENERGY PREDICTED BY IDOCK:  -10.12 KCAL/MOL
REMARK 923 INTER-LIGAND FREE ENERGY PREDICTED BY IDOCK:   -8.44 KCAL/MOL
REMARK 924 INTRA-LIGAND FREE ENERGY PREDICTED BY IDOCK:   -1.68 KCAL/MOL
REMARK 927      BINDING AFFINITY PREDICTED BY RF-SCORE:    0.00 PKD
ROOT
HETATM    1  C   UNL     1     -12.329  15.831  71.876  1.00  0.00    -0.533 C  
HETATM    2  C   UNL     1     -13.670  15.167  72.129  1.00  0.00    -0.583 C  
ENDROOT
BRANCH   2   3
HETATM    3  C   UNL     1     -13.569  13.652  71.984  1.00  0.00    -0.585 C  
BRANCH   3   4
HETATM    4  C   UNL     1     -12.608  13.278  70.862  1.00  0.00    -0.386 C  
BRANCH   4   5
HETATM    5  C   UNL     1     -12.516  11.765  70.705  1.00  0.00    -0.405 C  
BRANCH   5   6
HETATM    6  C   UNL     1     -13.198  11.070  71.877  1.00  0.00    -0.503 C  
BRANCH   6   7
HETATM    7  C   UNL     1     -13.145   9.560  71.710  1.00  0.00    -0.504 C  
BRANCH   7   8
HETATM    8  C   UNL     1     -11.706   9.061  71.777  1.00  0.00    -0.440 C  
BRANCH   8   9
HETATM    9  C   UNL     1     -11.591   7.744  71.025  1.00  0.00    -0.301 C  
BRANCH   9  10
HETATM   10  C   UNL     1     -10.726   7.876  69.776  1.00  0.00    -0.233 C  
BRANCH  10  11
HETATM   11  C   UNL     1     -10.041   9.251  69.697  1.00  0.00    -0.208 C  
BRANCH  11  12
HETATM   12  C   UNL     1      -9.098   9.324  68.495  1.00  0.00    -0.132 C  
BRANCH  12  13
HETATM   13  N   UNL     1      -9.328  10.532  67.574  1.00  0.00    -0.149 N  
HETATM   14  C   UNL     1      -8.893  11.834  68.238  1.00  0.00    -0.172 C  
HETATM   15  C   UNL     1      -8.548  10.356  66.267  1.00  0.00    -0.142 C  
BRANCH  13  16
HETATM   16  C   UNL     1     -10.850  10.609  67.189  1.00  0.00    -0.270 C  
BRANCH  16  17
HETATM   17  C   UNL     1     -11.121  11.570  66.025  1.00  0.00    -0.230 C  
BRANCH  17  18
HETATM   18  O   UNL     1     -12.137  12.514  66.352  1.00  0.00    -0.576 OA 
BRANCH  18  19
HETATM   19  C   UNL     1     -11.660  13.804  66.430  1.00  0.00    -0.360 A  
HETATM   20  C   UNL     1     -11.260  14.377  65.224  1.00  0.00    -0.345 A  
HETATM   21  C   UNL     1     -10.717  15.664  65.206  1.00  0.00    -0.444 A  
HETATM   22  C   UNL     1     -10.585  16.388  66.391  1.00  0.00    -0.236 A  
HETATM   23  C   UNL     1     -11.015  15.834  67.594  1.00  0.00    -0.302 A  
HETATM   24  C   UNL     1     -11.559  14.550  67.611  1.00  0.00    -0.402 A  
ENDBRANCH  18  19
ENDBRANCH  17  18
ENDBRANCH  16  17
ENDBRANCH  13  16
ENDBRANCH  12  13
ENDBRANCH  11  12
ENDBRANCH  10  11
ENDBRANCH   9  10
ENDBRANCH   8   9
ENDBRANCH   7   8
ENDBRANCH   6   7
ENDBRANCH   5   6
ENDBRANCH   4   5
ENDBRANCH   3   4
ENDBRANCH   2   3
TORSDOF 15
ENDMDL
MODEL       67
REMARK 921   NORMALIZED FREE ENERGY PREDICTED BY IDOCK:   -4.78 KCAL/MOL
REMARK 922        TOTAL FREE ENERGY PREDICTED BY IDOCK:  -10.09 KCAL/MOL
REMARK 923 INTER-LIGAND FREE ENERGY PREDICTED BY IDOCK:   -7.20 KCAL/MOL
REMARK 924 INTRA-LIGAND FREE ENERGY PREDICTED BY IDOCK:   -2.89 KCAL/MOL
REMARK 927      BINDING AFFINITY PREDICTED BY RF-SCORE:    0.00 PKD
ROOT
HETATM    1  C   UNL     1      -9.150  10.078  63.015  1.00  0.00    -0.298 C  
HETATM    2  C   UNL     1      -9.815  11.443  63.010  1.00  0.00    -0.373 C  
ENDROOT
BRANCH   2   3
HETATM    3  C   UNL     1     -10.996  11.481  63.974  1.00  0.00    -0.454 C  
BRANCH   3   4
HETATM    4  C   UNL     1     -12.044  12.486  63.509  1.00  0.00    -0.653 C  
BRANCH   4   5
HETATM    5  C   UNL     1     -12.540  13.335  64.673  1.00  0.00    -0.354 C  
BRANCH   5   6
HETATM    6  C   UNL     1     -11.849  12.917  65.964  1.00  0.00    -0.485 C  
BRANCH   6   7
HETATM    7  C   UNL     1     -11.604  14.123  66.857  1.00  0.00    -0.410 C  
BRANCH   7   8
HETATM    8  C   UNL     1     -11.595  13.712  68.325  1.00  0.00    -0.374 C  
BRANCH   8   9
HETATM    9  C   UNL     1     -11.559  12.195  68.426  1.00  0.00    -0.381 C  
BRANCH   9  10
HETATM   10  C   UNL     1     -11.848  11.712  69.844  1.00  0.00    -0.434 C  
BRANCH  10  11
HETATM   11  C   UNL     1     -11.756  10.181  69.956  1.00  0.00    -0.294 C  
BRANCH  11  12
HETATM   12  C   UNL     1     -11.574   9.750  71.412  1.00  0.00    -0.378 C  
BRANCH  12  13
HETATM   13  N   UNL     1     -10.786   8.443  71.599  1.00  0.00    -0.249 N  
HETATM   14  C   UNL     1     -11.342   7.614  72.751  1.00  0.00    -0.367 C  
HETATM   15  C   UNL     1     -10.838   7.608  70.315  1.00  0.00    -0.246 C  
BRANCH  13  16
HETATM   16  C   UNL     1      -9.274   8.781  71.862  1.00  0.00    -0.250 C  
BRANCH  16  17
HETATM   17  C   UNL     1      -8.434   8.787  70.580  1.00  0.00    -0.166 C  
BRANCH  17  18
HETATM   18  O   UNL     1      -7.793  10.044  70.379  1.00  0.00    -0.216 OA 
BRANCH  18  19
HETATM   19  C   UNL     1      -8.021  10.563  69.124  1.00  0.00    -0.145 A  
HETATM   20  C   UNL     1      -8.567   9.682  68.192  1.00  0.00    -0.119 A  
HETATM   21  C   UNL     1      -8.790  10.102  66.878  1.00  0.00    -0.142 A  
HETATM   22  C   UNL     1      -8.481  11.407  66.495  1.00  0.00    -0.170 A  
HETATM   23  C   UNL     1      -7.970  12.302  67.431  1.00  0.00    -0.171 A  
HETATM   24  C   UNL     1      -7.749  11.883  68.743  1.00  0.00    -0.074 A  
ENDBRANCH  18  19
ENDBRANCH  17  18
ENDBRANCH  16  17
ENDBRANCH  13  16
ENDBRANCH  12  13
ENDBRANCH  11  12
ENDBRANCH  10  11
ENDBRANCH   9  10
ENDBRANCH   8   9
ENDBRANCH   7   8
ENDBRANCH   6   7
ENDBRANCH   5   6
ENDBRANCH   4   5
ENDBRANCH   3   4
ENDBRANCH   2   3
TORSDOF 15
ENDMDL
MODEL       68
REMARK 921   NORMALIZED FREE ENERGY PREDICTED BY IDOCK:   -4.78 KCAL/MOL
REMARK 922        TOTAL FREE ENERGY PREDICTED BY IDOCK:  -10.09 KCAL/MOL
REMARK 923 INTER-LIGAND FREE ENERGY PREDICTED BY IDOCK:   -8.51 KCAL/MOL
REMARK 924 INTRA-LIGAND FREE ENERGY PREDICTED BY IDOCK:   -1.58 KCAL/MOL
REMARK 927      BINDING AFFINITY PREDICTED BY RF-SCORE:    0.00 PKD
ROOT
HETATM    1  C   UNL     1     -13.043  11.337  71.598  1.00  0.00    -0.513 C  
HETATM    2  C   UNL     1     -13.060   9.864  71.228  1.00  0.00    -0.487 C  
ENDROOT
BRANCH   2   3
HETATM    3  C   UNL     1     -11.675   9.243  71.380  1.00  0.00    -0.431 C  
BRANCH   3   4
HETATM    4  C   UNL     1     -11.684   8.152  72.444  1.00  0.00    -0.461 C  
BRANCH   4   5
HETATM    5  C   UNL     1     -12.000   6.793  71.830  1.00  0.00    -0.382 C  
BRANCH   5   6
HETATM    6  C   UNL     1     -10.743   5.936  71.771  1.00  0.00    -0.299 C  
BRANCH   6   7
HETATM    7  C   UNL     1     -10.524   5.401  70.364  1.00  0.00    -0.345 C  
BRANCH   7   8
HETATM    8  C   UNL     1     -11.288   6.238  69.345  1.00  0.00    -0.448 C  
BRANCH   8   9
HETATM    9  C   UNL     1     -10.724   5.985  67.956  1.00  0.00    -0.359 C  
BRANCH   9  10
HETATM   10  C   UNL     1     -10.674   7.260  67.121  1.00  0.00    -0.413 C  
BRANCH  10  11
HETATM   11  C   UNL     1     -10.480   8.510  67.996  1.00  0.00    -0.249 C  
BRANCH  11  12
HETATM   12  C   UNL     1     -10.636   9.787  67.169  1.00  0.00    -0.229 C  
BRANCH  12  13
HETATM   13  N   UNL     1      -9.619  10.891  67.499  1.00  0.00    -0.155 N  
HETATM   14  C   UNL     1      -8.360  10.319  68.141  1.00  0.00    -0.118 C  
HETATM   15  C   UNL     1      -9.228  11.648  66.226  1.00  0.00    -0.217 C  
BRANCH  13  16
HETATM   16  C   UNL     1     -10.285  11.938  68.465  1.00  0.00    -0.215 C  
BRANCH  16  17
HETATM   17  C   UNL     1     -11.777  12.145  68.178  1.00  0.00    -0.341 C  
BRANCH  17  18
HETATM   18  O   UNL     1     -12.137  13.522  68.252  1.00  0.00    -0.354 OA 
BRANCH  18  19
HETATM   19  C   UNL     1     -11.770  14.229  67.129  1.00  0.00    -0.404 A  
HETATM   20  C   UNL     1     -12.411  13.866  65.946  1.00  0.00    -0.517 A  
HETATM   21  C   UNL     1     -12.072  14.493  64.745  1.00  0.00    -0.454 A  
HETATM   22  C   UNL     1     -11.101  15.495  64.723  1.00  0.00    -0.421 A  
HETATM   23  C   UNL     1     -10.483  15.886  65.908  1.00  0.00    -0.373 A  
HETATM   24  C   UNL     1     -10.823  15.261  67.107  1.00  0.00    -0.322 A  
ENDBRANCH  18  19
ENDBRANCH  17  18
ENDBRANCH  16  17
ENDBRANCH  13  16
ENDBRANCH  12  13
ENDBRANCH  11  12
ENDBRANCH  10  11
ENDBRANCH   9  10
ENDBRANCH   8   9
ENDBRANCH   7   8
ENDBRANCH   6   7
ENDBRANCH   5   6
ENDBRANCH   4   5
ENDBRANCH   3   4
ENDBRANCH   2   3
TORSDOF 15
ENDMDL
MODEL       69
REMARK 921   NORMALIZED FREE ENERGY PREDICTED BY IDOCK:   -4.76 KCAL/MOL
REMARK 922        TOTAL FREE ENERGY PREDICTED BY IDOCK:  -10.06 KCAL/MOL
REMARK 923 INTER-LIGAND FREE ENERGY PREDICTED BY IDOCK:   -8.95 KCAL/MOL
REMARK 924 INTRA-LIGAND FREE ENERGY PREDICTED BY IDOCK:   -1.12 KCAL/MOL
REMARK 927      BINDING AFFINITY PREDICTED BY RF-SCORE:    0.00 PKD
ROOT
HETATM    1  C   UNL     1      -9.662  20.214  66.791  1.00  0.00    -0.577 C  
HETATM    2  C   UNL     1     -10.630  19.112  67.183  1.00  0.00    -0.564 C  
ENDROOT
BRANCH   2   3
HETATM    3  C   UNL     1     -10.328  17.822  66.427  1.00  0.00    -0.351 C  
BRANCH   3   4
HETATM    4  C   UNL     1     -10.490  16.610  67.338  1.00  0.00    -0.314 C  
BRANCH   4   5
HETATM    5  C   UNL     1     -10.597  15.326  66.523  1.00  0.00    -0.304 C  
BRANCH   5   6
HETATM    6  C   UNL     1     -10.815  15.652  65.051  1.00  0.00    -0.468 C  
BRANCH   6   7
HETATM    7  C   UNL     1     -12.047  14.937  64.520  1.00  0.00    -0.420 C  
BRANCH   7   8
HETATM    8  C   UNL     1     -11.937  13.433  64.750  1.00  0.00    -0.429 C  
BRANCH   8   9
HETATM    9  C   UNL     1     -11.826  12.723  63.410  1.00  0.00    -0.591 C  
BRANCH   9  10
HETATM   10  C   UNL     1     -10.949  11.479  63.496  1.00  0.00    -0.453 C  
BRANCH  10  11
HETATM   11  C   UNL     1     -10.127  11.447  64.796  1.00  0.00    -0.326 C  
BRANCH  11  12
HETATM   12  C   UNL     1      -9.910  10.010  65.270  1.00  0.00    -0.318 C  
BRANCH  12  13
HETATM   13  N   UNL     1      -9.471   9.880  66.737  1.00  0.00    -0.163 N  
HETATM   14  C   UNL     1      -8.875   8.506  67.024  1.00  0.00    -0.133 C  
HETATM   15  C   UNL     1      -8.430  10.952  67.074  1.00  0.00    -0.134 C  
BRANCH  13  16
HETATM   16  C   UNL     1     -10.708  10.134  67.673  1.00  0.00    -0.285 C  
BRANCH  16  17
HETATM   17  C   UNL     1     -10.347  10.931  68.932  1.00  0.00    -0.204 C  
BRANCH  17  18
HETATM   18  O   UNL     1     -10.010  10.072  70.017  1.00  0.00    -0.249 OA 
BRANCH  18  19
HETATM   19  C   UNL     1     -11.078   9.823  70.850  1.00  0.00    -0.357 A  
HETATM   20  C   UNL     1     -11.008   8.646  71.592  1.00  0.00    -0.378 A  
HETATM   21  C   UNL     1     -12.065   8.282  72.430  1.00  0.00    -0.430 A  
HETATM   22  C   UNL     1     -13.190   9.100  72.540  1.00  0.00    -0.464 A  
HETATM   23  C   UNL     1     -13.249  10.295  71.827  1.00  0.00    -0.534 A  
HETATM   24  C   UNL     1     -12.193  10.659  70.994  1.00  0.00    -0.498 A  
ENDBRANCH  18  19
ENDBRANCH  17  18
ENDBRANCH  16  17
ENDBRANCH  13  16
ENDBRANCH  12  13
ENDBRANCH  11  12
ENDBRANCH  10  11
ENDBRANCH   9  10
ENDBRANCH   8   9
ENDBRANCH   7   8
ENDBRANCH   6   7
ENDBRANCH   5   6
ENDBRANCH   4   5
ENDBRANCH   3   4
ENDBRANCH   2   3
TORSDOF 15
ENDMDL
MODEL       70
REMARK 921   NORMALIZED FREE ENERGY PREDICTED BY IDOCK:   -4.75 KCAL/MOL
REMARK 922        TOTAL FREE ENERGY PREDICTED BY IDOCK:  -10.03 KCAL/MOL
REMARK 923 INTER-LIGAND FREE ENERGY PREDICTED BY IDOCK:   -8.27 KCAL/MOL
REMARK 924 INTRA-LIGAND FREE ENERGY PREDICTED BY IDOCK:   -1.76 KCAL/MOL
REMARK 927      BINDING AFFINITY PREDICTED BY RF-SCORE:    0.00 PKD
ROOT
HETATM    1  C   UNL     1     -10.116  11.632  63.805  1.00  0.00    -0.416 C  
HETATM    2  C   UNL     1     -11.361  12.493  63.694  1.00  0.00    -0.555 C  
ENDROOT
BRANCH   2   3
HETATM    3  C   UNL     1     -12.197  12.416  64.967  1.00  0.00    -0.465 C  
BRANCH   3   4
HETATM    4  C   UNL     1     -12.651  13.805  65.402  1.00  0.00    -0.534 C  
BRANCH   4   5
HETATM    5  C   UNL     1     -11.458  14.734  65.592  1.00  0.00    -0.327 C  
BRANCH   5   6
HETATM    6  C   UNL     1     -11.321  15.125  67.058  1.00  0.00    -0.277 C  
BRANCH   6   7
HETATM    7  C   UNL     1     -10.126  16.042  67.260  1.00  0.00    -0.266 C  
BRANCH   7   8
HETATM    8  C   UNL     1      -8.823  15.257  67.165  1.00  0.00    -0.232 C  
BRANCH   8   9
HETATM    9  C   UNL     1      -8.780  14.212  68.269  1.00  0.00    -0.181 C  
BRANCH   9  10
HETATM   10  C   UNL     1      -7.637  13.222  68.070  1.00  0.00    -0.145 C  
BRANCH  10  11
HETATM   11  C   UNL     1      -8.121  11.764  68.156  1.00  0.00    -0.150 C  
BRANCH  11  12
HETATM   12  C   UNL     1      -9.493  11.605  67.498  1.00  0.00    -0.171 C  
BRANCH  12  13
HETATM   13  N   UNL     1     -10.379  10.515  68.122  1.00  0.00    -0.164 N  
HETATM   14  C   UNL     1     -10.546   9.325  67.184  1.00  0.00    -0.216 C  
HETATM   15  C   UNL     1      -9.767  10.027  69.439  1.00  0.00    -0.225 C  
BRANCH  13  16
HETATM   16  C   UNL     1     -11.785  11.126  68.470  1.00  0.00    -0.298 C  
BRANCH  16  17
HETATM   17  C   UNL     1     -11.787  11.890  69.800  1.00  0.00    -0.340 C  
BRANCH  17  18
HETATM   18  O   UNL     1     -11.808  13.300  69.592  1.00  0.00    -0.300 OA 
BRANCH  18  19
HETATM   19  C   UNL     1     -12.214  13.996  70.709  1.00  0.00    -0.367 A  
HETATM   20  C   UNL     1     -11.626  15.245  70.893  1.00  0.00    -0.382 A  
HETATM   21  C   UNL     1     -11.938  16.007  72.023  1.00  0.00    -0.622 A  
HETATM   22  C   UNL     1     -12.849  15.528  72.964  1.00  0.00    -0.582 A  
HETATM   23  C   UNL     1     -13.466  14.296  72.767  1.00  0.00    -0.590 A  
HETATM   24  C   UNL     1     -13.156  13.538  71.639  1.00  0.00    -0.459 A  
ENDBRANCH  18  19
ENDBRANCH  17  18
ENDBRANCH  16  17
ENDBRANCH  13  16
ENDBRANCH  12  13
ENDBRANCH  11  12
ENDBRANCH  10  11
ENDBRANCH   9  10
ENDBRANCH   8   9
ENDBRANCH   7   8
ENDBRANCH   6   7
ENDBRANCH   5   6
ENDBRANCH   4   5
ENDBRANCH   3   4
ENDBRANCH   2   3
TORSDOF 15
ENDMDL
MODEL       71
REMARK 921   NORMALIZED FREE ENERGY PREDICTED BY IDOCK:   -4.74 KCAL/MOL
REMARK 922        TOTAL FREE ENERGY PREDICTED BY IDOCK:  -10.03 KCAL/MOL
REMARK 923 INTER-LIGAND FREE ENERGY PREDICTED BY IDOCK:   -8.43 KCAL/MOL
REMARK 924 INTRA-LIGAND FREE ENERGY PREDICTED BY IDOCK:   -1.60 KCAL/MOL
REMARK 927      BINDING AFFINITY PREDICTED BY RF-SCORE:    0.00 PKD
ROOT
HETATM    1  C   UNL     1     -12.268  14.603  70.024  1.00  0.00    -0.385 C  
HETATM    2  C   UNL     1     -12.402  13.254  70.708  1.00  0.00    -0.425 C  
ENDROOT
BRANCH   2   3
HETATM    3  C   UNL     1     -11.830  12.139  69.839  1.00  0.00    -0.392 C  
BRANCH   3   4
HETATM    4  C   UNL     1     -12.245  10.771  70.369  1.00  0.00    -0.437 C  
BRANCH   4   5
HETATM    5  C   UNL     1     -13.153  10.910  71.585  1.00  0.00    -0.538 C  
BRANCH   5   6
HETATM    6  C   UNL     1     -13.534   9.535  72.119  1.00  0.00    -0.535 C  
BRANCH   6   7
HETATM    7  C   UNL     1     -12.348   8.586  72.052  1.00  0.00    -0.423 C  
BRANCH   7   8
HETATM    8  C   UNL     1     -12.786   7.213  71.554  1.00  0.00    -0.433 C  
BRANCH   8   9
HETATM    9  C   UNL     1     -11.578   6.292  71.484  1.00  0.00    -0.345 C  
BRANCH   9  10
HETATM   10  C   UNL     1     -11.075   6.121  70.054  1.00  0.00    -0.462 C  
BRANCH  10  11
HETATM   11  C   UNL     1      -9.804   6.948  69.793  1.00  0.00    -0.177 C  
BRANCH  11  12
HETATM   12  C   UNL     1     -10.086   8.090  68.816  1.00  0.00    -0.195 C  
BRANCH  12  13
HETATM   13  N   UNL     1      -9.039   8.252  67.702  1.00  0.00    -0.131 N  
HETATM   14  C   UNL     1      -7.649   7.845  68.177  1.00  0.00    -0.116 C  
HETATM   15  C   UNL     1      -9.421   7.395  66.491  1.00  0.00    -0.172 C  
BRANCH  13  16
HETATM   16  C   UNL     1      -9.025   9.747  67.216  1.00  0.00    -0.135 C  
BRANCH  16  17
HETATM   17  C   UNL     1     -10.409  10.245  66.785  1.00  0.00    -0.227 C  
BRANCH  17  18
HETATM   18  O   UNL     1     -10.426  10.619  65.411  1.00  0.00    -0.258 OA 
BRANCH  18  19
HETATM   19  C   UNL     1     -11.138  11.776  65.183  1.00  0.00    -0.282 A  
HETATM   20  C   UNL     1     -11.382  12.086  63.846  1.00  0.00    -0.503 A  
HETATM   21  C   UNL     1     -12.055  13.264  63.511  1.00  0.00    -0.550 A  
HETATM   22  C   UNL     1     -12.499  14.129  64.512  1.00  0.00    -0.350 A  
HETATM   23  C   UNL     1     -12.289  13.806  65.850  1.00  0.00    -0.516 A  
HETATM   24  C   UNL     1     -11.620  12.629  66.183  1.00  0.00    -0.445 A  
ENDBRANCH  18  19
ENDBRANCH  17  18
ENDBRANCH  16  17
ENDBRANCH  13  16
ENDBRANCH  12  13
ENDBRANCH  11  12
ENDBRANCH  10  11
ENDBRANCH   9  10
ENDBRANCH   8   9
ENDBRANCH   7   8
ENDBRANCH   6   7
ENDBRANCH   5   6
ENDBRANCH   4   5
ENDBRANCH   3   4
ENDBRANCH   2   3
TORSDOF 15
ENDMDL
MODEL       72
REMARK 921   NORMALIZED FREE ENERGY PREDICTED BY IDOCK:   -4.73 KCAL/MOL
REMARK 922        TOTAL FREE ENERGY PREDICTED BY IDOCK:  -10.00 KCAL/MOL
REMARK 923 INTER-LIGAND FREE ENERGY PREDICTED BY IDOCK:   -7.32 KCAL/MOL
REMARK 924 INTRA-LIGAND FREE ENERGY PREDICTED BY IDOCK:   -2.68 KCAL/MOL
REMARK 927      BINDING AFFINITY PREDICTED BY RF-SCORE:    0.00 PKD
ROOT
HETATM    1  C   UNL     1     -10.082  19.744  68.318  1.00  0.00    -0.575 C  
HETATM    2  C   UNL     1     -10.102  18.235  68.151  1.00  0.00    -0.397 C  
ENDROOT
BRANCH   2   3
HETATM    3  C   UNL     1     -10.412  17.847  66.709  1.00  0.00    -0.315 C  
BRANCH   3   4
HETATM    4  C   UNL     1      -9.379  16.858  66.180  1.00  0.00    -0.268 C  
BRANCH   4   5
HETATM    5  C   UNL     1     -10.056  15.676  65.497  1.00  0.00    -0.395 C  
BRANCH   5   6
HETATM    6  C   UNL     1     -11.266  16.148  64.702  1.00  0.00    -0.307 C  
BRANCH   6   7
HETATM    7  C   UNL     1     -12.128  14.967  64.285  1.00  0.00    -0.373 C  
BRANCH   7   8
HETATM    8  C   UNL     1     -12.327  14.007  65.453  1.00  0.00    -0.495 C  
BRANCH   8   9
HETATM    9  C   UNL     1     -12.156  12.576  64.968  1.00  0.00    -0.504 C  
BRANCH   9  10
HETATM   10  C   UNL     1     -10.796  12.357  64.313  1.00  0.00    -0.395 C  
BRANCH  10  11
HETATM   11  C   UNL     1     -10.505  10.863  64.085  1.00  0.00    -0.397 C  
BRANCH  11  12
HETATM   12  C   UNL     1      -9.002  10.611  63.964  1.00  0.00    -0.196 C  
BRANCH  12  13
HETATM   13  N   UNL     1      -8.433   9.627  64.998  1.00  0.00    -0.140 N  
HETATM   14  C   UNL     1      -7.839   8.393  64.328  1.00  0.00    -0.143 C  
HETATM   15  C   UNL     1      -7.346  10.309  65.835  1.00  0.00    -0.131 C  
BRANCH  13  16
HETATM   16  C   UNL     1      -9.574   9.201  65.992  1.00  0.00    -0.272 C  
BRANCH  16  17
HETATM   17  C   UNL     1      -9.537   9.985  67.309  1.00  0.00    -0.156 C  
BRANCH  17  18
HETATM   18  O   UNL     1     -10.832  10.456  67.673  1.00  0.00    -0.264 OA 
BRANCH  18  19
HETATM   19  C   UNL     1     -10.821  11.767  68.095  1.00  0.00    -0.217 A  
HETATM   20  C   UNL     1      -9.622  12.454  67.913  1.00  0.00    -0.205 A  
HETATM   21  C   UNL     1      -9.497  13.774  68.353  1.00  0.00    -0.198 A  
HETATM   22  C   UNL     1     -10.574  14.417  68.964  1.00  0.00    -0.245 A  
HETATM   23  C   UNL     1     -11.785  13.747  69.117  1.00  0.00    -0.379 A  
HETATM   24  C   UNL     1     -11.910  12.430  68.675  1.00  0.00    -0.348 A  
ENDBRANCH  18  19
ENDBRANCH  17  18
ENDBRANCH  16  17
ENDBRANCH  13  16
ENDBRANCH  12  13
ENDBRANCH  11  12
ENDBRANCH  10  11
ENDBRANCH   9  10
ENDBRANCH   8   9
ENDBRANCH   7   8
ENDBRANCH   6   7
ENDBRANCH   5   6
ENDBRANCH   4   5
ENDBRANCH   3   4
ENDBRANCH   2   3
TORSDOF 15
ENDMDL
MODEL       73
REMARK 921   NORMALIZED FREE ENERGY PREDICTED BY IDOCK:   -4.71 KCAL/MOL
REMARK 922        TOTAL FREE ENERGY PREDICTED BY IDOCK:   -9.97 KCAL/MOL
REMARK 923 INTER-LIGAND FREE ENERGY PREDICTED BY IDOCK:   -7.07 KCAL/MOL
REMARK 924 INTRA-LIGAND FREE ENERGY PREDICTED BY IDOCK:   -2.90 KCAL/MOL
REMARK 927      BINDING AFFINITY PREDICTED BY RF-SCORE:    0.00 PKD
ROOT
HETATM    1  C   UNL     1     -10.458  16.584  65.558  1.00  0.00    -0.320 C  
HETATM    2  C   UNL     1     -10.948  15.262  64.996  1.00  0.00    -0.450 C  
ENDROOT
BRANCH   2   3
HETATM    3  C   UNL     1     -12.045  14.665  65.873  1.00  0.00    -0.212 C  
BRANCH   3   4
HETATM    4  C   UNL     1     -12.708  13.480  65.180  1.00  0.00    -0.453 C  
BRANCH   4   5
HETATM    5  C   UNL     1     -12.088  13.232  63.810  1.00  0.00    -0.546 C  
BRANCH   5   6
HETATM    6  C   UNL     1     -11.845  11.743  63.602  1.00  0.00    -0.498 C  
BRANCH   6   7
HETATM    7  C   UNL     1     -10.359  11.455  63.465  1.00  0.00    -0.476 C  
BRANCH   7   8
HETATM    8  C   UNL     1      -9.694  11.399  64.836  1.00  0.00    -0.283 C  
BRANCH   8   9
HETATM    9  C   UNL     1     -10.247  10.218  65.619  1.00  0.00    -0.301 C  
BRANCH   9  10
HETATM   10  C   UNL     1      -9.143   9.264  66.065  1.00  0.00    -0.235 C  
BRANCH  10  11
HETATM   11  C   UNL     1      -9.080   9.139  67.597  1.00  0.00    -0.133 C  
BRANCH  11  12
HETATM   12  C   UNL     1     -10.479   8.967  68.189  1.00  0.00    -0.202 C  
BRANCH  12  13
HETATM   13  N   UNL     1     -10.541   9.066  69.722  1.00  0.00    -0.225 N  
HETATM   14  C   UNL     1     -10.861   7.718  70.357  1.00  0.00    -0.244 C  
HETATM   15  C   UNL     1      -9.204   9.570  70.273  1.00  0.00    -0.258 C  
BRANCH  13  16
HETATM   16  C   UNL     1     -11.631  10.123  70.130  1.00  0.00    -0.277 C  
BRANCH  16  17
HETATM   17  C   UNL     1     -11.900  11.154  69.027  1.00  0.00    -0.348 C  
BRANCH  17  18
HETATM   18  O   UNL     1     -12.069  12.463  69.565  1.00  0.00    -0.268 OA 
BRANCH  18  19
HETATM   19  C   UNL     1     -11.075  13.331  69.170  1.00  0.00    -0.209 A  
HETATM   20  C   UNL     1     -10.121  12.808  68.301  1.00  0.00    -0.237 A  
HETATM   21  C   UNL     1      -9.046  13.597  67.882  1.00  0.00    -0.198 A  
HETATM   22  C   UNL     1      -8.930  14.917  68.320  1.00  0.00    -0.177 A  
HETATM   23  C   UNL     1      -9.901  15.455  69.160  1.00  0.00    -0.247 A  
HETATM   24  C   UNL     1     -10.974  14.668  69.576  1.00  0.00    -0.269 A  
ENDBRANCH  18  19
ENDBRANCH  17  18
ENDBRANCH  16  17
ENDBRANCH  13  16
ENDBRANCH  12  13
ENDBRANCH  11  12
ENDBRANCH  10  11
ENDBRANCH   9  10
ENDBRANCH   8   9
ENDBRANCH   7   8
ENDBRANCH   6   7
ENDBRANCH   5   6
ENDBRANCH   4   5
ENDBRANCH   3   4
ENDBRANCH   2   3
TORSDOF 15
ENDMDL
MODEL       74
REMARK 921   NORMALIZED FREE ENERGY PREDICTED BY IDOCK:   -4.71 KCAL/MOL
REMARK 922        TOTAL FREE ENERGY PREDICTED BY IDOCK:   -9.96 KCAL/MOL
REMARK 923 INTER-LIGAND FREE ENERGY PREDICTED BY IDOCK:   -8.38 KCAL/MOL
REMARK 924 INTRA-LIGAND FREE ENERGY PREDICTED BY IDOCK:   -1.58 KCAL/MOL
REMARK 927      BINDING AFFINITY PREDICTED BY RF-SCORE:    0.00 PKD
ROOT
HETATM    1  C   UNL     1      -7.381  19.035  66.241  1.00  0.00    -0.281 C  
HETATM    2  C   UNL     1      -8.106  19.572  67.462  1.00  0.00    -0.325 C  
ENDROOT
BRANCH   2   3
HETATM    3  C   UNL     1      -9.437  20.209  67.074  1.00  0.00    -0.541 C  
BRANCH   3   4
HETATM    4  C   UNL     1     -10.580  19.211  67.223  1.00  0.00    -0.573 C  
BRANCH   4   5
HETATM    5  C   UNL     1     -10.311  18.240  68.367  1.00  0.00    -0.366 C  
BRANCH   5   6
HETATM    6  C   UNL     1     -10.751  16.834  67.980  1.00  0.00    -0.355 C  
BRANCH   6   7
HETATM    7  C   UNL     1      -9.864  16.278  66.878  1.00  0.00    -0.253 C  
BRANCH   7   8
HETATM    8  C   UNL     1      -9.979  14.759  66.810  1.00  0.00    -0.256 C  
BRANCH   8   9
HETATM    9  C   UNL     1     -11.283  14.380  66.126  1.00  0.00    -0.336 C  
BRANCH   9  10
HETATM   10  C   UNL     1     -11.819  13.042  66.625  1.00  0.00    -0.455 C  
BRANCH  10  11
HETATM   11  C   UNL     1     -10.691  12.021  66.849  1.00  0.00    -0.282 C  
BRANCH  11  12
HETATM   12  C   UNL     1     -11.261  10.635  67.157  1.00  0.00    -0.100 C  
BRANCH  12  13
HETATM   13  N   UNL     1     -10.459   9.828  68.190  1.00  0.00    -0.203 N  
HETATM   14  C   UNL     1     -10.331   8.365  67.781  1.00  0.00    -0.235 C  
HETATM   15  C   UNL     1      -9.056  10.423  68.351  1.00  0.00    -0.147 C  
BRANCH  13  16
HETATM   16  C   UNL     1     -11.163   9.934  69.591  1.00  0.00    -0.208 C  
BRANCH  16  17
HETATM   17  C   UNL     1     -11.327  11.383  70.066  1.00  0.00    -0.176 C  
BRANCH  17  18
HETATM   18  O   UNL     1     -12.359  11.500  71.041  1.00  0.00    -0.371 OA 
BRANCH  18  19
HETATM   19  C   UNL     1     -12.785  12.799  71.211  1.00  0.00    -0.269 A  
HETATM   20  C   UNL     1     -12.235  13.737  70.339  1.00  0.00    -0.433 A  
HETATM   21  C   UNL     1     -12.568  15.089  70.464  1.00  0.00    -0.420 A  
HETATM   22  C   UNL     1     -13.462  15.505  71.450  1.00  0.00    -0.583 A  
HETATM   23  C   UNL     1     -14.042  14.567  72.300  1.00  0.00    -0.594 A  
HETATM   24  C   UNL     1     -13.711  13.218  72.174  1.00  0.00    -0.619 A  
ENDBRANCH  18  19
ENDBRANCH  17  18
ENDBRANCH  16  17
ENDBRANCH  13  16
ENDBRANCH  12  13
ENDBRANCH  11  12
ENDBRANCH  10  11
ENDBRANCH   9  10
ENDBRANCH   8   9
ENDBRANCH   7   8
ENDBRANCH   6   7
ENDBRANCH   5   6
ENDBRANCH   4   5
ENDBRANCH   3   4
ENDBRANCH   2   3
TORSDOF 15
ENDMDL
MODEL       75
REMARK 921   NORMALIZED FREE ENERGY PREDICTED BY IDOCK:   -4.70 KCAL/MOL
REMARK 922        TOTAL FREE ENERGY PREDICTED BY IDOCK:   -9.95 KCAL/MOL
REMARK 923 INTER-LIGAND FREE ENERGY PREDICTED BY IDOCK:   -8.28 KCAL/MOL
REMARK 924 INTRA-LIGAND FREE ENERGY PREDICTED BY IDOCK:   -1.68 KCAL/MOL
REMARK 927      BINDING AFFINITY PREDICTED BY RF-SCORE:    0.00 PKD
ROOT
HETATM    1  C   UNL     1     -12.490  15.926  73.688  1.00  0.00    -0.711 C  
HETATM    2  C   UNL     1     -13.688  15.547  72.836  1.00  0.00    -0.599 C  
ENDROOT
BRANCH   2   3
HETATM    3  C   UNL     1     -13.308  15.466  71.361  1.00  0.00    -0.601 C  
BRANCH   3   4
HETATM    4  C   UNL     1     -12.918  14.043  70.979  1.00  0.00    -0.378 C  
BRANCH   4   5
HETATM    5  C   UNL     1     -11.808  14.043  69.934  1.00  0.00    -0.393 C  
BRANCH   5   6
HETATM    6  C   UNL     1     -11.319  15.463  69.685  1.00  0.00    -0.315 C  
BRANCH   6   7
HETATM    7  C   UNL     1     -11.422  15.815  68.209  1.00  0.00    -0.338 C  
BRANCH   7   8
HETATM    8  C   UNL     1     -10.086  15.591  67.508  1.00  0.00    -0.241 C  
BRANCH   8   9
HETATM    9  C   UNL     1     -10.296  14.704  66.291  1.00  0.00    -0.301 C  
BRANCH   9  10
HETATM   10  C   UNL     1     -11.760  14.312  66.118  1.00  0.00    -0.397 C  
BRANCH  10  11
HETATM   11  C   UNL     1     -11.947  12.785  66.113  1.00  0.00    -0.476 C  
BRANCH  11  12
HETATM   12  C   UNL     1     -10.596  12.069  66.141  1.00  0.00    -0.263 C  
BRANCH  12  13
HETATM   13  N   UNL     1     -10.399  11.121  67.334  1.00  0.00    -0.189 N  
HETATM   14  C   UNL     1      -9.347  11.651  68.302  1.00  0.00    -0.191 C  
HETATM   15  C   UNL     1     -11.720  10.939  68.087  1.00  0.00    -0.154 C  
BRANCH  13  16
HETATM   16  C   UNL     1      -9.975   9.703  66.805  1.00  0.00    -0.227 C  
BRANCH  16  17
HETATM   17  C   UNL     1     -10.652   8.558  67.569  1.00  0.00    -0.214 C  
BRANCH  17  18
HETATM   18  O   UNL     1      -9.813   8.051  68.603  1.00  0.00    -0.165 OA 
BRANCH  18  19
HETATM   19  C   UNL     1     -10.481   7.885  69.796  1.00  0.00    -0.233 A  
HETATM   20  C   UNL     1     -10.246   8.858  70.765  1.00  0.00    -0.282 A  
HETATM   21  C   UNL     1     -10.841   8.751  72.025  1.00  0.00    -0.428 A  
HETATM   22  C   UNL     1     -11.683   7.677  72.316  1.00  0.00    -0.371 A  
HETATM   23  C   UNL     1     -11.948   6.721  71.340  1.00  0.00    -0.403 A  
HETATM   24  C   UNL     1     -11.357   6.830  70.082  1.00  0.00    -0.404 A  
ENDBRANCH  18  19
ENDBRANCH  17  18
ENDBRANCH  16  17
ENDBRANCH  13  16
ENDBRANCH  12  13
ENDBRANCH  11  12
ENDBRANCH  10  11
ENDBRANCH   9  10
ENDBRANCH   8   9
ENDBRANCH   7   8
ENDBRANCH   6   7
ENDBRANCH   5   6
ENDBRANCH   4   5
ENDBRANCH   3   4
ENDBRANCH   2   3
TORSDOF 15
ENDMDL
MODEL       76
REMARK 921   NORMALIZED FREE ENERGY PREDICTED BY IDOCK:   -4.69 KCAL/MOL
REMARK 922        TOTAL FREE ENERGY PREDICTED BY IDOCK:   -9.93 KCAL/MOL
REMARK 923 INTER-LIGAND FREE ENERGY PREDICTED BY IDOCK:   -8.82 KCAL/MOL
REMARK 924 INTRA-LIGAND FREE ENERGY PREDICTED BY IDOCK:   -1.12 KCAL/MOL
REMARK 927      BINDING AFFINITY PREDICTED BY RF-SCORE:    0.00 PKD
ROOT
HETATM    1  C   UNL     1      -5.484  19.894  71.588  1.00  0.00    -0.434 C  
HETATM    2  C   UNL     1      -6.398  19.972  70.379  1.00  0.00    -0.323 C  
ENDROOT
BRANCH   2   3
HETATM    3  C   UNL     1      -6.096  18.852  69.388  1.00  0.00    -0.285 C  
BRANCH   3   4
HETATM    4  C   UNL     1      -6.909  19.025  68.110  1.00  0.00    -0.268 C  
BRANCH   4   5
HETATM    5  C   UNL     1      -7.497  20.428  68.023  1.00  0.00    -0.217 C  
BRANCH   5   6
HETATM    6  C   UNL     1      -8.818  20.400  67.265  1.00  0.00    -0.444 C  
BRANCH   6   7
HETATM    7  C   UNL     1      -8.882  19.194  66.341  1.00  0.00    -0.349 C  
BRANCH   7   8
HETATM    8  C   UNL     1     -10.307  18.660  66.252  1.00  0.00    -0.483 C  
BRANCH   8   9
HETATM    9  C   UNL     1     -10.284  17.142  66.325  1.00  0.00    -0.340 C  
BRANCH   9  10
HETATM   10  C   UNL     1     -10.958  16.504  65.114  1.00  0.00    -0.201 C  
BRANCH  10  11
HETATM   11  C   UNL     1     -10.712  14.987  65.055  1.00  0.00    -0.448 C  
BRANCH  11  12
HETATM   12  C   UNL     1     -10.047  14.491  66.341  1.00  0.00    -0.284 C  
BRANCH  12  13
HETATM   13  N   UNL     1     -10.419  13.054  66.739  1.00  0.00    -0.258 N  
HETATM   14  C   UNL     1     -11.772  12.646  66.167  1.00  0.00    -0.406 C  
HETATM   15  C   UNL     1      -9.353  12.074  66.239  1.00  0.00    -0.223 C  
BRANCH  13  16
HETATM   16  C   UNL     1     -10.443  12.939  68.307  1.00  0.00    -0.242 C  
BRANCH  16  17
HETATM   17  C   UNL     1     -11.559  13.775  68.946  1.00  0.00    -0.319 C  
BRANCH  17  18
HETATM   18  O   UNL     1     -11.033  14.759  69.832  1.00  0.00    -0.249 OA 
BRANCH  18  19
HETATM   19  C   UNL     1     -11.906  15.082  70.847  1.00  0.00    -0.324 A  
HETATM   20  C   UNL     1     -11.321  15.485  72.046  1.00  0.00    -0.445 A  
HETATM   21  C   UNL     1     -12.122  15.787  73.150  1.00  0.00    -0.603 A  
HETATM   22  C   UNL     1     -13.511  15.700  73.056  1.00  0.00    -0.654 A  
HETATM   23  C   UNL     1     -14.102  15.332  71.850  1.00  0.00    -0.656 A  
HETATM   24  C   UNL     1     -13.302  15.033  70.748  1.00  0.00    -0.362 A  
ENDBRANCH  18  19
ENDBRANCH  17  18
ENDBRANCH  16  17
ENDBRANCH  13  16
ENDBRANCH  12  13
ENDBRANCH  11  12
ENDBRANCH  10  11
ENDBRANCH   9  10
ENDBRANCH   8   9
ENDBRANCH   7   8
ENDBRANCH   6   7
ENDBRANCH   5   6
ENDBRANCH   4   5
ENDBRANCH   3   4
ENDBRANCH   2   3
TORSDOF 15
ENDMDL
MODEL       77
REMARK 921   NORMALIZED FREE ENERGY PREDICTED BY IDOCK:   -4.69 KCAL/MOL
REMARK 922        TOTAL FREE ENERGY PREDICTED BY IDOCK:   -9.93 KCAL/MOL
REMARK 923 INTER-LIGAND FREE ENERGY PREDICTED BY IDOCK:   -8.20 KCAL/MOL
REMARK 924 INTRA-LIGAND FREE ENERGY PREDICTED BY IDOCK:   -1.73 KCAL/MOL
REMARK 927      BINDING AFFINITY PREDICTED BY RF-SCORE:    0.00 PKD
ROOT
HETATM    1  C   UNL     1     -12.628  15.964  73.387  1.00  0.00    -0.666 C  
HETATM    2  C   UNL     1     -12.964  14.525  73.040  1.00  0.00    -0.596 C  
ENDROOT
BRANCH   2   3
HETATM    3  C   UNL     1     -12.953  14.306  71.531  1.00  0.00    -0.411 C  
BRANCH   3   4
HETATM    4  C   UNL     1     -11.802  15.065  70.882  1.00  0.00    -0.376 C  
BRANCH   4   5
HETATM    5  C   UNL     1     -12.281  15.841  69.660  1.00  0.00    -0.207 C  
BRANCH   5   6
HETATM    6  C   UNL     1     -11.216  15.820  68.571  1.00  0.00    -0.354 C  
BRANCH   6   7
HETATM    7  C   UNL     1     -10.835  14.391  68.221  1.00  0.00    -0.250 C  
BRANCH   7   8
HETATM    8  C   UNL     1     -11.972  13.696  67.481  1.00  0.00    -0.393 C  
BRANCH   8   9
HETATM    9  C   UNL     1     -11.886  14.024  65.999  1.00  0.00    -0.401 C  
BRANCH   9  10
HETATM   10  C   UNL     1     -10.576  13.542  65.384  1.00  0.00    -0.313 C  
BRANCH  10  11
HETATM   11  C   UNL     1     -10.430  12.013  65.474  1.00  0.00    -0.307 C  
BRANCH  11  12
HETATM   12  C   UNL     1      -9.194  11.629  66.288  1.00  0.00    -0.217 C  
BRANCH  12  13
HETATM   13  N   UNL     1      -9.138  10.150  66.706  1.00  0.00    -0.139 N  
HETATM   14  C   UNL     1      -9.243   9.224  65.500  1.00  0.00    -0.231 C  
HETATM   15  C   UNL     1      -7.827   9.860  67.443  1.00  0.00    -0.098 C  
BRANCH  13  16
HETATM   16  C   UNL     1     -10.305   9.852  67.715  1.00  0.00    -0.221 C  
BRANCH  16  17
HETATM   17  C   UNL     1     -10.239  10.724  68.974  1.00  0.00    -0.213 C  
BRANCH  17  18
HETATM   18  O   UNL     1      -9.994   9.942  70.140  1.00  0.00    -0.249 OA 
BRANCH  18  19
HETATM   19  C   UNL     1     -11.145   9.648  70.836  1.00  0.00    -0.352 A  
HETATM   20  C   UNL     1     -12.022  10.712  71.036  1.00  0.00    -0.442 A  
HETATM   21  C   UNL     1     -13.195  10.525  71.772  1.00  0.00    -0.522 A  
HETATM   22  C   UNL     1     -13.502   9.270  72.299  1.00  0.00    -0.548 A  
HETATM   23  C   UNL     1     -12.646   8.195  72.072  1.00  0.00    -0.366 A  
HETATM   24  C   UNL     1     -11.478   8.382  71.335  1.00  0.00    -0.328 A  
ENDBRANCH  18  19
ENDBRANCH  17  18
ENDBRANCH  16  17
ENDBRANCH  13  16
ENDBRANCH  12  13
ENDBRANCH  11  12
ENDBRANCH  10  11
ENDBRANCH   9  10
ENDBRANCH   8   9
ENDBRANCH   7   8
ENDBRANCH   6   7
ENDBRANCH   5   6
ENDBRANCH   4   5
ENDBRANCH   3   4
ENDBRANCH   2   3
TORSDOF 15
ENDMDL
MODEL       78
REMARK 921   NORMALIZED FREE ENERGY PREDICTED BY IDOCK:   -4.69 KCAL/MOL
REMARK 922        TOTAL FREE ENERGY PREDICTED BY IDOCK:   -9.93 KCAL/MOL
REMARK 923 INTER-LIGAND FREE ENERGY PREDICTED BY IDOCK:   -8.82 KCAL/MOL
REMARK 924 INTRA-LIGAND FREE ENERGY PREDICTED BY IDOCK:   -1.10 KCAL/MOL
REMARK 927      BINDING AFFINITY PREDICTED BY RF-SCORE:    0.00 PKD
ROOT
HETATM    1  C   UNL     1      -9.893   4.159  71.957  1.00  0.00    -0.242 C  
HETATM    2  C   UNL     1     -10.069   4.930  70.661  1.00  0.00    -0.306 C  
ENDROOT
BRANCH   2   3
HETATM    3  C   UNL     1     -11.179   5.969  70.786  1.00  0.00    -0.340 C  
BRANCH   3   4
HETATM    4  C   UNL     1     -11.579   6.161  72.244  1.00  0.00    -0.362 C  
BRANCH   4   5
HETATM    5  C   UNL     1     -11.577   7.638  72.621  1.00  0.00    -0.371 C  
BRANCH   5   6
HETATM    6  C   UNL     1     -10.295   8.303  72.138  1.00  0.00    -0.370 C  
BRANCH   6   7
HETATM    7  C   UNL     1     -10.610   9.448  71.187  1.00  0.00    -0.403 C  
BRANCH   7   8
HETATM    8  C   UNL     1     -12.060   9.892  71.342  1.00  0.00    -0.501 C  
BRANCH   8   9
HETATM    9  C   UNL     1     -12.423  10.840  70.210  1.00  0.00    -0.395 C  
BRANCH   9  10
HETATM   10  C   UNL     1     -12.331  12.301  70.639  1.00  0.00    -0.375 C  
BRANCH  10  11
HETATM   11  C   UNL     1     -11.732  13.186  69.533  1.00  0.00    -0.382 C  
BRANCH  11  12
HETATM   12  C   UNL     1     -11.715  12.449  68.193  1.00  0.00    -0.353 C  
BRANCH  12  13
HETATM   13  N   UNL     1     -10.668  12.965  67.193  1.00  0.00    -0.251 N  
HETATM   14  C   UNL     1      -9.318  13.192  67.863  1.00  0.00    -0.215 C  
HETATM   15  C   UNL     1     -10.492  11.962  66.048  1.00  0.00    -0.245 C  
BRANCH  13  16
HETATM   16  C   UNL     1     -11.180  14.305  66.551  1.00  0.00    -0.332 C  
BRANCH  16  17
HETATM   17  C   UNL     1     -10.305  15.511  66.915  1.00  0.00    -0.290 C  
BRANCH  17  18
HETATM   18  O   UNL     1     -11.012  16.446  67.723  1.00  0.00    -0.325 OA 
BRANCH  18  19
HETATM   19  C   UNL     1     -10.537  17.732  67.590  1.00  0.00    -0.379 A  
HETATM   20  C   UNL     1     -10.218  18.388  68.777  1.00  0.00    -0.333 A  
HETATM   21  C   UNL     1      -9.773  19.712  68.748  1.00  0.00    -0.488 A  
HETATM   22  C   UNL     1      -9.632  20.381  67.532  1.00  0.00    -0.560 A  
HETATM   23  C   UNL     1      -9.916  19.718  66.341  1.00  0.00    -0.578 A  
HETATM   24  C   UNL     1     -10.357  18.396  66.370  1.00  0.00    -0.430 A  
ENDBRANCH  18  19
ENDBRANCH  17  18
ENDBRANCH  16  17
ENDBRANCH  13  16
ENDBRANCH  12  13
ENDBRANCH  11  12
ENDBRANCH  10  11
ENDBRANCH   9  10
ENDBRANCH   8   9
ENDBRANCH   7   8
ENDBRANCH   6   7
ENDBRANCH   5   6
ENDBRANCH   4   5
ENDBRANCH   3   4
ENDBRANCH   2   3
TORSDOF 15
ENDMDL
MODEL       79
REMARK 921   NORMALIZED FREE ENERGY PREDICTED BY IDOCK:   -4.68 KCAL/MOL
REMARK 922        TOTAL FREE ENERGY PREDICTED BY IDOCK:   -9.90 KCAL/MOL
REMARK 923 INTER-LIGAND FREE ENERGY PREDICTED BY IDOCK:   -8.18 KCAL/MOL
REMARK 924 INTRA-LIGAND FREE ENERGY PREDICTED BY IDOCK:   -1.72 KCAL/MOL
REMARK 927      BINDING AFFINITY PREDICTED BY RF-SCORE:    0.00 PKD
ROOT
HETATM    1  C   UNL     1     -12.219  12.220  63.485  1.00  0.00    -0.669 C  
HETATM    2  C   UNL     1     -10.778  11.799  63.253  1.00  0.00    -0.414 C  
ENDROOT
BRANCH   2   3
HETATM    3  C   UNL     1     -10.398  10.624  64.149  1.00  0.00    -0.293 C  
BRANCH   3   4
HETATM    4  C   UNL     1      -9.112   9.967  63.664  1.00  0.00    -0.294 C  
BRANCH   4   5
HETATM    5  C   UNL     1      -8.376   9.293  64.816  1.00  0.00    -0.167 C  
BRANCH   5   6
HETATM    6  C   UNL     1      -7.058  10.007  65.091  1.00  0.00    -0.135 C  
BRANCH   6   7
HETATM    7  C   UNL     1      -6.976  10.441  66.546  1.00  0.00    -0.112 C  
BRANCH   7   8
HETATM    8  C   UNL     1      -8.307  10.209  67.253  1.00  0.00    -0.121 C  
BRANCH   8   9
HETATM    9  C   UNL     1      -8.435  11.174  68.420  1.00  0.00    -0.151 C  
BRANCH   9  10
HETATM   10  C   UNL     1      -9.794  11.866  68.440  1.00  0.00    -0.201 C  
BRANCH  10  11
HETATM   11  C   UNL     1     -10.291  12.191  67.021  1.00  0.00    -0.232 C  
BRANCH  11  12
HETATM   12  C   UNL     1      -9.714  13.520  66.532  1.00  0.00    -0.283 C  
BRANCH  12  13
HETATM   13  N   UNL     1     -10.746  14.649  66.381  1.00  0.00    -0.303 N  
HETATM   14  C   UNL     1     -10.704  15.264  64.987  1.00  0.00    -0.439 C  
HETATM   15  C   UNL     1     -12.156  14.114  66.646  1.00  0.00    -0.451 C  
BRANCH  13  16
HETATM   16  C   UNL     1     -10.467  15.755  67.464  1.00  0.00    -0.288 C  
BRANCH  16  17
HETATM   17  C   UNL     1     -11.447  15.694  68.641  1.00  0.00    -0.375 C  
BRANCH  17  18
HETATM   18  O   UNL     1     -10.776  15.412  69.866  1.00  0.00    -0.264 OA 
BRANCH  18  19
HETATM   19  C   UNL     1     -11.642  15.066  70.880  1.00  0.00    -0.319 A  
HETATM   20  C   UNL     1     -12.293  13.843  70.731  1.00  0.00    -0.449 A  
HETATM   21  C   UNL     1     -13.228  13.426  71.683  1.00  0.00    -0.449 A  
HETATM   22  C   UNL     1     -13.504  14.224  72.793  1.00  0.00    -0.590 A  
HETATM   23  C   UNL     1     -12.830  15.431  72.964  1.00  0.00    -0.572 A  
HETATM   24  C   UNL     1     -11.896  15.845  72.016  1.00  0.00    -0.609 A  
ENDBRANCH  18  19
ENDBRANCH  17  18
ENDBRANCH  16  17
ENDBRANCH  13  16
ENDBRANCH  12  13
ENDBRANCH  11  12
ENDBRANCH  10  11
ENDBRANCH   9  10
ENDBRANCH   8   9
ENDBRANCH   7   8
ENDBRANCH   6   7
ENDBRANCH   5   6
ENDBRANCH   4   5
ENDBRANCH   3   4
ENDBRANCH   2   3
TORSDOF 15
ENDMDL
MODEL       80
REMARK 921   NORMALIZED FREE ENERGY PREDICTED BY IDOCK:   -4.67 KCAL/MOL
REMARK 922        TOTAL FREE ENERGY PREDICTED BY IDOCK:   -9.88 KCAL/MOL
REMARK 923 INTER-LIGAND FREE ENERGY PREDICTED BY IDOCK:   -8.21 KCAL/MOL
REMARK 924 INTRA-LIGAND FREE ENERGY PREDICTED BY IDOCK:   -1.67 KCAL/MOL
REMARK 927      BINDING AFFINITY PREDICTED BY RF-SCORE:    0.00 PKD
ROOT
HETATM    1  C   UNL     1     -11.234   4.837  73.466  1.00  0.00    -0.392 C  
HETATM    2  C   UNL     1     -11.059   6.185  72.790  1.00  0.00    -0.294 C  
ENDROOT
BRANCH   2   3
HETATM    3  C   UNL     1     -11.527   6.137  71.339  1.00  0.00    -0.317 C  
BRANCH   3   4
HETATM    4  C   UNL     1     -11.599   7.540  70.746  1.00  0.00    -0.300 C  
BRANCH   4   5
HETATM    5  C   UNL     1     -10.781   8.524  71.573  1.00  0.00    -0.330 C  
BRANCH   5   6
HETATM    6  C   UNL     1     -11.008   9.947  71.077  1.00  0.00    -0.360 C  
BRANCH   6   7
HETATM    7  C   UNL     1     -12.494  10.244  70.962  1.00  0.00    -0.484 C  
BRANCH   7   8
HETATM    8  C   UNL     1     -12.791  11.676  71.395  1.00  0.00    -0.461 C  
BRANCH   8   9
HETATM    9  C   UNL     1     -12.139  12.645  70.422  1.00  0.00    -0.381 C  
BRANCH   9  10
HETATM   10  C   UNL     1     -12.451  14.097  70.770  1.00  0.00    -0.436 C  
BRANCH  10  11
HETATM   11  C   UNL     1     -11.630  15.079  69.917  1.00  0.00    -0.328 C  
BRANCH  11  12
HETATM   12  C   UNL     1     -11.831  14.807  68.425  1.00  0.00    -0.286 C  
BRANCH  12  13
HETATM   13  N   UNL     1     -10.794  15.474  67.508  1.00  0.00    -0.302 N  
HETATM   14  C   UNL     1     -10.607  16.947  67.853  1.00  0.00    -0.361 C  
HETATM   15  C   UNL     1      -9.444  14.760  67.629  1.00  0.00    -0.204 C  
BRANCH  13  16
HETATM   16  C   UNL     1     -11.254  15.329  66.012  1.00  0.00    -0.231 C  
BRANCH  16  17
HETATM   17  C   UNL     1     -10.464  14.259  65.249  1.00  0.00    -0.389 C  
BRANCH  17  18
HETATM   18  O   UNL     1     -11.291  13.156  64.888  1.00  0.00    -0.296 OA 
BRANCH  18  19
HETATM   19  C   UNL     1     -10.972  12.005  65.575  1.00  0.00    -0.298 A  
HETATM   20  C   UNL     1     -10.157  11.101  64.898  1.00  0.00    -0.345 A  
HETATM   21  C   UNL     1      -9.818   9.882  65.493  1.00  0.00    -0.381 A  
HETATM   22  C   UNL     1     -10.281   9.570  66.771  1.00  0.00    -0.313 A  
HETATM   23  C   UNL     1     -11.067  10.486  67.466  1.00  0.00    -0.358 A  
HETATM   24  C   UNL     1     -11.403  11.702  66.873  1.00  0.00    -0.364 A  
ENDBRANCH  18  19
ENDBRANCH  17  18
ENDBRANCH  16  17
ENDBRANCH  13  16
ENDBRANCH  12  13
ENDBRANCH  11  12
ENDBRANCH  10  11
ENDBRANCH   9  10
ENDBRANCH   8   9
ENDBRANCH   7   8
ENDBRANCH   6   7
ENDBRANCH   5   6
ENDBRANCH   4   5
ENDBRANCH   3   4
ENDBRANCH   2   3
TORSDOF 15
ENDMDL
MODEL       81
REMARK 921   NORMALIZED FREE ENERGY PREDICTED BY IDOCK:   -4.64 KCAL/MOL
REMARK 922        TOTAL FREE ENERGY PREDICTED BY IDOCK:   -9.83 KCAL/MOL
REMARK 923 INTER-LIGAND FREE ENERGY PREDICTED BY IDOCK:   -8.24 KCAL/MOL
REMARK 924 INTRA-LIGAND FREE ENERGY PREDICTED BY IDOCK:   -1.58 KCAL/MOL
REMARK 927      BINDING AFFINITY PREDICTED BY RF-SCORE:    0.00 PKD
ROOT
HETATM    1  C   UNL     1     -12.328  11.993  70.540  1.00  0.00    -0.369 C  
HETATM    2  C   UNL     1     -13.060  11.215  71.619  1.00  0.00    -0.529 C  
ENDROOT
BRANCH   2   3
HETATM    3  C   UNL     1     -12.870   9.713  71.438  1.00  0.00    -0.471 C  
BRANCH   3   4
HETATM    4  C   UNL     1     -14.000   8.939  72.106  1.00  0.00    -0.520 C  
BRANCH   4   5
HETATM    5  C   UNL     1     -14.061   7.507  71.587  1.00  0.00    -0.562 C  
BRANCH   5   6
HETATM    6  C   UNL     1     -12.669   7.025  71.202  1.00  0.00    -0.361 C  
BRANCH   6   7
HETATM    7  C   UNL     1     -12.130   6.055  72.242  1.00  0.00    -0.196 C  
BRANCH   7   8
HETATM    8  C   UNL     1     -10.611   6.158  72.338  1.00  0.00    -0.243 C  
BRANCH   8   9
HETATM    9  C   UNL     1     -10.239   7.167  73.412  1.00  0.00    -0.367 C  
BRANCH   9  10
HETATM   10  C   UNL     1      -9.212   8.178  72.912  1.00  0.00    -0.343 C  
BRANCH  10  11
HETATM   11  C   UNL     1      -8.967   8.043  71.400  1.00  0.00    -0.173 C  
BRANCH  11  12
HETATM   12  C   UNL     1      -9.195   9.378  70.688  1.00  0.00    -0.242 C  
BRANCH  12  13
HETATM   13  N   UNL     1      -9.267   9.281  69.156  1.00  0.00    -0.146 N  
HETATM   14  C   UNL     1      -7.933   8.848  68.559  1.00  0.00    -0.104 C  
HETATM   15  C   UNL     1     -10.346   8.276  68.740  1.00  0.00    -0.205 C  
BRANCH  13  16
HETATM   16  C   UNL     1      -9.691  10.675  68.567  1.00  0.00    -0.174 C  
BRANCH  16  17
HETATM   17  C   UNL     1     -10.312  10.566  67.169  1.00  0.00    -0.235 C  
BRANCH  17  18
HETATM   18  O   UNL     1     -11.565  11.241  67.100  1.00  0.00    -0.513 OA 
BRANCH  18  19
HETATM   19  C   UNL     1     -11.657  12.080  66.012  1.00  0.00    -0.305 A  
HETATM   20  C   UNL     1     -12.160  13.354  66.268  1.00  0.00    -0.475 A  
HETATM   21  C   UNL     1     -12.337  14.262  65.221  1.00  0.00    -0.427 A  
HETATM   22  C   UNL     1     -11.999  13.905  63.916  1.00  0.00    -0.372 A  
HETATM   23  C   UNL     1     -11.463  12.645  63.659  1.00  0.00    -0.563 A  
HETATM   24  C   UNL     1     -11.284  11.741  64.705  1.00  0.00    -0.349 A  
ENDBRANCH  18  19
ENDBRANCH  17  18
ENDBRANCH  16  17
ENDBRANCH  13  16
ENDBRANCH  12  13
ENDBRANCH  11  12
ENDBRANCH  10  11
ENDBRANCH   9  10
ENDBRANCH   8   9
ENDBRANCH   7   8
ENDBRANCH   6   7
ENDBRANCH   5   6
ENDBRANCH   4   5
ENDBRANCH   3   4
ENDBRANCH   2   3
TORSDOF 15
ENDMDL
MODEL       82
REMARK 921   NORMALIZED FREE ENERGY PREDICTED BY IDOCK:   -4.62 KCAL/MOL
REMARK 922        TOTAL FREE ENERGY PREDICTED BY IDOCK:   -9.79 KCAL/MOL
REMARK 923 INTER-LIGAND FREE ENERGY PREDICTED BY IDOCK:   -6.60 KCAL/MOL
REMARK 924 INTRA-LIGAND FREE ENERGY PREDICTED BY IDOCK:   -3.18 KCAL/MOL
REMARK 927      BINDING AFFINITY PREDICTED BY RF-SCORE:    0.00 PKD
ROOT
HETATM    1  C   UNL     1     -11.316  14.634  65.374  1.00  0.00    -0.344 C  
HETATM    2  C   UNL     1     -12.591  13.830  65.554  1.00  0.00    -0.551 C  
ENDROOT
BRANCH   2   3
HETATM    3  C   UNL     1     -12.571  12.569  64.696  1.00  0.00    -0.507 C  
BRANCH   3   4
HETATM    4  C   UNL     1     -11.486  12.656  63.629  1.00  0.00    -0.563 C  
BRANCH   4   5
HETATM    5  C   UNL     1     -10.614  11.407  63.634  1.00  0.00    -0.476 C  
BRANCH   5   6
HETATM    6  C   UNL     1      -9.795  11.339  64.917  1.00  0.00    -0.310 C  
BRANCH   6   7
HETATM    7  C   UNL     1     -10.002  10.005  65.616  1.00  0.00    -0.355 C  
BRANCH   7   8
HETATM    8  C   UNL     1     -10.673  10.205  66.971  1.00  0.00    -0.264 C  
BRANCH   8   9
HETATM    9  C   UNL     1     -10.364  11.602  67.487  1.00  0.00    -0.220 C  
BRANCH   9  10
HETATM   10  C   UNL     1     -10.862  11.804  68.914  1.00  0.00    -0.265 C  
BRANCH  10  11
HETATM   11  C   UNL     1     -11.758  10.643  69.377  1.00  0.00    -0.344 C  
BRANCH  11  12
HETATM   12  C   UNL     1     -11.535  10.338  70.859  1.00  0.00    -0.339 C  
BRANCH  12  13
HETATM   13  N   UNL     1     -11.218   8.866  71.168  1.00  0.00    -0.264 N  
HETATM   14  C   UNL     1     -12.343   8.203  71.954  1.00  0.00    -0.332 C  
HETATM   15  C   UNL     1     -10.996   8.089  69.867  1.00  0.00    -0.172 C  
BRANCH  13  16
HETATM   16  C   UNL     1      -9.875   8.785  71.982  1.00  0.00    -0.306 C  
BRANCH  16  17
HETATM   17  C   UNL     1      -8.649   8.574  71.086  1.00  0.00    -0.169 C  
BRANCH  17  18
HETATM   18  O   UNL     1      -8.029   9.811  70.748  1.00  0.00    -0.288 OA 
BRANCH  18  19
HETATM   19  C   UNL     1      -7.558   9.834  69.454  1.00  0.00    -0.104 A  
HETATM   20  C   UNL     1      -7.169  11.082  68.971  1.00  0.00    -0.111 A  
HETATM   21  C   UNL     1      -6.723  11.216  67.654  1.00  0.00    -0.071 A  
HETATM   22  C   UNL     1      -6.652  10.101  66.818  1.00  0.00    -0.073 A  
HETATM   23  C   UNL     1      -7.007   8.847  67.306  1.00  0.00    -0.078 A  
HETATM   24  C   UNL     1      -7.449   8.713  68.621  1.00  0.00    -0.096 A  
ENDBRANCH  18  19
ENDBRANCH  17  18
ENDBRANCH  16  17
ENDBRANCH  13  16
ENDBRANCH  12  13
ENDBRANCH  11  12
ENDBRANCH  10  11
ENDBRANCH   9  10
ENDBRANCH   8   9
ENDBRANCH   7   8
ENDBRANCH   6   7
ENDBRANCH   5   6
ENDBRANCH   4   5
ENDBRANCH   3   4
ENDBRANCH   2   3
TORSDOF 15
ENDMDL
MODEL       83
REMARK 921   NORMALIZED FREE ENERGY PREDICTED BY IDOCK:   -4.61 KCAL/MOL
REMARK 922        TOTAL FREE ENERGY PREDICTED BY IDOCK:   -9.77 KCAL/MOL
REMARK 923 INTER-LIGAND FREE ENERGY PREDICTED BY IDOCK:   -7.10 KCAL/MOL
REMARK 924 INTRA-LIGAND FREE ENERGY PREDICTED BY IDOCK:   -2.66 KCAL/MOL
REMARK 927      BINDING AFFINITY PREDICTED BY RF-SCORE:    0.00 PKD
ROOT
HETATM    1  C   UNL     1     -12.063  14.220  69.531  1.00  0.00    -0.376 C  
HETATM    2  C   UNL     1     -11.605  12.833  69.117  1.00  0.00    -0.373 C  
ENDROOT
BRANCH   2   3
HETATM    3  C   UNL     1     -11.830  12.604  67.626  1.00  0.00    -0.390 C  
BRANCH   3   4
HETATM    4  C   UNL     1     -12.214  13.904  66.929  1.00  0.00    -0.415 C  
BRANCH   4   5
HETATM    5  C   UNL     1     -11.915  13.832  65.436  1.00  0.00    -0.395 C  
BRANCH   5   6
HETATM    6  C   UNL     1     -12.700  12.695  64.795  1.00  0.00    -0.460 C  
BRANCH   6   7
HETATM    7  C   UNL     1     -11.947  12.129  63.602  1.00  0.00    -0.628 C  
BRANCH   7   8
HETATM    8  C   UNL     1     -10.453  12.408  63.727  1.00  0.00    -0.475 C  
BRANCH   8   9
HETATM    9  C   UNL     1      -9.702  11.093  63.866  1.00  0.00    -0.325 C  
BRANCH   9  10
HETATM   10  C   UNL     1     -10.075  10.358  65.149  1.00  0.00    -0.379 C  
BRANCH  10  11
HETATM   11  C   UNL     1      -8.830   9.896  65.926  1.00  0.00    -0.171 C  
BRANCH  11  12
HETATM   12  C   UNL     1      -8.907  10.330  67.390  1.00  0.00    -0.131 C  
BRANCH  12  13
HETATM   13  N   UNL     1      -7.689  11.126  67.886  1.00  0.00    -0.102 N  
HETATM   14  C   UNL     1      -7.050  10.471  69.105  1.00  0.00    -0.089 C  
HETATM   15  C   UNL     1      -6.642  11.236  66.774  1.00  0.00    -0.140 C  
BRANCH  13  16
HETATM   16  C   UNL     1      -8.137  12.592  68.238  1.00  0.00    -0.165 C  
BRANCH  16  17
HETATM   17  C   UNL     1      -8.336  13.467  66.995  1.00  0.00    -0.075 C  
BRANCH  17  18
HETATM   18  O   UNL     1      -7.762  14.759  67.167  1.00  0.00    -0.200 OA 
BRANCH  18  19
HETATM   19  C   UNL     1      -8.709  15.738  67.375  1.00  0.00    -0.183 A  
HETATM   20  C   UNL     1      -9.342  16.224  66.233  1.00  0.00    -0.360 A  
HETATM   21  C   UNL     1     -10.283  17.251  66.336  1.00  0.00    -0.333 A  
HETATM   22  C   UNL     1     -10.605  17.787  67.583  1.00  0.00    -0.385 A  
HETATM   23  C   UNL     1     -10.002  17.281  68.731  1.00  0.00    -0.325 A  
HETATM   24  C   UNL     1      -9.065  16.254  68.628  1.00  0.00    -0.228 A  
ENDBRANCH  18  19
ENDBRANCH  17  18
ENDBRANCH  16  17
ENDBRANCH  13  16
ENDBRANCH  12  13
ENDBRANCH  11  12
ENDBRANCH  10  11
ENDBRANCH   9  10
ENDBRANCH   8   9
ENDBRANCH   7   8
ENDBRANCH   6   7
ENDBRANCH   5   6
ENDBRANCH   4   5
ENDBRANCH   3   4
ENDBRANCH   2   3
TORSDOF 15
ENDMDL
MODEL       84
REMARK 921   NORMALIZED FREE ENERGY PREDICTED BY IDOCK:   -4.60 KCAL/MOL
REMARK 922        TOTAL FREE ENERGY PREDICTED BY IDOCK:   -9.75 KCAL/MOL
REMARK 923 INTER-LIGAND FREE ENERGY PREDICTED BY IDOCK:   -7.56 KCAL/MOL
REMARK 924 INTRA-LIGAND FREE ENERGY PREDICTED BY IDOCK:   -2.19 KCAL/MOL
REMARK 927      BINDING AFFINITY PREDICTED BY RF-SCORE:    0.00 PKD
ROOT
HETATM    1  C   UNL     1     -10.578  15.629  65.072  1.00  0.00    -0.422 C  
HETATM    2  C   UNL     1     -10.269  15.477  66.550  1.00  0.00    -0.291 C  
ENDROOT
BRANCH   2   3
HETATM    3  C   UNL     1     -10.265  14.009  66.963  1.00  0.00    -0.261 C  
BRANCH   3   4
HETATM    4  C   UNL     1     -11.659  13.405  66.833  1.00  0.00    -0.404 C  
BRANCH   4   5
HETATM    5  C   UNL     1     -11.620  12.109  66.032  1.00  0.00    -0.420 C  
BRANCH   5   6
HETATM    6  C   UNL     1     -10.178  11.682  65.790  1.00  0.00    -0.281 C  
BRANCH   6   7
HETATM    7  C   UNL     1     -10.001  10.200  66.085  1.00  0.00    -0.310 C  
BRANCH   7   8
HETATM    8  C   UNL     1      -9.155   9.999  67.337  1.00  0.00    -0.146 C  
BRANCH   8   9
HETATM    9  C   UNL     1      -9.317   8.570  67.832  1.00  0.00    -0.148 C  
BRANCH   9  10
HETATM   10  C   UNL     1     -10.518   7.879  67.195  1.00  0.00    -0.414 C  
BRANCH  10  11
HETATM   11  C   UNL     1     -10.893   6.585  67.936  1.00  0.00    -0.383 C  
BRANCH  11  12
HETATM   12  C   UNL     1      -9.778   6.160  68.893  1.00  0.00    -0.130 C  
BRANCH  12  13
HETATM   13  N   UNL     1     -10.171   6.173  70.378  1.00  0.00    -0.194 N  
HETATM   14  C   UNL     1     -10.112   4.775  70.985  1.00  0.00    -0.199 C  
HETATM   15  C   UNL     1      -9.234   7.095  71.164  1.00  0.00    -0.157 C  
BRANCH  13  16
HETATM   16  C   UNL     1     -11.621   6.761  70.527  1.00  0.00    -0.372 C  
BRANCH  16  17
HETATM   17  C   UNL     1     -11.734   7.783  71.664  1.00  0.00    -0.280 C  
BRANCH  17  18
HETATM   18  O   UNL     1     -12.894   8.598  71.521  1.00  0.00    -0.323 OA 
BRANCH  18  19
HETATM   19  C   UNL     1     -12.594   9.893  71.162  1.00  0.00    -0.367 A  
HETATM   20  C   UNL     1     -13.188  10.890  71.933  1.00  0.00    -0.508 A  
HETATM   21  C   UNL     1     -12.982  12.236  71.617  1.00  0.00    -0.416 A  
HETATM   22  C   UNL     1     -12.172  12.590  70.538  1.00  0.00    -0.382 A  
HETATM   23  C   UNL     1     -11.549  11.597  69.786  1.00  0.00    -0.389 A  
HETATM   24  C   UNL     1     -11.752  10.255  70.103  1.00  0.00    -0.364 A  
ENDBRANCH  18  19
ENDBRANCH  17  18
ENDBRANCH  16  17
ENDBRANCH  13  16
ENDBRANCH  12  13
ENDBRANCH  11  12
ENDBRANCH  10  11
ENDBRANCH   9  10
ENDBRANCH   8   9
ENDBRANCH   7   8
ENDBRANCH   6   7
ENDBRANCH   5   6
ENDBRANCH   4   5
ENDBRANCH   3   4
ENDBRANCH   2   3
TORSDOF 15
ENDMDL
MODEL       85
REMARK 921   NORMALIZED FREE ENERGY PREDICTED BY IDOCK:   -4.58 KCAL/MOL
REMARK 922        TOTAL FREE ENERGY PREDICTED BY IDOCK:   -9.72 KCAL/MOL
REMARK 923 INTER-LIGAND FREE ENERGY PREDICTED BY IDOCK:   -8.19 KCAL/MOL
REMARK 924 INTRA-LIGAND FREE ENERGY PREDICTED BY IDOCK:   -1.53 KCAL/MOL
REMARK 927      BINDING AFFINITY PREDICTED BY RF-SCORE:    0.00 PKD
ROOT
HETATM    1  C   UNL     1     -11.903  10.158  70.767  1.00  0.00    -0.443 C  
HETATM    2  C   UNL     1     -10.582  10.177  70.018  1.00  0.00    -0.338 C  
ENDROOT
BRANCH   2   3
HETATM    3  C   UNL     1     -10.757   9.687  68.584  1.00  0.00    -0.233 C  
BRANCH   3   4
HETATM    4  C   UNL     1     -11.209  10.823  67.674  1.00  0.00    -0.370 C  
BRANCH   4   5
HETATM    5  C   UNL     1     -10.017  11.631  67.177  1.00  0.00    -0.219 C  
BRANCH   5   6
HETATM    6  C   UNL     1      -9.245  10.841  66.128  1.00  0.00    -0.202 C  
BRANCH   6   7
HETATM    7  C   UNL     1     -10.141  10.495  64.950  1.00  0.00    -0.403 C  
BRANCH   7   8
HETATM    8  C   UNL     1     -10.146  11.626  63.927  1.00  0.00    -0.395 C  
BRANCH   8   9
HETATM    9  C   UNL     1     -11.570  11.880  63.460  1.00  0.00    -0.537 C  
BRANCH   9  10
HETATM   10  C   UNL     1     -12.045  13.284  63.817  1.00  0.00    -0.546 C  
BRANCH  10  11
HETATM   11  C   UNL     1     -10.957  14.085  64.553  1.00  0.00    -0.361 C  
BRANCH  11  12
HETATM   12  C   UNL     1     -11.511  14.709  65.835  1.00  0.00    -0.338 C  
BRANCH  12  13
HETATM   13  N   UNL     1     -10.625  15.806  66.447  1.00  0.00    -0.309 N  
HETATM   14  C   UNL     1      -9.165  15.374  66.515  1.00  0.00    -0.292 C  
HETATM   15  C   UNL     1     -10.724  17.090  65.616  1.00  0.00    -0.144 C  
BRANCH  13  16
HETATM   16  C   UNL     1     -11.150  16.154  67.887  1.00  0.00    -0.293 C  
BRANCH  16  17
HETATM   17  C   UNL     1     -10.065  16.759  68.785  1.00  0.00    -0.286 C  
BRANCH  17  18
HETATM   18  O   UNL     1     -10.278  18.151  69.000  1.00  0.00    -0.381 OA 
BRANCH  18  19
HETATM   19  C   UNL     1      -9.257  18.929  68.502  1.00  0.00    -0.361 A  
HETATM   20  C   UNL     1      -9.645  20.007  67.709  1.00  0.00    -0.509 A  
HETATM   21  C   UNL     1      -8.680  20.826  67.119  1.00  0.00    -0.223 A  
HETATM   22  C   UNL     1      -7.323  20.580  67.330  1.00  0.00    -0.371 A  
HETATM   23  C   UNL     1      -6.930  19.525  68.151  1.00  0.00    -0.314 A  
HETATM   24  C   UNL     1      -7.894  18.710  68.741  1.00  0.00    -0.319 A  
ENDBRANCH  18  19
ENDBRANCH  17  18
ENDBRANCH  16  17
ENDBRANCH  13  16
ENDBRANCH  12  13
ENDBRANCH  11  12
ENDBRANCH  10  11
ENDBRANCH   9  10
ENDBRANCH   8   9
ENDBRANCH   7   8
ENDBRANCH   6   7
ENDBRANCH   5   6
ENDBRANCH   4   5
ENDBRANCH   3   4
ENDBRANCH   2   3
TORSDOF 15
ENDMDL
MODEL       86
REMARK 921   NORMALIZED FREE ENERGY PREDICTED BY IDOCK:   -4.58 KCAL/MOL
REMARK 922        TOTAL FREE ENERGY PREDICTED BY IDOCK:   -9.72 KCAL/MOL
REMARK 923 INTER-LIGAND FREE ENERGY PREDICTED BY IDOCK:   -8.68 KCAL/MOL
REMARK 924 INTRA-LIGAND FREE ENERGY PREDICTED BY IDOCK:   -1.05 KCAL/MOL
REMARK 927      BINDING AFFINITY PREDICTED BY RF-SCORE:    0.00 PKD
ROOT
HETATM    1  C   UNL     1     -10.962   7.531  73.047  1.00  0.00    -0.443 C  
HETATM    2  C   UNL     1     -10.287   8.188  71.856  1.00  0.00    -0.300 C  
ENDROOT
BRANCH   2   3
HETATM    3  C   UNL     1      -9.559   7.156  71.000  1.00  0.00    -0.158 C  
BRANCH   3   4
HETATM    4  C   UNL     1     -10.493   6.015  70.614  1.00  0.00    -0.305 C  
BRANCH   4   5
HETATM    5  C   UNL     1     -11.284   6.359  69.358  1.00  0.00    -0.459 C  
BRANCH   5   6
HETATM    6  C   UNL     1     -10.485   5.994  68.114  1.00  0.00    -0.292 C  
BRANCH   6   7
HETATM    7  C   UNL     1     -10.606   7.082  67.059  1.00  0.00    -0.412 C  
BRANCH   7   8
HETATM    8  C   UNL     1     -10.259   8.445  67.650  1.00  0.00    -0.298 C  
BRANCH   8   9
HETATM    9  C   UNL     1      -9.248   9.142  66.753  1.00  0.00    -0.195 C  
BRANCH   9  10
HETATM   10  C   UNL     1      -9.919   9.843  65.577  1.00  0.00    -0.363 C  
BRANCH  10  11
HETATM   11  C   UNL     1      -9.847  11.374  65.706  1.00  0.00    -0.270 C  
BRANCH  11  12
HETATM   12  C   UNL     1     -11.227  11.964  65.996  1.00  0.00    -0.324 C  
BRANCH  12  13
HETATM   13  N   UNL     1     -11.690  13.032  64.992  1.00  0.00    -0.323 N  
HETATM   14  C   UNL     1     -12.103  12.409  63.664  1.00  0.00    -0.556 C  
HETATM   15  C   UNL     1     -12.877  13.815  65.564  1.00  0.00    -0.419 C  
BRANCH  13  16
HETATM   16  C   UNL     1     -10.529  14.066  64.763  1.00  0.00    -0.421 C  
BRANCH  16  17
HETATM   17  C   UNL     1     -10.542  15.210  65.783  1.00  0.00    -0.351 C  
BRANCH  17  18
HETATM   18  O   UNL     1     -10.589  16.482  65.143  1.00  0.00    -0.632 OA 
BRANCH  18  19
HETATM   19  C   UNL     1     -10.228  17.514  65.982  1.00  0.00    -0.299 A  
HETATM   20  C   UNL     1      -9.284  17.201  66.957  1.00  0.00    -0.251 A  
HETATM   21  C   UNL     1      -8.889  18.167  67.887  1.00  0.00    -0.273 A  
HETATM   22  C   UNL     1      -9.427  19.453  67.835  1.00  0.00    -0.407 A  
HETATM   23  C   UNL     1     -10.345  19.781  66.840  1.00  0.00    -0.601 A  
HETATM   24  C   UNL     1     -10.736  18.817  65.912  1.00  0.00    -0.323 A  
ENDBRANCH  18  19
ENDBRANCH  17  18
ENDBRANCH  16  17
ENDBRANCH  13  16
ENDBRANCH  12  13
ENDBRANCH  11  12
ENDBRANCH  10  11
ENDBRANCH   9  10
ENDBRANCH   8   9
ENDBRANCH   7   8
ENDBRANCH   6   7
ENDBRANCH   5   6
ENDBRANCH   4   5
ENDBRANCH   3   4
ENDBRANCH   2   3
TORSDOF 15
ENDMDL
MODEL       87
REMARK 921   NORMALIZED FREE ENERGY PREDICTED BY IDOCK:   -4.58 KCAL/MOL
REMARK 922        TOTAL FREE ENERGY PREDICTED BY IDOCK:   -9.71 KCAL/MOL
REMARK 923 INTER-LIGAND FREE ENERGY PREDICTED BY IDOCK:   -8.21 KCAL/MOL
REMARK 924 INTRA-LIGAND FREE ENERGY PREDICTED BY IDOCK:   -1.50 KCAL/MOL
REMARK 927      BINDING AFFINITY PREDICTED BY RF-SCORE:    0.00 PKD
ROOT
HETATM    1  C   UNL     1      -7.458   9.312  66.631  1.00  0.00    -0.093 C  
HETATM    2  C   UNL     1      -8.663   9.635  67.496  1.00  0.00    -0.126 C  
ENDROOT
BRANCH   2   3
HETATM    3  C   UNL     1      -9.959   9.507  66.702  1.00  0.00    -0.314 C  
BRANCH   3   4
HETATM    4  C   UNL     1     -10.219  10.765  65.881  1.00  0.00    -0.319 C  
BRANCH   4   5
HETATM    5  C   UNL     1      -9.947  10.517  64.402  1.00  0.00    -0.410 C  
BRANCH   5   6
HETATM    6  C   UNL     1     -10.342  11.737  63.581  1.00  0.00    -0.476 C  
BRANCH   6   7
HETATM    7  C   UNL     1     -11.847  11.952  63.629  1.00  0.00    -0.573 C  
BRANCH   7   8
HETATM    8  C   UNL     1     -12.183  13.435  63.514  1.00  0.00    -0.468 C  
BRANCH   8   9
HETATM    9  C   UNL     1     -11.662  14.168  64.740  1.00  0.00    -0.416 C  
BRANCH   9  10
HETATM   10  C   UNL     1     -11.492  15.661  64.480  1.00  0.00    -0.304 C  
BRANCH  10  11
HETATM   11  C   UNL     1     -10.445  16.290  65.416  1.00  0.00    -0.365 C  
BRANCH  11  12
HETATM   12  C   UNL     1     -10.012  15.297  66.496  1.00  0.00    -0.265 C  
BRANCH  12  13
HETATM   13  N   UNL     1      -9.766  15.924  67.878  1.00  0.00    -0.216 N  
HETATM   14  C   UNL     1      -8.330  16.416  68.021  1.00  0.00    -0.178 C  
HETATM   15  C   UNL     1     -10.719  17.102  68.101  1.00  0.00    -0.366 C  
BRANCH  13  16
HETATM   16  C   UNL     1     -10.083  14.862  68.993  1.00  0.00    -0.237 C  
BRANCH  16  17
HETATM   17  C   UNL     1     -11.425  14.155  68.775  1.00  0.00    -0.299 C  
BRANCH  17  18
HETATM   18  O   UNL     1     -11.280  12.737  68.799  1.00  0.00    -0.251 OA 
BRANCH  18  19
HETATM   19  C   UNL     1     -11.912  12.156  69.876  1.00  0.00    -0.309 A  
HETATM   20  C   UNL     1     -11.832  10.767  69.950  1.00  0.00    -0.413 A  
HETATM   21  C   UNL     1     -12.482  10.081  70.979  1.00  0.00    -0.460 A  
HETATM   22  C   UNL     1     -13.202  10.783  71.947  1.00  0.00    -0.524 A  
HETATM   23  C   UNL     1     -13.255  12.173  71.897  1.00  0.00    -0.474 A  
HETATM   24  C   UNL     1     -12.605  12.857  70.871  1.00  0.00    -0.355 A  
ENDBRANCH  18  19
ENDBRANCH  17  18
ENDBRANCH  16  17
ENDBRANCH  13  16
ENDBRANCH  12  13
ENDBRANCH  11  12
ENDBRANCH  10  11
ENDBRANCH   9  10
ENDBRANCH   8   9
ENDBRANCH   7   8
ENDBRANCH   6   7
ENDBRANCH   5   6
ENDBRANCH   4   5
ENDBRANCH   3   4
ENDBRANCH   2   3
TORSDOF 15
ENDMDL
MODEL       88
REMARK 921   NORMALIZED FREE ENERGY PREDICTED BY IDOCK:   -4.58 KCAL/MOL
REMARK 922        TOTAL FREE ENERGY PREDICTED BY IDOCK:   -9.71 KCAL/MOL
REMARK 923 INTER-LIGAND FREE ENERGY PREDICTED BY IDOCK:   -8.03 KCAL/MOL
REMARK 924 INTRA-LIGAND FREE ENERGY PREDICTED BY IDOCK:   -1.68 KCAL/MOL
REMARK 927      BINDING AFFINITY PREDICTED BY RF-SCORE:    0.00 PKD
ROOT
HETATM    1  C   UNL     1     -12.077  14.235  64.537  1.00  0.00    -0.499 C  
HETATM    2  C   UNL     1     -12.300  12.800  64.980  1.00  0.00    -0.559 C  
ENDROOT
BRANCH   2   3
HETATM    3  C   UNL     1     -11.114  12.286  65.790  1.00  0.00    -0.362 C  
BRANCH   3   4
HETATM    4  C   UNL     1     -10.804  13.223  66.952  1.00  0.00    -0.286 C  
BRANCH   4   5
HETATM    5  C   UNL     1     -11.704  12.927  68.146  1.00  0.00    -0.395 C  
BRANCH   5   6
HETATM    6  C   UNL     1     -11.770  14.136  69.070  1.00  0.00    -0.361 C  
BRANCH   6   7
HETATM    7  C   UNL     1     -12.217  13.724  70.463  1.00  0.00    -0.440 C  
BRANCH   7   8
HETATM    8  C   UNL     1     -12.261  12.204  70.586  1.00  0.00    -0.392 C  
BRANCH   8   9
HETATM    9  C   UNL     1     -13.140  11.817  71.764  1.00  0.00    -0.480 C  
BRANCH   9  10
HETATM   10  C   UNL     1     -13.256  10.304  71.915  1.00  0.00    -0.550 C  
BRANCH  10  11
HETATM   11  C   UNL     1     -11.888   9.610  71.788  1.00  0.00    -0.391 C  
BRANCH  11  12
HETATM   12  C   UNL     1     -11.943   8.188  72.346  1.00  0.00    -0.372 C  
BRANCH  12  13
HETATM   13  N   UNL     1     -10.593   7.452  72.357  1.00  0.00    -0.229 N  
HETATM   14  C   UNL     1      -9.451   8.373  71.943  1.00  0.00    -0.253 C  
HETATM   15  C   UNL     1     -10.304   6.900  73.756  1.00  0.00    -0.376 C  
BRANCH  13  16
HETATM   16  C   UNL     1     -10.667   6.219  71.385  1.00  0.00    -0.248 C  
BRANCH  16  17
HETATM   17  C   UNL     1     -11.600   6.457  70.193  1.00  0.00    -0.381 C  
BRANCH  17  18
HETATM   18  O   UNL     1     -11.056   5.923  68.989  1.00  0.00    -0.336 OA 
BRANCH  18  19
HETATM   19  C   UNL     1     -10.503   6.890  68.179  1.00  0.00    -0.204 A  
HETATM   20  C   UNL     1     -10.861   8.204  68.473  1.00  0.00     0.040 A  
HETATM   21  C   UNL     1     -10.390   9.253  67.678  1.00  0.00    -0.311 A  
HETATM   22  C   UNL     1      -9.548   8.993  66.597  1.00  0.00    -0.274 A  
HETATM   23  C   UNL     1      -9.159   7.685  66.321  1.00  0.00    -0.204 A  
HETATM   24  C   UNL     1      -9.628   6.639  67.115  1.00  0.00    -0.168 A  
ENDBRANCH  18  19
ENDBRANCH  17  18
ENDBRANCH  16  17
ENDBRANCH  13  16
ENDBRANCH  12  13
ENDBRANCH  11  12
ENDBRANCH  10  11
ENDBRANCH   9  10
ENDBRANCH   8   9
ENDBRANCH   7   8
ENDBRANCH   6   7
ENDBRANCH   5   6
ENDBRANCH   4   5
ENDBRANCH   3   4
ENDBRANCH   2   3
TORSDOF 15
ENDMDL
MODEL       89
REMARK 921   NORMALIZED FREE ENERGY PREDICTED BY IDOCK:   -4.56 KCAL/MOL
REMARK 922        TOTAL FREE ENERGY PREDICTED BY IDOCK:   -9.69 KCAL/MOL
REMARK 923 INTER-LIGAND FREE ENERGY PREDICTED BY IDOCK:   -8.11 KCAL/MOL
REMARK 924 INTRA-LIGAND FREE ENERGY PREDICTED BY IDOCK:   -1.57 KCAL/MOL
REMARK 927      BINDING AFFINITY PREDICTED BY RF-SCORE:    0.00 PKD
ROOT
HETATM    1  C   UNL     1     -12.185  13.077  63.377  1.00  0.00    -0.552 C  
HETATM    2  C   UNL     1     -11.035  12.662  64.277  1.00  0.00    -0.404 C  
ENDROOT
BRANCH   2   3
HETATM    3  C   UNL     1     -10.270  11.484  63.683  1.00  0.00    -0.450 C  
BRANCH   3   4
HETATM    4  C   UNL     1     -10.032  10.406  64.734  1.00  0.00    -0.409 C  
BRANCH   4   5
HETATM    5  C   UNL     1      -9.850  11.022  66.115  1.00  0.00    -0.268 C  
BRANCH   5   6
HETATM    6  C   UNL     1     -10.902  10.484  67.076  1.00  0.00    -0.288 C  
BRANCH   6   7
HETATM    7  C   UNL     1     -10.531   9.089  67.553  1.00  0.00    -0.338 C  
BRANCH   7   8
HETATM    8  C   UNL     1      -9.337   9.144  68.500  1.00  0.00    -0.137 C  
BRANCH   8   9
HETATM    9  C   UNL     1      -9.027   7.744  69.007  1.00  0.00    -0.145 C  
BRANCH   9  10
HETATM   10  C   UNL     1     -10.017   6.714  68.472  1.00  0.00    -0.152 C  
BRANCH  10  11
HETATM   11  C   UNL     1     -10.709   5.942  69.608  1.00  0.00    -0.415 C  
BRANCH  11  12
HETATM   12  C   UNL     1     -10.056   6.251  70.956  1.00  0.00    -0.185 C  
BRANCH  12  13
HETATM   13  N   UNL     1     -11.026   6.755  72.036  1.00  0.00    -0.231 N  
HETATM   14  C   UNL     1     -11.770   5.604  72.702  1.00  0.00    -0.197 C  
HETATM   15  C   UNL     1     -10.261   7.538  73.108  1.00  0.00    -0.327 C  
BRANCH  13  16
HETATM   16  C   UNL     1     -12.052   7.754  71.387  1.00  0.00    -0.311 C  
BRANCH  16  17
HETATM   17  C   UNL     1     -11.919   9.180  71.933  1.00  0.00    -0.373 C  
BRANCH  17  18
HETATM   18  O   UNL     1     -13.151   9.890  71.846  1.00  0.00    -0.404 OA 
BRANCH  18  19
HETATM   19  C   UNL     1     -12.981  11.212  71.498  1.00  0.00    -0.437 A  
HETATM   20  C   UNL     1     -12.244  11.445  70.338  1.00  0.00    -0.450 A  
HETATM   21  C   UNL     1     -11.976  12.753  69.929  1.00  0.00    -0.368 A  
HETATM   22  C   UNL     1     -12.455  13.834  70.671  1.00  0.00    -0.429 A  
HETATM   23  C   UNL     1     -13.221  13.607  71.811  1.00  0.00    -0.477 A  
HETATM   24  C   UNL     1     -13.490  12.301  72.217  1.00  0.00    -0.365 A  
ENDBRANCH  18  19
ENDBRANCH  17  18
ENDBRANCH  16  17
ENDBRANCH  13  16
ENDBRANCH  12  13
ENDBRANCH  11  12
ENDBRANCH  10  11
ENDBRANCH   9  10
ENDBRANCH   8   9
ENDBRANCH   7   8
ENDBRANCH   6   7
ENDBRANCH   5   6
ENDBRANCH   4   5
ENDBRANCH   3   4
ENDBRANCH   2   3
TORSDOF 15
ENDMDL
MODEL       90
REMARK 921   NORMALIZED FREE ENERGY PREDICTED BY IDOCK:   -4.56 KCAL/MOL
REMARK 922        TOTAL FREE ENERGY PREDICTED BY IDOCK:   -9.68 KCAL/MOL
REMARK 923 INTER-LIGAND FREE ENERGY PREDICTED BY IDOCK:   -8.67 KCAL/MOL
REMARK 924 INTRA-LIGAND FREE ENERGY PREDICTED BY IDOCK:   -1.01 KCAL/MOL
REMARK 927      BINDING AFFINITY PREDICTED BY RF-SCORE:    0.00 PKD
ROOT
HETATM    1  C   UNL     1      -6.138  20.139  69.195  1.00  0.00    -0.356 C  
HETATM    2  C   UNL     1      -5.912  20.981  67.952  1.00  0.00    -0.396 C  
ENDROOT
BRANCH   2   3
HETATM    3  C   UNL     1      -7.029  20.771  66.936  1.00  0.00    -0.361 C  
BRANCH   3   4
HETATM    4  C   UNL     1      -8.255  20.153  67.598  1.00  0.00    -0.337 C  
BRANCH   4   5
HETATM    5  C   UNL     1      -8.904  19.118  66.686  1.00  0.00    -0.340 C  
BRANCH   5   6
HETATM    6  C   UNL     1      -7.954  17.951  66.452  1.00  0.00    -0.302 C  
BRANCH   6   7
HETATM    7  C   UNL     1      -8.610  16.638  66.849  1.00  0.00    -0.240 C  
BRANCH   7   8
HETATM    8  C   UNL     1     -10.056  16.866  67.275  1.00  0.00    -0.286 C  
BRANCH   8   9
HETATM    9  C   UNL     1     -10.540  15.672  68.083  1.00  0.00    -0.274 C  
BRANCH   9  10
HETATM   10  C   UNL     1     -10.819  16.043  69.536  1.00  0.00    -0.317 C  
BRANCH  10  11
HETATM   11  C   UNL     1     -12.147  15.449  70.034  1.00  0.00    -0.388 C  
BRANCH  11  12
HETATM   12  C   UNL     1     -11.926  14.570  71.265  1.00  0.00    -0.333 C  
BRANCH  12  13
HETATM   13  N   UNL     1     -13.093  14.565  72.265  1.00  0.00    -0.348 N  
HETATM   14  C   UNL     1     -12.678  15.142  73.614  1.00  0.00    -0.546 C  
HETATM   15  C   UNL     1     -14.265  15.383  71.714  1.00  0.00    -0.527 C  
BRANCH  13  16
HETATM   16  C   UNL     1     -13.612  13.092  72.449  1.00  0.00    -0.567 C  
BRANCH  16  17
HETATM   17  C   UNL     1     -12.979  12.111  71.455  1.00  0.00    -0.295 C  
BRANCH  17  18
HETATM   18  O   UNL     1     -13.116  10.762  71.892  1.00  0.00    -0.481 OA 
BRANCH  18  19
HETATM   19  C   UNL     1     -12.041   9.977  71.540  1.00  0.00    -0.387 A  
HETATM   20  C   UNL     1     -11.330  10.389  70.415  1.00  0.00    -0.417 A  
HETATM   21  C   UNL     1     -10.252   9.632  69.950  1.00  0.00    -0.279 A  
HETATM   22  C   UNL     1      -9.872   8.467  70.617  1.00  0.00    -0.208 A  
HETATM   23  C   UNL     1     -10.556   8.069  71.762  1.00  0.00    -0.296 A  
HETATM   24  C   UNL     1     -11.630   8.827  72.227  1.00  0.00    -0.391 A  
ENDBRANCH  18  19
ENDBRANCH  17  18
ENDBRANCH  16  17
ENDBRANCH  13  16
ENDBRANCH  12  13
ENDBRANCH  11  12
ENDBRANCH  10  11
ENDBRANCH   9  10
ENDBRANCH   8   9
ENDBRANCH   7   8
ENDBRANCH   6   7
ENDBRANCH   5   6
ENDBRANCH   4   5
ENDBRANCH   3   4
ENDBRANCH   2   3
TORSDOF 15
ENDMDL
MODEL       91
REMARK 921   NORMALIZED FREE ENERGY PREDICTED BY IDOCK:   -4.53 KCAL/MOL
REMARK 922        TOTAL FREE ENERGY PREDICTED BY IDOCK:   -9.62 KCAL/MOL
REMARK 923 INTER-LIGAND FREE ENERGY PREDICTED BY IDOCK:   -8.27 KCAL/MOL
REMARK 924 INTRA-LIGAND FREE ENERGY PREDICTED BY IDOCK:   -1.35 KCAL/MOL
REMARK 927      BINDING AFFINITY PREDICTED BY RF-SCORE:    0.00 PKD
ROOT
HETATM    1  C   UNL     1      -9.795   6.432  73.373  1.00  0.00    -0.190 C  
HETATM    2  C   UNL     1     -11.146   5.888  72.945  1.00  0.00    -0.306 C  
ENDROOT
BRANCH   2   3
HETATM    3  C   UNL     1     -11.648   6.591  71.687  1.00  0.00    -0.357 C  
BRANCH   3   4
HETATM    4  C   UNL     1     -11.729   8.098  71.904  1.00  0.00    -0.362 C  
BRANCH   4   5
HETATM    5  C   UNL     1     -11.315   8.852  70.646  1.00  0.00    -0.299 C  
BRANCH   5   6
HETATM    6  C   UNL     1     -10.761   7.885  69.608  1.00  0.00    -0.218 C  
BRANCH   6   7
HETATM    7  C   UNL     1     -10.165   8.643  68.432  1.00  0.00    -0.232 C  
BRANCH   7   8
HETATM    8  C   UNL     1      -9.456   9.906  68.909  1.00  0.00    -0.170 C  
BRANCH   8   9
HETATM    9  C   UNL     1      -9.289  10.864  67.741  1.00  0.00    -0.162 C  
BRANCH   9  10
HETATM   10  C   UNL     1     -10.213  10.513  66.580  1.00  0.00    -0.288 C  
BRANCH  10  11
HETATM   11  C   UNL     1     -10.460  11.721  65.660  1.00  0.00    -0.308 C  
BRANCH  11  12
HETATM   12  C   UNL     1      -9.666  12.940  66.133  1.00  0.00    -0.248 C  
BRANCH  12  13
HETATM   13  N   UNL     1     -10.527  14.155  66.515  1.00  0.00    -0.277 N  
HETATM   14  C   UNL     1     -10.060  15.418  65.800  1.00  0.00    -0.363 C  
HETATM   15  C   UNL     1     -11.994  13.895  66.158  1.00  0.00    -0.423 C  
BRANCH  13  16
HETATM   16  C   UNL     1     -10.466  14.365  68.071  1.00  0.00    -0.237 C  
BRANCH  16  17
HETATM   17  C   UNL     1     -11.836  14.226  68.744  1.00  0.00    -0.341 C  
BRANCH  17  18
HETATM   18  O   UNL     1     -12.225  15.432  69.395  1.00  0.00    -0.300 OA 
BRANCH  18  19
HETATM   19  C   UNL     1     -12.339  15.287  70.760  1.00  0.00    -0.380 A  
HETATM   20  C   UNL     1     -13.037  14.162  71.195  1.00  0.00    -0.398 A  
HETATM   21  C   UNL     1     -13.247  13.953  72.560  1.00  0.00    -0.601 A  
HETATM   22  C   UNL     1     -12.748  14.859  73.496  1.00  0.00    -0.629 A  
HETATM   23  C   UNL     1     -12.020  15.966  73.068  1.00  0.00    -0.596 A  
HETATM   24  C   UNL     1     -11.808  16.173  71.706  1.00  0.00    -0.581 A  
ENDBRANCH  18  19
ENDBRANCH  17  18
ENDBRANCH  16  17
ENDBRANCH  13  16
ENDBRANCH  12  13
ENDBRANCH  11  12
ENDBRANCH  10  11
ENDBRANCH   9  10
ENDBRANCH   8   9
ENDBRANCH   7   8
ENDBRANCH   6   7
ENDBRANCH   5   6
ENDBRANCH   4   5
ENDBRANCH   3   4
ENDBRANCH   2   3
TORSDOF 15
ENDMDL
MODEL       92
REMARK 921   NORMALIZED FREE ENERGY PREDICTED BY IDOCK:   -4.51 KCAL/MOL
REMARK 922        TOTAL FREE ENERGY PREDICTED BY IDOCK:   -9.59 KCAL/MOL
REMARK 923 INTER-LIGAND FREE ENERGY PREDICTED BY IDOCK:   -7.90 KCAL/MOL
REMARK 924 INTRA-LIGAND FREE ENERGY PREDICTED BY IDOCK:   -1.69 KCAL/MOL
REMARK 927      BINDING AFFINITY PREDICTED BY RF-SCORE:    0.00 PKD
ROOT
HETATM    1  C   UNL     1      -9.325   5.167  71.529  1.00  0.00    -0.187 C  
HETATM    2  C   UNL     1     -10.117   6.415  71.873  1.00  0.00    -0.204 C  
ENDROOT
BRANCH   2   3
HETATM    3  C   UNL     1     -11.611   6.116  71.943  1.00  0.00    -0.352 C  
BRANCH   3   4
HETATM    4  C   UNL     1     -12.402   7.102  71.091  1.00  0.00    -0.404 C  
BRANCH   4   5
HETATM    5  C   UNL     1     -13.797   7.321  71.663  1.00  0.00    -0.461 C  
BRANCH   5   6
HETATM    6  C   UNL     1     -14.047   8.806  71.891  1.00  0.00    -0.488 C  
BRANCH   6   7
HETATM    7  C   UNL     1     -12.773   9.605  71.669  1.00  0.00    -0.499 C  
BRANCH   7   8
HETATM    8  C   UNL     1     -13.063  11.102  71.710  1.00  0.00    -0.536 C  
BRANCH   8   9
HETATM    9  C   UNL     1     -12.260  11.802  70.625  1.00  0.00    -0.443 C  
BRANCH   9  10
HETATM   10  C   UNL     1     -12.120  10.941  69.375  1.00  0.00    -0.362 C  
BRANCH  10  11
HETATM   11  C   UNL     1     -10.983  11.435  68.464  1.00  0.00    -0.267 C  
BRANCH  11  12
HETATM   12  C   UNL     1     -10.909  10.604  67.182  1.00  0.00    -0.270 C  
BRANCH  12  13
HETATM   13  N   UNL     1     -10.191  11.295  66.012  1.00  0.00    -0.239 N  
HETATM   14  C   UNL     1      -8.917  11.994  66.471  1.00  0.00    -0.193 C  
HETATM   15  C   UNL     1      -9.834  10.270  64.932  1.00  0.00    -0.336 C  
BRANCH  13  16
HETATM   16  C   UNL     1     -11.165  12.337  65.349  1.00  0.00    -0.328 C  
BRANCH  16  17
HETATM   17  C   UNL     1     -10.571  13.749  65.287  1.00  0.00    -0.353 C  
BRANCH  17  18
HETATM   18  O   UNL     1     -11.427  14.704  65.909  1.00  0.00    -0.344 OA 
BRANCH  18  19
HETATM   19  C   UNL     1     -11.027  15.024  67.187  1.00  0.00    -0.329 A  
HETATM   20  C   UNL     1      -9.728  15.511  67.313  1.00  0.00    -0.218 A  
HETATM   21  C   UNL     1      -9.214  15.819  68.575  1.00  0.00    -0.198 A  
HETATM   22  C   UNL     1     -10.001  15.654  69.715  1.00  0.00    -0.281 A  
HETATM   23  C   UNL     1     -11.312  15.202  69.591  1.00  0.00    -0.302 A  
HETATM   24  C   UNL     1     -11.825  14.897  68.331  1.00  0.00    -0.309 A  
ENDBRANCH  18  19
ENDBRANCH  17  18
ENDBRANCH  16  17
ENDBRANCH  13  16
ENDBRANCH  12  13
ENDBRANCH  11  12
ENDBRANCH  10  11
ENDBRANCH   9  10
ENDBRANCH   8   9
ENDBRANCH   7   8
ENDBRANCH   6   7
ENDBRANCH   5   6
ENDBRANCH   4   5
ENDBRANCH   3   4
ENDBRANCH   2   3
TORSDOF 15
ENDMDL
MODEL       93
REMARK 921   NORMALIZED FREE ENERGY PREDICTED BY IDOCK:   -4.50 KCAL/MOL
REMARK 922        TOTAL FREE ENERGY PREDICTED BY IDOCK:   -9.56 KCAL/MOL
REMARK 923 INTER-LIGAND FREE ENERGY PREDICTED BY IDOCK:   -7.34 KCAL/MOL
REMARK 924 INTRA-LIGAND FREE ENERGY PREDICTED BY IDOCK:   -2.22 KCAL/MOL
REMARK 927      BINDING AFFINITY PREDICTED BY RF-SCORE:    0.00 PKD
ROOT
HETATM    1  C   UNL     1     -12.397  12.289  63.544  1.00  0.00    -0.670 C  
HETATM    2  C   UNL     1     -11.354  12.201  64.643  1.00  0.00    -0.382 C  
ENDROOT
BRANCH   2   3
HETATM    3  C   UNL     1     -10.065  11.569  64.128  1.00  0.00    -0.354 C  
BRANCH   3   4
HETATM    4  C   UNL     1      -9.643  10.401  65.011  1.00  0.00    -0.339 C  
BRANCH   4   5
HETATM    5  C   UNL     1     -10.689  10.122  66.084  1.00  0.00    -0.008 C  
BRANCH   5   6
HETATM    6  C   UNL     1     -10.066   9.356  67.243  1.00  0.00    -0.285 C  
BRANCH   6   7
HETATM    7  C   UNL     1      -8.616   9.769  67.442  1.00  0.00    -0.128 C  
BRANCH   7   8
HETATM    8  C   UNL     1      -8.466  10.620  68.698  1.00  0.00    -0.142 C  
BRANCH   8   9
HETATM    9  C   UNL     1      -8.075  12.036  68.306  1.00  0.00    -0.155 C  
BRANCH   9  10
HETATM   10  C   UNL     1      -9.295  12.934  68.129  1.00  0.00    -0.214 C  
BRANCH  10  11
HETATM   11  C   UNL     1      -8.931  14.266  67.449  1.00  0.00    -0.205 C  
BRANCH  11  12
HETATM   12  C   UNL     1      -8.864  15.401  68.472  1.00  0.00    -0.183 C  
BRANCH  12  13
HETATM   13  N   UNL     1     -10.178  16.178  68.652  1.00  0.00    -0.233 N  
HETATM   14  C   UNL     1      -9.940  17.684  68.664  1.00  0.00    -0.367 C  
HETATM   15  C   UNL     1     -11.151  15.839  67.519  1.00  0.00    -0.258 C  
BRANCH  13  16
HETATM   16  C   UNL     1     -10.865  15.732  69.993  1.00  0.00    -0.342 C  
BRANCH  16  17
HETATM   17  C   UNL     1     -12.143  14.917  69.763  1.00  0.00    -0.314 C  
BRANCH  17  18
HETATM   18  O   UNL     1     -12.597  14.305  70.968  1.00  0.00    -0.313 OA 
BRANCH  18  19
HETATM   19  C   UNL     1     -12.595  12.930  70.899  1.00  0.00    -0.270 A  
HETATM   20  C   UNL     1     -13.197  12.268  71.968  1.00  0.00    -0.508 A  
HETATM   21  C   UNL     1     -13.203  10.871  72.014  1.00  0.00    -0.456 A  
HETATM   22  C   UNL     1     -12.620  10.132  70.984  1.00  0.00    -0.478 A  
HETATM   23  C   UNL     1     -12.049  10.788  69.897  1.00  0.00    -0.410 A  
HETATM   24  C   UNL     1     -12.045  12.181  69.851  1.00  0.00    -0.324 A  
ENDBRANCH  18  19
ENDBRANCH  17  18
ENDBRANCH  16  17
ENDBRANCH  13  16
ENDBRANCH  12  13
ENDBRANCH  11  12
ENDBRANCH  10  11
ENDBRANCH   9  10
ENDBRANCH   8   9
ENDBRANCH   7   8
ENDBRANCH   6   7
ENDBRANCH   5   6
ENDBRANCH   4   5
ENDBRANCH   3   4
ENDBRANCH   2   3
TORSDOF 15
ENDMDL
MODEL       94
REMARK 921   NORMALIZED FREE ENERGY PREDICTED BY IDOCK:   -4.49 KCAL/MOL
REMARK 922        TOTAL FREE ENERGY PREDICTED BY IDOCK:   -9.55 KCAL/MOL
REMARK 923 INTER-LIGAND FREE ENERGY PREDICTED BY IDOCK:   -8.17 KCAL/MOL
REMARK 924 INTRA-LIGAND FREE ENERGY PREDICTED BY IDOCK:   -1.38 KCAL/MOL
REMARK 927      BINDING AFFINITY PREDICTED BY RF-SCORE:    0.00 PKD
ROOT
HETATM    1  C   UNL     1     -10.586  16.207  68.341  1.00  0.00    -0.286 C  
HETATM    2  C   UNL     1     -11.513  15.367  69.201  1.00  0.00    -0.344 C  
ENDROOT
BRANCH   2   3
HETATM    3  C   UNL     1     -11.625  15.940  70.610  1.00  0.00    -0.426 C  
BRANCH   3   4
HETATM    4  C   UNL     1     -13.001  15.658  71.203  1.00  0.00    -0.539 C  
BRANCH   4   5
HETATM    5  C   UNL     1     -12.905  14.671  72.360  1.00  0.00    -0.442 C  
BRANCH   5   6
HETATM    6  C   UNL     1     -13.985  13.604  72.235  1.00  0.00    -0.661 C  
BRANCH   6   7
HETATM    7  C   UNL     1     -13.362  12.225  72.093  1.00  0.00    -0.473 C  
BRANCH   7   8
HETATM    8  C   UNL     1     -12.392  12.191  70.917  1.00  0.00    -0.370 C  
BRANCH   8   9
HETATM    9  C   UNL     1     -12.381  10.798  70.309  1.00  0.00    -0.423 C  
BRANCH   9  10
HETATM   10  C   UNL     1     -11.533  10.736  69.042  1.00  0.00    -0.368 C  
BRANCH  10  11
HETATM   11  C   UNL     1     -10.315   9.813  69.214  1.00  0.00    -0.230 C  
BRANCH  11  12
HETATM   12  C   UNL     1      -9.992   9.087  67.907  1.00  0.00    -0.178 C  
BRANCH  12  13
HETATM   13  N   UNL     1      -8.561   9.306  67.390  1.00  0.00    -0.122 N  
HETATM   14  C   UNL     1      -7.985  10.629  67.882  1.00  0.00    -0.106 C  
HETATM   15  C   UNL     1      -7.651   8.164  67.855  1.00  0.00    -0.102 C  
BRANCH  13  16
HETATM   16  C   UNL     1      -8.566   9.274  65.819  1.00  0.00    -0.152 C  
BRANCH  16  17
HETATM   17  C   UNL     1      -9.783   9.984  65.214  1.00  0.00    -0.306 C  
BRANCH  17  18
HETATM   18  O   UNL     1      -9.393  11.067  64.375  1.00  0.00    -0.208 OA 
BRANCH  18  19
HETATM   19  C   UNL     1     -10.274  12.124  64.425  1.00  0.00    -0.306 A  
HETATM   20  C   UNL     1     -11.406  12.009  63.621  1.00  0.00    -0.536 A  
HETATM   21  C   UNL     1     -12.336  13.051  63.566  1.00  0.00    -0.500 A  
HETATM   22  C   UNL     1     -12.144  14.205  64.327  1.00  0.00    -0.471 A  
HETATM   23  C   UNL     1     -11.033  14.309  65.159  1.00  0.00    -0.369 A  
HETATM   24  C   UNL     1     -10.107  13.269  65.214  1.00  0.00    -0.254 A  
ENDBRANCH  18  19
ENDBRANCH  17  18
ENDBRANCH  16  17
ENDBRANCH  13  16
ENDBRANCH  12  13
ENDBRANCH  11  12
ENDBRANCH  10  11
ENDBRANCH   9  10
ENDBRANCH   8   9
ENDBRANCH   7   8
ENDBRANCH   6   7
ENDBRANCH   5   6
ENDBRANCH   4   5
ENDBRANCH   3   4
ENDBRANCH   2   3
TORSDOF 15
ENDMDL
MODEL       95
REMARK 921   NORMALIZED FREE ENERGY PREDICTED BY IDOCK:   -4.45 KCAL/MOL
REMARK 922        TOTAL FREE ENERGY PREDICTED BY IDOCK:   -9.48 KCAL/MOL
REMARK 923 INTER-LIGAND FREE ENERGY PREDICTED BY IDOCK:   -6.90 KCAL/MOL
REMARK 924 INTRA-LIGAND FREE ENERGY PREDICTED BY IDOCK:   -2.58 KCAL/MOL
REMARK 927      BINDING AFFINITY PREDICTED BY RF-SCORE:    0.00 PKD
ROOT
HETATM    1  C   UNL     1     -11.880  13.496  65.703  1.00  0.00    -0.397 C  
HETATM    2  C   UNL     1     -12.657  12.755  64.630  1.00  0.00    -0.491 C  
ENDROOT
BRANCH   2   3
HETATM    3  C   UNL     1     -11.716  12.101  63.624  1.00  0.00    -0.588 C  
BRANCH   3   4
HETATM    4  C   UNL     1     -10.298  12.023  64.178  1.00  0.00    -0.381 C  
BRANCH   4   5
HETATM    5  C   UNL     1      -9.698  10.642  63.949  1.00  0.00    -0.378 C  
BRANCH   5   6
HETATM    6  C   UNL     1      -9.917   9.761  65.172  1.00  0.00    -0.197 C  
BRANCH   6   7
HETATM    7  C   UNL     1      -9.831  10.583  66.448  1.00  0.00    -0.260 C  
BRANCH   7   8
HETATM    8  C   UNL     1     -11.028  10.304  67.350  1.00  0.00    -0.317 C  
BRANCH   8   9
HETATM    9  C   UNL     1     -10.773  10.897  68.727  1.00  0.00    -0.243 C  
BRANCH   9  10
HETATM   10  C   UNL     1     -12.073  11.200  69.465  1.00  0.00    -0.396 C  
BRANCH  10  11
HETATM   11  C   UNL     1     -12.050  10.666  70.907  1.00  0.00    -0.489 C  
BRANCH  11  12
HETATM   12  C   UNL     1     -11.068   9.501  71.043  1.00  0.00    -0.363 C  
BRANCH  12  13
HETATM   13  N   UNL     1     -11.698   8.188  71.536  1.00  0.00    -0.275 N  
HETATM   14  C   UNL     1     -11.063   7.718  72.840  1.00  0.00    -0.398 C  
HETATM   15  C   UNL     1     -13.203   8.374  71.755  1.00  0.00    -0.355 C  
BRANCH  13  16
HETATM   16  C   UNL     1     -11.531   7.085  70.429  1.00  0.00    -0.310 C  
BRANCH  16  17
HETATM   17  C   UNL     1     -10.225   7.230  69.638  1.00  0.00    -0.211 C  
BRANCH  17  18
HETATM   18  O   UNL     1     -10.396   6.857  68.274  1.00  0.00    -0.174 OA 
BRANCH  18  19
HETATM   19  C   UNL     1      -9.264   7.067  67.519  1.00  0.00    -0.124 A  
HETATM   20  C   UNL     1      -8.289   7.876  68.100  1.00  0.00    -0.124 A  
HETATM   21  C   UNL     1      -7.125   8.188  67.392  1.00  0.00    -0.083 A  
HETATM   22  C   UNL     1      -6.925   7.681  66.108  1.00  0.00    -0.065 A  
HETATM   23  C   UNL     1      -7.880   6.844  65.538  1.00  0.00    -0.112 A  
HETATM   24  C   UNL     1      -9.040   6.531  66.245  1.00  0.00    -0.168 A  
ENDBRANCH  18  19
ENDBRANCH  17  18
ENDBRANCH  16  17
ENDBRANCH  13  16
ENDBRANCH  12  13
ENDBRANCH  11  12
ENDBRANCH  10  11
ENDBRANCH   9  10
ENDBRANCH   8   9
ENDBRANCH   7   8
ENDBRANCH   6   7
ENDBRANCH   5   6
ENDBRANCH   4   5
ENDBRANCH   3   4
ENDBRANCH   2   3
TORSDOF 15
ENDMDL
MODEL       96
REMARK 921   NORMALIZED FREE ENERGY PREDICTED BY IDOCK:   -4.44 KCAL/MOL
REMARK 922        TOTAL FREE ENERGY PREDICTED BY IDOCK:   -9.46 KCAL/MOL
REMARK 923 INTER-LIGAND FREE ENERGY PREDICTED BY IDOCK:   -8.73 KCAL/MOL
REMARK 924 INTRA-LIGAND FREE ENERGY PREDICTED BY IDOCK:   -0.72 KCAL/MOL
REMARK 927      BINDING AFFINITY PREDICTED BY RF-SCORE:    0.00 PKD
ROOT
HETATM    1  C   UNL     1      -9.933   4.187  71.211  1.00  0.00    -0.216 C  
HETATM    2  C   UNL     1     -10.359   3.896  72.639  1.00  0.00    -0.228 C  
ENDROOT
BRANCH   2   3
HETATM    3  C   UNL     1     -11.082   5.091  73.251  1.00  0.00    -0.406 C  
BRANCH   3   4
HETATM    4  C   UNL     1     -11.199   6.228  72.243  1.00  0.00    -0.325 C  
BRANCH   4   5
HETATM    5  C   UNL     1     -11.193   7.582  72.944  1.00  0.00    -0.396 C  
BRANCH   5   6
HETATM    6  C   UNL     1     -12.229   8.506  72.317  1.00  0.00    -0.454 C  
BRANCH   6   7
HETATM    7  C   UNL     1     -11.878   8.800  70.867  1.00  0.00    -0.267 C  
BRANCH   7   8
HETATM    8  C   UNL     1     -11.106  10.110  70.755  1.00  0.00    -0.372 C  
BRANCH   8   9
HETATM    9  C   UNL     1     -11.910  11.102  69.929  1.00  0.00    -0.439 C  
BRANCH   9  10
HETATM   10  C   UNL     1     -11.368  11.229  68.508  1.00  0.00    -0.341 C  
BRANCH  10  11
HETATM   11  C   UNL     1     -11.846  12.523  67.828  1.00  0.00    -0.375 C  
BRANCH  11  12
HETATM   12  C   UNL     1     -10.739  13.125  66.960  1.00  0.00    -0.262 C  
BRANCH  12  13
HETATM   13  N   UNL     1     -11.121  13.324  65.485  1.00  0.00    -0.281 N  
HETATM   14  C   UNL     1     -10.631  12.169  64.619  1.00  0.00    -0.300 C  
HETATM   15  C   UNL     1     -12.641  13.442  65.344  1.00  0.00    -0.475 C  
BRANCH  13  16
HETATM   16  C   UNL     1     -10.509  14.678  64.969  1.00  0.00    -0.421 C  
BRANCH  16  17
HETATM   17  C   UNL     1     -10.179  15.652  66.106  1.00  0.00    -0.311 C  
BRANCH  17  18
HETATM   18  O   UNL     1      -9.125  16.540  65.745  1.00  0.00    -0.487 OA 
BRANCH  18  19
HETATM   19  C   UNL     1      -9.313  17.814  66.232  1.00  0.00    -0.201 A  
HETATM   20  C   UNL     1      -8.157  18.573  66.410  1.00  0.00    -0.295 A  
HETATM   21  C   UNL     1      -8.240  19.861  66.946  1.00  0.00    -0.358 A  
HETATM   22  C   UNL     1      -9.479  20.401  67.291  1.00  0.00    -0.568 A  
HETATM   23  C   UNL     1     -10.640  19.660  67.082  1.00  0.00    -0.611 A  
HETATM   24  C   UNL     1     -10.557  18.376  66.546  1.00  0.00    -0.344 A  
ENDBRANCH  18  19
ENDBRANCH  17  18
ENDBRANCH  16  17
ENDBRANCH  13  16
ENDBRANCH  12  13
ENDBRANCH  11  12
ENDBRANCH  10  11
ENDBRANCH   9  10
ENDBRANCH   8   9
ENDBRANCH   7   8
ENDBRANCH   6   7
ENDBRANCH   5   6
ENDBRANCH   4   5
ENDBRANCH   3   4
ENDBRANCH   2   3
TORSDOF 15
ENDMDL
MODEL       97
REMARK 921   NORMALIZED FREE ENERGY PREDICTED BY IDOCK:   -4.42 KCAL/MOL
REMARK 922        TOTAL FREE ENERGY PREDICTED BY IDOCK:   -9.42 KCAL/MOL
REMARK 923 INTER-LIGAND FREE ENERGY PREDICTED BY IDOCK:   -7.39 KCAL/MOL
REMARK 924 INTRA-LIGAND FREE ENERGY PREDICTED BY IDOCK:   -2.03 KCAL/MOL
REMARK 927      BINDING AFFINITY PREDICTED BY RF-SCORE:    0.00 PKD
ROOT
HETATM    1  C   UNL     1     -12.118  12.376  63.661  1.00  0.00    -0.648 C  
HETATM    2  C   UNL     1     -12.089  12.372  65.179  1.00  0.00    -0.464 C  
ENDROOT
BRANCH   2   3
HETATM    3  C   UNL     1     -12.539  13.717  65.740  1.00  0.00    -0.525 C  
BRANCH   3   4
HETATM    4  C   UNL     1     -11.470  14.781  65.522  1.00  0.00    -0.329 C  
BRANCH   4   5
HETATM    5  C   UNL     1     -10.464  14.786  66.666  1.00  0.00    -0.286 C  
BRANCH   5   6
HETATM    6  C   UNL     1     -11.096  15.373  67.922  1.00  0.00    -0.323 C  
BRANCH   6   7
HETATM    7  C   UNL     1     -10.850  14.468  69.119  1.00  0.00    -0.278 C  
BRANCH   7   8
HETATM    8  C   UNL     1     -12.161  13.870  69.619  1.00  0.00    -0.404 C  
BRANCH   8   9
HETATM    9  C   UNL     1     -11.916  12.452  70.110  1.00  0.00    -0.376 C  
BRANCH   9  10
HETATM   10  C   UNL     1     -11.936  11.443  68.966  1.00  0.00    -0.387 C  
BRANCH  10  11
HETATM   11  C   UNL     1     -10.762  10.454  69.056  1.00  0.00    -0.260 C  
BRANCH  11  12
HETATM   12  C   UNL     1     -10.668   9.600  67.791  1.00  0.00    -0.257 C  
BRANCH  12  13
HETATM   13  N   UNL     1      -9.270   9.553  67.153  1.00  0.00    -0.133 N  
HETATM   14  C   UNL     1      -9.339   9.170  65.679  1.00  0.00    -0.235 C  
HETATM   15  C   UNL     1      -8.586  10.918  67.280  1.00  0.00    -0.128 C  
BRANCH  13  16
HETATM   16  C   UNL     1      -8.378   8.522  67.934  1.00  0.00    -0.126 C  
BRANCH  16  17
HETATM   17  C   UNL     1      -9.154   7.271  68.365  1.00  0.00    -0.135 C  
BRANCH  17  18
HETATM   18  O   UNL     1      -8.836   6.892  69.701  1.00  0.00    -0.140 OA 
BRANCH  18  19
HETATM   19  C   UNL     1      -9.841   7.193  70.593  1.00  0.00    -0.182 A  
HETATM   20  C   UNL     1     -11.116   6.755  70.240  1.00  0.00    -0.360 A  
HETATM   21  C   UNL     1     -12.210   7.053  71.057  1.00  0.00    -0.419 A  
HETATM   22  C   UNL     1     -12.032   7.778  72.235  1.00  0.00    -0.356 A  
HETATM   23  C   UNL     1     -10.755   8.187  72.610  1.00  0.00    -0.421 A  
HETATM   24  C   UNL     1      -9.663   7.887  71.796  1.00  0.00    -0.219 A  
ENDBRANCH  18  19
ENDBRANCH  17  18
ENDBRANCH  16  17
ENDBRANCH  13  16
ENDBRANCH  12  13
ENDBRANCH  11  12
ENDBRANCH  10  11
ENDBRANCH   9  10
ENDBRANCH   8   9
ENDBRANCH   7   8
ENDBRANCH   6   7
ENDBRANCH   5   6
ENDBRANCH   4   5
ENDBRANCH   3   4
ENDBRANCH   2   3
TORSDOF 15
ENDMDL
MODEL       98
REMARK 921   NORMALIZED FREE ENERGY PREDICTED BY IDOCK:   -4.42 KCAL/MOL
REMARK 922        TOTAL FREE ENERGY PREDICTED BY IDOCK:   -9.41 KCAL/MOL
REMARK 923 INTER-LIGAND FREE ENERGY PREDICTED BY IDOCK:   -7.75 KCAL/MOL
REMARK 924 INTRA-LIGAND FREE ENERGY PREDICTED BY IDOCK:   -1.66 KCAL/MOL
REMARK 927      BINDING AFFINITY PREDICTED BY RF-SCORE:    0.00 PKD
ROOT
HETATM    1  C   UNL     1      -8.018   6.180  67.996  1.00  0.00    -0.110 C  
HETATM    2  C   UNL     1      -9.089   6.704  68.937  1.00  0.00    -0.132 C  
ENDROOT
BRANCH   2   3
HETATM    3  C   UNL     1      -9.052   5.970  70.273  1.00  0.00    -0.159 C  
BRANCH   3   4
HETATM    4  C   UNL     1     -10.459   5.597  70.725  1.00  0.00    -0.335 C  
BRANCH   4   5
HETATM    5  C   UNL     1     -11.465   6.665  70.316  1.00  0.00    -0.449 C  
BRANCH   5   6
HETATM    6  C   UNL     1     -12.320   7.071  71.510  1.00  0.00    -0.420 C  
BRANCH   6   7
HETATM    7  C   UNL     1     -12.567   8.571  71.508  1.00  0.00    -0.348 C  
BRANCH   7   8
HETATM    8  C   UNL     1     -11.268   9.330  71.264  1.00  0.00    -0.425 C  
BRANCH   8   9
HETATM    9  C   UNL     1     -11.547  10.542  70.389  1.00  0.00    -0.430 C  
BRANCH   9  10
HETATM   10  C   UNL     1     -12.608  11.452  70.999  1.00  0.00    -0.487 C  
BRANCH  10  11
HETATM   11  C   UNL     1     -12.404  12.921  70.593  1.00  0.00    -0.385 C  
BRANCH  11  12
HETATM   12  C   UNL     1     -11.481  13.029  69.377  1.00  0.00    -0.261 C  
BRANCH  12  13
HETATM   13  N   UNL     1     -11.285  14.459  68.848  1.00  0.00    -0.249 N  
HETATM   14  C   UNL     1     -12.024  15.480  69.706  1.00  0.00    -0.364 C  
HETATM   15  C   UNL     1      -9.795  14.814  68.827  1.00  0.00    -0.227 C  
BRANCH  13  16
HETATM   16  C   UNL     1     -11.794  14.537  67.363  1.00  0.00    -0.388 C  
BRANCH  16  17
HETATM   17  C   UNL     1     -12.025  13.155  66.741  1.00  0.00    -0.373 C  
BRANCH  17  18
HETATM   18  O   UNL     1     -11.375  13.034  65.479  1.00  0.00    -0.292 OA 
BRANCH  18  19
HETATM   19  C   UNL     1     -10.715  11.834  65.333  1.00  0.00    -0.283 A  
HETATM   20  C   UNL     1     -10.658  11.030  66.469  1.00  0.00    -0.310 A  
HETATM   21  C   UNL     1      -9.970   9.815  66.435  1.00  0.00    -0.314 A  
HETATM   22  C   UNL     1      -9.347   9.393  65.260  1.00  0.00    -0.303 A  
HETATM   23  C   UNL     1      -9.431  10.176  64.111  1.00  0.00    -0.353 A  
HETATM   24  C   UNL     1     -10.121  11.387  64.146  1.00  0.00    -0.358 A  
ENDBRANCH  18  19
ENDBRANCH  17  18
ENDBRANCH  16  17
ENDBRANCH  13  16
ENDBRANCH  12  13
ENDBRANCH  11  12
ENDBRANCH  10  11
ENDBRANCH   9  10
ENDBRANCH   8   9
ENDBRANCH   7   8
ENDBRANCH   6   7
ENDBRANCH   5   6
ENDBRANCH   4   5
ENDBRANCH   3   4
ENDBRANCH   2   3
TORSDOF 15
ENDMDL
MODEL       99
REMARK 921   NORMALIZED FREE ENERGY PREDICTED BY IDOCK:   -4.41 KCAL/MOL
REMARK 922        TOTAL FREE ENERGY PREDICTED BY IDOCK:   -9.40 KCAL/MOL
REMARK 923 INTER-LIGAND FREE ENERGY PREDICTED BY IDOCK:   -6.63 KCAL/MOL
REMARK 924 INTRA-LIGAND FREE ENERGY PREDICTED BY IDOCK:   -2.78 KCAL/MOL
REMARK 927      BINDING AFFINITY PREDICTED BY RF-SCORE:    0.00 PKD
ROOT
HETATM    1  C   UNL     1     -10.355  14.782  68.962  1.00  0.00    -0.243 C  
HETATM    2  C   UNL     1     -11.760  14.973  68.420  1.00  0.00    -0.341 C  
ENDROOT
BRANCH   2   3
HETATM    3  C   UNL     1     -11.854  14.519  66.967  1.00  0.00    -0.408 C  
BRANCH   3   4
HETATM    4  C   UNL     1     -10.469  14.250  66.392  1.00  0.00    -0.282 C  
BRANCH   4   5
HETATM    5  C   UNL     1     -10.560  13.430  65.110  1.00  0.00    -0.353 C  
BRANCH   5   6
HETATM    6  C   UNL     1     -10.834  11.968  65.438  1.00  0.00    -0.336 C  
BRANCH   6   7
HETATM    7  C   UNL     1     -10.190  11.584  66.760  1.00  0.00    -0.254 C  
BRANCH   7   8
HETATM    8  C   UNL     1     -11.174  10.815  67.635  1.00  0.00    -0.370 C  
BRANCH   8   9
HETATM    9  C   UNL     1     -10.835  11.044  69.099  1.00  0.00    -0.283 C  
BRANCH   9  10
HETATM   10  C   UNL     1     -12.028  11.586  69.881  1.00  0.00    -0.426 C  
BRANCH  10  11
HETATM   11  C   UNL     1     -12.365  10.703  71.095  1.00  0.00    -0.505 C  
BRANCH  11  12
HETATM   12  C   UNL     1     -11.327   9.593  71.268  1.00  0.00    -0.388 C  
BRANCH  12  13
HETATM   13  N   UNL     1     -11.917   8.209  71.582  1.00  0.00    -0.286 N  
HETATM   14  C   UNL     1     -11.328   7.626  72.862  1.00  0.00    -0.341 C  
HETATM   15  C   UNL     1     -13.438   8.306  71.735  1.00  0.00    -0.352 C  
BRANCH  13  16
HETATM   16  C   UNL     1     -11.641   7.241  70.374  1.00  0.00    -0.219 C  
BRANCH  16  17
HETATM   17  C   UNL     1     -10.174   7.254  69.927  1.00  0.00    -0.205 C  
BRANCH  17  18
HETATM   18  O   UNL     1     -10.034   6.808  68.581  1.00  0.00    -0.140 OA 
BRANCH  18  19
HETATM   19  C   UNL     1      -9.221   7.628  67.831  1.00  0.00    -0.136 A  
HETATM   20  C   UNL     1      -9.468   7.640  66.460  1.00  0.00    -0.250 A  
HETATM   21  C   UNL     1      -8.665   8.403  65.609  1.00  0.00    -0.204 A  
HETATM   22  C   UNL     1      -7.620   9.169  66.127  1.00  0.00    -0.095 A  
HETATM   23  C   UNL     1      -7.391   9.188  67.500  1.00  0.00    -0.084 A  
HETATM   24  C   UNL     1      -8.195   8.428  68.349  1.00  0.00    -0.124 A  
ENDBRANCH  18  19
ENDBRANCH  17  18
ENDBRANCH  16  17
ENDBRANCH  13  16
ENDBRANCH  12  13
ENDBRANCH  11  12
ENDBRANCH  10  11
ENDBRANCH   9  10
ENDBRANCH   8   9
ENDBRANCH   7   8
ENDBRANCH   6   7
ENDBRANCH   5   6
ENDBRANCH   4   5
ENDBRANCH   3   4
ENDBRANCH   2   3
TORSDOF 15
ENDMDL
MODEL      100
REMARK 921   NORMALIZED FREE ENERGY PREDICTED BY IDOCK:   -4.40 KCAL/MOL
REMARK 922        TOTAL FREE ENERGY PREDICTED BY IDOCK:   -9.39 KCAL/MOL
REMARK 923 INTER-LIGAND FREE ENERGY PREDICTED BY IDOCK:   -8.15 KCAL/MOL
REMARK 924 INTRA-LIGAND FREE ENERGY PREDICTED BY IDOCK:   -1.24 KCAL/MOL
REMARK 927      BINDING AFFINITY PREDICTED BY RF-SCORE:    0.00 PKD
ROOT
HETATM    1  C   UNL     1      -5.818  20.742  69.052  1.00  0.00    -0.377 C  
HETATM    2  C   UNL     1      -6.184  20.943  67.592  1.00  0.00    -0.379 C  
ENDROOT
BRANCH   2   3
HETATM    3  C   UNL     1      -7.558  20.357  67.285  1.00  0.00    -0.371 C  
BRANCH   3   4
HETATM    4  C   UNL     1      -8.147  19.679  68.517  1.00  0.00    -0.339 C  
BRANCH   4   5
HETATM    5  C   UNL     1      -9.595  19.270  68.276  1.00  0.00    -0.438 C  
BRANCH   5   6
HETATM    6  C   UNL     1     -10.012  19.620  66.853  1.00  0.00    -0.515 C  
BRANCH   6   7
HETATM    7  C   UNL     1     -10.485  18.380  66.111  1.00  0.00    -0.422 C  
BRANCH   7   8
HETATM    8  C   UNL     1      -9.402  17.307  66.113  1.00  0.00    -0.196 C  
BRANCH   8   9
HETATM    9  C   UNL     1     -10.040  15.944  66.334  1.00  0.00    -0.306 C  
BRANCH   9  10
HETATM   10  C   UNL     1     -11.190  16.010  67.332  1.00  0.00    -0.085 C  
BRANCH  10  11
HETATM   11  C   UNL     1     -11.631  14.609  67.790  1.00  0.00    -0.382 C  
BRANCH  11  12
HETATM   12  C   UNL     1     -10.518  13.584  67.562  1.00  0.00    -0.237 C  
BRANCH  12  13
HETATM   13  N   UNL     1     -10.913  12.400  66.666  1.00  0.00    -0.257 N  
HETATM   14  C   UNL     1     -12.192  12.689  65.887  1.00  0.00    -0.307 C  
HETATM   15  C   UNL     1      -9.787  12.088  65.675  1.00  0.00    -0.243 C  
BRANCH  13  16
HETATM   16  C   UNL     1     -11.106  11.118  67.556  1.00  0.00    -0.291 C  
BRANCH  16  17
HETATM   17  C   UNL     1     -10.684  11.338  69.013  1.00  0.00    -0.217 C  
BRANCH  17  18
HETATM   18  O   UNL     1     -11.788  11.202  69.903  1.00  0.00    -0.298 OA 
BRANCH  18  19
HETATM   19  C   UNL     1     -11.661  10.121  70.748  1.00  0.00    -0.357 A  
HETATM   20  C   UNL     1     -12.826   9.716  71.396  1.00  0.00    -0.471 A  
HETATM   21  C   UNL     1     -12.788   8.660  72.310  1.00  0.00    -0.438 A  
HETATM   22  C   UNL     1     -11.589   7.996  72.569  1.00  0.00    -0.464 A  
HETATM   23  C   UNL     1     -10.430   8.373  71.897  1.00  0.00    -0.366 A  
HETATM   24  C   UNL     1     -10.468   9.426  70.984  1.00  0.00    -0.392 A  
ENDBRANCH  18  19
ENDBRANCH  17  18
ENDBRANCH  16  17
ENDBRANCH  13  16
ENDBRANCH  12  13
ENDBRANCH  11  12
ENDBRANCH  10  11
ENDBRANCH   9  10
ENDBRANCH   8   9
ENDBRANCH   7   8
ENDBRANCH   6   7
ENDBRANCH   5   6
ENDBRANCH   4   5
ENDBRANCH   3   4
ENDBRANCH   2   3
TORSDOF 15
ENDMDL
MODEL      101
REMARK 921   NORMALIZED FREE ENERGY PREDICTED BY IDOCK:   -4.40 KCAL/MOL
REMARK 922        TOTAL FREE ENERGY PREDICTED BY IDOCK:   -9.38 KCAL/MOL
REMARK 923 INTER-LIGAND FREE ENERGY PREDICTED BY IDOCK:   -7.56 KCAL/MOL
REMARK 924 INTRA-LIGAND FREE ENERGY PREDICTED BY IDOCK:   -1.81 KCAL/MOL
REMARK 927      BINDING AFFINITY PREDICTED BY RF-SCORE:    0.00 PKD
ROOT
HETATM    1  C   UNL     1     -10.422  16.774  67.332  1.00  0.00    -0.310 C  
HETATM    2  C   UNL     1     -10.697  15.890  66.130  1.00  0.00    -0.273 C  
ENDROOT
BRANCH   2   3
HETATM    3  C   UNL     1     -10.465  14.420  66.464  1.00  0.00    -0.289 C  
BRANCH   3   4
HETATM    4  C   UNL     1     -10.427  13.574  65.197  1.00  0.00    -0.375 C  
BRANCH   4   5
HETATM    5  C   UNL     1     -10.327  12.091  65.533  1.00  0.00    -0.298 C  
BRANCH   5   6
HETATM    6  C   UNL     1     -11.271  11.745  66.677  1.00  0.00    -0.383 C  
BRANCH   6   7
HETATM    7  C   UNL     1     -10.825  10.468  67.372  1.00  0.00    -0.349 C  
BRANCH   7   8
HETATM    8  C   UNL     1      -9.554  10.711  68.179  1.00  0.00    -0.165 C  
BRANCH   8   9
HETATM    9  C   UNL     1      -8.573   9.576  67.932  1.00  0.00    -0.119 C  
BRANCH   9  10
HETATM   10  C   UNL     1      -8.054   8.979  69.236  1.00  0.00    -0.105 C  
BRANCH  10  11
HETATM   11  C   UNL     1      -8.944   9.357  70.433  1.00  0.00    -0.294 C  
BRANCH  11  12
HETATM   12  C   UNL     1      -9.156   8.157  71.357  1.00  0.00    -0.153 C  
BRANCH  12  13
HETATM   13  N   UNL     1     -10.608   7.661  71.439  1.00  0.00    -0.213 N  
HETATM   14  C   UNL     1     -11.205   7.445  70.053  1.00  0.00    -0.180 C  
HETATM   15  C   UNL     1     -10.673   6.344  72.219  1.00  0.00    -0.222 C  
BRANCH  13  16
HETATM   16  C   UNL     1     -11.469   8.707  72.237  1.00  0.00    -0.353 C  
BRANCH  16  17
HETATM   17  C   UNL     1     -12.359   9.562  71.326  1.00  0.00    -0.345 C  
BRANCH  17  18
HETATM   18  O   UNL     1     -13.061  10.557  72.066  1.00  0.00    -0.467 OA 
BRANCH  18  19
HETATM   19  C   UNL     1     -12.878  11.824  71.559  1.00  0.00    -0.345 A  
HETATM   20  C   UNL     1     -13.524  12.851  72.244  1.00  0.00    -0.631 A  
HETATM   21  C   UNL     1     -13.438  14.166  71.779  1.00  0.00    -0.471 A  
HETATM   22  C   UNL     1     -12.694  14.461  70.636  1.00  0.00    -0.421 A  
HETATM   23  C   UNL     1     -12.017  13.443  69.969  1.00  0.00    -0.407 A  
HETATM   24  C   UNL     1     -12.101  12.132  70.435  1.00  0.00    -0.395 A  
ENDBRANCH  18  19
ENDBRANCH  17  18
ENDBRANCH  16  17
ENDBRANCH  13  16
ENDBRANCH  12  13
ENDBRANCH  11  12
ENDBRANCH  10  11
ENDBRANCH   9  10
ENDBRANCH   8   9
ENDBRANCH   7   8
ENDBRANCH   6   7
ENDBRANCH   5   6
ENDBRANCH   4   5
ENDBRANCH   3   4
ENDBRANCH   2   3
TORSDOF 15
ENDMDL
MODEL      102
REMARK 921   NORMALIZED FREE ENERGY PREDICTED BY IDOCK:   -4.39 KCAL/MOL
REMARK 922        TOTAL FREE ENERGY PREDICTED BY IDOCK:   -9.37 KCAL/MOL
REMARK 923 INTER-LIGAND FREE ENERGY PREDICTED BY IDOCK:   -7.54 KCAL/MOL
REMARK 924 INTRA-LIGAND FREE ENERGY PREDICTED BY IDOCK:   -1.84 KCAL/MOL
REMARK 927      BINDING AFFINITY PREDICTED BY RF-SCORE:    0.00 PKD
ROOT
HETATM    1  C   UNL     1     -10.461  14.985  65.682  1.00  0.00    -0.368 C  
HETATM    2  C   UNL     1     -11.654  14.472  66.468  1.00  0.00    -0.379 C  
ENDROOT
BRANCH   2   3
HETATM    3  C   UNL     1     -12.612  13.698  65.568  1.00  0.00    -0.541 C  
BRANCH   3   4
HETATM    4  C   UNL     1     -12.024  13.523  64.173  1.00  0.00    -0.498 C  
BRANCH   4   5
HETATM    5  C   UNL     1     -11.740  12.054  63.881  1.00  0.00    -0.537 C  
BRANCH   5   6
HETATM    6  C   UNL     1     -10.238  11.805  63.842  1.00  0.00    -0.411 C  
BRANCH   6   7
HETATM    7  C   UNL     1      -9.876  10.578  64.664  1.00  0.00    -0.404 C  
BRANCH   7   8
HETATM    8  C   UNL     1      -9.848  10.915  66.151  1.00  0.00    -0.268 C  
BRANCH   8   9
HETATM    9  C   UNL     1     -10.699   9.913  66.914  1.00  0.00    -0.195 C  
BRANCH   9  10
HETATM   10  C   UNL     1     -11.177  10.473  68.249  1.00  0.00    -0.354 C  
BRANCH  10  11
HETATM   11  C   UNL     1     -10.293  10.002  69.417  1.00  0.00    -0.245 C  
BRANCH  11  12
HETATM   12  C   UNL     1     -10.136   8.481  69.404  1.00  0.00    -0.205 C  
BRANCH  12  13
HETATM   13  N   UNL     1      -8.881   7.962  70.124  1.00  0.00    -0.143 N  
HETATM   14  C   UNL     1      -7.839   7.450  69.136  1.00  0.00    -0.116 C  
HETATM   15  C   UNL     1      -8.258   9.078  70.969  1.00  0.00    -0.176 C  
BRANCH  13  16
HETATM   16  C   UNL     1      -9.290   6.813  71.116  1.00  0.00    -0.159 C  
BRANCH  16  17
HETATM   17  C   UNL     1      -9.807   7.343  72.458  1.00  0.00    -0.169 C  
BRANCH  17  18
HETATM   18  O   UNL     1     -11.049   6.742  72.815  1.00  0.00    -0.256 OA 
BRANCH  18  19
HETATM   19  C   UNL     1     -12.135   7.492  72.420  1.00  0.00    -0.176 A  
HETATM   20  C   UNL     1     -13.232   6.772  71.951  1.00  0.00    -0.166 A  
HETATM   21  C   UNL     1     -14.364   7.444  71.482  1.00  0.00    -0.594 A  
HETATM   22  C   UNL     1     -14.409   8.839  71.495  1.00  0.00    -0.342 A  
HETATM   23  C   UNL     1     -13.329   9.562  71.996  1.00  0.00    -0.535 A  
HETATM   24  C   UNL     1     -12.202   8.890  72.465  1.00  0.00    -0.299 A  
ENDBRANCH  18  19
ENDBRANCH  17  18
ENDBRANCH  16  17
ENDBRANCH  13  16
ENDBRANCH  12  13
ENDBRANCH  11  12
ENDBRANCH  10  11
ENDBRANCH   9  10
ENDBRANCH   8   9
ENDBRANCH   7   8
ENDBRANCH   6   7
ENDBRANCH   5   6
ENDBRANCH   4   5
ENDBRANCH   3   4
ENDBRANCH   2   3
TORSDOF 15
ENDMDL
MODEL      103
REMARK 921   NORMALIZED FREE ENERGY PREDICTED BY IDOCK:   -4.39 KCAL/MOL
REMARK 922        TOTAL FREE ENERGY PREDICTED BY IDOCK:   -9.36 KCAL/MOL
REMARK 923 INTER-LIGAND FREE ENERGY PREDICTED BY IDOCK:   -8.30 KCAL/MOL
REMARK 924 INTRA-LIGAND FREE ENERGY PREDICTED BY IDOCK:   -1.06 KCAL/MOL
REMARK 927      BINDING AFFINITY PREDICTED BY RF-SCORE:    0.00 PKD
ROOT
HETATM    1  C   UNL     1      -6.149  20.651  68.634  1.00  0.00    -0.371 C  
HETATM    2  C   UNL     1      -6.848  20.396  67.310  1.00  0.00    -0.313 C  
ENDROOT
BRANCH   2   3
HETATM    3  C   UNL     1      -8.315  20.038  67.524  1.00  0.00    -0.381 C  
BRANCH   3   4
HETATM    4  C   UNL     1      -8.453  18.878  68.503  1.00  0.00    -0.384 C  
BRANCH   4   5
HETATM    5  C   UNL     1      -9.799  18.182  68.338  1.00  0.00    -0.380 C  
BRANCH   5   6
HETATM    6  C   UNL     1     -10.570  18.793  67.175  1.00  0.00    -0.491 C  
BRANCH   6   7
HETATM    7  C   UNL     1     -10.632  17.825  66.005  1.00  0.00    -0.229 C  
BRANCH   7   8
HETATM    8  C   UNL     1     -10.385  16.396  66.475  1.00  0.00    -0.306 C  
BRANCH   8   9
HETATM    9  C   UNL     1     -10.315  15.471  65.270  1.00  0.00    -0.416 C  
BRANCH   9  10
HETATM   10  C   UNL     1     -11.693  14.959  64.865  1.00  0.00    -0.371 C  
BRANCH  10  11
HETATM   11  C   UNL     1     -11.843  13.450  65.127  1.00  0.00    -0.375 C  
BRANCH  11  12
HETATM   12  C   UNL     1     -10.502  12.732  64.965  1.00  0.00    -0.314 C  
BRANCH  12  13
HETATM   13  N   UNL     1     -10.067  11.906  66.186  1.00  0.00    -0.221 N  
HETATM   14  C   UNL     1      -9.673  10.488  65.791  1.00  0.00    -0.223 C  
HETATM   15  C   UNL     1      -8.878  12.578  66.880  1.00  0.00    -0.203 C  
BRANCH  13  16
HETATM   16  C   UNL     1     -11.242  11.866  67.230  1.00  0.00    -0.317 C  
BRANCH  16  17
HETATM   17  C   UNL     1     -10.752  11.969  68.679  1.00  0.00    -0.236 C  
BRANCH  17  18
HETATM   18  O   UNL     1     -10.477  10.685  69.231  1.00  0.00    -0.207 OA 
BRANCH  18  19
HETATM   19  C   UNL     1     -11.343  10.346  70.247  1.00  0.00    -0.328 A  
HETATM   20  C   UNL     1     -11.083   9.137  70.890  1.00  0.00    -0.356 A  
HETATM   21  C   UNL     1     -11.934   8.684  71.901  1.00  0.00    -0.424 A  
HETATM   22  C   UNL     1     -13.040   9.444  72.283  1.00  0.00    -0.509 A  
HETATM   23  C   UNL     1     -13.284  10.669  71.669  1.00  0.00    -0.495 A  
HETATM   24  C   UNL     1     -12.434  11.122  70.661  1.00  0.00    -0.448 A  
ENDBRANCH  18  19
ENDBRANCH  17  18
ENDBRANCH  16  17
ENDBRANCH  13  16
ENDBRANCH  12  13
ENDBRANCH  11  12
ENDBRANCH  10  11
ENDBRANCH   9  10
ENDBRANCH   8   9
ENDBRANCH   7   8
ENDBRANCH   6   7
ENDBRANCH   5   6
ENDBRANCH   4   5
ENDBRANCH   3   4
ENDBRANCH   2   3
TORSDOF 15
ENDMDL
MODEL      104
REMARK 921   NORMALIZED FREE ENERGY PREDICTED BY IDOCK:   -4.39 KCAL/MOL
REMARK 922        TOTAL FREE ENERGY PREDICTED BY IDOCK:   -9.36 KCAL/MOL
REMARK 923 INTER-LIGAND FREE ENERGY PREDICTED BY IDOCK:   -6.94 KCAL/MOL
REMARK 924 INTRA-LIGAND FREE ENERGY PREDICTED BY IDOCK:   -2.42 KCAL/MOL
REMARK 927      BINDING AFFINITY PREDICTED BY RF-SCORE:    0.00 PKD
ROOT
HETATM    1  C   UNL     1      -8.751   5.624  69.747  1.00  0.00    -0.125 C  
HETATM    2  C   UNL     1     -10.136   5.133  69.365  1.00  0.00    -0.305 C  
ENDROOT
BRANCH   2   3
HETATM    3  C   UNL     1     -11.068   6.302  69.064  1.00  0.00    -0.446 C  
BRANCH   3   4
HETATM    4  C   UNL     1     -10.771   6.893  67.690  1.00  0.00    -0.344 C  
BRANCH   4   5
HETATM    5  C   UNL     1     -10.343   8.351  67.805  1.00  0.00    -0.297 C  
BRANCH   5   6
HETATM    6  C   UNL     1     -10.002   8.911  66.430  1.00  0.00    -0.354 C  
BRANCH   6   7
HETATM    7  C   UNL     1      -8.581   9.451  66.407  1.00  0.00    -0.144 C  
BRANCH   7   8
HETATM    8  C   UNL     1      -8.373  10.465  67.527  1.00  0.00    -0.114 C  
BRANCH   8   9
HETATM    9  C   UNL     1      -8.169  11.847  66.928  1.00  0.00    -0.157 C  
BRANCH   9  10
HETATM   10  C   UNL     1      -8.209  12.940  67.990  1.00  0.00    -0.168 C  
BRANCH  10  11
HETATM   11  C   UNL     1      -8.296  14.343  67.365  1.00  0.00    -0.216 C  
BRANCH  11  12
HETATM   12  C   UNL     1      -8.379  15.420  68.448  1.00  0.00    -0.147 C  
BRANCH  12  13
HETATM   13  N   UNL     1      -8.727  16.824  67.928  1.00  0.00    -0.200 N  
HETATM   14  C   UNL     1      -7.639  17.834  68.273  1.00  0.00    -0.256 C  
HETATM   15  C   UNL     1      -8.913  16.793  66.408  1.00  0.00    -0.289 C  
BRANCH  13  16
HETATM   16  C   UNL     1     -10.099  17.280  68.547  1.00  0.00    -0.341 C  
BRANCH  16  17
HETATM   17  C   UNL     1     -10.688  16.246  69.514  1.00  0.00    -0.323 C  
BRANCH  17  18
HETATM   18  O   UNL     1     -11.960  15.782  69.072  1.00  0.00    -0.385 OA 
BRANCH  18  19
HETATM   19  C   UNL     1     -11.912  14.505  68.560  1.00  0.00    -0.286 A  
HETATM   20  C   UNL     1     -11.805  13.479  69.497  1.00  0.00    -0.392 A  
HETATM   21  C   UNL     1     -11.701  12.151  69.073  1.00  0.00    -0.377 A  
HETATM   22  C   UNL     1     -11.718  11.844  67.712  1.00  0.00    -0.362 A  
HETATM   23  C   UNL     1     -11.861  12.863  66.774  1.00  0.00    -0.452 A  
HETATM   24  C   UNL     1     -11.967  14.186  67.197  1.00  0.00    -0.460 A  
ENDBRANCH  18  19
ENDBRANCH  17  18
ENDBRANCH  16  17
ENDBRANCH  13  16
ENDBRANCH  12  13
ENDBRANCH  11  12
ENDBRANCH  10  11
ENDBRANCH   9  10
ENDBRANCH   8   9
ENDBRANCH   7   8
ENDBRANCH   6   7
ENDBRANCH   5   6
ENDBRANCH   4   5
ENDBRANCH   3   4
ENDBRANCH   2   3
TORSDOF 15
ENDMDL
MODEL      105
REMARK 921   NORMALIZED FREE ENERGY PREDICTED BY IDOCK:   -4.38 KCAL/MOL
REMARK 922        TOTAL FREE ENERGY PREDICTED BY IDOCK:   -9.34 KCAL/MOL
REMARK 923 INTER-LIGAND FREE ENERGY PREDICTED BY IDOCK:   -8.38 KCAL/MOL
REMARK 924 INTRA-LIGAND FREE ENERGY PREDICTED BY IDOCK:   -0.96 KCAL/MOL
REMARK 927      BINDING AFFINITY PREDICTED BY RF-SCORE:    0.00 PKD
ROOT
HETATM    1  C   UNL     1      -8.756   3.985  72.258  1.00  0.00    -0.118 C  
HETATM    2  C   UNL     1     -10.187   4.087  72.755  1.00  0.00    -0.229 C  
ENDROOT
BRANCH   2   3
HETATM    3  C   UNL     1     -10.329   5.194  73.794  1.00  0.00    -0.275 C  
BRANCH   3   4
HETATM    4  C   UNL     1     -10.836   6.480  73.151  1.00  0.00    -0.286 C  
BRANCH   4   5
HETATM    5  C   UNL     1     -11.727   6.176  71.953  1.00  0.00    -0.337 C  
BRANCH   5   6
HETATM    6  C   UNL     1     -12.383   7.453  71.445  1.00  0.00    -0.394 C  
BRANCH   6   7
HETATM    7  C   UNL     1     -11.766   8.674  72.109  1.00  0.00    -0.442 C  
BRANCH   7   8
HETATM    8  C   UNL     1     -10.944   9.474  71.105  1.00  0.00    -0.438 C  
BRANCH   8   9
HETATM    9  C   UNL     1     -11.767  10.648  70.598  1.00  0.00    -0.454 C  
BRANCH   9  10
HETATM   10  C   UNL     1     -12.753  11.148  71.649  1.00  0.00    -0.466 C  
BRANCH  10  11
HETATM   11  C   UNL     1     -13.261  12.564  71.329  1.00  0.00    -0.098 C  
BRANCH  11  12
HETATM   12  C   UNL     1     -13.066  13.498  72.524  1.00  0.00    -0.357 C  
BRANCH  12  13
HETATM   13  N   UNL     1     -12.975  14.989  72.162  1.00  0.00    -0.321 N  
HETATM   14  C   UNL     1     -14.146  15.426  71.290  1.00  0.00    -0.360 C  
HETATM   15  C   UNL     1     -12.959  15.841  73.435  1.00  0.00    -0.583 C  
BRANCH  13  16
HETATM   16  C   UNL     1     -11.619  15.259  71.415  1.00  0.00    -0.391 C  
BRANCH  16  17
HETATM   17  C   UNL     1     -11.807  15.511  69.915  1.00  0.00    -0.362 C  
BRANCH  17  18
HETATM   18  O   UNL     1     -11.438  14.372  69.143  1.00  0.00    -0.260 OA 
BRANCH  18  19
HETATM   19  C   UNL     1     -11.366  14.644  67.794  1.00  0.00    -0.322 A  
HETATM   20  C   UNL     1     -12.162  13.849  66.972  1.00  0.00    -0.392 A  
HETATM   21  C   UNL     1     -12.123  14.016  65.585  1.00  0.00    -0.432 A  
HETATM   22  C   UNL     1     -11.298  14.987  65.017  1.00  0.00    -0.395 A  
HETATM   23  C   UNL     1     -10.527  15.807  65.836  1.00  0.00    -0.366 A  
HETATM   24  C   UNL     1     -10.569  15.642  67.220  1.00  0.00    -0.305 A  
ENDBRANCH  18  19
ENDBRANCH  17  18
ENDBRANCH  16  17
ENDBRANCH  13  16
ENDBRANCH  12  13
ENDBRANCH  11  12
ENDBRANCH  10  11
ENDBRANCH   9  10
ENDBRANCH   8   9
ENDBRANCH   7   8
ENDBRANCH   6   7
ENDBRANCH   5   6
ENDBRANCH   4   5
ENDBRANCH   3   4
ENDBRANCH   2   3
TORSDOF 15
ENDMDL
MODEL      106
REMARK 921   NORMALIZED FREE ENERGY PREDICTED BY IDOCK:   -4.37 KCAL/MOL
REMARK 922        TOTAL FREE ENERGY PREDICTED BY IDOCK:   -9.32 KCAL/MOL
REMARK 923 INTER-LIGAND FREE ENERGY PREDICTED BY IDOCK:   -8.13 KCAL/MOL
REMARK 924 INTRA-LIGAND FREE ENERGY PREDICTED BY IDOCK:   -1.19 KCAL/MOL
REMARK 927      BINDING AFFINITY PREDICTED BY RF-SCORE:    0.00 PKD
ROOT
HETATM    1  C   UNL     1      -9.934   7.174  71.814  1.00  0.00    -0.186 C  
HETATM    2  C   UNL     1     -11.152   6.951  70.936  1.00  0.00    -0.313 C  
ENDROOT
BRANCH   2   3
HETATM    3  C   UNL     1     -10.936   5.778  69.985  1.00  0.00    -0.382 C  
BRANCH   3   4
HETATM    4  C   UNL     1     -11.084   6.222  68.534  1.00  0.00    -0.397 C  
BRANCH   4   5
HETATM    5  C   UNL     1      -9.722   6.350  67.862  1.00  0.00    -0.124 C  
BRANCH   5   6
HETATM    6  C   UNL     1      -9.824   7.236  66.627  1.00  0.00    -0.257 C  
BRANCH   6   7
HETATM    7  C   UNL     1     -10.466   8.569  66.974  1.00  0.00    -0.362 C  
BRANCH   7   8
HETATM    8  C   UNL     1      -9.400   9.622  67.259  1.00  0.00    -0.163 C  
BRANCH   8   9
HETATM    9  C   UNL     1      -9.020  10.321  65.964  1.00  0.00    -0.173 C  
BRANCH   9  10
HETATM   10  C   UNL     1     -10.222  10.506  65.043  1.00  0.00    -0.365 C  
BRANCH  10  11
HETATM   11  C   UNL     1     -10.591  11.990  64.877  1.00  0.00    -0.334 C  
BRANCH  11  12
HETATM   12  C   UNL     1     -11.492  12.461  66.020  1.00  0.00    -0.382 C  
BRANCH  12  13
HETATM   13  N   UNL     1     -11.089  13.809  66.639  1.00  0.00    -0.307 N  
HETATM   14  C   UNL     1     -11.861  14.089  67.923  1.00  0.00    -0.376 C  
HETATM   15  C   UNL     1      -9.589  13.819  66.949  1.00  0.00    -0.262 C  
BRANCH  13  16
HETATM   16  C   UNL     1     -11.347  14.956  65.596  1.00  0.00    -0.325 C  
BRANCH  16  17
HETATM   17  C   UNL     1     -10.163  15.923  65.471  1.00  0.00    -0.365 C  
BRANCH  17  18
HETATM   18  O   UNL     1     -10.596  17.280  65.455  1.00  0.00    -0.630 OA 
BRANCH  18  19
HETATM   19  C   UNL     1     -10.112  18.006  66.520  1.00  0.00    -0.379 A  
HETATM   20  C   UNL     1      -8.926  17.539  67.084  1.00  0.00    -0.245 A  
HETATM   21  C   UNL     1      -8.381  18.180  68.200  1.00  0.00    -0.285 A  
HETATM   22  C   UNL     1      -9.011  19.298  68.747  1.00  0.00    -0.399 A  
HETATM   23  C   UNL     1     -10.176  19.790  68.165  1.00  0.00    -0.577 A  
HETATM   24  C   UNL     1     -10.719  19.151  67.051  1.00  0.00    -0.542 A  
ENDBRANCH  18  19
ENDBRANCH  17  18
ENDBRANCH  16  17
ENDBRANCH  13  16
ENDBRANCH  12  13
ENDBRANCH  11  12
ENDBRANCH  10  11
ENDBRANCH   9  10
ENDBRANCH   8   9
ENDBRANCH   7   8
ENDBRANCH   6   7
ENDBRANCH   5   6
ENDBRANCH   4   5
ENDBRANCH   3   4
ENDBRANCH   2   3
TORSDOF 15
ENDMDL
MODEL      107
REMARK 921   NORMALIZED FREE ENERGY PREDICTED BY IDOCK:   -4.35 KCAL/MOL
REMARK 922        TOTAL FREE ENERGY PREDICTED BY IDOCK:   -9.29 KCAL/MOL
REMARK 923 INTER-LIGAND FREE ENERGY PREDICTED BY IDOCK:   -7.55 KCAL/MOL
REMARK 924 INTRA-LIGAND FREE ENERGY PREDICTED BY IDOCK:   -1.75 KCAL/MOL
REMARK 927      BINDING AFFINITY PREDICTED BY RF-SCORE:    0.00 PKD
ROOT
HETATM    1  C   UNL     1      -9.918   4.039  72.523  1.00  0.00    -0.222 C  
HETATM    2  C   UNL     1     -10.160   5.512  72.246  1.00  0.00    -0.225 C  
ENDROOT
BRANCH   2   3
HETATM    3  C   UNL     1     -11.641   5.856  72.358  1.00  0.00    -0.341 C  
BRANCH   3   4
HETATM    4  C   UNL     1     -11.976   7.091  71.530  1.00  0.00    -0.372 C  
BRANCH   4   5
HETATM    5  C   UNL     1     -13.483   7.266  71.395  1.00  0.00    -0.400 C  
BRANCH   5   6
HETATM    6  C   UNL     1     -13.913   8.608  71.973  1.00  0.00    -0.506 C  
BRANCH   6   7
HETATM    7  C   UNL     1     -12.728   9.557  72.064  1.00  0.00    -0.479 C  
BRANCH   7   8
HETATM    8  C   UNL     1     -13.078  10.914  71.465  1.00  0.00    -0.503 C  
BRANCH   8   9
HETATM    9  C   UNL     1     -11.952  11.370  70.551  1.00  0.00    -0.451 C  
BRANCH   9  10
HETATM   10  C   UNL     1     -11.485  10.254  69.622  1.00  0.00    -0.297 C  
BRANCH  10  11
HETATM   11  C   UNL     1      -9.952  10.219  69.495  1.00  0.00    -0.252 C  
BRANCH  11  12
HETATM   12  C   UNL     1      -9.503   9.044  68.625  1.00  0.00    -0.147 C  
BRANCH  12  13
HETATM   13  N   UNL     1      -8.801   9.448  67.319  1.00  0.00    -0.127 N  
HETATM   14  C   UNL     1      -8.214  10.853  67.410  1.00  0.00    -0.117 C  
HETATM   15  C   UNL     1      -7.675   8.460  66.997  1.00  0.00    -0.093 C  
BRANCH  13  16
HETATM   16  C   UNL     1      -9.828   9.372  66.132  1.00  0.00    -0.285 C  
BRANCH  16  17
HETATM   17  C   UNL     1      -9.702  10.551  65.160  1.00  0.00    -0.282 C  
BRANCH  17  18
HETATM   18  O   UNL     1     -10.952  11.210  64.972  1.00  0.00    -0.218 OA 
BRANCH  18  19
HETATM   19  C   UNL     1     -10.975  12.473  65.520  1.00  0.00    -0.287 A  
HETATM   20  C   UNL     1     -11.448  12.559  66.828  1.00  0.00    -0.422 A  
HETATM   21  C   UNL     1     -11.555  13.803  67.454  1.00  0.00    -0.393 A  
HETATM   22  C   UNL     1     -11.177  14.965  66.780  1.00  0.00    -0.338 A  
HETATM   23  C   UNL     1     -10.671  14.881  65.486  1.00  0.00    -0.369 A  
HETATM   24  C   UNL     1     -10.562  13.638  64.862  1.00  0.00    -0.421 A  
ENDBRANCH  18  19
ENDBRANCH  17  18
ENDBRANCH  16  17
ENDBRANCH  13  16
ENDBRANCH  12  13
ENDBRANCH  11  12
ENDBRANCH  10  11
ENDBRANCH   9  10
ENDBRANCH   8   9
ENDBRANCH   7   8
ENDBRANCH   6   7
ENDBRANCH   5   6
ENDBRANCH   4   5
ENDBRANCH   3   4
ENDBRANCH   2   3
TORSDOF 15
ENDMDL
MODEL      108
REMARK 921   NORMALIZED FREE ENERGY PREDICTED BY IDOCK:   -4.35 KCAL/MOL
REMARK 922        TOTAL FREE ENERGY PREDICTED BY IDOCK:   -9.28 KCAL/MOL
REMARK 923 INTER-LIGAND FREE ENERGY PREDICTED BY IDOCK:   -7.17 KCAL/MOL
REMARK 924 INTRA-LIGAND FREE ENERGY PREDICTED BY IDOCK:   -2.12 KCAL/MOL
REMARK 927      BINDING AFFINITY PREDICTED BY RF-SCORE:    0.00 PKD
ROOT
HETATM    1  C   UNL     1     -11.480  10.475  69.275  1.00  0.00    -0.323 C  
HETATM    2  C   UNL     1     -10.782   9.484  68.360  1.00  0.00    -0.230 C  
ENDROOT
BRANCH   2   3
HETATM    3  C   UNL     1      -9.266   9.627  68.450  1.00  0.00    -0.133 C  
BRANCH   3   4
HETATM    4  C   UNL     1      -8.845  10.067  69.847  1.00  0.00    -0.177 C  
BRANCH   4   5
HETATM    5  C   UNL     1      -7.327  10.094  69.976  1.00  0.00    -0.172 C  
BRANCH   5   6
HETATM    6  C   UNL     1      -6.697  10.602  68.685  1.00  0.00    -0.057 C  
BRANCH   6   7
HETATM    7  C   UNL     1      -6.570  12.117  68.709  1.00  0.00    -0.083 C  
BRANCH   7   8
HETATM    8  C   UNL     1      -7.385  12.742  67.582  1.00  0.00    -0.144 C  
BRANCH   8   9
HETATM    9  C   UNL     1      -8.443  13.661  68.172  1.00  0.00    -0.175 C  
BRANCH   9  10
HETATM   10  C   UNL     1      -9.843  13.304  67.683  1.00  0.00    -0.230 C  
BRANCH  10  11
HETATM   11  C   UNL     1      -9.807  12.575  66.329  1.00  0.00    -0.260 C  
BRANCH  11  12
HETATM   12  C   UNL     1     -11.222  12.261  65.841  1.00  0.00    -0.340 C  
BRANCH  12  13
HETATM   13  N   UNL     1     -11.772  13.247  64.798  1.00  0.00    -0.340 N  
HETATM   14  C   UNL     1     -12.131  12.542  63.495  1.00  0.00    -0.562 C  
HETATM   15  C   UNL     1     -13.021  13.949  65.343  1.00  0.00    -0.326 C  
BRANCH  13  16
HETATM   16  C   UNL     1     -10.702  14.365  64.526  1.00  0.00    -0.214 C  
BRANCH  16  17
HETATM   17  C   UNL     1     -11.091  15.719  65.131  1.00  0.00    -0.324 C  
BRANCH  17  18
HETATM   18  O   UNL     1      -9.958  16.572  65.277  1.00  0.00    -0.531 OA 
BRANCH  18  19
HETATM   19  C   UNL     1     -10.118  17.501  66.281  1.00  0.00    -0.336 A  
HETATM   20  C   UNL     1     -10.512  18.774  65.873  1.00  0.00    -0.424 A  
HETATM   21  C   UNL     1     -10.653  19.798  66.812  1.00  0.00    -0.586 A  
HETATM   22  C   UNL     1     -10.415  19.551  68.165  1.00  0.00    -0.497 A  
HETATM   23  C   UNL     1     -10.056  18.271  68.581  1.00  0.00    -0.407 A  
HETATM   24  C   UNL     1      -9.917  17.249  67.644  1.00  0.00    -0.297 A  
ENDBRANCH  18  19
ENDBRANCH  17  18
ENDBRANCH  16  17
ENDBRANCH  13  16
ENDBRANCH  12  13
ENDBRANCH  11  12
ENDBRANCH  10  11
ENDBRANCH   9  10
ENDBRANCH   8   9
ENDBRANCH   7   8
ENDBRANCH   6   7
ENDBRANCH   5   6
ENDBRANCH   4   5
ENDBRANCH   3   4
ENDBRANCH   2   3
TORSDOF 15
ENDMDL
MODEL      109
REMARK 921   NORMALIZED FREE ENERGY PREDICTED BY IDOCK:   -4.34 KCAL/MOL
REMARK 922        TOTAL FREE ENERGY PREDICTED BY IDOCK:   -9.27 KCAL/MOL
REMARK 923 INTER-LIGAND FREE ENERGY PREDICTED BY IDOCK:   -6.65 KCAL/MOL
REMARK 924 INTRA-LIGAND FREE ENERGY PREDICTED BY IDOCK:   -2.62 KCAL/MOL
REMARK 927      BINDING AFFINITY PREDICTED BY RF-SCORE:    0.00 PKD
ROOT
HETATM    1  C   UNL     1     -11.993  12.609  63.394  1.00  0.00    -0.613 C  
HETATM    2  C   UNL     1     -10.597  12.023  63.503  1.00  0.00    -0.514 C  
ENDROOT
BRANCH   2   3
HETATM    3  C   UNL     1     -10.319  11.526  64.918  1.00  0.00    -0.340 C  
BRANCH   3   4
HETATM    4  C   UNL     1      -9.903  12.679  65.826  1.00  0.00    -0.236 C  
BRANCH   4   5
HETATM    5  C   UNL     1     -10.496  12.516  67.220  1.00  0.00    -0.232 C  
BRANCH   5   6
HETATM    6  C   UNL     1     -11.396  11.289  67.271  1.00  0.00    -0.329 C  
BRANCH   6   7
HETATM    7  C   UNL     1     -11.579  10.816  68.705  1.00  0.00    -0.342 C  
BRANCH   7   8
HETATM    8  C   UNL     1     -10.233  10.711  69.413  1.00  0.00    -0.218 C  
BRANCH   8   9
HETATM    9  C   UNL     1     -10.226   9.483  70.309  1.00  0.00    -0.312 C  
BRANCH   9  10
HETATM   10  C   UNL     1     -11.608   9.193  70.886  1.00  0.00    -0.350 C  
BRANCH  10  11
HETATM   11  C   UNL     1     -11.522   8.467  72.240  1.00  0.00    -0.445 C  
BRANCH  11  12
HETATM   12  C   UNL     1     -11.701   6.959  72.063  1.00  0.00    -0.300 C  
BRANCH  12  13
HETATM   13  N   UNL     1     -10.628   6.102  72.753  1.00  0.00    -0.216 N  
HETATM   14  C   UNL     1     -10.325   6.609  74.159  1.00  0.00    -0.321 C  
HETATM   15  C   UNL     1     -11.091   4.644  72.840  1.00  0.00    -0.191 C  
BRANCH  13  16
HETATM   16  C   UNL     1      -9.317   6.113  71.885  1.00  0.00    -0.150 C  
BRANCH  16  17
HETATM   17  C   UNL     1      -9.562   5.680  70.435  1.00  0.00    -0.170 C  
BRANCH  17  18
HETATM   18  O   UNL     1      -8.444   5.978  69.604  1.00  0.00    -0.122 OA 
BRANCH  18  19
HETATM   19  C   UNL     1      -8.768   6.810  68.554  1.00  0.00    -0.124 A  
HETATM   20  C   UNL     1     -10.087   6.741  68.110  1.00  0.00    -0.182 A  
HETATM   21  C   UNL     1     -10.499   7.510  67.019  1.00  0.00    -0.409 A  
HETATM   22  C   UNL     1      -9.599   8.361  66.377  1.00  0.00    -0.307 A  
HETATM   23  C   UNL     1      -8.290   8.460  66.840  1.00  0.00    -0.106 A  
HETATM   24  C   UNL     1      -7.879   7.694  67.930  1.00  0.00    -0.117 A  
ENDBRANCH  18  19
ENDBRANCH  17  18
ENDBRANCH  16  17
ENDBRANCH  13  16
ENDBRANCH  12  13
ENDBRANCH  11  12
ENDBRANCH  10  11
ENDBRANCH   9  10
ENDBRANCH   8   9
ENDBRANCH   7   8
ENDBRANCH   6   7
ENDBRANCH   5   6
ENDBRANCH   4   5
ENDBRANCH   3   4
ENDBRANCH   2   3
TORSDOF 15
ENDMDL
MODEL      110
REMARK 921   NORMALIZED FREE ENERGY PREDICTED BY IDOCK:   -4.33 KCAL/MOL
REMARK 922        TOTAL FREE ENERGY PREDICTED BY IDOCK:   -9.26 KCAL/MOL
REMARK 923 INTER-LIGAND FREE ENERGY PREDICTED BY IDOCK:   -7.83 KCAL/MOL
REMARK 924 INTRA-LIGAND FREE ENERGY PREDICTED BY IDOCK:   -1.42 KCAL/MOL
REMARK 927      BINDING AFFINITY PREDICTED BY RF-SCORE:    0.00 PKD
ROOT
HETATM    1  C   UNL     1      -8.071   8.906  70.202  1.00  0.00    -0.122 C  
HETATM    2  C   UNL     1      -8.623   8.582  71.579  1.00  0.00    -0.236 C  
ENDROOT
BRANCH   2   3
HETATM    3  C   UNL     1      -9.188   7.166  71.625  1.00  0.00    -0.149 C  
BRANCH   3   4
HETATM    4  C   UNL     1      -9.884   6.903  72.955  1.00  0.00    -0.204 C  
BRANCH   4   5
HETATM    5  C   UNL     1     -11.224   7.625  73.022  1.00  0.00    -0.388 C  
BRANCH   5   6
HETATM    6  C   UNL     1     -12.131   7.159  71.890  1.00  0.00    -0.357 C  
BRANCH   6   7
HETATM    7  C   UNL     1     -13.091   8.266  71.481  1.00  0.00    -0.313 C  
BRANCH   7   8
HETATM    8  C   UNL     1     -12.732   9.574  72.178  1.00  0.00    -0.442 C  
BRANCH   8   9
HETATM    9  C   UNL     1     -12.474  10.649  71.135  1.00  0.00    -0.523 C  
BRANCH   9  10
HETATM   10  C   UNL     1     -11.509  10.174  70.054  1.00  0.00    -0.344 C  
BRANCH  10  11
HETATM   11  C   UNL     1     -11.670  10.975  68.751  1.00  0.00    -0.383 C  
BRANCH  11  12
HETATM   12  C   UNL     1     -11.878  12.462  69.045  1.00  0.00    -0.300 C  
BRANCH  12  13
HETATM   13  N   UNL     1     -11.192  13.413  68.052  1.00  0.00    -0.256 N  
HETATM   14  C   UNL     1      -9.861  12.850  67.565  1.00  0.00    -0.208 C  
HETATM   15  C   UNL     1     -12.100  13.657  66.842  1.00  0.00    -0.386 C  
BRANCH  13  16
HETATM   16  C   UNL     1     -10.964  14.807  68.741  1.00  0.00    -0.259 C  
BRANCH  16  17
HETATM   17  C   UNL     1     -11.113  15.982  67.767  1.00  0.00    -0.273 C  
BRANCH  17  18
HETATM   18  O   UNL     1     -10.857  17.229  68.408  1.00  0.00    -0.354 OA 
BRANCH  18  19
HETATM   19  C   UNL     1      -9.969  18.015  67.707  1.00  0.00    -0.326 A  
HETATM   20  C   UNL     1     -10.412  19.298  67.393  1.00  0.00    -0.564 A  
HETATM   21  C   UNL     1      -9.602  20.154  66.642  1.00  0.00    -0.547 A  
HETATM   22  C   UNL     1      -8.342  19.736  66.215  1.00  0.00    -0.383 A  
HETATM   23  C   UNL     1      -7.881  18.467  66.557  1.00  0.00    -0.279 A  
HETATM   24  C   UNL     1      -8.688  17.614  67.308  1.00  0.00    -0.241 A  
ENDBRANCH  18  19
ENDBRANCH  17  18
ENDBRANCH  16  17
ENDBRANCH  13  16
ENDBRANCH  12  13
ENDBRANCH  11  12
ENDBRANCH  10  11
ENDBRANCH   9  10
ENDBRANCH   8   9
ENDBRANCH   7   8
ENDBRANCH   6   7
ENDBRANCH   5   6
ENDBRANCH   4   5
ENDBRANCH   3   4
ENDBRANCH   2   3
TORSDOF 15
ENDMDL
MODEL      111
REMARK 921   NORMALIZED FREE ENERGY PREDICTED BY IDOCK:   -4.33 KCAL/MOL
REMARK 922        TOTAL FREE ENERGY PREDICTED BY IDOCK:   -9.26 KCAL/MOL
REMARK 923 INTER-LIGAND FREE ENERGY PREDICTED BY IDOCK:   -7.52 KCAL/MOL
REMARK 924 INTRA-LIGAND FREE ENERGY PREDICTED BY IDOCK:   -1.73 KCAL/MOL
REMARK 927      BINDING AFFINITY PREDICTED BY RF-SCORE:    0.00 PKD
ROOT
HETATM    1  C   UNL     1     -11.877  13.073  63.463  1.00  0.00    -0.582 C  
HETATM    2  C   UNL     1     -12.398  12.226  64.611  1.00  0.00    -0.449 C  
ENDROOT
BRANCH   2   3
HETATM    3  C   UNL     1     -11.615  12.495  65.892  1.00  0.00    -0.454 C  
BRANCH   3   4
HETATM    4  C   UNL     1     -11.039  11.202  66.457  1.00  0.00    -0.233 C  
BRANCH   4   5
HETATM    5  C   UNL     1      -9.762  10.808  65.724  1.00  0.00    -0.278 C  
BRANCH   5   6
HETATM    6  C   UNL     1      -9.602   9.294  65.720  1.00  0.00    -0.341 C  
BRANCH   6   7
HETATM    7  C   UNL     1     -10.280   8.679  66.933  1.00  0.00    -0.367 C  
BRANCH   7   8
HETATM    8  C   UNL     1      -9.510   7.456  67.419  1.00  0.00    -0.170 C  
BRANCH   8   9
HETATM    9  C   UNL     1     -10.079   6.207  66.766  1.00  0.00    -0.234 C  
BRANCH   9  10
HETATM   10  C   UNL     1      -9.963   4.987  67.674  1.00  0.00    -0.202 C  
BRANCH  10  11
HETATM   11  C   UNL     1      -9.420   5.359  69.065  1.00  0.00    -0.176 C  
BRANCH  11  12
HETATM   12  C   UNL     1     -10.536   5.341  70.110  1.00  0.00    -0.268 C  
BRANCH  12  13
HETATM   13  N   UNL     1     -10.083   4.937  71.522  1.00  0.00    -0.192 N  
HETATM   14  C   UNL     1      -9.740   3.454  71.597  1.00  0.00    -0.164 C  
HETATM   15  C   UNL     1      -8.854   5.752  71.936  1.00  0.00    -0.139 C  
BRANCH  13  16
HETATM   16  C   UNL     1     -11.223   5.277  72.550  1.00  0.00    -0.210 C  
BRANCH  16  17
HETATM   17  C   UNL     1     -12.064   6.486  72.125  1.00  0.00    -0.264 C  
BRANCH  17  18
HETATM   18  O   UNL     1     -11.557   7.697  72.679  1.00  0.00    -0.339 OA 
BRANCH  18  19
HETATM   19  C   UNL     1     -11.758   8.784  71.856  1.00  0.00    -0.359 A  
HETATM   20  C   UNL     1     -10.778   9.004  70.891  1.00  0.00    -0.319 A  
HETATM   21  C   UNL     1     -10.867  10.109  70.041  1.00  0.00    -0.361 A  
HETATM   22  C   UNL     1     -11.945  10.990  70.143  1.00  0.00    -0.443 A  
HETATM   23  C   UNL     1     -12.945  10.754  71.082  1.00  0.00    -0.467 A  
HETATM   24  C   UNL     1     -12.856   9.650  71.929  1.00  0.00    -0.515 A  
ENDBRANCH  18  19
ENDBRANCH  17  18
ENDBRANCH  16  17
ENDBRANCH  13  16
ENDBRANCH  12  13
ENDBRANCH  11  12
ENDBRANCH  10  11
ENDBRANCH   9  10
ENDBRANCH   8   9
ENDBRANCH   7   8
ENDBRANCH   6   7
ENDBRANCH   5   6
ENDBRANCH   4   5
ENDBRANCH   3   4
ENDBRANCH   2   3
TORSDOF 15
ENDMDL
MODEL      112
REMARK 921   NORMALIZED FREE ENERGY PREDICTED BY IDOCK:   -4.33 KCAL/MOL
REMARK 922        TOTAL FREE ENERGY PREDICTED BY IDOCK:   -9.25 KCAL/MOL
REMARK 923 INTER-LIGAND FREE ENERGY PREDICTED BY IDOCK:   -7.27 KCAL/MOL
REMARK 924 INTRA-LIGAND FREE ENERGY PREDICTED BY IDOCK:   -1.97 KCAL/MOL
REMARK 927      BINDING AFFINITY PREDICTED BY RF-SCORE:    0.00 PKD
ROOT
HETATM    1  C   UNL     1     -10.610  15.172  65.176  1.00  0.00    -0.447 C  
HETATM    2  C   UNL     1     -11.469  14.419  66.177  1.00  0.00    -0.357 C  
ENDROOT
BRANCH   2   3
HETATM    3  C   UNL     1     -12.554  13.611  65.471  1.00  0.00    -0.541 C  
BRANCH   3   4
HETATM    4  C   UNL     1     -12.241  13.464  63.987  1.00  0.00    -0.466 C  
BRANCH   4   5
HETATM    5  C   UNL     1     -11.999  12.004  63.622  1.00  0.00    -0.612 C  
BRANCH   5   6
HETATM    6  C   UNL     1     -10.508  11.741  63.460  1.00  0.00    -0.500 C  
BRANCH   6   7
HETATM    7  C   UNL     1     -10.048  10.652  64.417  1.00  0.00    -0.418 C  
BRANCH   7   8
HETATM    8  C   UNL     1      -9.851  11.218  65.819  1.00  0.00    -0.273 C  
BRANCH   8   9
HETATM    9  C   UNL     1     -10.408  10.240  66.842  1.00  0.00    -0.298 C  
BRANCH   9  10
HETATM   10  C   UNL     1      -9.437  10.007  67.995  1.00  0.00    -0.150 C  
BRANCH  10  11
HETATM   11  C   UNL     1      -8.767   8.625  67.908  1.00  0.00    -0.137 C  
BRANCH  11  12
HETATM   12  C   UNL     1      -9.301   7.833  66.714  1.00  0.00    -0.180 C  
BRANCH  12  13
HETATM   13  N   UNL     1      -9.107   6.312  66.817  1.00  0.00    -0.130 N  
HETATM   14  C   UNL     1      -8.672   5.711  65.485  1.00  0.00    -0.150 C  
HETATM   15  C   UNL     1      -8.050   5.985  67.877  1.00  0.00    -0.106 C  
BRANCH  13  16
HETATM   16  C   UNL     1     -10.450   5.648  67.292  1.00  0.00    -0.258 C  
BRANCH  16  17
HETATM   17  C   UNL     1     -10.495   5.417  68.807  1.00  0.00    -0.149 C  
BRANCH  17  18
HETATM   18  O   UNL     1     -11.463   6.252  69.436  1.00  0.00    -0.427 OA 
BRANCH  18  19
HETATM   19  C   UNL     1     -10.930   7.014  70.451  1.00  0.00    -0.268 A  
HETATM   20  C   UNL     1      -9.944   6.398  71.219  1.00  0.00    -0.204 A  
HETATM   21  C   UNL     1      -9.376   7.072  72.303  1.00  0.00    -0.150 A  
HETATM   22  C   UNL     1      -9.781   8.370  72.615  1.00  0.00    -0.332 A  
HETATM   23  C   UNL     1     -10.740   9.003  71.829  1.00  0.00    -0.437 A  
HETATM   24  C   UNL     1     -11.305   8.331  70.746  1.00  0.00    -0.285 A  
ENDBRANCH  18  19
ENDBRANCH  17  18
ENDBRANCH  16  17
ENDBRANCH  13  16
ENDBRANCH  12  13
ENDBRANCH  11  12
ENDBRANCH  10  11
ENDBRANCH   9  10
ENDBRANCH   8   9
ENDBRANCH   7   8
ENDBRANCH   6   7
ENDBRANCH   5   6
ENDBRANCH   4   5
ENDBRANCH   3   4
ENDBRANCH   2   3
TORSDOF 15
ENDMDL
MODEL      113
REMARK 921   NORMALIZED FREE ENERGY PREDICTED BY IDOCK:   -4.31 KCAL/MOL
REMARK 922        TOTAL FREE ENERGY PREDICTED BY IDOCK:   -9.22 KCAL/MOL
REMARK 923 INTER-LIGAND FREE ENERGY PREDICTED BY IDOCK:   -7.57 KCAL/MOL
REMARK 924 INTRA-LIGAND FREE ENERGY PREDICTED BY IDOCK:   -1.65 KCAL/MOL
REMARK 927      BINDING AFFINITY PREDICTED BY RF-SCORE:    0.00 PKD
ROOT
HETATM    1  C   UNL     1     -12.937   9.989  71.723  1.00  0.00    -0.560 C  
HETATM    2  C   UNL     1     -11.894   9.760  70.644  1.00  0.00    -0.360 C  
ENDROOT
BRANCH   2   3
HETATM    3  C   UNL     1     -11.061   8.517  70.942  1.00  0.00    -0.295 C  
BRANCH   3   4
HETATM    4  C   UNL     1      -9.571   8.839  70.894  1.00  0.00    -0.275 C  
BRANCH   4   5
HETATM    5  C   UNL     1      -9.275   9.893  69.834  1.00  0.00    -0.245 C  
BRANCH   5   6
HETATM    6  C   UNL     1      -7.776  10.150  69.750  1.00  0.00    -0.176 C  
BRANCH   6   7
HETATM    7  C   UNL     1      -7.487  11.367  68.886  1.00  0.00    -0.113 C  
BRANCH   7   8
HETATM    8  C   UNL     1      -6.811  10.954  67.584  1.00  0.00    -0.081 C  
BRANCH   8   9
HETATM    9  C   UNL     1      -7.652  11.421  66.406  1.00  0.00    -0.024 C  
BRANCH   9  10
HETATM   10  C   UNL     1      -8.784  10.447  66.094  1.00  0.00    -0.163 C  
BRANCH  10  11
HETATM   11  C   UNL     1     -10.163  11.119  66.204  1.00  0.00    -0.293 C  
BRANCH  11  12
HETATM   12  C   UNL     1     -10.025  12.641  66.275  1.00  0.00    -0.258 C  
BRANCH  12  13
HETATM   13  N   UNL     1     -11.155  13.419  65.582  1.00  0.00    -0.285 N  
HETATM   14  C   UNL     1     -10.644  14.710  64.956  1.00  0.00    -0.439 C  
HETATM   15  C   UNL     1     -11.797  12.557  64.491  1.00  0.00    -0.383 C  
BRANCH  13  16
HETATM   16  C   UNL     1     -12.282  13.740  66.630  1.00  0.00    -0.409 C  
BRANCH  16  17
HETATM   17  C   UNL     1     -11.723  14.115  68.008  1.00  0.00    -0.359 C  
BRANCH  17  18
HETATM   18  O   UNL     1     -12.337  13.355  69.046  1.00  0.00    -0.216 OA 
BRANCH  18  19
HETATM   19  C   UNL     1     -12.362  14.023  70.250  1.00  0.00    -0.358 A  
HETATM   20  C   UNL     1     -13.226  13.506  71.213  1.00  0.00    -0.290 A  
HETATM   21  C   UNL     1     -13.358  14.143  72.450  1.00  0.00    -0.591 A  
HETATM   22  C   UNL     1     -12.617  15.290  72.734  1.00  0.00    -0.489 A  
HETATM   23  C   UNL     1     -11.726  15.790  71.788  1.00  0.00    -0.562 A  
HETATM   24  C   UNL     1     -11.592  15.153  70.555  1.00  0.00    -0.340 A  
ENDBRANCH  18  19
ENDBRANCH  17  18
ENDBRANCH  16  17
ENDBRANCH  13  16
ENDBRANCH  12  13
ENDBRANCH  11  12
ENDBRANCH  10  11
ENDBRANCH   9  10
ENDBRANCH   8   9
ENDBRANCH   7   8
ENDBRANCH   6   7
ENDBRANCH   5   6
ENDBRANCH   4   5
ENDBRANCH   3   4
ENDBRANCH   2   3
TORSDOF 15
ENDMDL
MODEL      114
REMARK 921   NORMALIZED FREE ENERGY PREDICTED BY IDOCK:   -4.31 KCAL/MOL
REMARK 922        TOTAL FREE ENERGY PREDICTED BY IDOCK:   -9.21 KCAL/MOL
REMARK 923 INTER-LIGAND FREE ENERGY PREDICTED BY IDOCK:   -7.01 KCAL/MOL
REMARK 924 INTRA-LIGAND FREE ENERGY PREDICTED BY IDOCK:   -2.21 KCAL/MOL
REMARK 927      BINDING AFFINITY PREDICTED BY RF-SCORE:    0.00 PKD
ROOT
HETATM    1  C   UNL     1     -12.406  14.128  64.044  1.00  0.00    -0.315 C  
HETATM    2  C   UNL     1     -12.109  12.771  64.656  1.00  0.00    -0.483 C  
ENDROOT
BRANCH   2   3
HETATM    3  C   UNL     1     -10.993  12.059  63.898  1.00  0.00    -0.465 C  
BRANCH   3   4
HETATM    4  C   UNL     1     -10.092  11.288  64.856  1.00  0.00    -0.333 C  
BRANCH   4   5
HETATM    5  C   UNL     1     -10.332  11.721  66.298  1.00  0.00    -0.259 C  
BRANCH   5   6
HETATM    6  C   UNL     1      -9.260  11.137  67.209  1.00  0.00    -0.166 C  
BRANCH   6   7
HETATM    7  C   UNL     1      -7.965  11.925  67.086  1.00  0.00    -0.172 C  
BRANCH   7   8
HETATM    8  C   UNL     1      -7.867  12.975  68.188  1.00  0.00    -0.145 C  
BRANCH   8   9
HETATM    9  C   UNL     1      -7.042  14.152  67.693  1.00  0.00    -0.199 C  
BRANCH   9  10
HETATM   10  C   UNL     1      -7.921  15.328  67.278  1.00  0.00    -0.231 C  
BRANCH  10  11
HETATM   11  C   UNL     1      -7.123  16.641  67.208  1.00  0.00    -0.208 C  
BRANCH  11  12
HETATM   12  C   UNL     1      -7.527  17.587  68.339  1.00  0.00    -0.247 C  
BRANCH  12  13
HETATM   13  N   UNL     1      -7.925  18.999  67.881  1.00  0.00    -0.271 N  
HETATM   14  C   UNL     1      -6.907  20.042  68.329  1.00  0.00    -0.302 C  
HETATM   15  C   UNL     1      -8.043  19.045  66.354  1.00  0.00    -0.297 C  
BRANCH  13  16
HETATM   16  C   UNL     1      -9.344  19.352  68.459  1.00  0.00    -0.388 C  
BRANCH  16  17
HETATM   17  C   UNL     1     -10.349  18.205  68.308  1.00  0.00    -0.363 C  
BRANCH  17  18
HETATM   18  O   UNL     1     -10.556  17.525  69.543  1.00  0.00    -0.163 OA 
BRANCH  18  19
HETATM   19  C   UNL     1     -10.985  16.228  69.372  1.00  0.00    -0.337 A  
HETATM   20  C   UNL     1     -11.310  15.864  68.067  1.00  0.00    -0.284 A  
HETATM   21  C   UNL     1     -11.801  14.583  67.798  1.00  0.00    -0.390 A  
HETATM   22  C   UNL     1     -11.956  13.658  68.831  1.00  0.00    -0.392 A  
HETATM   23  C   UNL     1     -11.599  14.006  70.131  1.00  0.00    -0.273 A  
HETATM   24  C   UNL     1     -11.107  15.283  70.398  1.00  0.00    -0.324 A  
ENDBRANCH  18  19
ENDBRANCH  17  18
ENDBRANCH  16  17
ENDBRANCH  13  16
ENDBRANCH  12  13
ENDBRANCH  11  12
ENDBRANCH  10  11
ENDBRANCH   9  10
ENDBRANCH   8   9
ENDBRANCH   7   8
ENDBRANCH   6   7
ENDBRANCH   5   6
ENDBRANCH   4   5
ENDBRANCH   3   4
ENDBRANCH   2   3
TORSDOF 15
ENDMDL
MODEL      115
REMARK 921   NORMALIZED FREE ENERGY PREDICTED BY IDOCK:   -4.31 KCAL/MOL
REMARK 922        TOTAL FREE ENERGY PREDICTED BY IDOCK:   -9.21 KCAL/MOL
REMARK 923 INTER-LIGAND FREE ENERGY PREDICTED BY IDOCK:   -8.02 KCAL/MOL
REMARK 924 INTRA-LIGAND FREE ENERGY PREDICTED BY IDOCK:   -1.19 KCAL/MOL
REMARK 927      BINDING AFFINITY PREDICTED BY RF-SCORE:    0.00 PKD
ROOT
HETATM    1  C   UNL     1      -6.222  20.069  69.783  1.00  0.00    -0.392 C  
HETATM    2  C   UNL     1      -7.017  19.374  68.692  1.00  0.00    -0.351 C  
ENDROOT
BRANCH   2   3
HETATM    3  C   UNL     1      -7.069  20.223  67.425  1.00  0.00    -0.322 C  
BRANCH   3   4
HETATM    4  C   UNL     1      -8.302  19.884  66.596  1.00  0.00    -0.369 C  
BRANCH   4   5
HETATM    5  C   UNL     1      -9.556  20.500  67.206  1.00  0.00    -0.580 C  
BRANCH   5   6
HETATM    6  C   UNL     1     -10.724  19.528  67.103  1.00  0.00    -0.599 C  
BRANCH   6   7
HETATM    7  C   UNL     1     -10.225  18.113  66.859  1.00  0.00    -0.380 C  
BRANCH   7   8
HETATM    8  C   UNL     1     -10.350  17.273  68.125  1.00  0.00    -0.357 C  
BRANCH   8   9
HETATM    9  C   UNL     1     -10.875  15.891  67.767  1.00  0.00    -0.324 C  
BRANCH   9  10
HETATM   10  C   UNL     1     -10.555  15.518  66.323  1.00  0.00    -0.310 C  
BRANCH  10  11
HETATM   11  C   UNL     1     -11.580  14.525  65.748  1.00  0.00    -0.347 C  
BRANCH  11  12
HETATM   12  C   UNL     1     -11.100  13.957  64.412  1.00  0.00    -0.319 C  
BRANCH  12  13
HETATM   13  N   UNL     1     -11.308  12.443  64.249  1.00  0.00    -0.336 N  
HETATM   14  C   UNL     1     -12.640  12.130  63.577  1.00  0.00    -0.506 C  
HETATM   15  C   UNL     1     -10.176  11.842  63.411  1.00  0.00    -0.449 C  
BRANCH  13  16
HETATM   16  C   UNL     1     -11.245  11.756  65.661  1.00  0.00    -0.267 C  
BRANCH  16  17
HETATM   17  C   UNL     1      -9.921  11.022  65.906  1.00  0.00    -0.240 C  
BRANCH  17  18
HETATM   18  O   UNL     1      -9.437  11.242  67.228  1.00  0.00    -0.171 OA 
BRANCH  18  19
HETATM   19  C   UNL     1      -9.831  10.258  68.108  1.00  0.00    -0.148 A  
HETATM   20  C   UNL     1     -10.081  10.677  69.414  1.00  0.00    -0.199 A  
HETATM   21  C   UNL     1     -10.439   9.746  70.392  1.00  0.00    -0.358 A  
HETATM   22  C   UNL     1     -10.561   8.395  70.066  1.00  0.00    -0.235 A  
HETATM   23  C   UNL     1     -10.347   7.977  68.755  1.00  0.00    -0.223 A  
HETATM   24  C   UNL     1      -9.992   8.907  67.779  1.00  0.00    -0.241 A  
ENDBRANCH  18  19
ENDBRANCH  17  18
ENDBRANCH  16  17
ENDBRANCH  13  16
ENDBRANCH  12  13
ENDBRANCH  11  12
ENDBRANCH  10  11
ENDBRANCH   9  10
ENDBRANCH   8   9
ENDBRANCH   7   8
ENDBRANCH   6   7
ENDBRANCH   5   6
ENDBRANCH   4   5
ENDBRANCH   3   4
ENDBRANCH   2   3
TORSDOF 15
ENDMDL
MODEL      116
REMARK 921   NORMALIZED FREE ENERGY PREDICTED BY IDOCK:   -4.29 KCAL/MOL
REMARK 922        TOTAL FREE ENERGY PREDICTED BY IDOCK:   -9.17 KCAL/MOL
REMARK 923 INTER-LIGAND FREE ENERGY PREDICTED BY IDOCK:   -7.26 KCAL/MOL
REMARK 924 INTRA-LIGAND FREE ENERGY PREDICTED BY IDOCK:   -1.91 KCAL/MOL
REMARK 927      BINDING AFFINITY PREDICTED BY RF-SCORE:    0.00 PKD
ROOT
HETATM    1  C   UNL     1      -6.497   9.245  69.523  1.00  0.00    -0.043 C  
HETATM    2  C   UNL     1      -6.803   9.363  71.006  1.00  0.00    -0.072 C  
ENDROOT
BRANCH   2   3
HETATM    3  C   UNL     1      -7.438   8.083  71.539  1.00  0.00    -0.076 C  
BRANCH   3   4
HETATM    4  C   UNL     1      -8.427   8.393  72.656  1.00  0.00    -0.223 C  
BRANCH   4   5
HETATM    5  C   UNL     1      -9.864   8.249  72.169  1.00  0.00    -0.342 C  
BRANCH   5   6
HETATM    6  C   UNL     1      -9.885   7.843  70.701  1.00  0.00    -0.187 C  
BRANCH   6   7
HETATM    7  C   UNL     1     -10.995   8.570  69.959  1.00  0.00    -0.197 C  
BRANCH   7   8
HETATM    8  C   UNL     1     -11.181   9.977  70.514  1.00  0.00    -0.408 C  
BRANCH   8   9
HETATM    9  C   UNL     1     -10.368  10.960  69.687  1.00  0.00    -0.080 C  
BRANCH   9  10
HETATM   10  C   UNL     1     -10.140  10.455  68.266  1.00  0.00    -0.174 C  
BRANCH  10  11
HETATM   11  C   UNL     1     -11.158  11.048  67.277  1.00  0.00    -0.359 C  
BRANCH  11  12
HETATM   12  C   UNL     1     -11.554  12.468  67.686  1.00  0.00    -0.355 C  
BRANCH  12  13
HETATM   13  N   UNL     1     -11.248  13.545  66.633  1.00  0.00    -0.306 N  
HETATM   14  C   UNL     1     -10.378  12.997  65.508  1.00  0.00    -0.294 C  
HETATM   15  C   UNL     1     -12.551  14.084  66.035  1.00  0.00    -0.414 C  
BRANCH  13  16
HETATM   16  C   UNL     1     -10.528  14.758  67.327  1.00  0.00    -0.264 C  
BRANCH  16  17
HETATM   17  C   UNL     1     -10.492  14.634  68.854  1.00  0.00    -0.248 C  
BRANCH  17  18
HETATM   18  O   UNL     1     -11.184  15.709  69.483  1.00  0.00    -0.266 OA 
BRANCH  18  19
HETATM   19  C   UNL     1     -11.743  15.349  70.689  1.00  0.00    -0.339 A  
HETATM   20  C   UNL     1     -12.527  14.197  70.675  1.00  0.00    -0.432 A  
HETATM   21  C   UNL     1     -13.176  13.777  71.839  1.00  0.00    -0.486 A  
HETATM   22  C   UNL     1     -13.033  14.499  73.024  1.00  0.00    -0.596 A  
HETATM   23  C   UNL     1     -12.222  15.630  73.052  1.00  0.00    -0.574 A  
HETATM   24  C   UNL     1     -11.572  16.047  71.891  1.00  0.00    -0.524 A  
ENDBRANCH  18  19
ENDBRANCH  17  18
ENDBRANCH  16  17
ENDBRANCH  13  16
ENDBRANCH  12  13
ENDBRANCH  11  12
ENDBRANCH  10  11
ENDBRANCH   9  10
ENDBRANCH   8   9
ENDBRANCH   7   8
ENDBRANCH   6   7
ENDBRANCH   5   6
ENDBRANCH   4   5
ENDBRANCH   3   4
ENDBRANCH   2   3
TORSDOF 15
ENDMDL
MODEL      117
REMARK 921   NORMALIZED FREE ENERGY PREDICTED BY IDOCK:   -4.28 KCAL/MOL
REMARK 922        TOTAL FREE ENERGY PREDICTED BY IDOCK:   -9.16 KCAL/MOL
REMARK 923 INTER-LIGAND FREE ENERGY PREDICTED BY IDOCK:   -7.73 KCAL/MOL
REMARK 924 INTRA-LIGAND FREE ENERGY PREDICTED BY IDOCK:   -1.43 KCAL/MOL
REMARK 927      BINDING AFFINITY PREDICTED BY RF-SCORE:    0.00 PKD
ROOT
HETATM    1  C   UNL     1     -10.093   8.327  66.725  1.00  0.00    -0.373 C  
HETATM    2  C   UNL     1      -8.935   7.934  65.826  1.00  0.00    -0.125 C  
ENDROOT
BRANCH   2   3
HETATM    3  C   UNL     1      -8.606   9.047  64.836  1.00  0.00    -0.206 C  
BRANCH   3   4
HETATM    4  C   UNL     1      -9.646  10.159  64.906  1.00  0.00    -0.369 C  
BRANCH   4   5
HETATM    5  C   UNL     1      -9.940  10.719  63.519  1.00  0.00    -0.403 C  
BRANCH   5   6
HETATM    6  C   UNL     1     -11.067  11.741  63.591  1.00  0.00    -0.518 C  
BRANCH   6   7
HETATM    7  C   UNL     1     -11.355  12.123  65.034  1.00  0.00    -0.379 C  
BRANCH   7   8
HETATM    8  C   UNL     1     -12.460  13.171  65.103  1.00  0.00    -0.539 C  
BRANCH   8   9
HETATM    9  C   UNL     1     -12.070  14.374  64.258  1.00  0.00    -0.461 C  
BRANCH   9  10
HETATM   10  C   UNL     1     -10.915  15.154  64.878  1.00  0.00    -0.434 C  
BRANCH  10  11
HETATM   11  C   UNL     1     -11.151  15.436  66.372  1.00  0.00    -0.230 C  
BRANCH  11  12
HETATM   12  C   UNL     1      -9.826  15.658  67.102  1.00  0.00    -0.229 C  
BRANCH  12  13
HETATM   13  N   UNL     1      -9.518  14.625  68.198  1.00  0.00    -0.206 N  
HETATM   14  C   UNL     1      -8.227  14.959  68.935  1.00  0.00    -0.171 C  
HETATM   15  C   UNL     1     -10.668  14.568  69.209  1.00  0.00    -0.226 C  
BRANCH  13  16
HETATM   16  C   UNL     1      -9.412  13.197  67.548  1.00  0.00    -0.212 C  
BRANCH  16  17
HETATM   17  C   UNL     1      -9.551  12.066  68.574  1.00  0.00    -0.143 C  
BRANCH  17  18
HETATM   18  O   UNL     1     -10.790  11.377  68.428  1.00  0.00    -0.183 OA 
BRANCH  18  19
HETATM   19  C   UNL     1     -11.153  10.688  69.564  1.00  0.00    -0.274 A  
HETATM   20  C   UNL     1     -12.383  11.036  70.118  1.00  0.00    -0.389 A  
HETATM   21  C   UNL     1     -12.818  10.428  71.298  1.00  0.00    -0.533 A  
HETATM   22  C   UNL     1     -12.030   9.460  71.922  1.00  0.00    -0.416 A  
HETATM   23  C   UNL     1     -10.817   9.083  71.353  1.00  0.00    -0.400 A  
HETATM   24  C   UNL     1     -10.385   9.689  70.174  1.00  0.00    -0.315 A  
ENDBRANCH  18  19
ENDBRANCH  17  18
ENDBRANCH  16  17
ENDBRANCH  13  16
ENDBRANCH  12  13
ENDBRANCH  11  12
ENDBRANCH  10  11
ENDBRANCH   9  10
ENDBRANCH   8   9
ENDBRANCH   7   8
ENDBRANCH   6   7
ENDBRANCH   5   6
ENDBRANCH   4   5
ENDBRANCH   3   4
ENDBRANCH   2   3
TORSDOF 15
ENDMDL
MODEL      118
REMARK 921   NORMALIZED FREE ENERGY PREDICTED BY IDOCK:   -4.28 KCAL/MOL
REMARK 922        TOTAL FREE ENERGY PREDICTED BY IDOCK:   -9.15 KCAL/MOL
REMARK 923 INTER-LIGAND FREE ENERGY PREDICTED BY IDOCK:   -7.69 KCAL/MOL
REMARK 924 INTRA-LIGAND FREE ENERGY PREDICTED BY IDOCK:   -1.46 KCAL/MOL
REMARK 927      BINDING AFFINITY PREDICTED BY RF-SCORE:    0.00 PKD
ROOT
HETATM    1  C   UNL     1     -10.643   4.947  66.088  1.00  0.00    -0.322 C  
HETATM    2  C   UNL     1     -10.532   6.185  66.961  1.00  0.00    -0.341 C  
ENDROOT
BRANCH   2   3
HETATM    3  C   UNL     1      -9.207   6.209  67.715  1.00  0.00    -0.111 C  
BRANCH   3   4
HETATM    4  C   UNL     1      -9.440   6.202  69.221  1.00  0.00    -0.147 C  
BRANCH   4   5
HETATM    5  C   UNL     1     -10.803   6.791  69.565  1.00  0.00    -0.315 C  
BRANCH   5   6
HETATM    6  C   UNL     1     -10.640   8.177  70.175  1.00  0.00    -0.237 C  
BRANCH   6   7
HETATM    7  C   UNL     1     -10.761   9.251  69.105  1.00  0.00    -0.202 C  
BRANCH   7   8
HETATM    8  C   UNL     1      -9.668  10.301  69.272  1.00  0.00    -0.240 C  
BRANCH   8   9
HETATM    9  C   UNL     1      -9.209  10.776  67.902  1.00  0.00    -0.151 C  
BRANCH   9  10
HETATM   10  C   UNL     1      -9.744   9.888  66.783  1.00  0.00    -0.244 C  
BRANCH  10  11
HETATM   11  C   UNL     1      -9.857  10.651  65.452  1.00  0.00    -0.325 C  
BRANCH  11  12
HETATM   12  C   UNL     1      -9.745  12.160  65.676  1.00  0.00    -0.207 C  
BRANCH  12  13
HETATM   13  N   UNL     1     -10.819  12.994  64.960  1.00  0.00    -0.296 N  
HETATM   14  C   UNL     1     -11.265  12.335  63.660  1.00  0.00    -0.466 C  
HETATM   15  C   UNL     1     -12.039  13.177  65.869  1.00  0.00    -0.444 C  
BRANCH  13  16
HETATM   16  C   UNL     1     -10.250  14.430  64.666  1.00  0.00    -0.064 C  
BRANCH  16  17
HETATM   17  C   UNL     1     -10.768  15.487  65.649  1.00  0.00    -0.366 C  
BRANCH  17  18
HETATM   18  O   UNL     1     -10.468  16.807  65.204  1.00  0.00    -0.658 OA 
BRANCH  18  19
HETATM   19  C   UNL     1     -10.226  17.676  66.244  1.00  0.00    -0.362 A  
HETATM   20  C   UNL     1      -9.979  17.088  67.483  1.00  0.00    -0.274 A  
HETATM   21  C   UNL     1      -9.770  17.887  68.610  1.00  0.00    -0.355 A  
HETATM   22  C   UNL     1      -9.793  19.278  68.499  1.00  0.00    -0.498 A  
HETATM   23  C   UNL     1     -10.004  19.871  67.257  1.00  0.00    -0.556 A  
HETATM   24  C   UNL     1     -10.210  19.072  66.133  1.00  0.00    -0.508 A  
ENDBRANCH  18  19
ENDBRANCH  17  18
ENDBRANCH  16  17
ENDBRANCH  13  16
ENDBRANCH  12  13
ENDBRANCH  11  12
ENDBRANCH  10  11
ENDBRANCH   9  10
ENDBRANCH   8   9
ENDBRANCH   7   8
ENDBRANCH   6   7
ENDBRANCH   5   6
ENDBRANCH   4   5
ENDBRANCH   3   4
ENDBRANCH   2   3
TORSDOF 15
ENDMDL
MODEL      119
REMARK 921   NORMALIZED FREE ENERGY PREDICTED BY IDOCK:   -4.28 KCAL/MOL
REMARK 922        TOTAL FREE ENERGY PREDICTED BY IDOCK:   -9.15 KCAL/MOL
REMARK 923 INTER-LIGAND FREE ENERGY PREDICTED BY IDOCK:   -8.06 KCAL/MOL
REMARK 924 INTRA-LIGAND FREE ENERGY PREDICTED BY IDOCK:   -1.09 KCAL/MOL
REMARK 927      BINDING AFFINITY PREDICTED BY RF-SCORE:    0.00 PKD
ROOT
HETATM    1  C   UNL     1      -9.652  10.459  62.823  1.00  0.00    -0.311 C  
HETATM    2  C   UNL     1      -8.556  10.152  63.828  1.00  0.00    -0.203 C  
ENDROOT
BRANCH   2   3
HETATM    3  C   UNL     1      -7.922   8.793  63.550  1.00  0.00    -0.158 C  
BRANCH   3   4
HETATM    4  C   UNL     1      -8.030   7.885  64.770  1.00  0.00    -0.140 C  
BRANCH   4   5
HETATM    5  C   UNL     1      -8.458   8.674  66.001  1.00  0.00    -0.151 C  
BRANCH   5   6
HETATM    6  C   UNL     1      -9.312   7.804  66.915  1.00  0.00    -0.212 C  
BRANCH   6   7
HETATM    7  C   UNL     1      -9.596   6.460  66.264  1.00  0.00    -0.106 C  
BRANCH   7   8
HETATM    8  C   UNL     1     -10.617   5.673  67.079  1.00  0.00    -0.358 C  
BRANCH   8   9
HETATM    9  C   UNL     1      -9.905   4.919  68.191  1.00  0.00    -0.198 C  
BRANCH   9  10
HETATM   10  C   UNL     1     -10.402   5.336  69.571  1.00  0.00    -0.333 C  
BRANCH  10  11
HETATM   11  C   UNL     1     -11.501   6.410  69.482  1.00  0.00    -0.412 C  
BRANCH  11  12
HETATM   12  C   UNL     1     -11.952   6.846  70.877  1.00  0.00    -0.381 C  
BRANCH  12  13
HETATM   13  N   UNL     1     -11.526   8.269  71.271  1.00  0.00    -0.267 N  
HETATM   14  C   UNL     1     -10.676   8.268  72.537  1.00  0.00    -0.341 C  
HETATM   15  C   UNL     1     -10.724   8.913  70.136  1.00  0.00    -0.225 C  
BRANCH  13  16
HETATM   16  C   UNL     1     -12.807   9.154  71.485  1.00  0.00    -0.347 C  
BRANCH  16  17
HETATM   17  C   UNL     1     -12.564  10.635  71.173  1.00  0.00    -0.423 C  
BRANCH  17  18
HETATM   18  O   UNL     1     -13.237  11.482  72.101  1.00  0.00    -0.505 OA 
BRANCH  18  19
HETATM   19  C   UNL     1     -13.220  12.806  71.722  1.00  0.00    -0.374 A  
HETATM   20  C   UNL     1     -12.323  13.136  70.708  1.00  0.00    -0.404 A  
HETATM   21  C   UNL     1     -12.198  14.463  70.287  1.00  0.00    -0.397 A  
HETATM   22  C   UNL     1     -12.980  15.461  70.868  1.00  0.00    -0.539 A  
HETATM   23  C   UNL     1     -13.903  15.131  71.856  1.00  0.00    -0.607 A  
HETATM   24  C   UNL     1     -14.029  13.807  72.274  1.00  0.00    -0.672 A  
ENDBRANCH  18  19
ENDBRANCH  17  18
ENDBRANCH  16  17
ENDBRANCH  13  16
ENDBRANCH  12  13
ENDBRANCH  11  12
ENDBRANCH  10  11
ENDBRANCH   9  10
ENDBRANCH   8   9
ENDBRANCH   7   8
ENDBRANCH   6   7
ENDBRANCH   5   6
ENDBRANCH   4   5
ENDBRANCH   3   4
ENDBRANCH   2   3
TORSDOF 15
ENDMDL
MODEL      120
REMARK 921   NORMALIZED FREE ENERGY PREDICTED BY IDOCK:   -4.27 KCAL/MOL
REMARK 922        TOTAL FREE ENERGY PREDICTED BY IDOCK:   -9.14 KCAL/MOL
REMARK 923 INTER-LIGAND FREE ENERGY PREDICTED BY IDOCK:   -7.78 KCAL/MOL
REMARK 924 INTRA-LIGAND FREE ENERGY PREDICTED BY IDOCK:   -1.36 KCAL/MOL
REMARK 927      BINDING AFFINITY PREDICTED BY RF-SCORE:    0.00 PKD
ROOT
HETATM    1  C   UNL     1     -13.860   7.438  71.579  1.00  0.00    -0.483 C  
HETATM    2  C   UNL     1     -14.390   8.811  71.952  1.00  0.00    -0.441 C  
ENDROOT
BRANCH   2   3
HETATM    3  C   UNL     1     -13.250   9.805  72.148  1.00  0.00    -0.530 C  
BRANCH   3   4
HETATM    4  C   UNL     1     -11.933   9.226  71.644  1.00  0.00    -0.448 C  
BRANCH   4   5
HETATM    5  C   UNL     1     -11.506   9.894  70.342  1.00  0.00    -0.372 C  
BRANCH   5   6
HETATM    6  C   UNL     1     -11.991  11.337  70.306  1.00  0.00    -0.466 C  
BRANCH   6   7
HETATM    7  C   UNL     1     -11.488  12.041  69.056  1.00  0.00    -0.357 C  
BRANCH   7   8
HETATM    8  C   UNL     1     -10.402  11.216  68.374  1.00  0.00    -0.201 C  
BRANCH   8   9
HETATM    9  C   UNL     1      -9.663  12.084  67.368  1.00  0.00    -0.185 C  
BRANCH   9  10
HETATM   10  C   UNL     1      -8.153  12.041  67.580  1.00  0.00    -0.159 C  
BRANCH  10  11
HETATM   11  C   UNL     1      -7.535  13.449  67.577  1.00  0.00    -0.170 C  
BRANCH  11  12
HETATM   12  C   UNL     1      -7.990  14.248  68.799  1.00  0.00    -0.119 C  
BRANCH  12  13
HETATM   13  N   UNL     1      -8.665  15.590  68.471  1.00  0.00    -0.176 N  
HETATM   14  C   UNL     1     -10.030  15.707  69.139  1.00  0.00    -0.244 C  
HETATM   15  C   UNL     1      -7.783  16.752  68.937  1.00  0.00    -0.242 C  
BRANCH  13  16
HETATM   16  C   UNL     1      -8.815  15.727  66.913  1.00  0.00    -0.245 C  
BRANCH  16  17
HETATM   17  C   UNL     1     -10.223  16.164  66.488  1.00  0.00    -0.297 C  
BRANCH  17  18
HETATM   18  O   UNL     1     -10.189  17.361  65.717  1.00  0.00    -0.555 OA 
BRANCH  18  19
HETATM   19  C   UNL     1      -9.884  18.472  66.473  1.00  0.00    -0.363 A  
HETATM   20  C   UNL     1      -8.690  19.115  66.153  1.00  0.00    -0.230 A  
HETATM   21  C   UNL     1      -8.271  20.223  66.894  1.00  0.00    -0.345 A  
HETATM   22  C   UNL     1      -9.050  20.700  67.948  1.00  0.00    -0.095 A  
HETATM   23  C   UNL     1     -10.261  20.083  68.249  1.00  0.00    -0.527 A  
HETATM   24  C   UNL     1     -10.680  18.979  67.507  1.00  0.00    -0.532 A  
ENDBRANCH  18  19
ENDBRANCH  17  18
ENDBRANCH  16  17
ENDBRANCH  13  16
ENDBRANCH  12  13
ENDBRANCH  11  12
ENDBRANCH  10  11
ENDBRANCH   9  10
ENDBRANCH   8   9
ENDBRANCH   7   8
ENDBRANCH   6   7
ENDBRANCH   5   6
ENDBRANCH   4   5
ENDBRANCH   3   4
ENDBRANCH   2   3
TORSDOF 15
ENDMDL
MODEL      121
REMARK 921   NORMALIZED FREE ENERGY PREDICTED BY IDOCK:   -4.27 KCAL/MOL
REMARK 922        TOTAL FREE ENERGY PREDICTED BY IDOCK:   -9.14 KCAL/MOL
REMARK 923 INTER-LIGAND FREE ENERGY PREDICTED BY IDOCK:   -7.12 KCAL/MOL
REMARK 924 INTRA-LIGAND FREE ENERGY PREDICTED BY IDOCK:   -2.02 KCAL/MOL
REMARK 927      BINDING AFFINITY PREDICTED BY RF-SCORE:    0.00 PKD
ROOT
HETATM    1  C   UNL     1     -11.896  14.240  68.814  1.00  0.00    -0.377 C  
HETATM    2  C   UNL     1     -12.007  15.670  69.311  1.00  0.00    -0.338 C  
ENDROOT
BRANCH   2   3
HETATM    3  C   UNL     1     -12.433  15.711  70.775  1.00  0.00    -0.484 C  
BRANCH   3   4
HETATM    4  C   UNL     1     -12.309  14.332  71.414  1.00  0.00    -0.431 C  
BRANCH   4   5
HETATM    5  C   UNL     1     -13.405  14.111  72.450  1.00  0.00    -0.591 C  
BRANCH   5   6
HETATM    6  C   UNL     1     -13.734  12.628  72.562  1.00  0.00    -0.230 C  
BRANCH   6   7
HETATM    7  C   UNL     1     -13.015  11.836  71.481  1.00  0.00    -0.446 C  
BRANCH   7   8
HETATM    8  C   UNL     1     -12.779  10.399  71.935  1.00  0.00    -0.459 C  
BRANCH   8   9
HETATM    9  C   UNL     1     -11.538   9.849  71.250  1.00  0.00    -0.456 C  
BRANCH   9  10
HETATM   10  C   UNL     1     -11.479  10.243  69.778  1.00  0.00    -0.320 C  
BRANCH  10  11
HETATM   11  C   UNL     1     -10.050  10.608  69.341  1.00  0.00    -0.199 C  
BRANCH  11  12
HETATM   12  C   UNL     1     -10.067  11.453  68.066  1.00  0.00    -0.180 C  
BRANCH  12  13
HETATM   13  N   UNL     1      -8.969  11.099  67.050  1.00  0.00    -0.152 N  
HETATM   14  C   UNL     1      -8.400   9.707  67.302  1.00  0.00    -0.114 C  
HETATM   15  C   UNL     1      -9.530  11.156  65.625  1.00  0.00    -0.224 C  
BRANCH  13  16
HETATM   16  C   UNL     1      -7.822  12.171  67.131  1.00  0.00    -0.160 C  
BRANCH  16  17
HETATM   17  C   UNL     1      -8.302  13.513  67.697  1.00  0.00    -0.179 C  
BRANCH  17  18
HETATM   18  O   UNL     1      -7.821  14.608  66.923  1.00  0.00    -0.103 OA 
BRANCH  18  19
HETATM   19  C   UNL     1      -8.607  15.732  67.047  1.00  0.00    -0.218 A  
HETATM   20  C   UNL     1      -9.669  15.833  66.150  1.00  0.00    -0.351 A  
HETATM   21  C   UNL     1     -10.494  16.960  66.165  1.00  0.00    -0.276 A  
HETATM   22  C   UNL     1     -10.270  17.984  67.085  1.00  0.00    -0.366 A  
HETATM   23  C   UNL     1      -9.233  17.872  68.007  1.00  0.00    -0.267 A  
HETATM   24  C   UNL     1      -8.411  16.746  67.993  1.00  0.00    -0.200 A  
ENDBRANCH  18  19
ENDBRANCH  17  18
ENDBRANCH  16  17
ENDBRANCH  13  16
ENDBRANCH  12  13
ENDBRANCH  11  12
ENDBRANCH  10  11
ENDBRANCH   9  10
ENDBRANCH   8   9
ENDBRANCH   7   8
ENDBRANCH   6   7
ENDBRANCH   5   6
ENDBRANCH   4   5
ENDBRANCH   3   4
ENDBRANCH   2   3
TORSDOF 15
ENDMDL
MODEL      122
REMARK 921   NORMALIZED FREE ENERGY PREDICTED BY IDOCK:   -4.27 KCAL/MOL
REMARK 922        TOTAL FREE ENERGY PREDICTED BY IDOCK:   -9.13 KCAL/MOL
REMARK 923 INTER-LIGAND FREE ENERGY PREDICTED BY IDOCK:   -7.44 KCAL/MOL
REMARK 924 INTRA-LIGAND FREE ENERGY PREDICTED BY IDOCK:   -1.69 KCAL/MOL
REMARK 927      BINDING AFFINITY PREDICTED BY RF-SCORE:    0.00 PKD
ROOT
HETATM    1  C   UNL     1      -7.817  10.968  68.606  1.00  0.00    -0.136 C  
HETATM    2  C   UNL     1      -8.891   9.914  68.408  1.00  0.00    -0.120 C  
ENDROOT
BRANCH   2   3
HETATM    3  C   UNL     1      -9.643  10.136  67.100  1.00  0.00    -0.202 C  
BRANCH   3   4
HETATM    4  C   UNL     1      -8.998   9.350  65.964  1.00  0.00    -0.205 C  
BRANCH   4   5
HETATM    5  C   UNL     1      -8.023  10.222  65.182  1.00  0.00    -0.147 C  
BRANCH   5   6
HETATM    6  C   UNL     1      -8.306  10.123  63.689  1.00  0.00    -0.170 C  
BRANCH   6   7
HETATM    7  C   UNL     1      -9.783  10.353  63.407  1.00  0.00    -0.318 C  
BRANCH   7   8
HETATM    8  C   UNL     1     -10.068  11.837  63.208  1.00  0.00    -0.448 C  
BRANCH   8   9
HETATM    9  C   UNL     1     -11.287  12.233  64.026  1.00  0.00    -0.469 C  
BRANCH   9  10
HETATM   10  C   UNL     1     -10.918  13.141  65.194  1.00  0.00    -0.317 C  
BRANCH  10  11
HETATM   11  C   UNL     1     -11.978  13.097  66.309  1.00  0.00    -0.473 C  
BRANCH  11  12
HETATM   12  C   UNL     1     -11.930  14.368  67.158  1.00  0.00    -0.389 C  
BRANCH  12  13
HETATM   13  N   UNL     1     -11.371  14.169  68.576  1.00  0.00    -0.266 N  
HETATM   14  C   UNL     1     -11.976  15.163  69.561  1.00  0.00    -0.321 C  
HETATM   15  C   UNL     1     -11.663  12.746  69.064  1.00  0.00    -0.323 C  
BRANCH  13  16
HETATM   16  C   UNL     1      -9.807  14.328  68.545  1.00  0.00    -0.231 C  
BRANCH  16  17
HETATM   17  C   UNL     1      -9.340  15.702  69.040  1.00  0.00    -0.243 C  
BRANCH  17  18
HETATM   18  O   UNL     1      -8.585  16.388  68.046  1.00  0.00    -0.180 OA 
BRANCH  18  19
HETATM   19  C   UNL     1      -9.052  17.661  67.806  1.00  0.00    -0.247 A  
HETATM   20  C   UNL     1      -8.095  18.674  67.832  1.00  0.00    -0.283 A  
HETATM   21  C   UNL     1      -8.479  20.005  67.649  1.00  0.00    -0.378 A  
HETATM   22  C   UNL     1      -9.817  20.327  67.425  1.00  0.00    -0.586 A  
HETATM   23  C   UNL     1     -10.772  19.315  67.363  1.00  0.00    -0.594 A  
HETATM   24  C   UNL     1     -10.389  17.987  67.544  1.00  0.00    -0.394 A  
ENDBRANCH  18  19
ENDBRANCH  17  18
ENDBRANCH  16  17
ENDBRANCH  13  16
ENDBRANCH  12  13
ENDBRANCH  11  12
ENDBRANCH  10  11
ENDBRANCH   9  10
ENDBRANCH   8   9
ENDBRANCH   7   8
ENDBRANCH   6   7
ENDBRANCH   5   6
ENDBRANCH   4   5
ENDBRANCH   3   4
ENDBRANCH   2   3
TORSDOF 15
ENDMDL
MODEL      123
REMARK 921   NORMALIZED FREE ENERGY PREDICTED BY IDOCK:   -4.26 KCAL/MOL
REMARK 922        TOTAL FREE ENERGY PREDICTED BY IDOCK:   -9.11 KCAL/MOL
REMARK 923 INTER-LIGAND FREE ENERGY PREDICTED BY IDOCK:   -7.92 KCAL/MOL
REMARK 924 INTRA-LIGAND FREE ENERGY PREDICTED BY IDOCK:   -1.19 KCAL/MOL
REMARK 927      BINDING AFFINITY PREDICTED BY RF-SCORE:    0.00 PKD
ROOT
HETATM    1  C   UNL     1      -6.205  19.648  69.710  1.00  0.00    -0.364 C  
HETATM    2  C   UNL     1      -7.382  19.317  68.811  1.00  0.00    -0.381 C  
ENDROOT
BRANCH   2   3
HETATM    3  C   UNL     1      -7.429  20.246  67.603  1.00  0.00    -0.344 C  
BRANCH   3   4
HETATM    4  C   UNL     1      -8.709  20.032  66.803  1.00  0.00    -0.408 C  
BRANCH   4   5
HETATM    5  C   UNL     1      -9.915  19.904  67.727  1.00  0.00    -0.552 C  
BRANCH   5   6
HETATM    6  C   UNL     1     -10.740  18.680  67.352  1.00  0.00    -0.456 C  
BRANCH   6   7
HETATM    7  C   UNL     1      -9.993  17.816  66.349  1.00  0.00    -0.345 C  
BRANCH   7   8
HETATM    8  C   UNL     1      -9.527  16.518  66.999  1.00  0.00    -0.249 C  
BRANCH   8   9
HETATM    9  C   UNL     1     -10.730  15.766  67.548  1.00  0.00    -0.317 C  
BRANCH   9  10
HETATM   10  C   UNL     1     -11.421  14.935  66.471  1.00  0.00    -0.286 C  
BRANCH  10  11
HETATM   11  C   UNL     1     -12.086  13.678  67.058  1.00  0.00    -0.423 C  
BRANCH  11  12
HETATM   12  C   UNL     1     -11.413  12.409  66.535  1.00  0.00    -0.371 C  
BRANCH  12  13
HETATM   13  N   UNL     1     -10.603  11.634  67.588  1.00  0.00    -0.196 N  
HETATM   14  C   UNL     1     -10.556  10.143  67.272  1.00  0.00    -0.261 C  
HETATM   15  C   UNL     1      -9.171  12.173  67.654  1.00  0.00    -0.181 C  
BRANCH  13  16
HETATM   16  C   UNL     1     -11.243  11.862  69.005  1.00  0.00    -0.258 C  
BRANCH  16  17
HETATM   17  C   UNL     1     -11.649  10.553  69.691  1.00  0.00    -0.271 C  
BRANCH  17  18
HETATM   18  O   UNL     1     -10.672  10.135  70.641  1.00  0.00    -0.297 OA 
BRANCH  18  19
HETATM   19  C   UNL     1     -10.897   8.859  71.109  1.00  0.00    -0.281 A  
HETATM   20  C   UNL     1     -11.207   7.904  70.143  1.00  0.00    -0.157 A  
HETATM   21  C   UNL     1     -11.499   6.591  70.524  1.00  0.00    -0.448 A  
HETATM   22  C   UNL     1     -11.468   6.226  71.870  1.00  0.00    -0.360 A  
HETATM   23  C   UNL     1     -11.124   7.168  72.835  1.00  0.00    -0.338 A  
HETATM   24  C   UNL     1     -10.831   8.477  72.455  1.00  0.00    -0.378 A  
ENDBRANCH  18  19
ENDBRANCH  17  18
ENDBRANCH  16  17
ENDBRANCH  13  16
ENDBRANCH  12  13
ENDBRANCH  11  12
ENDBRANCH  10  11
ENDBRANCH   9  10
ENDBRANCH   8   9
ENDBRANCH   7   8
ENDBRANCH   6   7
ENDBRANCH   5   6
ENDBRANCH   4   5
ENDBRANCH   3   4
ENDBRANCH   2   3
TORSDOF 15
ENDMDL
MODEL      124
REMARK 921   NORMALIZED FREE ENERGY PREDICTED BY IDOCK:   -4.25 KCAL/MOL
REMARK 922        TOTAL FREE ENERGY PREDICTED BY IDOCK:   -9.11 KCAL/MOL
REMARK 923 INTER-LIGAND FREE ENERGY PREDICTED BY IDOCK:   -6.89 KCAL/MOL
REMARK 924 INTRA-LIGAND FREE ENERGY PREDICTED BY IDOCK:   -2.21 KCAL/MOL
REMARK 927      BINDING AFFINITY PREDICTED BY RF-SCORE:    0.00 PKD
ROOT
HETATM    1  C   UNL     1     -11.370  12.249  63.469  1.00  0.00    -0.549 C  
HETATM    2  C   UNL     1     -12.574  13.121  63.778  1.00  0.00    -0.257 C  
ENDROOT
BRANCH   2   3
HETATM    3  C   UNL     1     -12.271  14.091  64.915  1.00  0.00    -0.455 C  
BRANCH   3   4
HETATM    4  C   UNL     1     -11.352  15.212  64.442  1.00  0.00    -0.211 C  
BRANCH   4   5
HETATM    5  C   UNL     1     -10.057  15.231  65.245  1.00  0.00    -0.362 C  
BRANCH   5   6
HETATM    6  C   UNL     1     -10.147  16.256  66.368  1.00  0.00    -0.318 C  
BRANCH   6   7
HETATM    7  C   UNL     1      -8.968  17.214  66.315  1.00  0.00    -0.262 C  
BRANCH   7   8
HETATM    8  C   UNL     1      -7.692  16.523  66.782  1.00  0.00    -0.294 C  
BRANCH   8   9
HETATM    9  C   UNL     1      -7.872  16.041  68.213  1.00  0.00    -0.144 C  
BRANCH   9  10
HETATM   10  C   UNL     1      -7.274  14.654  68.426  1.00  0.00    -0.117 C  
BRANCH  10  11
HETATM   11  C   UNL     1      -8.298  13.540  68.146  1.00  0.00    -0.167 C  
BRANCH  11  12
HETATM   12  C   UNL     1      -7.747  12.175  68.560  1.00  0.00    -0.119 C  
BRANCH  12  13
HETATM   13  N   UNL     1      -8.004  11.048  67.546  1.00  0.00    -0.114 N  
HETATM   14  C   UNL     1      -6.762  10.750  66.714  1.00  0.00    -0.110 C  
HETATM   15  C   UNL     1      -8.432   9.770  68.275  1.00  0.00    -0.114 C  
BRANCH  13  16
HETATM   16  C   UNL     1      -9.195  11.457  66.606  1.00  0.00    -0.181 C  
BRANCH  16  17
HETATM   17  C   UNL     1     -10.515  10.776  66.988  1.00  0.00    -0.247 C  
BRANCH  17  18
HETATM   18  O   UNL     1     -11.600  11.700  66.987  1.00  0.00    -0.500 OA 
BRANCH  18  19
HETATM   19  C   UNL     1     -11.762  12.330  68.201  1.00  0.00    -0.349 A  
HETATM   20  C   UNL     1     -11.881  11.494  69.309  1.00  0.00    -0.414 A  
HETATM   21  C   UNL     1     -12.097  12.038  70.578  1.00  0.00    -0.402 A  
HETATM   22  C   UNL     1     -12.182  13.420  70.745  1.00  0.00    -0.409 A  
HETATM   23  C   UNL     1     -12.029  14.262  69.646  1.00  0.00    -0.387 A  
HETATM   24  C   UNL     1     -11.811  13.718  68.381  1.00  0.00    -0.411 A  
ENDBRANCH  18  19
ENDBRANCH  17  18
ENDBRANCH  16  17
ENDBRANCH  13  16
ENDBRANCH  12  13
ENDBRANCH  11  12
ENDBRANCH  10  11
ENDBRANCH   9  10
ENDBRANCH   8   9
ENDBRANCH   7   8
ENDBRANCH   6   7
ENDBRANCH   5   6
ENDBRANCH   4   5
ENDBRANCH   3   4
ENDBRANCH   2   3
TORSDOF 15
ENDMDL
MODEL      125
REMARK 921   NORMALIZED FREE ENERGY PREDICTED BY IDOCK:   -4.25 KCAL/MOL
REMARK 922        TOTAL FREE ENERGY PREDICTED BY IDOCK:   -9.09 KCAL/MOL
REMARK 923 INTER-LIGAND FREE ENERGY PREDICTED BY IDOCK:   -7.72 KCAL/MOL
REMARK 924 INTRA-LIGAND FREE ENERGY PREDICTED BY IDOCK:   -1.37 KCAL/MOL
REMARK 927      BINDING AFFINITY PREDICTED BY RF-SCORE:    0.00 PKD
ROOT
HETATM    1  C   UNL     1      -7.134   6.398  69.314  1.00  0.00    -0.080 C  
HETATM    2  C   UNL     1      -7.794   6.470  70.679  1.00  0.00    -0.106 C  
ENDROOT
BRANCH   2   3
HETATM    3  C   UNL     1      -8.544   5.180  70.996  1.00  0.00    -0.130 C  
BRANCH   3   4
HETATM    4  C   UNL     1      -9.828   5.085  70.180  1.00  0.00    -0.303 C  
BRANCH   4   5
HETATM    5  C   UNL     1     -10.913   5.981  70.764  1.00  0.00    -0.364 C  
BRANCH   5   6
HETATM    6  C   UNL     1     -11.620   6.747  69.654  1.00  0.00    -0.234 C  
BRANCH   6   7
HETATM    7  C   UNL     1     -10.892   6.569  68.331  1.00  0.00    -0.357 C  
BRANCH   7   8
HETATM    8  C   UNL     1     -10.587   7.922  67.699  1.00  0.00    -0.276 C  
BRANCH   8   9
HETATM    9  C   UNL     1     -10.130   8.893  68.776  1.00  0.00    -0.215 C  
BRANCH   9  10
HETATM   10  C   UNL     1     -11.036  10.117  68.860  1.00  0.00    -0.261 C  
BRANCH  10  11
HETATM   11  C   UNL     1     -10.792  11.090  67.693  1.00  0.00    -0.306 C  
BRANCH  11  12
HETATM   12  C   UNL     1     -10.854  12.542  68.169  1.00  0.00    -0.222 C  
BRANCH  12  13
HETATM   13  N   UNL     1     -11.043  13.575  67.048  1.00  0.00    -0.291 N  
HETATM   14  C   UNL     1     -10.173  13.253  65.838  1.00  0.00    -0.293 C  
HETATM   15  C   UNL     1     -12.510  13.616  66.608  1.00  0.00    -0.240 C  
BRANCH  13  16
HETATM   16  C   UNL     1     -10.690  15.006  67.596  1.00  0.00    -0.274 C  
BRANCH  16  17
HETATM   17  C   UNL     1     -10.917  15.135  69.107  1.00  0.00    -0.259 C  
BRANCH  17  18
HETATM   18  O   UNL     1     -12.237  15.581  69.402  1.00  0.00    -0.312 OA 
BRANCH  18  19
HETATM   19  C   UNL     1     -12.497  15.619  70.754  1.00  0.00    -0.435 A  
HETATM   20  C   UNL     1     -13.800  15.301  71.131  1.00  0.00    -0.498 A  
HETATM   21  C   UNL     1     -14.173  15.358  72.476  1.00  0.00    -0.500 A  
HETATM   22  C   UNL     1     -13.242  15.719  73.450  1.00  0.00    -0.653 A  
HETATM   23  C   UNL     1     -11.930  16.004  73.082  1.00  0.00    -0.570 A  
HETATM   24  C   UNL     1     -11.557  15.944  71.740  1.00  0.00    -0.541 A  
ENDBRANCH  18  19
ENDBRANCH  17  18
ENDBRANCH  16  17
ENDBRANCH  13  16
ENDBRANCH  12  13
ENDBRANCH  11  12
ENDBRANCH  10  11
ENDBRANCH   9  10
ENDBRANCH   8   9
ENDBRANCH   7   8
ENDBRANCH   6   7
ENDBRANCH   5   6
ENDBRANCH   4   5
ENDBRANCH   3   4
ENDBRANCH   2   3
TORSDOF 15
ENDMDL
MODEL      126
REMARK 921   NORMALIZED FREE ENERGY PREDICTED BY IDOCK:   -4.24 KCAL/MOL
REMARK 922        TOTAL FREE ENERGY PREDICTED BY IDOCK:   -9.08 KCAL/MOL
REMARK 923 INTER-LIGAND FREE ENERGY PREDICTED BY IDOCK:   -7.31 KCAL/MOL
REMARK 924 INTRA-LIGAND FREE ENERGY PREDICTED BY IDOCK:   -1.78 KCAL/MOL
REMARK 927      BINDING AFFINITY PREDICTED BY RF-SCORE:    0.00 PKD
ROOT
HETATM    1  C   UNL     1      -9.042  10.272  62.670  1.00  0.00    -0.299 C  
HETATM    2  C   UNL     1      -9.554  11.575  63.257  1.00  0.00    -0.366 C  
ENDROOT
BRANCH   2   3
HETATM    3  C   UNL     1     -10.798  11.342  64.108  1.00  0.00    -0.431 C  
BRANCH   3   4
HETATM    4  C   UNL     1     -12.001  12.069  63.520  1.00  0.00    -0.605 C  
BRANCH   4   5
HETATM    5  C   UNL     1     -12.658  12.969  64.560  1.00  0.00    -0.387 C  
BRANCH   5   6
HETATM    6  C   UNL     1     -12.141  12.629  65.952  1.00  0.00    -0.459 C  
BRANCH   6   7
HETATM    7  C   UNL     1     -11.712  13.889  66.687  1.00  0.00    -0.417 C  
BRANCH   7   8
HETATM    8  C   UNL     1     -11.803  13.689  68.196  1.00  0.00    -0.407 C  
BRANCH   8   9
HETATM    9  C   UNL     1     -10.941  12.504  68.603  1.00  0.00    -0.291 C  
BRANCH   9  10
HETATM   10  C   UNL     1     -11.728  11.480  69.414  1.00  0.00    -0.413 C  
BRANCH  10  11
HETATM   11  C   UNL     1     -10.879  10.242  69.750  1.00  0.00    -0.332 C  
BRANCH  11  12
HETATM   12  C   UNL     1      -9.485  10.352  69.132  1.00  0.00    -0.208 C  
BRANCH  12  13
HETATM   13  N   UNL     1      -9.167   9.278  68.078  1.00  0.00    -0.131 N  
HETATM   14  C   UNL     1     -10.413   8.493  67.686  1.00  0.00    -0.241 C  
HETATM   15  C   UNL     1      -8.574   9.929  66.824  1.00  0.00    -0.128 C  
BRANCH  13  16
HETATM   16  C   UNL     1      -8.073   8.302  68.646  1.00  0.00    -0.120 C  
BRANCH  16  17
HETATM   17  C   UNL     1      -8.584   6.864  68.801  1.00  0.00    -0.124 C  
BRANCH  17  18
HETATM   18  O   UNL     1      -8.455   6.406  70.144  1.00  0.00    -0.131 OA 
BRANCH  18  19
HETATM   19  C   UNL     1      -9.476   6.847  70.957  1.00  0.00    -0.163 A  
HETATM   20  C   UNL     1     -10.739   6.327  70.682  1.00  0.00    -0.321 A  
HETATM   21  C   UNL     1     -11.847   6.750  71.420  1.00  0.00    -0.385 A  
HETATM   22  C   UNL     1     -11.694   7.684  72.445  1.00  0.00    -0.366 A  
HETATM   23  C   UNL     1     -10.429   8.179  72.748  1.00  0.00    -0.385 A  
HETATM   24  C   UNL     1      -9.323   7.755  72.012  1.00  0.00    -0.199 A  
ENDBRANCH  18  19
ENDBRANCH  17  18
ENDBRANCH  16  17
ENDBRANCH  13  16
ENDBRANCH  12  13
ENDBRANCH  11  12
ENDBRANCH  10  11
ENDBRANCH   9  10
ENDBRANCH   8   9
ENDBRANCH   7   8
ENDBRANCH   6   7
ENDBRANCH   5   6
ENDBRANCH   4   5
ENDBRANCH   3   4
ENDBRANCH   2   3
TORSDOF 15
ENDMDL
MODEL      127
REMARK 921   NORMALIZED FREE ENERGY PREDICTED BY IDOCK:   -4.23 KCAL/MOL
REMARK 922        TOTAL FREE ENERGY PREDICTED BY IDOCK:   -9.06 KCAL/MOL
REMARK 923 INTER-LIGAND FREE ENERGY PREDICTED BY IDOCK:   -7.23 KCAL/MOL
REMARK 924 INTRA-LIGAND FREE ENERGY PREDICTED BY IDOCK:   -1.83 KCAL/MOL
REMARK 927      BINDING AFFINITY PREDICTED BY RF-SCORE:    0.00 PKD
ROOT
HETATM    1  C   UNL     1      -9.767  10.986  63.144  1.00  0.00    -0.398 C  
HETATM    2  C   UNL     1     -10.813  12.056  63.399  1.00  0.00    -0.471 C  
ENDROOT
BRANCH   2   3
HETATM    3  C   UNL     1     -10.570  12.754  64.733  1.00  0.00    -0.348 C  
BRANCH   3   4
HETATM    4  C   UNL     1     -11.625  12.350  65.756  1.00  0.00    -0.449 C  
BRANCH   4   5
HETATM    5  C   UNL     1     -12.089  13.555  66.566  1.00  0.00    -0.460 C  
BRANCH   5   6
HETATM    6  C   UNL     1     -11.901  13.295  68.055  1.00  0.00    -0.392 C  
BRANCH   6   7
HETATM    7  C   UNL     1     -11.271  14.500  68.735  1.00  0.00    -0.281 C  
BRANCH   7   8
HETATM    8  C   UNL     1     -10.244  15.158  67.820  1.00  0.00    -0.236 C  
BRANCH   8   9
HETATM    9  C   UNL     1      -8.845  14.755  68.258  1.00  0.00    -0.179 C  
BRANCH   9  10
HETATM   10  C   UNL     1      -8.252  13.682  67.350  1.00  0.00    -0.187 C  
BRANCH  10  11
HETATM   11  C   UNL     1      -8.311  12.288  67.998  1.00  0.00    -0.165 C  
BRANCH  11  12
HETATM   12  C   UNL     1      -8.100  11.190  66.954  1.00  0.00    -0.150 C  
BRANCH  12  13
HETATM   13  N   UNL     1      -8.632   9.808  67.363  1.00  0.00    -0.128 N  
HETATM   14  C   UNL     1      -9.364   9.127  66.212  1.00  0.00    -0.216 C  
HETATM   15  C   UNL     1      -7.477   8.910  67.818  1.00  0.00    -0.093 C  
BRANCH  13  16
HETATM   16  C   UNL     1      -9.598   9.966  68.593  1.00  0.00    -0.156 C  
BRANCH  16  17
HETATM   17  C   UNL     1     -10.406   8.696  68.882  1.00  0.00    -0.211 C  
BRANCH  17  18
HETATM   18  O   UNL     1     -10.359   8.349  70.264  1.00  0.00    -0.197 OA 
BRANCH  18  19
HETATM   19  C   UNL     1     -11.602   8.355  70.856  1.00  0.00    -0.262 A  
HETATM   20  C   UNL     1     -12.039   9.588  71.337  1.00  0.00    -0.459 A  
HETATM   21  C   UNL     1     -13.267   9.687  71.998  1.00  0.00    -0.546 A  
HETATM   22  C   UNL     1     -14.067   8.557  72.167  1.00  0.00    -0.493 A  
HETATM   23  C   UNL     1     -13.651   7.330  71.657  1.00  0.00    -0.435 A  
HETATM   24  C   UNL     1     -12.427   7.232  70.997  1.00  0.00    -0.323 A  
ENDBRANCH  18  19
ENDBRANCH  17  18
ENDBRANCH  16  17
ENDBRANCH  13  16
ENDBRANCH  12  13
ENDBRANCH  11  12
ENDBRANCH  10  11
ENDBRANCH   9  10
ENDBRANCH   8   9
ENDBRANCH   7   8
ENDBRANCH   6   7
ENDBRANCH   5   6
ENDBRANCH   4   5
ENDBRANCH   3   4
ENDBRANCH   2   3
TORSDOF 15
ENDMDL
MODEL      128
REMARK 921   NORMALIZED FREE ENERGY PREDICTED BY IDOCK:   -4.23 KCAL/MOL
REMARK 922        TOTAL FREE ENERGY PREDICTED BY IDOCK:   -9.06 KCAL/MOL
REMARK 923 INTER-LIGAND FREE ENERGY PREDICTED BY IDOCK:   -6.95 KCAL/MOL
REMARK 924 INTRA-LIGAND FREE ENERGY PREDICTED BY IDOCK:   -2.11 KCAL/MOL
REMARK 927      BINDING AFFINITY PREDICTED BY RF-SCORE:    0.00 PKD
ROOT
HETATM    1  C   UNL     1     -11.196   2.326  73.575  1.00  0.00    -0.313 C  
HETATM    2  C   UNL     1     -10.402   3.617  73.651  1.00  0.00    -0.240 C  
ENDROOT
BRANCH   2   3
HETATM    3  C   UNL     1     -11.305   4.830  73.452  1.00  0.00    -0.397 C  
BRANCH   3   4
HETATM    4  C   UNL     1     -10.614   5.888  72.600  1.00  0.00    -0.255 C  
BRANCH   4   5
HETATM    5  C   UNL     1     -11.244   5.970  71.215  1.00  0.00    -0.323 C  
BRANCH   5   6
HETATM    6  C   UNL     1     -12.118   7.213  71.106  1.00  0.00    -0.397 C  
BRANCH   6   7
HETATM    7  C   UNL     1     -11.617   8.305  72.039  1.00  0.00    -0.403 C  
BRANCH   7   8
HETATM    8  C   UNL     1     -12.090   9.675  71.566  1.00  0.00    -0.482 C  
BRANCH   8   9
HETATM    9  C   UNL     1     -11.334  10.064  70.305  1.00  0.00    -0.376 C  
BRANCH   9  10
HETATM   10  C   UNL     1     -11.659  11.487  69.862  1.00  0.00    -0.387 C  
BRANCH  10  11
HETATM   11  C   UNL     1     -11.912  11.571  68.347  1.00  0.00    -0.268 C  
BRANCH  11  12
HETATM   12  C   UNL     1     -11.743  13.005  67.844  1.00  0.00    -0.357 C  
BRANCH  12  13
HETATM   13  N   UNL     1     -10.816  13.151  66.627  1.00  0.00    -0.278 N  
HETATM   14  C   UNL     1     -11.309  12.323  65.445  1.00  0.00    -0.343 C  
HETATM   15  C   UNL     1     -10.729  14.620  66.202  1.00  0.00    -0.314 C  
BRANCH  13  16
HETATM   16  C   UNL     1      -9.363  12.704  67.025  1.00  0.00    -0.220 C  
BRANCH  16  17
HETATM   17  C   UNL     1      -8.909  11.437  66.292  1.00  0.00    -0.195 C  
BRANCH  17  18
HETATM   18  O   UNL     1      -8.210  10.551  67.162  1.00  0.00    -0.121 OA 
BRANCH  18  19
HETATM   19  C   UNL     1      -8.876   9.361  67.357  1.00  0.00    -0.128 A  
HETATM   20  C   UNL     1      -8.384   8.551  68.378  1.00  0.00    -0.124 A  
HETATM   21  C   UNL     1      -8.963   7.303  68.623  1.00  0.00    -0.128 A  
HETATM   22  C   UNL     1     -10.044   6.867  67.857  1.00  0.00    -0.195 A  
HETATM   23  C   UNL     1     -10.562   7.688  66.859  1.00  0.00    -0.359 A  
HETATM   24  C   UNL     1      -9.986   8.934  66.617  1.00  0.00    -0.346 A  
ENDBRANCH  18  19
ENDBRANCH  17  18
ENDBRANCH  16  17
ENDBRANCH  13  16
ENDBRANCH  12  13
ENDBRANCH  11  12
ENDBRANCH  10  11
ENDBRANCH   9  10
ENDBRANCH   8   9
ENDBRANCH   7   8
ENDBRANCH   6   7
ENDBRANCH   5   6
ENDBRANCH   4   5
ENDBRANCH   3   4
ENDBRANCH   2   3
TORSDOF 15
ENDMDL
MODEL      129
REMARK 921   NORMALIZED FREE ENERGY PREDICTED BY IDOCK:   -4.23 KCAL/MOL
REMARK 922        TOTAL FREE ENERGY PREDICTED BY IDOCK:   -9.06 KCAL/MOL
REMARK 923 INTER-LIGAND FREE ENERGY PREDICTED BY IDOCK:   -7.51 KCAL/MOL
REMARK 924 INTRA-LIGAND FREE ENERGY PREDICTED BY IDOCK:   -1.54 KCAL/MOL
REMARK 927      BINDING AFFINITY PREDICTED BY RF-SCORE:    0.00 PKD
ROOT
HETATM    1  C   UNL     1      -8.126  19.646  67.781  1.00  0.00    -0.336 C  
HETATM    2  C   UNL     1      -9.446  20.114  67.195  1.00  0.00    -0.537 C  
ENDROOT
BRANCH   2   3
HETATM    3  C   UNL     1     -10.054  19.047  66.291  1.00  0.00    -0.479 C  
BRANCH   3   4
HETATM    4  C   UNL     1     -10.878  18.054  67.102  1.00  0.00    -0.183 C  
BRANCH   4   5
HETATM    5  C   UNL     1     -10.205  16.687  67.137  1.00  0.00    -0.290 C  
BRANCH   5   6
HETATM    6  C   UNL     1      -9.880  16.221  65.724  1.00  0.00    -0.332 C  
BRANCH   6   7
HETATM    7  C   UNL     1     -11.155  16.014  64.921  1.00  0.00    -0.381 C  
BRANCH   7   8
HETATM    8  C   UNL     1     -11.350  14.538  64.593  1.00  0.00    -0.372 C  
BRANCH   8   9
HETATM    9  C   UNL     1     -12.459  13.969  65.464  1.00  0.00    -0.533 C  
BRANCH   9  10
HETATM   10  C   UNL     1     -11.907  13.207  66.664  1.00  0.00    -0.449 C  
BRANCH  10  11
HETATM   11  C   UNL     1     -10.561  12.534  66.343  1.00  0.00    -0.271 C  
BRANCH  11  12
HETATM   12  C   UNL     1      -9.490  12.944  67.356  1.00  0.00    -0.198 C  
BRANCH  12  13
HETATM   13  N   UNL     1      -8.274  12.006  67.415  1.00  0.00    -0.159 N  
HETATM   14  C   UNL     1      -8.215  11.087  66.200  1.00  0.00    -0.155 C  
HETATM   15  C   UNL     1      -6.980  12.823  67.484  1.00  0.00    -0.149 C  
BRANCH  13  16
HETATM   16  C   UNL     1      -8.343  11.150  68.732  1.00  0.00    -0.136 C  
BRANCH  16  17
HETATM   17  C   UNL     1      -8.820   9.714  68.483  1.00  0.00    -0.124 C  
BRANCH  17  18
HETATM   18  O   UNL     1     -10.226   9.663  68.255  1.00  0.00    -0.170 OA 
BRANCH  18  19
HETATM   19  C   UNL     1     -10.959   9.846  69.407  1.00  0.00    -0.230 A  
HETATM   20  C   UNL     1     -10.885   8.818  70.344  1.00  0.00    -0.256 A  
HETATM   21  C   UNL     1     -11.631   8.889  71.524  1.00  0.00    -0.388 A  
HETATM   22  C   UNL     1     -12.442   9.996  71.776  1.00  0.00    -0.475 A  
HETATM   23  C   UNL     1     -12.492  11.042  70.859  1.00  0.00    -0.509 A  
HETATM   24  C   UNL     1     -11.746  10.971  69.684  1.00  0.00    -0.401 A  
ENDBRANCH  18  19
ENDBRANCH  17  18
ENDBRANCH  16  17
ENDBRANCH  13  16
ENDBRANCH  12  13
ENDBRANCH  11  12
ENDBRANCH  10  11
ENDBRANCH   9  10
ENDBRANCH   8   9
ENDBRANCH   7   8
ENDBRANCH   6   7
ENDBRANCH   5   6
ENDBRANCH   4   5
ENDBRANCH   3   4
ENDBRANCH   2   3
TORSDOF 15
ENDMDL
MODEL      130
REMARK 921   NORMALIZED FREE ENERGY PREDICTED BY IDOCK:   -4.22 KCAL/MOL
REMARK 922        TOTAL FREE ENERGY PREDICTED BY IDOCK:   -9.04 KCAL/MOL
REMARK 923 INTER-LIGAND FREE ENERGY PREDICTED BY IDOCK:   -7.98 KCAL/MOL
REMARK 924 INTRA-LIGAND FREE ENERGY PREDICTED BY IDOCK:   -1.06 KCAL/MOL
REMARK 927      BINDING AFFINITY PREDICTED BY RF-SCORE:    0.00 PKD
ROOT
HETATM    1  C   UNL     1     -11.056   6.030  70.949  1.00  0.00    -0.352 C  
HETATM    2  C   UNL     1      -9.727   6.489  70.376  1.00  0.00    -0.186 C  
ENDROOT
BRANCH   2   3
HETATM    3  C   UNL     1      -9.443   5.811  69.039  1.00  0.00    -0.152 C  
BRANCH   3   4
HETATM    4  C   UNL     1     -10.700   5.757  68.180  1.00  0.00    -0.288 C  
BRANCH   4   5
HETATM    5  C   UNL     1     -10.698   6.870  67.139  1.00  0.00    -0.436 C  
BRANCH   5   6
HETATM    6  C   UNL     1      -9.299   7.457  66.996  1.00  0.00    -0.183 C  
BRANCH   6   7
HETATM    7  C   UNL     1      -9.308   8.946  67.301  1.00  0.00    -0.173 C  
BRANCH   7   8
HETATM    8  C   UNL     1     -10.485   9.304  68.202  1.00  0.00    -0.263 C  
BRANCH   8   9
HETATM    9  C   UNL     1     -10.220  10.641  68.875  1.00  0.00    -0.216 C  
BRANCH   9  10
HETATM   10  C   UNL     1     -10.252  11.796  67.879  1.00  0.00    -0.203 C  
BRANCH  10  11
HETATM   11  C   UNL     1     -11.467  11.707  66.939  1.00  0.00    -0.320 C  
BRANCH  11  12
HETATM   12  C   UNL     1     -11.924  13.100  66.504  1.00  0.00    -0.398 C  
BRANCH  12  13
HETATM   13  N   UNL     1     -11.364  13.562  65.149  1.00  0.00    -0.296 N  
HETATM   14  C   UNL     1     -10.994  12.378  64.263  1.00  0.00    -0.351 C  
HETATM   15  C   UNL     1     -12.397  14.426  64.418  1.00  0.00    -0.403 C  
BRANCH  13  16
HETATM   16  C   UNL     1     -10.102  14.467  65.390  1.00  0.00    -0.364 C  
BRANCH  16  17
HETATM   17  C   UNL     1     -10.452  15.955  65.512  1.00  0.00    -0.404 C  
BRANCH  17  18
HETATM   18  O   UNL     1      -9.286  16.754  65.690  1.00  0.00    -0.503 OA 
BRANCH  18  19
HETATM   19  C   UNL     1      -9.461  17.750  66.625  1.00  0.00    -0.292 A  
HETATM   20  C   UNL     1     -10.404  18.725  66.305  1.00  0.00    -0.497 A  
HETATM   21  C   UNL     1     -10.619  19.803  67.167  1.00  0.00    -0.577 A  
HETATM   22  C   UNL     1      -9.903  19.903  68.360  1.00  0.00    -0.489 A  
HETATM   23  C   UNL     1      -8.985  18.913  68.702  1.00  0.00    -0.386 A  
HETATM   24  C   UNL     1      -8.773  17.836  67.842  1.00  0.00    -0.251 A  
ENDBRANCH  18  19
ENDBRANCH  17  18
ENDBRANCH  16  17
ENDBRANCH  13  16
ENDBRANCH  12  13
ENDBRANCH  11  12
ENDBRANCH  10  11
ENDBRANCH   9  10
ENDBRANCH   8   9
ENDBRANCH   7   8
ENDBRANCH   6   7
ENDBRANCH   5   6
ENDBRANCH   4   5
ENDBRANCH   3   4
ENDBRANCH   2   3
TORSDOF 15
ENDMDL
MODEL      131
REMARK 921   NORMALIZED FREE ENERGY PREDICTED BY IDOCK:   -4.22 KCAL/MOL
REMARK 922        TOTAL FREE ENERGY PREDICTED BY IDOCK:   -9.03 KCAL/MOL
REMARK 923 INTER-LIGAND FREE ENERGY PREDICTED BY IDOCK:   -6.49 KCAL/MOL
REMARK 924 INTRA-LIGAND FREE ENERGY PREDICTED BY IDOCK:   -2.55 KCAL/MOL
REMARK 927      BINDING AFFINITY PREDICTED BY RF-SCORE:    0.00 PKD
ROOT
HETATM    1  C   UNL     1     -10.931  15.258  64.908  1.00  0.00    -0.445 C  
HETATM    2  C   UNL     1     -10.981  13.754  64.709  1.00  0.00    -0.396 C  
ENDROOT
BRANCH   2   3
HETATM    3  C   UNL     1     -12.197  13.148  65.403  1.00  0.00    -0.510 C  
BRANCH   3   4
HETATM    4  C   UNL     1     -11.935  12.965  66.893  1.00  0.00    -0.402 C  
BRANCH   4   5
HETATM    5  C   UNL     1     -10.581  12.308  67.133  1.00  0.00    -0.250 C  
BRANCH   5   6
HETATM    6  C   UNL     1     -10.723  10.791  67.131  1.00  0.00    -0.324 C  
BRANCH   6   7
HETATM    7  C   UNL     1      -9.829  10.169  66.071  1.00  0.00    -0.308 C  
BRANCH   7   8
HETATM    8  C   UNL     1      -9.809   8.650  66.208  1.00  0.00    -0.320 C  
BRANCH   8   9
HETATM    9  C   UNL     1     -10.476   8.251  67.514  1.00  0.00    -0.325 C  
BRANCH   9  10
HETATM   10  C   UNL     1     -10.657   6.740  67.622  1.00  0.00    -0.323 C  
BRANCH  10  11
HETATM   11  C   UNL     1     -11.053   6.312  69.045  1.00  0.00    -0.446 C  
BRANCH  11  12
HETATM   12  C   UNL     1     -11.331   7.531  69.925  1.00  0.00    -0.037 C  
BRANCH  12  13
HETATM   13  N   UNL     1     -11.679   7.199  71.386  1.00  0.00    -0.279 N  
HETATM   14  C   UNL     1     -13.185   7.219  71.621  1.00  0.00    -0.366 C  
HETATM   15  C   UNL     1     -11.136   5.816  71.757  1.00  0.00    -0.238 C  
BRANCH  13  16
HETATM   16  C   UNL     1     -10.974   8.236  72.335  1.00  0.00    -0.368 C  
BRANCH  16  17
HETATM   17  C   UNL     1      -9.463   8.005  72.449  1.00  0.00    -0.215 C  
BRANCH  17  18
HETATM   18  O   UNL     1      -8.725   9.138  72.001  1.00  0.00    -0.320 OA 
BRANCH  18  19
HETATM   19  C   UNL     1      -8.064   8.907  70.815  1.00  0.00    -0.156 A  
HETATM   20  C   UNL     1      -7.703  10.041  70.090  1.00  0.00    -0.158 A  
HETATM   21  C   UNL     1      -7.071   9.909  68.851  1.00  0.00    -0.071 A  
HETATM   22  C   UNL     1      -6.785   8.643  68.339  1.00  0.00    -0.064 A  
HETATM   23  C   UNL     1      -7.111   7.508  69.076  1.00  0.00    -0.079 A  
HETATM   24  C   UNL     1      -7.739   7.640  70.313  1.00  0.00    -0.091 A  
ENDBRANCH  18  19
ENDBRANCH  17  18
ENDBRANCH  16  17
ENDBRANCH  13  16
ENDBRANCH  12  13
ENDBRANCH  11  12
ENDBRANCH  10  11
ENDBRANCH   9  10
ENDBRANCH   8   9
ENDBRANCH   7   8
ENDBRANCH   6   7
ENDBRANCH   5   6
ENDBRANCH   4   5
ENDBRANCH   3   4
ENDBRANCH   2   3
TORSDOF 15
ENDMDL
MODEL      132
REMARK 921   NORMALIZED FREE ENERGY PREDICTED BY IDOCK:   -4.21 KCAL/MOL
REMARK 922        TOTAL FREE ENERGY PREDICTED BY IDOCK:   -9.03 KCAL/MOL
REMARK 923 INTER-LIGAND FREE ENERGY PREDICTED BY IDOCK:   -6.83 KCAL/MOL
REMARK 924 INTRA-LIGAND FREE ENERGY PREDICTED BY IDOCK:   -2.20 KCAL/MOL
REMARK 927      BINDING AFFINITY PREDICTED BY RF-SCORE:    0.00 PKD
ROOT
HETATM    1  C   UNL     1     -11.159  10.851  67.354  1.00  0.00    -0.373 C  
HETATM    2  C   UNL     1     -11.783  11.245  68.681  1.00  0.00    -0.391 C  
ENDROOT
BRANCH   2   3
HETATM    3  C   UNL     1     -11.318  10.321  69.802  1.00  0.00    -0.334 C  
BRANCH   3   4
HETATM    4  C   UNL     1     -11.968  10.705  71.126  1.00  0.00    -0.401 C  
BRANCH   4   5
HETATM    5  C   UNL     1     -12.542  12.116  71.064  1.00  0.00    -0.359 C  
BRANCH   5   6
HETATM    6  C   UNL     1     -13.614  12.297  72.130  1.00  0.00    -0.348 C  
BRANCH   6   7
HETATM    7  C   UNL     1     -14.007  13.761  72.253  1.00  0.00    -0.672 C  
BRANCH   7   8
HETATM    8  C   UNL     1     -12.848  14.584  72.806  1.00  0.00    -0.518 C  
BRANCH   8   9
HETATM    9  C   UNL     1     -12.642  15.815  71.938  1.00  0.00    -0.522 C  
BRANCH   9  10
HETATM   10  C   UNL     1     -11.342  15.740  71.144  1.00  0.00    -0.442 C  
BRANCH  10  11
HETATM   11  C   UNL     1     -11.601  15.587  69.635  1.00  0.00    -0.359 C  
BRANCH  11  12
HETATM   12  C   UNL     1     -10.585  14.636  69.000  1.00  0.00    -0.247 C  
BRANCH  12  13
HETATM   13  N   UNL     1      -9.751  15.254  67.867  1.00  0.00    -0.211 N  
HETATM   14  C   UNL     1     -10.623  16.048  66.900  1.00  0.00    -0.300 C  
HETATM   15  C   UNL     1      -8.679  16.183  68.446  1.00  0.00    -0.190 C  
BRANCH  13  16
HETATM   16  C   UNL     1      -8.996  14.112  67.095  1.00  0.00    -0.225 C  
BRANCH  16  17
HETATM   17  C   UNL     1      -8.101  13.268  68.010  1.00  0.00    -0.157 C  
BRANCH  17  18
HETATM   18  O   UNL     1      -7.332  12.327  67.266  1.00  0.00    -0.141 OA 
BRANCH  18  19
HETATM   19  C   UNL     1      -7.540  11.028  67.675  1.00  0.00    -0.104 A  
HETATM   20  C   UNL     1      -7.629  10.832  69.052  1.00  0.00    -0.126 A  
HETATM   21  C   UNL     1      -7.791   9.544  69.567  1.00  0.00    -0.103 A  
HETATM   22  C   UNL     1      -7.878   8.448  68.708  1.00  0.00    -0.115 A  
HETATM   23  C   UNL     1      -7.825   8.643  67.330  1.00  0.00    -0.098 A  
HETATM   24  C   UNL     1      -7.666   9.929  66.816  1.00  0.00    -0.099 A  
ENDBRANCH  18  19
ENDBRANCH  17  18
ENDBRANCH  16  17
ENDBRANCH  13  16
ENDBRANCH  12  13
ENDBRANCH  11  12
ENDBRANCH  10  11
ENDBRANCH   9  10
ENDBRANCH   8   9
ENDBRANCH   7   8
ENDBRANCH   6   7
ENDBRANCH   5   6
ENDBRANCH   4   5
ENDBRANCH   3   4
ENDBRANCH   2   3
TORSDOF 15
ENDMDL
MODEL      133
REMARK 921   NORMALIZED FREE ENERGY PREDICTED BY IDOCK:   -4.21 KCAL/MOL
REMARK 922        TOTAL FREE ENERGY PREDICTED BY IDOCK:   -9.02 KCAL/MOL
REMARK 923 INTER-LIGAND FREE ENERGY PREDICTED BY IDOCK:   -7.24 KCAL/MOL
REMARK 924 INTRA-LIGAND FREE ENERGY PREDICTED BY IDOCK:   -1.78 KCAL/MOL
REMARK 927      BINDING AFFINITY PREDICTED BY RF-SCORE:    0.00 PKD
ROOT
HETATM    1  C   UNL     1      -5.830  16.678  67.469  1.00  0.00    -0.178 C  
HETATM    2  C   UNL     1      -5.541  17.894  66.608  1.00  0.00    -0.197 C  
ENDROOT
BRANCH   2   3
HETATM    3  C   UNL     1      -6.693  18.892  66.662  1.00  0.00    -0.211 C  
BRANCH   3   4
HETATM    4  C   UNL     1      -6.910  19.393  68.086  1.00  0.00    -0.301 C  
BRANCH   4   5
HETATM    5  C   UNL     1      -8.370  19.247  68.499  1.00  0.00    -0.401 C  
BRANCH   5   6
HETATM    6  C   UNL     1      -9.268  20.023  67.545  1.00  0.00    -0.475 C  
BRANCH   6   7
HETATM    7  C   UNL     1     -10.415  19.150  67.058  1.00  0.00    -0.530 C  
BRANCH   7   8
HETATM    8  C   UNL     1     -10.147  17.683  67.377  1.00  0.00    -0.331 C  
BRANCH   8   9
HETATM    9  C   UNL     1     -10.290  16.856  66.109  1.00  0.00    -0.327 C  
BRANCH   9  10
HETATM   10  C   UNL     1      -9.106  15.915  65.908  1.00  0.00    -0.304 C  
BRANCH  10  11
HETATM   11  C   UNL     1      -9.175  14.700  66.849  1.00  0.00    -0.267 C  
BRANCH  11  12
HETATM   12  C   UNL     1      -9.982  13.565  66.218  1.00  0.00    -0.298 C  
BRANCH  12  13
HETATM   13  N   UNL     1     -11.366  13.337  66.848  1.00  0.00    -0.305 N  
HETATM   14  C   UNL     1     -11.490  14.041  68.194  1.00  0.00    -0.309 C  
HETATM   15  C   UNL     1     -12.463  13.855  65.913  1.00  0.00    -0.481 C  
BRANCH  13  16
HETATM   16  C   UNL     1     -11.608  11.794  67.025  1.00  0.00    -0.244 C  
BRANCH  16  17
HETATM   17  C   UNL     1     -10.392  10.952  66.620  1.00  0.00    -0.239 C  
BRANCH  17  18
HETATM   18  O   UNL     1      -9.753  10.378  67.757  1.00  0.00    -0.157 OA 
BRANCH  18  19
HETATM   19  C   UNL     1     -10.209   9.109  68.040  1.00  0.00    -0.211 A  
HETATM   20  C   UNL     1     -10.374   8.264  66.944  1.00  0.00    -0.391 A  
HETATM   21  C   UNL     1     -10.878   6.974  67.124  1.00  0.00    -0.427 A  
HETATM   22  C   UNL     1     -11.206   6.518  68.401  1.00  0.00    -0.274 A  
HETATM   23  C   UNL     1     -11.010   7.347  69.503  1.00  0.00    -0.155 A  
HETATM   24  C   UNL     1     -10.505   8.633  69.324  1.00  0.00    -0.226 A  
ENDBRANCH  18  19
ENDBRANCH  17  18
ENDBRANCH  16  17
ENDBRANCH  13  16
ENDBRANCH  12  13
ENDBRANCH  11  12
ENDBRANCH  10  11
ENDBRANCH   9  10
ENDBRANCH   8   9
ENDBRANCH   7   8
ENDBRANCH   6   7
ENDBRANCH   5   6
ENDBRANCH   4   5
ENDBRANCH   3   4
ENDBRANCH   2   3
TORSDOF 15
ENDMDL
MODEL      134
REMARK 921   NORMALIZED FREE ENERGY PREDICTED BY IDOCK:   -4.21 KCAL/MOL
REMARK 922        TOTAL FREE ENERGY PREDICTED BY IDOCK:   -9.02 KCAL/MOL
REMARK 923 INTER-LIGAND FREE ENERGY PREDICTED BY IDOCK:   -7.94 KCAL/MOL
REMARK 924 INTRA-LIGAND FREE ENERGY PREDICTED BY IDOCK:   -1.08 KCAL/MOL
REMARK 927      BINDING AFFINITY PREDICTED BY RF-SCORE:    0.00 PKD
ROOT
HETATM    1  C   UNL     1      -7.911   4.428  63.805  1.00  0.00    -0.087 C  
HETATM    2  C   UNL     1      -7.111   4.359  65.094  1.00  0.00    -0.063 C  
ENDROOT
BRANCH   2   3
HETATM    3  C   UNL     1      -7.597   5.399  66.098  1.00  0.00    -0.087 C  
BRANCH   3   4
HETATM    4  C   UNL     1      -7.787   4.775  67.476  1.00  0.00    -0.094 C  
BRANCH   4   5
HETATM    5  C   UNL     1      -9.151   5.132  68.053  1.00  0.00    -0.123 C  
BRANCH   5   6
HETATM    6  C   UNL     1     -10.204   5.140  66.953  1.00  0.00    -0.279 C  
BRANCH   6   7
HETATM    7  C   UNL     1     -11.097   6.365  67.074  1.00  0.00    -0.405 C  
BRANCH   7   8
HETATM    8  C   UNL     1     -10.349   7.511  67.746  1.00  0.00    -0.278 C  
BRANCH   8   9
HETATM    9  C   UNL     1     -10.241   8.680  66.779  1.00  0.00    -0.361 C  
BRANCH   9  10
HETATM   10  C   UNL     1     -10.745   9.979  67.399  1.00  0.00    -0.336 C  
BRANCH  10  11
HETATM   11  C   UNL     1     -10.500  11.186  66.476  1.00  0.00    -0.305 C  
BRANCH  11  12
HETATM   12  C   UNL     1     -11.697  12.138  66.493  1.00  0.00    -0.321 C  
BRANCH  12  13
HETATM   13  N   UNL     1     -11.358  13.596  66.145  1.00  0.00    -0.307 N  
HETATM   14  C   UNL     1      -9.857  13.796  65.969  1.00  0.00    -0.282 C  
HETATM   15  C   UNL     1     -12.069  14.009  64.852  1.00  0.00    -0.420 C  
BRANCH  13  16
HETATM   16  C   UNL     1     -11.895  14.540  67.282  1.00  0.00    -0.392 C  
BRANCH  16  17
HETATM   17  C   UNL     1     -12.010  13.831  68.636  1.00  0.00    -0.366 C  
BRANCH  17  18
HETATM   18  O   UNL     1     -11.228  14.480  69.635  1.00  0.00    -0.253 OA 
BRANCH  18  19
HETATM   19  C   UNL     1     -11.918  14.670  70.812  1.00  0.00    -0.317 A  
HETATM   20  C   UNL     1     -11.592  15.820  71.528  1.00  0.00    -0.531 A  
HETATM   21  C   UNL     1     -12.203  16.075  72.759  1.00  0.00    -0.617 A  
HETATM   22  C   UNL     1     -13.152  15.190  73.270  1.00  0.00    -0.622 A  
HETATM   23  C   UNL     1     -13.507  14.058  72.541  1.00  0.00    -0.661 A  
HETATM   24  C   UNL     1     -12.899  13.804  71.313  1.00  0.00    -0.434 A  
ENDBRANCH  18  19
ENDBRANCH  17  18
ENDBRANCH  16  17
ENDBRANCH  13  16
ENDBRANCH  12  13
ENDBRANCH  11  12
ENDBRANCH  10  11
ENDBRANCH   9  10
ENDBRANCH   8   9
ENDBRANCH   7   8
ENDBRANCH   6   7
ENDBRANCH   5   6
ENDBRANCH   4   5
ENDBRANCH   3   4
ENDBRANCH   2   3
TORSDOF 15
ENDMDL
MODEL      135
REMARK 921   NORMALIZED FREE ENERGY PREDICTED BY IDOCK:   -4.20 KCAL/MOL
REMARK 922        TOTAL FREE ENERGY PREDICTED BY IDOCK:   -9.02 KCAL/MOL
REMARK 923 INTER-LIGAND FREE ENERGY PREDICTED BY IDOCK:   -7.90 KCAL/MOL
REMARK 924 INTRA-LIGAND FREE ENERGY PREDICTED BY IDOCK:   -1.12 KCAL/MOL
REMARK 927      BINDING AFFINITY PREDICTED BY RF-SCORE:    0.00 PKD
ROOT
HETATM    1  C   UNL     1     -10.878   6.710  68.924  1.00  0.00    -0.326 C  
HETATM    2  C   UNL     1     -11.599   6.770  70.258  1.00  0.00    -0.417 C  
ENDROOT
BRANCH   2   3
HETATM    3  C   UNL     1     -11.643   8.197  70.796  1.00  0.00    -0.249 C  
BRANCH   3   4
HETATM    4  C   UNL     1     -12.968   8.472  71.496  1.00  0.00    -0.328 C  
BRANCH   4   5
HETATM    5  C   UNL     1     -13.581   9.780  71.009  1.00  0.00    -0.170 C  
BRANCH   5   6
HETATM    6  C   UNL     1     -13.506  10.837  72.103  1.00  0.00    -0.227 C  
BRANCH   6   7
HETATM    7  C   UNL     1     -13.071  12.175  71.526  1.00  0.00    -0.357 C  
BRANCH   7   8
HETATM    8  C   UNL     1     -13.479  13.317  72.451  1.00  0.00    -0.670 C  
BRANCH   8   9
HETATM    9  C   UNL     1     -12.767  14.592  72.025  1.00  0.00    -0.410 C  
BRANCH   9  10
HETATM   10  C   UNL     1     -12.662  14.706  70.508  1.00  0.00    -0.394 C  
BRANCH  10  11
HETATM   11  C   UNL     1     -11.256  15.143  70.063  1.00  0.00    -0.301 C  
BRANCH  11  12
HETATM   12  C   UNL     1     -11.310  15.863  68.714  1.00  0.00    -0.378 C  
BRANCH  12  13
HETATM   13  N   UNL     1     -10.804  15.031  67.525  1.00  0.00    -0.289 N  
HETATM   14  C   UNL     1     -10.296  15.920  66.395  1.00  0.00    -0.306 C  
HETATM   15  C   UNL     1      -9.672  14.102  67.974  1.00  0.00    -0.226 C  
BRANCH  13  16
HETATM   16  C   UNL     1     -11.968  14.112  67.002  1.00  0.00    -0.439 C  
BRANCH  16  17
HETATM   17  C   UNL     1     -11.478  13.021  66.044  1.00  0.00    -0.335 C  
BRANCH  17  18
HETATM   18  O   UNL     1     -11.502  11.735  66.659  1.00  0.00    -0.399 OA 
BRANCH  18  19
HETATM   19  C   UNL     1     -10.619  10.852  66.080  1.00  0.00    -0.189 A  
HETATM   20  C   UNL     1     -10.176  11.186  64.801  1.00  0.00    -0.365 A  
HETATM   21  C   UNL     1      -9.315  10.328  64.111  1.00  0.00    -0.336 A  
HETATM   22  C   UNL     1      -8.883   9.141  64.702  1.00  0.00    -0.183 A  
HETATM   23  C   UNL     1      -9.295   8.820  65.993  1.00  0.00    -0.296 A  
HETATM   24  C   UNL     1     -10.151   9.677  66.682  1.00  0.00    -0.307 A  
ENDBRANCH  18  19
ENDBRANCH  17  18
ENDBRANCH  16  17
ENDBRANCH  13  16
ENDBRANCH  12  13
ENDBRANCH  11  12
ENDBRANCH  10  11
ENDBRANCH   9  10
ENDBRANCH   8   9
ENDBRANCH   7   8
ENDBRANCH   6   7
ENDBRANCH   5   6
ENDBRANCH   4   5
ENDBRANCH   3   4
ENDBRANCH   2   3
TORSDOF 15
ENDMDL
MODEL      136
REMARK 921   NORMALIZED FREE ENERGY PREDICTED BY IDOCK:   -4.20 KCAL/MOL
REMARK 922        TOTAL FREE ENERGY PREDICTED BY IDOCK:   -9.00 KCAL/MOL
REMARK 923 INTER-LIGAND FREE ENERGY PREDICTED BY IDOCK:   -7.11 KCAL/MOL
REMARK 924 INTRA-LIGAND FREE ENERGY PREDICTED BY IDOCK:   -1.89 KCAL/MOL
REMARK 927      BINDING AFFINITY PREDICTED BY RF-SCORE:    0.00 PKD
ROOT
HETATM    1  C   UNL     1      -5.156  15.125  71.179  1.00  0.00    -0.149 C  
HETATM    2  C   UNL     1      -5.676  14.780  69.795  1.00  0.00    -0.105 C  
ENDROOT
BRANCH   2   3
HETATM    3  C   UNL     1      -6.081  16.036  69.031  1.00  0.00    -0.128 C  
BRANCH   3   4
HETATM    4  C   UNL     1      -7.518  15.930  68.535  1.00  0.00    -0.139 C  
BRANCH   4   5
HETATM    5  C   UNL     1      -7.563  15.778  67.019  1.00  0.00    -0.257 C  
BRANCH   5   6
HETATM    6  C   UNL     1      -8.703  14.852  66.615  1.00  0.00    -0.262 C  
BRANCH   6   7
HETATM    7  C   UNL     1      -8.569  13.504  67.305  1.00  0.00    -0.218 C  
BRANCH   7   8
HETATM    8  C   UNL     1      -9.940  12.958  67.689  1.00  0.00    -0.218 C  
BRANCH   8   9
HETATM    9  C   UNL     1      -9.768  11.732  68.572  1.00  0.00    -0.181 C  
BRANCH   9  10
HETATM   10  C   UNL     1     -11.016  11.448  69.402  1.00  0.00    -0.260 C  
BRANCH  10  11
HETATM   11  C   UNL     1     -12.045  12.586  69.294  1.00  0.00    -0.214 C  
BRANCH  11  12
HETATM   12  C   UNL     1     -12.371  13.161  70.673  1.00  0.00    -0.326 C  
BRANCH  12  13
HETATM   13  N   UNL     1     -12.516  14.691  70.711  1.00  0.00    -0.318 N  
HETATM   14  C   UNL     1     -13.841  15.113  71.336  1.00  0.00    -0.502 C  
HETATM   15  C   UNL     1     -11.368  15.310  71.514  1.00  0.00    -0.371 C  
BRANCH  13  16
HETATM   16  C   UNL     1     -12.408  15.258  69.248  1.00  0.00    -0.093 C  
BRANCH  16  17
HETATM   17  C   UNL     1     -11.214  16.202  69.065  1.00  0.00    -0.347 C  
BRANCH  17  18
HETATM   18  O   UNL     1     -11.120  16.672  67.723  1.00  0.00    -0.279 OA 
BRANCH  18  19
HETATM   19  C   UNL     1     -10.579  17.935  67.638  1.00  0.00    -0.387 A  
HETATM   20  C   UNL     1     -10.509  18.481  66.358  1.00  0.00    -0.443 A  
HETATM   21  C   UNL     1      -9.932  19.739  66.163  1.00  0.00    -0.573 A  
HETATM   22  C   UNL     1      -9.436  20.461  67.248  1.00  0.00    -0.568 A  
HETATM   23  C   UNL     1      -9.536  19.935  68.534  1.00  0.00    -0.377 A  
HETATM   24  C   UNL     1     -10.114  18.682  68.728  1.00  0.00    -0.398 A  
ENDBRANCH  18  19
ENDBRANCH  17  18
ENDBRANCH  16  17
ENDBRANCH  13  16
ENDBRANCH  12  13
ENDBRANCH  11  12
ENDBRANCH  10  11
ENDBRANCH   9  10
ENDBRANCH   8   9
ENDBRANCH   7   8
ENDBRANCH   6   7
ENDBRANCH   5   6
ENDBRANCH   4   5
ENDBRANCH   3   4
ENDBRANCH   2   3
TORSDOF 15
ENDMDL
MODEL      137
REMARK 921   NORMALIZED FREE ENERGY PREDICTED BY IDOCK:   -4.20 KCAL/MOL
REMARK 922        TOTAL FREE ENERGY PREDICTED BY IDOCK:   -9.00 KCAL/MOL
REMARK 923 INTER-LIGAND FREE ENERGY PREDICTED BY IDOCK:   -7.54 KCAL/MOL
REMARK 924 INTRA-LIGAND FREE ENERGY PREDICTED BY IDOCK:   -1.46 KCAL/MOL
REMARK 927      BINDING AFFINITY PREDICTED BY RF-SCORE:    0.00 PKD
ROOT
HETATM    1  C   UNL     1      -8.011   6.151  64.033  1.00  0.00    -0.110 C  
HETATM    2  C   UNL     1      -7.084   5.788  65.179  1.00  0.00    -0.064 C  
ENDROOT
BRANCH   2   3
HETATM    3  C   UNL     1      -7.237   6.766  66.340  1.00  0.00    -0.072 C  
BRANCH   3   4
HETATM    4  C   UNL     1      -8.208   6.224  67.381  1.00  0.00    -0.109 C  
BRANCH   4   5
HETATM    5  C   UNL     1      -9.097   7.334  67.929  1.00  0.00    -0.132 C  
BRANCH   5   6
HETATM    6  C   UNL     1     -10.223   7.640  66.950  1.00  0.00    -0.365 C  
BRANCH   6   7
HETATM    7  C   UNL     1     -10.398   9.142  66.785  1.00  0.00    -0.308 C  
BRANCH   7   8
HETATM    8  C   UNL     1      -9.047   9.847  66.815  1.00  0.00    -0.164 C  
BRANCH   8   9
HETATM    9  C   UNL     1      -8.957  10.818  65.648  1.00  0.00    -0.205 C  
BRANCH   9  10
HETATM   10  C   UNL     1     -10.119  10.648  64.676  1.00  0.00    -0.417 C  
BRANCH  10  11
HETATM   11  C   UNL     1     -10.758  11.999  64.307  1.00  0.00    -0.382 C  
BRANCH  11  12
HETATM   12  C   UNL     1     -10.356  13.084  65.306  1.00  0.00    -0.304 C  
BRANCH  12  13
HETATM   13  N   UNL     1     -11.502  13.587  66.199  1.00  0.00    -0.317 N  
HETATM   14  C   UNL     1     -12.693  14.056  65.371  1.00  0.00    -0.471 C  
HETATM   15  C   UNL     1     -11.962  12.472  67.144  1.00  0.00    -0.215 C  
BRANCH  13  16
HETATM   16  C   UNL     1     -10.979  14.763  67.101  1.00  0.00    -0.320 C  
BRANCH  16  17
HETATM   17  C   UNL     1     -10.961  14.406  68.592  1.00  0.00    -0.250 C  
BRANCH  17  18
HETATM   18  O   UNL     1     -11.556  15.430  69.383  1.00  0.00    -0.296 OA 
BRANCH  18  19
HETATM   19  C   UNL     1     -12.300  14.931  70.429  1.00  0.00    -0.345 A  
HETATM   20  C   UNL     1     -12.230  13.552  70.619  1.00  0.00    -0.434 A  
HETATM   21  C   UNL     1     -12.986  12.944  71.625  1.00  0.00    -0.410 A  
HETATM   22  C   UNL     1     -13.804  13.714  72.453  1.00  0.00    -0.691 A  
HETATM   23  C   UNL     1     -13.850  15.096  72.290  1.00  0.00    -0.618 A  
HETATM   24  C   UNL     1     -13.093  15.702  71.288  1.00  0.00    -0.542 A  
ENDBRANCH  18  19
ENDBRANCH  17  18
ENDBRANCH  16  17
ENDBRANCH  13  16
ENDBRANCH  12  13
ENDBRANCH  11  12
ENDBRANCH  10  11
ENDBRANCH   9  10
ENDBRANCH   8   9
ENDBRANCH   7   8
ENDBRANCH   6   7
ENDBRANCH   5   6
ENDBRANCH   4   5
ENDBRANCH   3   4
ENDBRANCH   2   3
TORSDOF 15
ENDMDL
MODEL      138
REMARK 921   NORMALIZED FREE ENERGY PREDICTED BY IDOCK:   -4.20 KCAL/MOL
REMARK 922        TOTAL FREE ENERGY PREDICTED BY IDOCK:   -9.00 KCAL/MOL
REMARK 923 INTER-LIGAND FREE ENERGY PREDICTED BY IDOCK:   -7.03 KCAL/MOL
REMARK 924 INTRA-LIGAND FREE ENERGY PREDICTED BY IDOCK:   -1.97 KCAL/MOL
REMARK 927      BINDING AFFINITY PREDICTED BY RF-SCORE:    0.00 PKD
ROOT
HETATM    1  C   UNL     1      -7.734  11.949  68.334  1.00  0.00    -0.131 C  
HETATM    2  C   UNL     1      -7.373  10.486  68.514  1.00  0.00    -0.088 C  
ENDROOT
BRANCH   2   3
HETATM    3  C   UNL     1      -8.173   9.858  69.650  1.00  0.00    -0.178 C  
BRANCH   3   4
HETATM    4  C   UNL     1      -9.668  10.075  69.445  1.00  0.00    -0.240 C  
BRANCH   4   5
HETATM    5  C   UNL     1     -10.470   9.470  70.591  1.00  0.00    -0.374 C  
BRANCH   5   6
HETATM    6  C   UNL     1     -11.677  10.344  70.910  1.00  0.00    -0.455 C  
BRANCH   6   7
HETATM    7  C   UNL     1     -11.824  11.452  69.880  1.00  0.00    -0.435 C  
BRANCH   7   8
HETATM    8  C   UNL     1     -12.232  12.759  70.551  1.00  0.00    -0.389 C  
BRANCH   8   9
HETATM    9  C   UNL     1     -12.245  13.876  69.519  1.00  0.00    -0.356 C  
BRANCH   9  10
HETATM   10  C   UNL     1     -10.840  14.389  69.219  1.00  0.00    -0.261 C  
BRANCH  10  11
HETATM   11  C   UNL     1     -10.736  14.977  67.802  1.00  0.00    -0.278 C  
BRANCH  11  12
HETATM   12  C   UNL     1     -10.654  13.867  66.753  1.00  0.00    -0.277 C  
BRANCH  12  13
HETATM   13  N   UNL     1     -11.241  14.237  65.382  1.00  0.00    -0.317 N  
HETATM   14  C   UNL     1     -12.756  14.069  65.357  1.00  0.00    -0.471 C  
HETATM   15  C   UNL     1     -10.897  15.689  65.035  1.00  0.00    -0.450 C  
BRANCH  13  16
HETATM   16  C   UNL     1     -10.583  13.335  64.275  1.00  0.00    -0.384 C  
BRANCH  16  17
HETATM   17  C   UNL     1     -10.755  11.837  64.550  1.00  0.00    -0.315 C  
BRANCH  17  18
HETATM   18  O   UNL     1     -10.050  11.046  63.598  1.00  0.00    -0.312 OA 
BRANCH  18  19
HETATM   19  C   UNL     1      -9.358  10.005  64.178  1.00  0.00    -0.280 A  
HETATM   20  C   UNL     1      -9.780   9.631  65.452  1.00  0.00    -0.365 A  
HETATM   21  C   UNL     1      -9.110   8.618  66.143  1.00  0.00    -0.250 A  
HETATM   22  C   UNL     1      -8.025   7.966  65.556  1.00  0.00    -0.119 A  
HETATM   23  C   UNL     1      -7.623   8.311  64.269  1.00  0.00    -0.122 A  
HETATM   24  C   UNL     1      -8.293   9.321  63.580  1.00  0.00    -0.185 A  
ENDBRANCH  18  19
ENDBRANCH  17  18
ENDBRANCH  16  17
ENDBRANCH  13  16
ENDBRANCH  12  13
ENDBRANCH  11  12
ENDBRANCH  10  11
ENDBRANCH   9  10
ENDBRANCH   8   9
ENDBRANCH   7   8
ENDBRANCH   6   7
ENDBRANCH   5   6
ENDBRANCH   4   5
ENDBRANCH   3   4
ENDBRANCH   2   3
TORSDOF 15
ENDMDL
MODEL      139
REMARK 921   NORMALIZED FREE ENERGY PREDICTED BY IDOCK:   -4.19 KCAL/MOL
REMARK 922        TOTAL FREE ENERGY PREDICTED BY IDOCK:   -8.98 KCAL/MOL
REMARK 923 INTER-LIGAND FREE ENERGY PREDICTED BY IDOCK:   -6.04 KCAL/MOL
REMARK 924 INTRA-LIGAND FREE ENERGY PREDICTED BY IDOCK:   -2.94 KCAL/MOL
REMARK 927      BINDING AFFINITY PREDICTED BY RF-SCORE:    0.00 PKD
ROOT
HETATM    1  C   UNL     1     -10.352  16.345  68.573  1.00  0.00    -0.270 C  
HETATM    2  C   UNL     1     -11.655  15.566  68.620  1.00  0.00    -0.379 C  
ENDROOT
BRANCH   2   3
HETATM    3  C   UNL     1     -11.897  14.822  67.311  1.00  0.00    -0.316 C  
BRANCH   3   4
HETATM    4  C   UNL     1     -10.695  14.951  66.384  1.00  0.00    -0.316 C  
BRANCH   4   5
HETATM    5  C   UNL     1     -10.849  14.051  65.163  1.00  0.00    -0.376 C  
BRANCH   5   6
HETATM    6  C   UNL     1     -11.847  12.938  65.450  1.00  0.00    -0.444 C  
BRANCH   6   7
HETATM    7  C   UNL     1     -11.390  11.631  64.821  1.00  0.00    -0.270 C  
BRANCH   7   8
HETATM    8  C   UNL     1      -9.891  11.435  65.018  1.00  0.00    -0.304 C  
BRANCH   8   9
HETATM    9  C   UNL     1      -9.550   9.960  64.871  1.00  0.00    -0.356 C  
BRANCH   9  10
HETATM   10  C   UNL     1      -9.993   9.151  66.085  1.00  0.00    -0.338 C  
BRANCH  10  11
HETATM   11  C   UNL     1      -9.043   7.974  66.365  1.00  0.00    -0.226 C  
BRANCH  11  12
HETATM   12  C   UNL     1      -9.824   6.670  66.540  1.00  0.00    -0.104 C  
BRANCH  12  13
HETATM   13  N   UNL     1      -9.610   5.973  67.893  1.00  0.00    -0.115 N  
HETATM   14  C   UNL     1      -9.762   4.461  67.774  1.00  0.00    -0.137 C  
HETATM   15  C   UNL     1      -8.214   6.291  68.436  1.00  0.00    -0.116 C  
BRANCH  13  16
HETATM   16  C   UNL     1     -10.644   6.535  68.935  1.00  0.00    -0.241 C  
BRANCH  16  17
HETATM   17  C   UNL     1      -9.970   7.211  70.135  1.00  0.00    -0.186 C  
BRANCH  17  18
HETATM   18  O   UNL     1     -10.674   8.382  70.540  1.00  0.00    -0.218 OA 
BRANCH  18  19
HETATM   19  C   UNL     1     -10.243   9.515  69.886  1.00  0.00    -0.231 A  
HETATM   20  C   UNL     1     -11.241  10.395  69.474  1.00  0.00    -0.325 A  
HETATM   21  C   UNL     1     -10.907  11.549  68.760  1.00  0.00    -0.258 A  
HETATM   22  C   UNL     1      -9.573  11.834  68.468  1.00  0.00    -0.173 A  
HETATM   23  C   UNL     1      -8.569  10.975  68.909  1.00  0.00    -0.122 A  
HETATM   24  C   UNL     1      -8.903   9.826  69.623  1.00  0.00    -0.224 A  
ENDBRANCH  18  19
ENDBRANCH  17  18
ENDBRANCH  16  17
ENDBRANCH  13  16
ENDBRANCH  12  13
ENDBRANCH  11  12
ENDBRANCH  10  11
ENDBRANCH   9  10
ENDBRANCH   8   9
ENDBRANCH   7   8
ENDBRANCH   6   7
ENDBRANCH   5   6
ENDBRANCH   4   5
ENDBRANCH   3   4
ENDBRANCH   2   3
TORSDOF 15
ENDMDL
MODEL      140
REMARK 921   NORMALIZED FREE ENERGY PREDICTED BY IDOCK:   -4.19 KCAL/MOL
REMARK 922        TOTAL FREE ENERGY PREDICTED BY IDOCK:   -8.98 KCAL/MOL
REMARK 923 INTER-LIGAND FREE ENERGY PREDICTED BY IDOCK:   -7.82 KCAL/MOL
REMARK 924 INTRA-LIGAND FREE ENERGY PREDICTED BY IDOCK:   -1.16 KCAL/MOL
REMARK 927      BINDING AFFINITY PREDICTED BY RF-SCORE:    0.00 PKD
ROOT
HETATM    1  C   UNL     1     -13.909  13.473  72.136  1.00  0.00    -0.628 C  
HETATM    2  C   UNL     1     -13.395  14.842  72.544  1.00  0.00    -0.529 C  
ENDROOT
BRANCH   2   3
HETATM    3  C   UNL     1     -12.712  15.543  71.375  1.00  0.00    -0.517 C  
BRANCH   3   4
HETATM    4  C   UNL     1     -12.622  14.619  70.166  1.00  0.00    -0.333 C  
BRANCH   4   5
HETATM    5  C   UNL     1     -11.645  15.167  69.132  1.00  0.00    -0.343 C  
BRANCH   5   6
HETATM    6  C   UNL     1     -10.501  15.898  69.822  1.00  0.00    -0.311 C  
BRANCH   6   7
HETATM    7  C   UNL     1      -9.739  16.761  68.830  1.00  0.00    -0.261 C  
BRANCH   7   8
HETATM    8  C   UNL     1     -10.704  17.548  67.950  1.00  0.00    -0.340 C  
BRANCH   8   9
HETATM    9  C   UNL     1     -10.204  17.538  66.514  1.00  0.00    -0.342 C  
BRANCH   9  10
HETATM   10  C   UNL     1      -9.432  16.263  66.190  1.00  0.00    -0.373 C  
BRANCH  10  11
HETATM   11  C   UNL     1     -10.204  15.359  65.213  1.00  0.00    -0.390 C  
BRANCH  11  12
HETATM   12  C   UNL     1     -10.977  14.276  65.966  1.00  0.00    -0.312 C  
BRANCH  12  13
HETATM   13  N   UNL     1     -10.363  12.869  65.870  1.00  0.00    -0.280 N  
HETATM   14  C   UNL     1     -10.321  12.374  64.429  1.00  0.00    -0.343 C  
HETATM   15  C   UNL     1      -8.940  12.875  66.436  1.00  0.00    -0.005 C  
BRANCH  13  16
HETATM   16  C   UNL     1     -11.202  11.876  66.755  1.00  0.00    -0.327 C  
BRANCH  16  17
HETATM   17  C   UNL     1     -10.338  10.798  67.419  1.00  0.00    -0.211 C  
BRANCH  17  18
HETATM   18  O   UNL     1     -10.514   9.529  66.795  1.00  0.00    -0.239 OA 
BRANCH  18  19
HETATM   19  C   UNL     1     -10.671   8.507  67.705  1.00  0.00    -0.119 A  
HETATM   20  C   UNL     1     -10.846   7.234  67.164  1.00  0.00    -0.378 A  
HETATM   21  C   UNL     1     -11.062   6.139  68.005  1.00  0.00    -0.316 A  
HETATM   22  C   UNL     1     -11.088   6.310  69.389  1.00  0.00    -0.477 A  
HETATM   23  C   UNL     1     -10.878   7.573  69.936  1.00  0.00    -0.250 A  
HETATM   24  C   UNL     1     -10.661   8.665  69.096  1.00  0.00    -0.193 A  
ENDBRANCH  18  19
ENDBRANCH  17  18
ENDBRANCH  16  17
ENDBRANCH  13  16
ENDBRANCH  12  13
ENDBRANCH  11  12
ENDBRANCH  10  11
ENDBRANCH   9  10
ENDBRANCH   8   9
ENDBRANCH   7   8
ENDBRANCH   6   7
ENDBRANCH   5   6
ENDBRANCH   4   5
ENDBRANCH   3   4
ENDBRANCH   2   3
TORSDOF 15
ENDMDL
MODEL      141
REMARK 921   NORMALIZED FREE ENERGY PREDICTED BY IDOCK:   -4.17 KCAL/MOL
REMARK 922        TOTAL FREE ENERGY PREDICTED BY IDOCK:   -8.95 KCAL/MOL
REMARK 923 INTER-LIGAND FREE ENERGY PREDICTED BY IDOCK:   -7.99 KCAL/MOL
REMARK 924 INTRA-LIGAND FREE ENERGY PREDICTED BY IDOCK:   -0.96 KCAL/MOL
REMARK 927      BINDING AFFINITY PREDICTED BY RF-SCORE:    0.00 PKD
ROOT
HETATM    1  C   UNL     1      -7.565  19.657  66.075  1.00  0.00    -0.331 C  
HETATM    2  C   UNL     1      -8.390  20.056  67.285  1.00  0.00    -0.381 C  
ENDROOT
BRANCH   2   3
HETATM    3  C   UNL     1      -9.829  20.374  66.889  1.00  0.00    -0.572 C  
BRANCH   3   4
HETATM    4  C   UNL     1     -10.801  19.405  67.553  1.00  0.00    -0.521 C  
BRANCH   4   5
HETATM    5  C   UNL     1     -10.054  18.362  68.377  1.00  0.00    -0.418 C  
BRANCH   5   6
HETATM    6  C   UNL     1     -10.324  16.966  67.831  1.00  0.00    -0.332 C  
BRANCH   6   7
HETATM    7  C   UNL     1     -10.339  16.978  66.311  1.00  0.00    -0.309 C  
BRANCH   7   8
HETATM    8  C   UNL     1     -10.007  15.596  65.759  1.00  0.00    -0.390 C  
BRANCH   8   9
HETATM    9  C   UNL     1     -11.269  14.750  65.720  1.00  0.00    -0.337 C  
BRANCH   9  10
HETATM   10  C   UNL     1     -11.079  13.411  66.425  1.00  0.00    -0.312 C  
BRANCH  10  11
HETATM   11  C   UNL     1     -10.094  12.501  65.670  1.00  0.00    -0.285 C  
BRANCH  11  12
HETATM   12  C   UNL     1     -10.519  11.035  65.770  1.00  0.00    -0.228 C  
BRANCH  12  13
HETATM   13  N   UNL     1      -9.755  10.219  66.825  1.00  0.00    -0.179 N  
HETATM   14  C   UNL     1      -9.073   9.003  66.207  1.00  0.00    -0.179 C  
HETATM   15  C   UNL     1      -8.694  11.092  67.502  1.00  0.00    -0.129 C  
BRANCH  13  16
HETATM   16  C   UNL     1     -10.753   9.760  67.949  1.00  0.00    -0.258 C  
BRANCH  16  17
HETATM   17  C   UNL     1     -10.094   8.854  68.995  1.00  0.00    -0.197 C  
BRANCH  17  18
HETATM   18  O   UNL     1     -10.292   9.350  70.316  1.00  0.00    -0.209 OA 
BRANCH  18  19
HETATM   19  C   UNL     1     -11.520   9.004  70.836  1.00  0.00    -0.291 A  
HETATM   20  C   UNL     1     -12.326  10.063  71.247  1.00  0.00    -0.496 A  
HETATM   21  C   UNL     1     -13.569   9.812  71.833  1.00  0.00    -0.421 A  
HETATM   22  C   UNL     1     -14.018   8.501  71.996  1.00  0.00    -0.494 A  
HETATM   23  C   UNL     1     -13.231   7.440  71.554  1.00  0.00    -0.426 A  
HETATM   24  C   UNL     1     -11.992   7.692  70.969  1.00  0.00    -0.296 A  
ENDBRANCH  18  19
ENDBRANCH  17  18
ENDBRANCH  16  17
ENDBRANCH  13  16
ENDBRANCH  12  13
ENDBRANCH  11  12
ENDBRANCH  10  11
ENDBRANCH   9  10
ENDBRANCH   8   9
ENDBRANCH   7   8
ENDBRANCH   6   7
ENDBRANCH   5   6
ENDBRANCH   4   5
ENDBRANCH   3   4
ENDBRANCH   2   3
TORSDOF 15
ENDMDL
MODEL      142
REMARK 921   NORMALIZED FREE ENERGY PREDICTED BY IDOCK:   -4.17 KCAL/MOL
REMARK 922        TOTAL FREE ENERGY PREDICTED BY IDOCK:   -8.95 KCAL/MOL
REMARK 923 INTER-LIGAND FREE ENERGY PREDICTED BY IDOCK:   -7.32 KCAL/MOL
REMARK 924 INTRA-LIGAND FREE ENERGY PREDICTED BY IDOCK:   -1.63 KCAL/MOL
REMARK 927      BINDING AFFINITY PREDICTED BY RF-SCORE:    0.00 PKD
ROOT
HETATM    1  C   UNL     1      -9.515   4.445  65.989  1.00  0.00    -0.173 C  
HETATM    2  C   UNL     1     -10.781   5.201  66.348  1.00  0.00    -0.275 C  
ENDROOT
BRANCH   2   3
HETATM    3  C   UNL     1     -10.598   6.002  67.632  1.00  0.00    -0.336 C  
BRANCH   3   4
HETATM    4  C   UNL     1      -9.859   5.181  68.683  1.00  0.00    -0.225 C  
BRANCH   4   5
HETATM    5  C   UNL     1     -10.462   5.394  70.066  1.00  0.00    -0.373 C  
BRANCH   5   6
HETATM    6  C   UNL     1     -11.641   6.355  69.985  1.00  0.00    -0.446 C  
BRANCH   6   7
HETATM    7  C   UNL     1     -12.085   6.778  71.377  1.00  0.00    -0.415 C  
BRANCH   7   8
HETATM    8  C   UNL     1     -10.925   6.684  72.363  1.00  0.00    -0.277 C  
BRANCH   8   9
HETATM    9  C   UNL     1     -10.427   8.082  72.693  1.00  0.00    -0.408 C  
BRANCH   9  10
HETATM   10  C   UNL     1      -9.176   8.443  71.898  1.00  0.00    -0.306 C  
BRANCH  10  11
HETATM   11  C   UNL     1      -9.490   9.419  70.751  1.00  0.00    -0.307 C  
BRANCH  11  12
HETATM   12  C   UNL     1      -9.036   8.847  69.407  1.00  0.00    -0.145 C  
BRANCH  12  13
HETATM   13  N   UNL     1      -9.014   9.863  68.254  1.00  0.00    -0.119 N  
HETATM   14  C   UNL     1      -8.586  11.245  68.734  1.00  0.00    -0.108 C  
HETATM   15  C   UNL     1      -8.051   9.397  67.158  1.00  0.00    -0.102 C  
BRANCH  13  16
HETATM   16  C   UNL     1     -10.443   9.939  67.603  1.00  0.00    -0.244 C  
BRANCH  16  17
HETATM   17  C   UNL     1     -11.235  11.173  68.052  1.00  0.00    -0.296 C  
BRANCH  17  18
HETATM   18  O   UNL     1     -12.058  11.676  67.004  1.00  0.00    -0.547 OA 
BRANCH  18  19
HETATM   19  C   UNL     1     -11.592  12.864  66.485  1.00  0.00    -0.371 A  
HETATM   20  C   UNL     1     -11.552  13.939  67.370  1.00  0.00    -0.398 A  
HETATM   21  C   UNL     1     -11.139  15.198  66.926  1.00  0.00    -0.314 A  
HETATM   22  C   UNL     1     -10.752  15.383  65.598  1.00  0.00    -0.381 A  
HETATM   23  C   UNL     1     -10.756  14.303  64.719  1.00  0.00    -0.435 A  
HETATM   24  C   UNL     1     -11.166  13.047  65.164  1.00  0.00    -0.321 A  
ENDBRANCH  18  19
ENDBRANCH  17  18
ENDBRANCH  16  17
ENDBRANCH  13  16
ENDBRANCH  12  13
ENDBRANCH  11  12
ENDBRANCH  10  11
ENDBRANCH   9  10
ENDBRANCH   8   9
ENDBRANCH   7   8
ENDBRANCH   6   7
ENDBRANCH   5   6
ENDBRANCH   4   5
ENDBRANCH   3   4
ENDBRANCH   2   3
TORSDOF 15
ENDMDL
MODEL      143
REMARK 921   NORMALIZED FREE ENERGY PREDICTED BY IDOCK:   -4.17 KCAL/MOL
REMARK 922        TOTAL FREE ENERGY PREDICTED BY IDOCK:   -8.95 KCAL/MOL
REMARK 923 INTER-LIGAND FREE ENERGY PREDICTED BY IDOCK:   -6.11 KCAL/MOL
REMARK 924 INTRA-LIGAND FREE ENERGY PREDICTED BY IDOCK:   -2.84 KCAL/MOL
REMARK 927      BINDING AFFINITY PREDICTED BY RF-SCORE:    0.00 PKD
ROOT
HETATM    1  C   UNL     1     -10.585  14.155  66.831  1.00  0.00    -0.280 C  
HETATM    2  C   UNL     1     -12.102  14.207  66.870  1.00  0.00    -0.466 C  
ENDROOT
BRANCH   2   3
HETATM    3  C   UNL     1     -12.706  13.495  65.664  1.00  0.00    -0.478 C  
BRANCH   3   4
HETATM    4  C   UNL     1     -12.118  14.034  64.365  1.00  0.00    -0.486 C  
BRANCH   4   5
HETATM    5  C   UNL     1     -11.828  12.902  63.386  1.00  0.00    -0.576 C  
BRANCH   5   6
HETATM    6  C   UNL     1     -10.413  12.377  63.591  1.00  0.00    -0.460 C  
BRANCH   6   7
HETATM    7  C   UNL     1     -10.378  10.863  63.457  1.00  0.00    -0.342 C  
BRANCH   7   8
HETATM    8  C   UNL     1      -9.762  10.227  64.699  1.00  0.00    -0.398 C  
BRANCH   8   9
HETATM    9  C   UNL     1     -10.499  10.717  65.936  1.00  0.00    -0.243 C  
BRANCH   9  10
HETATM   10  C   UNL     1     -10.531   9.659  67.035  1.00  0.00    -0.302 C  
BRANCH  10  11
HETATM   11  C   UNL     1      -9.915   8.329  66.567  1.00  0.00    -0.320 C  
BRANCH  11  12
HETATM   12  C   UNL     1     -10.584   7.142  67.262  1.00  0.00    -0.327 C  
BRANCH  12  13
HETATM   13  N   UNL     1      -9.852   6.642  68.518  1.00  0.00    -0.137 N  
HETATM   14  C   UNL     1     -10.386   7.310  69.780  1.00  0.00    -0.220 C  
HETATM   15  C   UNL     1     -10.012   5.125  68.653  1.00  0.00    -0.158 C  
BRANCH  13  16
HETATM   16  C   UNL     1      -8.313   6.928  68.370  1.00  0.00    -0.120 C  
BRANCH  16  17
HETATM   17  C   UNL     1      -7.760   7.802  69.502  1.00  0.00    -0.105 C  
BRANCH  17  18
HETATM   18  O   UNL     1      -6.550   8.449  69.120  1.00  0.00    -0.045 OA 
BRANCH  18  19
HETATM   19  C   UNL     1      -6.768   9.606  68.405  1.00  0.00    -0.057 A  
HETATM   20  C   UNL     1      -7.493  10.598  69.061  1.00  0.00    -0.117 A  
HETATM   21  C   UNL     1      -7.808  11.789  68.402  1.00  0.00    -0.141 A  
HETATM   22  C   UNL     1      -7.387  11.998  67.088  1.00  0.00    -0.134 A  
HETATM   23  C   UNL     1      -6.631  11.025  66.440  1.00  0.00    -0.126 A  
HETATM   24  C   UNL     1      -6.316   9.837  67.099  1.00  0.00    -0.068 A  
ENDBRANCH  18  19
ENDBRANCH  17  18
ENDBRANCH  16  17
ENDBRANCH  13  16
ENDBRANCH  12  13
ENDBRANCH  11  12
ENDBRANCH  10  11
ENDBRANCH   9  10
ENDBRANCH   8   9
ENDBRANCH   7   8
ENDBRANCH   6   7
ENDBRANCH   5   6
ENDBRANCH   4   5
ENDBRANCH   3   4
ENDBRANCH   2   3
TORSDOF 15
ENDMDL
MODEL      144
REMARK 921   NORMALIZED FREE ENERGY PREDICTED BY IDOCK:   -4.17 KCAL/MOL
REMARK 922        TOTAL FREE ENERGY PREDICTED BY IDOCK:   -8.95 KCAL/MOL
REMARK 923 INTER-LIGAND FREE ENERGY PREDICTED BY IDOCK:   -6.62 KCAL/MOL
REMARK 924 INTRA-LIGAND FREE ENERGY PREDICTED BY IDOCK:   -2.33 KCAL/MOL
REMARK 927      BINDING AFFINITY PREDICTED BY RF-SCORE:    0.00 PKD
ROOT
HETATM    1  C   UNL     1      -6.612   6.519  72.786  1.00  0.00    -0.064 C  
HETATM    2  C   UNL     1      -7.509   6.976  71.650  1.00  0.00    -0.088 C  
ENDROOT
BRANCH   2   3
HETATM    3  C   UNL     1      -7.719   5.860  70.633  1.00  0.00    -0.097 C  
BRANCH   3   4
HETATM    4  C   UNL     1      -7.337   6.323  69.232  1.00  0.00    -0.092 C  
BRANCH   4   5
HETATM    5  C   UNL     1      -7.430   7.840  69.115  1.00  0.00    -0.094 C  
BRANCH   5   6
HETATM    6  C   UNL     1      -7.381   8.260  67.652  1.00  0.00    -0.093 C  
BRANCH   6   7
HETATM    7  C   UNL     1      -8.700   8.886  67.228  1.00  0.00    -0.125 C  
BRANCH   7   8
HETATM    8  C   UNL     1      -9.624   7.835  66.624  1.00  0.00    -0.286 C  
BRANCH   8   9
HETATM    9  C   UNL     1     -10.821   7.626  67.539  1.00  0.00    -0.205 C  
BRANCH   9  10
HETATM   10  C   UNL     1     -10.841   6.224  68.138  1.00  0.00    -0.401 C  
BRANCH  10  11
HETATM   11  C   UNL     1     -11.214   6.245  69.631  1.00  0.00    -0.506 C  
BRANCH  11  12
HETATM   12  C   UNL     1     -10.995   7.635  70.229  1.00  0.00    -0.252 C  
BRANCH  12  13
HETATM   13  N   UNL     1     -11.755   7.894  71.540  1.00  0.00    -0.274 N  
HETATM   14  C   UNL     1     -13.169   7.327  71.489  1.00  0.00    -0.379 C  
HETATM   15  C   UNL     1     -11.008   7.259  72.717  1.00  0.00    -0.323 C  
BRANCH  13  16
HETATM   16  C   UNL     1     -11.806   9.441  71.813  1.00  0.00    -0.382 C  
BRANCH  16  17
HETATM   17  C   UNL     1     -12.440  10.227  70.660  1.00  0.00    -0.318 C  
BRANCH  17  18
HETATM   18  O   UNL     1     -11.938  11.559  70.596  1.00  0.00    -0.361 OA 
BRANCH  18  19
HETATM   19  C   UNL     1     -11.784  12.008  69.303  1.00  0.00    -0.330 A  
HETATM   20  C   UNL     1     -11.947  13.379  69.113  1.00  0.00    -0.363 A  
HETATM   21  C   UNL     1     -11.858  13.924  67.830  1.00  0.00    -0.415 A  
HETATM   22  C   UNL     1     -11.592  13.103  66.734  1.00  0.00    -0.414 A  
HETATM   23  C   UNL     1     -11.394  11.738  66.923  1.00  0.00    -0.386 A  
HETATM   24  C   UNL     1     -11.480  11.195  68.204  1.00  0.00    -0.373 A  
ENDBRANCH  18  19
ENDBRANCH  17  18
ENDBRANCH  16  17
ENDBRANCH  13  16
ENDBRANCH  12  13
ENDBRANCH  11  12
ENDBRANCH  10  11
ENDBRANCH   9  10
ENDBRANCH   8   9
ENDBRANCH   7   8
ENDBRANCH   6   7
ENDBRANCH   5   6
ENDBRANCH   4   5
ENDBRANCH   3   4
ENDBRANCH   2   3
TORSDOF 15
ENDMDL
MODEL      145
REMARK 921   NORMALIZED FREE ENERGY PREDICTED BY IDOCK:   -4.17 KCAL/MOL
REMARK 922        TOTAL FREE ENERGY PREDICTED BY IDOCK:   -8.94 KCAL/MOL
REMARK 923 INTER-LIGAND FREE ENERGY PREDICTED BY IDOCK:   -7.03 KCAL/MOL
REMARK 924 INTRA-LIGAND FREE ENERGY PREDICTED BY IDOCK:   -1.92 KCAL/MOL
REMARK 927      BINDING AFFINITY PREDICTED BY RF-SCORE:    0.00 PKD
ROOT
HETATM    1  C   UNL     1     -12.775  12.310  71.220  1.00  0.00    -0.351 C  
HETATM    2  C   UNL     1     -13.194  10.961  71.776  1.00  0.00    -0.513 C  
ENDROOT
BRANCH   2   3
HETATM    3  C   UNL     1     -12.320   9.842  71.218  1.00  0.00    -0.478 C  
BRANCH   3   4
HETATM    4  C   UNL     1     -12.414   8.595  72.089  1.00  0.00    -0.453 C  
BRANCH   4   5
HETATM    5  C   UNL     1     -12.326   7.331  71.243  1.00  0.00    -0.401 C  
BRANCH   5   6
HETATM    6  C   UNL     1     -11.614   6.227  72.014  1.00  0.00    -0.372 C  
BRANCH   6   7
HETATM    7  C   UNL     1     -10.688   6.819  73.065  1.00  0.00    -0.315 C  
BRANCH   7   8
HETATM    8  C   UNL     1      -9.245   6.820  72.571  1.00  0.00    -0.146 C  
BRANCH   8   9
HETATM    9  C   UNL     1      -8.704   8.241  72.589  1.00  0.00    -0.291 C  
BRANCH   9  10
HETATM   10  C   UNL     1      -8.230   8.686  71.210  1.00  0.00    -0.194 C  
BRANCH  10  11
HETATM   11  C   UNL     1      -8.771   7.774  70.096  1.00  0.00    -0.140 C  
BRANCH  11  12
HETATM   12  C   UNL     1      -8.815   8.512  68.757  1.00  0.00    -0.139 C  
BRANCH  12  13
HETATM   13  N   UNL     1      -9.389   7.690  67.593  1.00  0.00    -0.141 N  
HETATM   14  C   UNL     1      -8.323   7.376  66.549  1.00  0.00    -0.124 C  
HETATM   15  C   UNL     1      -9.977   6.375  68.114  1.00  0.00    -0.136 C  
BRANCH  13  16
HETATM   16  C   UNL     1     -10.571   8.486  66.929  1.00  0.00    -0.209 C  
BRANCH  16  17
HETATM   17  C   UNL     1     -10.366  10.005  66.979  1.00  0.00    -0.243 C  
BRANCH  17  18
HETATM   18  O   UNL     1     -11.509  10.670  67.511  1.00  0.00    -0.460 OA 
BRANCH  18  19
HETATM   19  C   UNL     1     -11.352  12.037  67.564  1.00  0.00    -0.319 A  
HETATM   20  C   UNL     1     -12.089  12.769  66.635  1.00  0.00    -0.316 A  
HETATM   21  C   UNL     1     -11.961  14.159  66.578  1.00  0.00    -0.466 A  
HETATM   22  C   UNL     1     -11.107  14.824  67.458  1.00  0.00    -0.323 A  
HETATM   23  C   UNL     1     -10.395  14.100  68.411  1.00  0.00    -0.249 A  
HETATM   24  C   UNL     1     -10.525  12.714  68.469  1.00  0.00    -0.249 A  
ENDBRANCH  18  19
ENDBRANCH  17  18
ENDBRANCH  16  17
ENDBRANCH  13  16
ENDBRANCH  12  13
ENDBRANCH  11  12
ENDBRANCH  10  11
ENDBRANCH   9  10
ENDBRANCH   8   9
ENDBRANCH   7   8
ENDBRANCH   6   7
ENDBRANCH   5   6
ENDBRANCH   4   5
ENDBRANCH   3   4
ENDBRANCH   2   3
TORSDOF 15
ENDMDL
MODEL      146
REMARK 921   NORMALIZED FREE ENERGY PREDICTED BY IDOCK:   -4.17 KCAL/MOL
REMARK 922        TOTAL FREE ENERGY PREDICTED BY IDOCK:   -8.94 KCAL/MOL
REMARK 923 INTER-LIGAND FREE ENERGY PREDICTED BY IDOCK:   -6.56 KCAL/MOL
REMARK 924 INTRA-LIGAND FREE ENERGY PREDICTED BY IDOCK:   -2.38 KCAL/MOL
REMARK 927      BINDING AFFINITY PREDICTED BY RF-SCORE:    0.00 PKD
ROOT
HETATM    1  C   UNL     1      -7.383  12.540  68.069  1.00  0.00    -0.111 C  
HETATM    2  C   UNL     1      -7.323  11.039  67.850  1.00  0.00    -0.092 C  
ENDROOT
BRANCH   2   3
HETATM    3  C   UNL     1      -7.073  10.303  69.162  1.00  0.00    -0.074 C  
BRANCH   3   4
HETATM    4  C   UNL     1      -7.102   8.793  68.951  1.00  0.00    -0.066 C  
BRANCH   4   5
HETATM    5  C   UNL     1      -8.454   8.343  68.412  1.00  0.00    -0.135 C  
BRANCH   5   6
HETATM    6  C   UNL     1      -8.316   7.864  66.973  1.00  0.00    -0.117 C  
BRANCH   6   7
HETATM    7  C   UNL     1      -9.251   8.638  66.057  1.00  0.00    -0.276 C  
BRANCH   7   8
HETATM    8  C   UNL     1     -10.534   9.013  66.791  1.00  0.00    -0.270 C  
BRANCH   8   9
HETATM    9  C   UNL     1     -10.834  10.486  66.565  1.00  0.00    -0.128 C  
BRANCH   9  10
HETATM   10  C   UNL     1     -10.279  10.983  65.234  1.00  0.00    -0.344 C  
BRANCH  10  11
HETATM   11  C   UNL     1     -10.280  12.519  65.151  1.00  0.00    -0.299 C  
BRANCH  11  12
HETATM   12  C   UNL     1     -10.420  13.141  66.541  1.00  0.00    -0.279 C  
BRANCH  12  13
HETATM   13  N   UNL     1     -11.413  14.312  66.620  1.00  0.00    -0.350 N  
HETATM   14  C   UNL     1     -10.758  15.629  66.219  1.00  0.00    -0.295 C  
HETATM   15  C   UNL     1     -12.610  14.052  65.700  1.00  0.00    -0.512 C  
BRANCH  13  16
HETATM   16  C   UNL     1     -11.976  14.417  68.083  1.00  0.00    -0.285 C  
BRANCH  16  17
HETATM   17  C   UNL     1     -11.420  13.332  69.013  1.00  0.00    -0.302 C  
BRANCH  17  18
HETATM   18  O   UNL     1     -12.368  12.961  70.010  1.00  0.00    -0.234 OA 
BRANCH  18  19
HETATM   19  C   UNL     1     -12.152  11.694  70.504  1.00  0.00    -0.366 A  
HETATM   20  C   UNL     1     -11.069  11.007  69.961  1.00  0.00    -0.236 A  
HETATM   21  C   UNL     1     -10.797   9.696  70.362  1.00  0.00    -0.353 A  
HETATM   22  C   UNL     1     -11.599   9.073  71.319  1.00  0.00    -0.387 A  
HETATM   23  C   UNL     1     -12.661   9.768  71.891  1.00  0.00    -0.501 A  
HETATM   24  C   UNL     1     -12.930  11.076  71.492  1.00  0.00    -0.553 A  
ENDBRANCH  18  19
ENDBRANCH  17  18
ENDBRANCH  16  17
ENDBRANCH  13  16
ENDBRANCH  12  13
ENDBRANCH  11  12
ENDBRANCH  10  11
ENDBRANCH   9  10
ENDBRANCH   8   9
ENDBRANCH   7   8
ENDBRANCH   6   7
ENDBRANCH   5   6
ENDBRANCH   4   5
ENDBRANCH   3   4
ENDBRANCH   2   3
TORSDOF 15
ENDMDL
MODEL      147
REMARK 921   NORMALIZED FREE ENERGY PREDICTED BY IDOCK:   -4.16 KCAL/MOL
REMARK 922        TOTAL FREE ENERGY PREDICTED BY IDOCK:   -8.94 KCAL/MOL
REMARK 923 INTER-LIGAND FREE ENERGY PREDICTED BY IDOCK:   -7.47 KCAL/MOL
REMARK 924 INTRA-LIGAND FREE ENERGY PREDICTED BY IDOCK:   -1.46 KCAL/MOL
REMARK 927      BINDING AFFINITY PREDICTED BY RF-SCORE:    0.00 PKD
ROOT
HETATM    1  C   UNL     1      -8.044   8.135  70.476  1.00  0.00    -0.104 C  
HETATM    2  C   UNL     1      -7.938   7.423  69.140  1.00  0.00    -0.118 C  
ENDROOT
BRANCH   2   3
HETATM    3  C   UNL     1      -9.095   6.449  68.943  1.00  0.00    -0.129 C  
BRANCH   3   4
HETATM    4  C   UNL     1      -8.929   5.665  67.646  1.00  0.00    -0.107 C  
BRANCH   4   5
HETATM    5  C   UNL     1      -9.551   6.413  66.473  1.00  0.00    -0.185 C  
BRANCH   5   6
HETATM    6  C   UNL     1      -8.462   7.001  65.585  1.00  0.00    -0.144 C  
BRANCH   6   7
HETATM    7  C   UNL     1      -8.595   8.514  65.504  1.00  0.00    -0.204 C  
BRANCH   7   8
HETATM    8  C   UNL     1      -9.887   8.977  66.167  1.00  0.00    -0.349 C  
BRANCH   8   9
HETATM    9  C   UNL     1     -10.145  10.433  65.814  1.00  0.00    -0.329 C  
BRANCH   9  10
HETATM   10  C   UNL     1      -9.969  10.695  64.321  1.00  0.00    -0.413 C  
BRANCH  10  11
HETATM   11  C   UNL     1     -10.268  12.161  63.960  1.00  0.00    -0.396 C  
BRANCH  11  12
HETATM   12  C   UNL     1     -10.260  13.044  65.208  1.00  0.00    -0.279 C  
BRANCH  12  13
HETATM   13  N   UNL     1     -11.360  14.117  65.238  1.00  0.00    -0.317 N  
HETATM   14  C   UNL     1     -10.788  15.512  65.010  1.00  0.00    -0.450 C  
HETATM   15  C   UNL     1     -12.410  13.828  64.160  1.00  0.00    -0.332 C  
BRANCH  13  16
HETATM   16  C   UNL     1     -12.102  14.062  66.623  1.00  0.00    -0.456 C  
BRANCH  16  17
HETATM   17  C   UNL     1     -11.317  13.284  67.686  1.00  0.00    -0.296 C  
BRANCH  17  18
HETATM   18  O   UNL     1     -11.510  13.835  68.986  1.00  0.00    -0.265 OA 
BRANCH  18  19
HETATM   19  C   UNL     1     -12.046  12.928  69.874  1.00  0.00    -0.265 A  
HETATM   20  C   UNL     1     -12.705  13.472  70.974  1.00  0.00    -0.399 A  
HETATM   21  C   UNL     1     -13.240  12.633  71.955  1.00  0.00    -0.531 A  
HETATM   22  C   UNL     1     -13.130  11.248  71.833  1.00  0.00    -0.510 A  
HETATM   23  C   UNL     1     -12.502  10.699  70.718  1.00  0.00    -0.480 A  
HETATM   24  C   UNL     1     -11.971  11.536  69.738  1.00  0.00    -0.415 A  
ENDBRANCH  18  19
ENDBRANCH  17  18
ENDBRANCH  16  17
ENDBRANCH  13  16
ENDBRANCH  12  13
ENDBRANCH  11  12
ENDBRANCH  10  11
ENDBRANCH   9  10
ENDBRANCH   8   9
ENDBRANCH   7   8
ENDBRANCH   6   7
ENDBRANCH   5   6
ENDBRANCH   4   5
ENDBRANCH   3   4
ENDBRANCH   2   3
TORSDOF 15
ENDMDL
MODEL      148
REMARK 921   NORMALIZED FREE ENERGY PREDICTED BY IDOCK:   -4.15 KCAL/MOL
REMARK 922        TOTAL FREE ENERGY PREDICTED BY IDOCK:   -8.91 KCAL/MOL
REMARK 923 INTER-LIGAND FREE ENERGY PREDICTED BY IDOCK:   -6.72 KCAL/MOL
REMARK 924 INTRA-LIGAND FREE ENERGY PREDICTED BY IDOCK:   -2.19 KCAL/MOL
REMARK 927      BINDING AFFINITY PREDICTED BY RF-SCORE:    0.00 PKD
ROOT
HETATM    1  C   UNL     1     -12.452  14.391  64.123  1.00  0.00    -0.236 C  
HETATM    2  C   UNL     1     -11.280  14.468  65.085  1.00  0.00    -0.367 C  
ENDROOT
BRANCH   2   3
HETATM    3  C   UNL     1     -10.290  13.335  64.836  1.00  0.00    -0.368 C  
BRANCH   3   4
HETATM    4  C   UNL     1     -10.839  12.012  65.356  1.00  0.00    -0.336 C  
BRANCH   4   5
HETATM    5  C   UNL     1     -11.326  12.149  66.793  1.00  0.00    -0.398 C  
BRANCH   5   6
HETATM    6  C   UNL     1     -11.203  10.817  67.522  1.00  0.00    -0.346 C  
BRANCH   6   7
HETATM    7  C   UNL     1     -10.154   9.939  66.861  1.00  0.00    -0.285 C  
BRANCH   7   8
HETATM    8  C   UNL     1      -8.879   9.901  67.697  1.00  0.00    -0.126 C  
BRANCH   8   9
HETATM    9  C   UNL     1      -7.871  10.886  67.127  1.00  0.00    -0.127 C  
BRANCH   9  10
HETATM   10  C   UNL     1      -7.542  12.001  68.115  1.00  0.00    -0.120 C  
BRANCH  10  11
HETATM   11  C   UNL     1      -7.743  13.394  67.494  1.00  0.00    -0.182 C  
BRANCH  11  12
HETATM   12  C   UNL     1      -7.030  14.467  68.316  1.00  0.00    -0.111 C  
BRANCH  12  13
HETATM   13  N   UNL     1      -7.475  15.907  68.013  1.00  0.00    -0.122 N  
HETATM   14  C   UNL     1      -6.314  16.888  68.129  1.00  0.00    -0.140 C  
HETATM   15  C   UNL     1      -8.058  15.992  66.599  1.00  0.00    -0.276 C  
BRANCH  13  16
HETATM   16  C   UNL     1      -8.624  16.315  69.006  1.00  0.00    -0.247 C  
BRANCH  16  17
HETATM   17  C   UNL     1     -10.018  16.205  68.378  1.00  0.00    -0.230 C  
BRANCH  17  18
HETATM   18  O   UNL     1     -11.025  16.713  69.249  1.00  0.00    -0.311 OA 
BRANCH  18  19
HETATM   19  C   UNL     1     -11.571  15.739  70.055  1.00  0.00    -0.357 A  
HETATM   20  C   UNL     1     -11.865  16.126  71.361  1.00  0.00    -0.490 A  
HETATM   21  C   UNL     1     -12.377  15.196  72.270  1.00  0.00    -0.443 A  
HETATM   22  C   UNL     1     -12.610  13.879  71.872  1.00  0.00    -0.316 A  
HETATM   23  C   UNL     1     -12.352  13.497  70.559  1.00  0.00    -0.412 A  
HETATM   24  C   UNL     1     -11.843  14.425  69.652  1.00  0.00    -0.372 A  
ENDBRANCH  18  19
ENDBRANCH  17  18
ENDBRANCH  16  17
ENDBRANCH  13  16
ENDBRANCH  12  13
ENDBRANCH  11  12
ENDBRANCH  10  11
ENDBRANCH   9  10
ENDBRANCH   8   9
ENDBRANCH   7   8
ENDBRANCH   6   7
ENDBRANCH   5   6
ENDBRANCH   4   5
ENDBRANCH   3   4
ENDBRANCH   2   3
TORSDOF 15
ENDMDL
MODEL      149
REMARK 921   NORMALIZED FREE ENERGY PREDICTED BY IDOCK:   -4.14 KCAL/MOL
REMARK 922        TOTAL FREE ENERGY PREDICTED BY IDOCK:   -8.90 KCAL/MOL
REMARK 923 INTER-LIGAND FREE ENERGY PREDICTED BY IDOCK:   -7.39 KCAL/MOL
REMARK 924 INTRA-LIGAND FREE ENERGY PREDICTED BY IDOCK:   -1.51 KCAL/MOL
REMARK 927      BINDING AFFINITY PREDICTED BY RF-SCORE:    0.00 PKD
ROOT
HETATM    1  C   UNL     1      -8.478   5.580  66.681  1.00  0.00    -0.112 C  
HETATM    2  C   UNL     1      -9.964   5.358  66.903  1.00  0.00    -0.209 C  
ENDROOT
BRANCH   2   3
HETATM    3  C   UNL     1     -10.369   5.742  68.323  1.00  0.00    -0.265 C  
BRANCH   3   4
HETATM    4  C   UNL     1      -9.200   5.572  69.286  1.00  0.00    -0.140 C  
BRANCH   4   5
HETATM    5  C   UNL     1      -9.484   6.259  70.616  1.00  0.00    -0.182 C  
BRANCH   5   6
HETATM    6  C   UNL     1     -10.959   6.626  70.716  1.00  0.00    -0.318 C  
BRANCH   6   7
HETATM    7  C   UNL     1     -11.124   8.093  71.079  1.00  0.00    -0.281 C  
BRANCH   7   8
HETATM    8  C   UNL     1     -10.094   8.947  70.349  1.00  0.00    -0.232 C  
BRANCH   8   9
HETATM    9  C   UNL     1     -10.777   9.713  69.226  1.00  0.00    -0.246 C  
BRANCH   9  10
HETATM   10  C   UNL     1     -10.146   9.416  67.870  1.00  0.00    -0.239 C  
BRANCH  10  11
HETATM   11  C   UNL     1      -9.915  10.699  67.053  1.00  0.00    -0.243 C  
BRANCH  11  12
HETATM   12  C   UNL     1     -11.246  11.323  66.627  1.00  0.00    -0.177 C  
BRANCH  12  13
HETATM   13  N   UNL     1     -11.118  12.684  65.925  1.00  0.00    -0.280 N  
HETATM   14  C   UNL     1     -10.004  12.675  64.885  1.00  0.00    -0.146 C  
HETATM   15  C   UNL     1     -12.437  13.048  65.236  1.00  0.00    -0.499 C  
BRANCH  13  16
HETATM   16  C   UNL     1     -10.841  13.798  66.998  1.00  0.00    -0.284 C  
BRANCH  16  17
HETATM   17  C   UNL     1     -11.665  13.609  68.277  1.00  0.00    -0.363 C  
BRANCH  17  18
HETATM   18  O   UNL     1     -11.625  14.770  69.102  1.00  0.00    -0.272 OA 
BRANCH  18  19
HETATM   19  C   UNL     1     -12.358  14.626  70.260  1.00  0.00    -0.349 A  
HETATM   20  C   UNL     1     -12.306  13.369  70.859  1.00  0.00    -0.436 A  
HETATM   21  C   UNL     1     -13.054  13.109  72.010  1.00  0.00    -0.476 A  
HETATM   22  C   UNL     1     -13.845  14.110  72.575  1.00  0.00    -0.590 A  
HETATM   23  C   UNL     1     -13.873  15.378  72.000  1.00  0.00    -0.625 A  
HETATM   24  C   UNL     1     -13.125  15.636  70.852  1.00  0.00    -0.425 A  
ENDBRANCH  18  19
ENDBRANCH  17  18
ENDBRANCH  16  17
ENDBRANCH  13  16
ENDBRANCH  12  13
ENDBRANCH  11  12
ENDBRANCH  10  11
ENDBRANCH   9  10
ENDBRANCH   8   9
ENDBRANCH   7   8
ENDBRANCH   6   7
ENDBRANCH   5   6
ENDBRANCH   4   5
ENDBRANCH   3   4
ENDBRANCH   2   3
TORSDOF 15
ENDMDL
MODEL      150
REMARK 921   NORMALIZED FREE ENERGY PREDICTED BY IDOCK:   -4.13 KCAL/MOL
REMARK 922        TOTAL FREE ENERGY PREDICTED BY IDOCK:   -8.88 KCAL/MOL
REMARK 923 INTER-LIGAND FREE ENERGY PREDICTED BY IDOCK:   -6.83 KCAL/MOL
REMARK 924 INTRA-LIGAND FREE ENERGY PREDICTED BY IDOCK:   -2.05 KCAL/MOL
REMARK 927      BINDING AFFINITY PREDICTED BY RF-SCORE:    0.00 PKD
ROOT
HETATM    1  C   UNL     1     -12.999  14.764  70.778  1.00  0.00    -0.407 C  
HETATM    2  C   UNL     1     -13.055  14.057  72.121  1.00  0.00    -0.501 C  
ENDROOT
BRANCH   2   3
HETATM    3  C   UNL     1     -13.099  12.543  71.943  1.00  0.00    -0.473 C  
BRANCH   3   4
HETATM    4  C   UNL     1     -12.312  12.119  70.709  1.00  0.00    -0.391 C  
BRANCH   4   5
HETATM    5  C   UNL     1     -12.528  10.641  70.406  1.00  0.00    -0.421 C  
BRANCH   5   6
HETATM    6  C   UNL     1     -13.245   9.963  71.567  1.00  0.00    -0.501 C  
BRANCH   6   7
HETATM    7  C   UNL     1     -12.389   8.850  72.149  1.00  0.00    -0.449 C  
BRANCH   7   8
HETATM    8  C   UNL     1     -11.487   8.248  71.078  1.00  0.00    -0.303 C  
BRANCH   8   9
HETATM    9  C   UNL     1     -10.146   7.880  71.693  1.00  0.00    -0.228 C  
BRANCH   9  10
HETATM   10  C   UNL     1      -9.075   8.921  71.387  1.00  0.00    -0.318 C  
BRANCH  10  11
HETATM   11  C   UNL     1      -9.175   9.438  69.941  1.00  0.00    -0.226 C  
BRANCH  11  12
HETATM   12  C   UNL     1      -7.828   9.977  69.459  1.00  0.00    -0.154 C  
BRANCH  12  13
HETATM   13  N   UNL     1      -7.201   9.187  68.299  1.00  0.00    -0.077 N  
HETATM   14  C   UNL     1      -6.498  10.108  67.309  1.00  0.00    -0.068 C  
HETATM   15  C   UNL     1      -6.189   8.171  68.837  1.00  0.00    -0.040 C  
BRANCH  13  16
HETATM   16  C   UNL     1      -8.324   8.367  67.564  1.00  0.00    -0.129 C  
BRANCH  16  17
HETATM   17  C   UNL     1      -8.475   8.757  66.089  1.00  0.00    -0.131 C  
BRANCH  17  18
HETATM   18  O   UNL     1      -9.832   9.040  65.759  1.00  0.00    -0.262 OA 
BRANCH  18  19
HETATM   19  C   UNL     1     -10.156  10.368  65.930  1.00  0.00    -0.261 A  
HETATM   20  C   UNL     1      -9.821  11.215  64.875  1.00  0.00    -0.316 A  
HETATM   21  C   UNL     1     -10.066  12.587  64.974  1.00  0.00    -0.258 A  
HETATM   22  C   UNL     1     -10.658  13.115  66.121  1.00  0.00    -0.288 A  
HETATM   23  C   UNL     1     -11.026  12.268  67.163  1.00  0.00    -0.308 A  
HETATM   24  C   UNL     1     -10.784  10.899  67.063  1.00  0.00    -0.323 A  
ENDBRANCH  18  19
ENDBRANCH  17  18
ENDBRANCH  16  17
ENDBRANCH  13  16
ENDBRANCH  12  13
ENDBRANCH  11  12
ENDBRANCH  10  11
ENDBRANCH   9  10
ENDBRANCH   8   9
ENDBRANCH   7   8
ENDBRANCH   6   7
ENDBRANCH   5   6
ENDBRANCH   4   5
ENDBRANCH   3   4
ENDBRANCH   2   3
TORSDOF 15
ENDMDL
MODEL      151
REMARK 921   NORMALIZED FREE ENERGY PREDICTED BY IDOCK:   -4.12 KCAL/MOL
REMARK 922        TOTAL FREE ENERGY PREDICTED BY IDOCK:   -8.86 KCAL/MOL
REMARK 923 INTER-LIGAND FREE ENERGY PREDICTED BY IDOCK:   -7.45 KCAL/MOL
REMARK 924 INTRA-LIGAND FREE ENERGY PREDICTED BY IDOCK:   -1.41 KCAL/MOL
REMARK 927      BINDING AFFINITY PREDICTED BY RF-SCORE:    0.00 PKD
ROOT
HETATM    1  C   UNL     1     -11.160  15.204  67.079  1.00  0.00    -0.328 C  
HETATM    2  C   UNL     1     -11.789  14.433  68.226  1.00  0.00    -0.361 C  
ENDROOT
BRANCH   2   3
HETATM    3  C   UNL     1     -11.163  14.825  69.560  1.00  0.00    -0.305 C  
BRANCH   3   4
HETATM    4  C   UNL     1     -12.164  15.577  70.429  1.00  0.00    -0.443 C  
BRANCH   4   5
HETATM    5  C   UNL     1     -12.131  15.067  71.865  1.00  0.00    -0.443 C  
BRANCH   5   6
HETATM    6  C   UNL     1     -13.540  14.738  72.341  1.00  0.00    -0.550 C  
BRANCH   6   7
HETATM    7  C   UNL     1     -13.660  13.262  72.686  1.00  0.00    -0.496 C  
BRANCH   7   8
HETATM    8  C   UNL     1     -12.829  12.417  71.726  1.00  0.00    -0.350 C  
BRANCH   8   9
HETATM    9  C   UNL     1     -13.232  10.957  71.859  1.00  0.00    -0.508 C  
BRANCH   9  10
HETATM   10  C   UNL     1     -12.050  10.018  71.640  1.00  0.00    -0.420 C  
BRANCH  10  11
HETATM   11  C   UNL     1     -12.045   8.859  72.652  1.00  0.00    -0.125 C  
BRANCH  11  12
HETATM   12  C   UNL     1     -12.400   7.537  71.970  1.00  0.00    -0.271 C  
BRANCH  12  13
HETATM   13  N   UNL     1     -11.266   6.499  71.958  1.00  0.00    -0.259 N  
HETATM   14  C   UNL     1      -9.964   7.086  72.492  1.00  0.00    -0.170 C  
HETATM   15  C   UNL     1     -11.652   5.287  72.811  1.00  0.00    -0.197 C  
BRANCH  13  16
HETATM   16  C   UNL     1     -11.057   5.976  70.490  1.00  0.00    -0.314 C  
BRANCH  16  17
HETATM   17  C   UNL     1     -11.220   7.079  69.438  1.00  0.00    -0.100 C  
BRANCH  17  18
HETATM   18  O   UNL     1      -9.959   7.566  68.991  1.00  0.00    -0.167 OA 
BRANCH  18  19
HETATM   19  C   UNL     1     -10.077   8.562  68.047  1.00  0.00    -0.200 A  
HETATM   20  C   UNL     1     -10.895   9.635  68.395  1.00  0.00    -0.212 A  
HETATM   21  C   UNL     1     -11.117  10.672  67.485  1.00  0.00    -0.367 A  
HETATM   22  C   UNL     1     -10.511  10.647  66.229  1.00  0.00    -0.268 A  
HETATM   23  C   UNL     1      -9.665   9.595  65.890  1.00  0.00    -0.343 A  
HETATM   24  C   UNL     1      -9.442   8.562  66.799  1.00  0.00    -0.253 A  
ENDBRANCH  18  19
ENDBRANCH  17  18
ENDBRANCH  16  17
ENDBRANCH  13  16
ENDBRANCH  12  13
ENDBRANCH  11  12
ENDBRANCH  10  11
ENDBRANCH   9  10
ENDBRANCH   8   9
ENDBRANCH   7   8
ENDBRANCH   6   7
ENDBRANCH   5   6
ENDBRANCH   4   5
ENDBRANCH   3   4
ENDBRANCH   2   3
TORSDOF 15
ENDMDL
MODEL      152
REMARK 921   NORMALIZED FREE ENERGY PREDICTED BY IDOCK:   -4.12 KCAL/MOL
REMARK 922        TOTAL FREE ENERGY PREDICTED BY IDOCK:   -8.86 KCAL/MOL
REMARK 923 INTER-LIGAND FREE ENERGY PREDICTED BY IDOCK:   -7.50 KCAL/MOL
REMARK 924 INTRA-LIGAND FREE ENERGY PREDICTED BY IDOCK:   -1.37 KCAL/MOL
REMARK 927      BINDING AFFINITY PREDICTED BY RF-SCORE:    0.00 PKD
ROOT
HETATM    1  C   UNL     1     -12.210  12.660  63.485  1.00  0.00    -0.638 C  
HETATM    2  C   UNL     1     -11.176  12.075  64.430  1.00  0.00    -0.406 C  
ENDROOT
BRANCH   2   3
HETATM    3  C   UNL     1     -10.079  11.347  63.661  1.00  0.00    -0.421 C  
BRANCH   3   4
HETATM    4  C   UNL     1      -9.613  10.110  64.421  1.00  0.00    -0.366 C  
BRANCH   4   5
HETATM    5  C   UNL     1     -10.212  10.072  65.822  1.00  0.00    -0.270 C  
BRANCH   5   6
HETATM    6  C   UNL     1      -9.807   8.789  66.535  1.00  0.00    -0.349 C  
BRANCH   6   7
HETATM    7  C   UNL     1      -8.344   8.842  66.945  1.00  0.00    -0.112 C  
BRANCH   7   8
HETATM    8  C   UNL     1      -8.057  10.103  67.754  1.00  0.00    -0.109 C  
BRANCH   8   9
HETATM    9  C   UNL     1      -7.424   9.720  69.081  1.00  0.00    -0.082 C  
BRANCH   9  10
HETATM   10  C   UNL     1      -7.454   8.213  69.312  1.00  0.00    -0.089 C  
BRANCH  10  11
HETATM   11  C   UNL     1      -8.395   7.830  70.467  1.00  0.00    -0.125 C  
BRANCH  11  12
HETATM   12  C   UNL     1      -9.152   9.054  70.984  1.00  0.00    -0.257 C  
BRANCH  12  13
HETATM   13  N   UNL     1     -10.654   9.062  70.659  1.00  0.00    -0.219 N  
HETATM   14  C   UNL     1     -11.034   7.908  69.738  1.00  0.00    -0.148 C  
HETATM   15  C   UNL     1     -11.475   8.960  71.948  1.00  0.00    -0.372 C  
BRANCH  13  16
HETATM   16  C   UNL     1     -11.032  10.432  69.986  1.00  0.00    -0.308 C  
BRANCH  16  17
HETATM   17  C   UNL     1     -12.088  11.212  70.778  1.00  0.00    -0.357 C  
BRANCH  17  18
HETATM   18  O   UNL     1     -12.543  12.354  70.058  1.00  0.00    -0.012 OA 
BRANCH  18  19
HETATM   19  C   UNL     1     -12.533  13.502  70.820  1.00  0.00    -0.353 A  
HETATM   20  C   UNL     1     -13.229  13.437  72.025  1.00  0.00    -0.531 A  
HETATM   21  C   UNL     1     -13.317  14.565  72.845  1.00  0.00    -0.579 A  
HETATM   22  C   UNL     1     -12.698  15.757  72.470  1.00  0.00    -0.540 A  
HETATM   23  C   UNL     1     -11.971  15.817  71.284  1.00  0.00    -0.485 A  
HETATM   24  C   UNL     1     -11.881  14.690  70.467  1.00  0.00    -0.367 A  
ENDBRANCH  18  19
ENDBRANCH  17  18
ENDBRANCH  16  17
ENDBRANCH  13  16
ENDBRANCH  12  13
ENDBRANCH  11  12
ENDBRANCH  10  11
ENDBRANCH   9  10
ENDBRANCH   8   9
ENDBRANCH   7   8
ENDBRANCH   6   7
ENDBRANCH   5   6
ENDBRANCH   4   5
ENDBRANCH   3   4
ENDBRANCH   2   3
TORSDOF 15
ENDMDL
MODEL      153
REMARK 921   NORMALIZED FREE ENERGY PREDICTED BY IDOCK:   -4.11 KCAL/MOL
REMARK 922        TOTAL FREE ENERGY PREDICTED BY IDOCK:   -8.84 KCAL/MOL
REMARK 923 INTER-LIGAND FREE ENERGY PREDICTED BY IDOCK:   -7.64 KCAL/MOL
REMARK 924 INTRA-LIGAND FREE ENERGY PREDICTED BY IDOCK:   -1.21 KCAL/MOL
REMARK 927      BINDING AFFINITY PREDICTED BY RF-SCORE:    0.00 PKD
ROOT
HETATM    1  C   UNL     1      -8.151   9.070  70.756  1.00  0.00    -0.194 C  
HETATM    2  C   UNL     1      -8.874   9.965  69.765  1.00  0.00    -0.229 C  
ENDROOT
BRANCH   2   3
HETATM    3  C   UNL     1     -10.348   9.590  69.660  1.00  0.00    -0.236 C  
BRANCH   3   4
HETATM    4  C   UNL     1     -10.746   9.354  68.207  1.00  0.00    -0.220 C  
BRANCH   4   5
HETATM    5  C   UNL     1     -10.127   8.068  67.675  1.00  0.00    -0.269 C  
BRANCH   5   6
HETATM    6  C   UNL     1      -9.469   8.318  66.324  1.00  0.00    -0.271 C  
BRANCH   6   7
HETATM    7  C   UNL     1      -9.425   9.806  66.016  1.00  0.00    -0.269 C  
BRANCH   7   8
HETATM    8  C   UNL     1      -8.600  10.072  64.762  1.00  0.00    -0.188 C  
BRANCH   8   9
HETATM    9  C   UNL     1      -9.529  10.397  63.603  1.00  0.00    -0.353 C  
BRANCH   9  10
HETATM   10  C   UNL     1     -10.750  11.189  64.058  1.00  0.00    -0.409 C  
BRANCH  10  11
HETATM   11  C   UNL     1     -10.441  12.690  64.191  1.00  0.00    -0.438 C  
BRANCH  11  12
HETATM   12  C   UNL     1     -10.654  13.167  65.629  1.00  0.00    -0.277 C  
BRANCH  12  13
HETATM   13  N   UNL     1     -11.752  14.230  65.793  1.00  0.00    -0.351 N  
HETATM   14  C   UNL     1     -13.118  13.693  65.381  1.00  0.00    -0.121 C  
HETATM   15  C   UNL     1     -11.821  14.697  67.251  1.00  0.00    -0.351 C  
BRANCH  13  16
HETATM   16  C   UNL     1     -11.388  15.491  64.927  1.00  0.00    -0.335 C  
BRANCH  16  17
HETATM   17  C   UNL     1     -10.188  16.266  65.483  1.00  0.00    -0.298 C  
BRANCH  17  18
HETATM   18  O   UNL     1     -10.439  17.669  65.511  1.00  0.00    -0.636 OA 
BRANCH  18  19
HETATM   19  C   UNL     1      -9.721  18.318  66.490  1.00  0.00    -0.343 A  
HETATM   20  C   UNL     1      -9.969  19.683  66.621  1.00  0.00    -0.532 A  
HETATM   21  C   UNL     1      -9.254  20.439  67.554  1.00  0.00    -0.475 A  
HETATM   22  C   UNL     1      -8.300  19.830  68.369  1.00  0.00    -0.291 A  
HETATM   23  C   UNL     1      -8.074  18.460  68.267  1.00  0.00    -0.315 A  
HETATM   24  C   UNL     1      -8.789  17.706  67.338  1.00  0.00    -0.235 A  
ENDBRANCH  18  19
ENDBRANCH  17  18
ENDBRANCH  16  17
ENDBRANCH  13  16
ENDBRANCH  12  13
ENDBRANCH  11  12
ENDBRANCH  10  11
ENDBRANCH   9  10
ENDBRANCH   8   9
ENDBRANCH   7   8
ENDBRANCH   6   7
ENDBRANCH   5   6
ENDBRANCH   4   5
ENDBRANCH   3   4
ENDBRANCH   2   3
TORSDOF 15
ENDMDL
MODEL      154
REMARK 921   NORMALIZED FREE ENERGY PREDICTED BY IDOCK:   -4.11 KCAL/MOL
REMARK 922        TOTAL FREE ENERGY PREDICTED BY IDOCK:   -8.83 KCAL/MOL
REMARK 923 INTER-LIGAND FREE ENERGY PREDICTED BY IDOCK:   -7.83 KCAL/MOL
REMARK 924 INTRA-LIGAND FREE ENERGY PREDICTED BY IDOCK:   -1.01 KCAL/MOL
REMARK 927      BINDING AFFINITY PREDICTED BY RF-SCORE:    0.00 PKD
ROOT
HETATM    1  C   UNL     1      -5.451  20.243  71.779  1.00  0.00    -0.394 C  
HETATM    2  C   UNL     1      -5.537  20.196  70.264  1.00  0.00    -0.334 C  
ENDROOT
BRANCH   2   3
HETATM    3  C   UNL     1      -6.092  18.858  69.786  1.00  0.00    -0.272 C  
BRANCH   3   4
HETATM    4  C   UNL     1      -6.687  18.986  68.389  1.00  0.00    -0.277 C  
BRANCH   4   5
HETATM    5  C   UNL     1      -6.595  20.421  67.886  1.00  0.00    -0.328 C  
BRANCH   5   6
HETATM    6  C   UNL     1      -7.372  20.575  66.585  1.00  0.00    -0.288 C  
BRANCH   6   7
HETATM    7  C   UNL     1      -8.243  19.355  66.332  1.00  0.00    -0.335 C  
BRANCH   7   8
HETATM    8  C   UNL     1      -9.676  19.613  66.785  1.00  0.00    -0.487 C  
BRANCH   8   9
HETATM    9  C   UNL     1     -10.333  18.295  67.164  1.00  0.00    -0.402 C  
BRANCH   9  10
HETATM   10  C   UNL     1     -10.529  17.389  65.953  1.00  0.00    -0.256 C  
BRANCH  10  11
HETATM   11  C   UNL     1     -10.113  15.938  66.251  1.00  0.00    -0.317 C  
BRANCH  11  12
HETATM   12  C   UNL     1     -10.077  15.678  67.758  1.00  0.00    -0.226 C  
BRANCH  12  13
HETATM   13  N   UNL     1     -11.230  14.808  68.284  1.00  0.00    -0.273 N  
HETATM   14  C   UNL     1     -12.022  15.526  69.371  1.00  0.00    -0.336 C  
HETATM   15  C   UNL     1     -12.179  14.440  67.139  1.00  0.00    -0.222 C  
BRANCH  13  16
HETATM   16  C   UNL     1     -10.648  13.460  68.846  1.00  0.00    -0.155 C  
BRANCH  16  17
HETATM   17  C   UNL     1     -11.736  12.426  69.154  1.00  0.00    -0.322 C  
BRANCH  17  18
HETATM   18  O   UNL     1     -11.902  12.242  70.557  1.00  0.00    -0.277 OA 
BRANCH  18  19
HETATM   19  C   UNL     1     -12.024  10.916  70.909  1.00  0.00    -0.311 A  
HETATM   20  C   UNL     1     -11.179  10.030  70.243  1.00  0.00    -0.379 A  
HETATM   21  C   UNL     1     -11.262   8.659  70.497  1.00  0.00    -0.266 A  
HETATM   22  C   UNL     1     -12.180   8.169  71.426  1.00  0.00    -0.324 A  
HETATM   23  C   UNL     1     -13.001   9.054  72.120  1.00  0.00    -0.490 A  
HETATM   24  C   UNL     1     -12.917  10.422  71.868  1.00  0.00    -0.555 A  
ENDBRANCH  18  19
ENDBRANCH  17  18
ENDBRANCH  16  17
ENDBRANCH  13  16
ENDBRANCH  12  13
ENDBRANCH  11  12
ENDBRANCH  10  11
ENDBRANCH   9  10
ENDBRANCH   8   9
ENDBRANCH   7   8
ENDBRANCH   6   7
ENDBRANCH   5   6
ENDBRANCH   4   5
ENDBRANCH   3   4
ENDBRANCH   2   3
TORSDOF 15
ENDMDL
MODEL      155
REMARK 921   NORMALIZED FREE ENERGY PREDICTED BY IDOCK:   -4.08 KCAL/MOL
REMARK 922        TOTAL FREE ENERGY PREDICTED BY IDOCK:   -8.78 KCAL/MOL
REMARK 923 INTER-LIGAND FREE ENERGY PREDICTED BY IDOCK:   -7.26 KCAL/MOL
REMARK 924 INTRA-LIGAND FREE ENERGY PREDICTED BY IDOCK:   -1.51 KCAL/MOL
REMARK 927      BINDING AFFINITY PREDICTED BY RF-SCORE:    0.00 PKD
ROOT
HETATM    1  C   UNL     1     -13.667  13.634  72.370  1.00  0.00    -0.697 C  
HETATM    2  C   UNL     1     -12.874  14.814  72.903  1.00  0.00    -0.559 C  
ENDROOT
BRANCH   2   3
HETATM    3  C   UNL     1     -12.235  15.604  71.766  1.00  0.00    -0.494 C  
BRANCH   3   4
HETATM    4  C   UNL     1     -12.621  15.017  70.413  1.00  0.00    -0.399 C  
BRANCH   4   5
HETATM    5  C   UNL     1     -11.812  15.656  69.290  1.00  0.00    -0.378 C  
BRANCH   5   6
HETATM    6  C   UNL     1     -10.416  16.013  69.783  1.00  0.00    -0.300 C  
BRANCH   6   7
HETATM    7  C   UNL     1      -9.631  16.731  68.696  1.00  0.00    -0.255 C  
BRANCH   7   8
HETATM    8  C   UNL     1     -10.564  17.550  67.810  1.00  0.00    -0.375 C  
BRANCH   8   9
HETATM    9  C   UNL     1     -10.083  17.481  66.369  1.00  0.00    -0.346 C  
BRANCH   9  10
HETATM   10  C   UNL     1      -9.561  16.093  66.010  1.00  0.00    -0.381 C  
BRANCH  10  11
HETATM   11  C   UNL     1     -10.432  15.414  64.939  1.00  0.00    -0.323 C  
BRANCH  11  12
HETATM   12  C   UNL     1     -11.652  14.742  65.572  1.00  0.00    -0.301 C  
BRANCH  12  13
HETATM   13  N   UNL     1     -11.571  13.209  65.646  1.00  0.00    -0.325 N  
HETATM   14  C   UNL     1     -12.634  12.550  64.774  1.00  0.00    -0.413 C  
HETATM   15  C   UNL     1     -10.188  12.731  65.190  1.00  0.00    -0.278 C  
BRANCH  13  16
HETATM   16  C   UNL     1     -11.742  12.751  67.140  1.00  0.00    -0.380 C  
BRANCH  16  17
HETATM   17  C   UNL     1     -11.055  11.413  67.433  1.00  0.00    -0.289 C  
BRANCH  17  18
HETATM   18  O   UNL     1     -10.230  11.491  68.592  1.00  0.00    -0.204 OA 
BRANCH  18  19
HETATM   19  C   UNL     1      -8.932  11.102  68.348  1.00  0.00    -0.165 A  
HETATM   20  C   UNL     1      -7.952  12.057  68.611  1.00  0.00    -0.082 A  
HETATM   21  C   UNL     1      -6.609  11.774  68.349  1.00  0.00    -0.055 A  
HETATM   22  C   UNL     1      -6.239  10.530  67.837  1.00  0.00    -0.058 A  
HETATM   23  C   UNL     1      -7.211   9.560  67.607  1.00  0.00    -0.082 A  
HETATM   24  C   UNL     1      -8.550   9.842  67.870  1.00  0.00    -0.125 A  
ENDBRANCH  18  19
ENDBRANCH  17  18
ENDBRANCH  16  17
ENDBRANCH  13  16
ENDBRANCH  12  13
ENDBRANCH  11  12
ENDBRANCH  10  11
ENDBRANCH   9  10
ENDBRANCH   8   9
ENDBRANCH   7   8
ENDBRANCH   6   7
ENDBRANCH   5   6
ENDBRANCH   4   5
ENDBRANCH   3   4
ENDBRANCH   2   3
TORSDOF 15
ENDMDL
MODEL      156
REMARK 921   NORMALIZED FREE ENERGY PREDICTED BY IDOCK:   -4.07 KCAL/MOL
REMARK 922        TOTAL FREE ENERGY PREDICTED BY IDOCK:   -8.77 KCAL/MOL
REMARK 923 INTER-LIGAND FREE ENERGY PREDICTED BY IDOCK:   -7.37 KCAL/MOL
REMARK 924 INTRA-LIGAND FREE ENERGY PREDICTED BY IDOCK:   -1.40 KCAL/MOL
REMARK 927      BINDING AFFINITY PREDICTED BY RF-SCORE:    0.00 PKD
ROOT
HETATM    1  C   UNL     1     -10.247  16.082  68.652  1.00  0.00    -0.231 C  
HETATM    2  C   UNL     1     -11.575  15.352  68.557  1.00  0.00    -0.373 C  
ENDROOT
BRANCH   2   3
HETATM    3  C   UNL     1     -11.761  14.728  67.177  1.00  0.00    -0.351 C  
BRANCH   3   4
HETATM    4  C   UNL     1     -10.687  15.217  66.212  1.00  0.00    -0.315 C  
BRANCH   4   5
HETATM    5  C   UNL     1     -10.505  14.239  65.057  1.00  0.00    -0.458 C  
BRANCH   5   6
HETATM    6  C   UNL     1     -11.505  13.096  65.171  1.00  0.00    -0.327 C  
BRANCH   6   7
HETATM    7  C   UNL     1     -10.787  11.755  65.186  1.00  0.00    -0.351 C  
BRANCH   7   8
HETATM    8  C   UNL     1      -9.779  11.697  66.328  1.00  0.00    -0.241 C  
BRANCH   8   9
HETATM    9  C   UNL     1      -8.951  10.427  66.209  1.00  0.00    -0.172 C  
BRANCH   9  10
HETATM   10  C   UNL     1      -9.827   9.193  66.021  1.00  0.00    -0.342 C  
BRANCH  10  11
HETATM   11  C   UNL     1     -10.323   8.634  67.366  1.00  0.00    -0.353 C  
BRANCH  11  12
HETATM   12  C   UNL     1     -10.740   7.169  67.228  1.00  0.00    -0.329 C  
BRANCH  12  13
HETATM   13  N   UNL     1      -9.829   6.173  67.964  1.00  0.00    -0.123 N  
HETATM   14  C   UNL     1      -9.371   5.047  67.044  1.00  0.00    -0.128 C  
HETATM   15  C   UNL     1      -8.596   6.894  68.517  1.00  0.00    -0.123 C  
BRANCH  13  16
HETATM   16  C   UNL     1     -10.601   5.577  69.198  1.00  0.00    -0.230 C  
BRANCH  16  17
HETATM   17  C   UNL     1     -10.145   6.181  70.531  1.00  0.00    -0.189 C  
BRANCH  17  18
HETATM   18  O   UNL     1     -11.222   6.271  71.460  1.00  0.00    -0.268 OA 
BRANCH  18  19
HETATM   19  C   UNL     1     -11.832   7.506  71.448  1.00  0.00    -0.294 A  
HETATM   20  C   UNL     1     -13.206   7.506  71.683  1.00  0.00    -0.404 A  
HETATM   21  C   UNL     1     -13.923   8.705  71.643  1.00  0.00    -0.459 A  
HETATM   22  C   UNL     1     -13.267   9.909  71.383  1.00  0.00    -0.487 A  
HETATM   23  C   UNL     1     -11.889   9.918  71.183  1.00  0.00    -0.472 A  
HETATM   24  C   UNL     1     -11.174   8.722  71.225  1.00  0.00    -0.352 A  
ENDBRANCH  18  19
ENDBRANCH  17  18
ENDBRANCH  16  17
ENDBRANCH  13  16
ENDBRANCH  12  13
ENDBRANCH  11  12
ENDBRANCH  10  11
ENDBRANCH   9  10
ENDBRANCH   8   9
ENDBRANCH   7   8
ENDBRANCH   6   7
ENDBRANCH   5   6
ENDBRANCH   4   5
ENDBRANCH   3   4
ENDBRANCH   2   3
TORSDOF 15
ENDMDL
MODEL      157
REMARK 921   NORMALIZED FREE ENERGY PREDICTED BY IDOCK:   -4.07 KCAL/MOL
REMARK 922        TOTAL FREE ENERGY PREDICTED BY IDOCK:   -8.77 KCAL/MOL
REMARK 923 INTER-LIGAND FREE ENERGY PREDICTED BY IDOCK:   -7.21 KCAL/MOL
REMARK 924 INTRA-LIGAND FREE ENERGY PREDICTED BY IDOCK:   -1.55 KCAL/MOL
REMARK 927      BINDING AFFINITY PREDICTED BY RF-SCORE:    0.00 PKD
ROOT
HETATM    1  C   UNL     1     -10.375   8.463  66.838  1.00  0.00    -0.378 C  
HETATM    2  C   UNL     1      -9.496   7.229  66.746  1.00  0.00    -0.218 C  
ENDROOT
BRANCH   2   3
HETATM    3  C   UNL     1      -9.669   6.339  67.973  1.00  0.00    -0.122 C  
BRANCH   3   4
HETATM    4  C   UNL     1     -11.090   6.434  68.516  1.00  0.00    -0.385 C  
BRANCH   4   5
HETATM    5  C   UNL     1     -11.091   6.476  70.039  1.00  0.00    -0.422 C  
BRANCH   5   6
HETATM    6  C   UNL     1      -9.699   6.813  70.558  1.00  0.00    -0.184 C  
BRANCH   6   7
HETATM    7  C   UNL     1      -9.743   8.040  71.455  1.00  0.00    -0.205 C  
BRANCH   7   8
HETATM    8  C   UNL     1      -9.704   9.316  70.621  1.00  0.00    -0.334 C  
BRANCH   8   9
HETATM    9  C   UNL     1      -8.263   9.645  70.264  1.00  0.00    -0.217 C  
BRANCH   9  10
HETATM   10  C   UNL     1      -8.116  10.042  68.799  1.00  0.00    -0.106 C  
BRANCH  10  11
HETATM   11  C   UNL     1      -8.043  11.569  68.625  1.00  0.00    -0.132 C  
BRANCH  11  12
HETATM   12  C   UNL     1      -9.398  12.136  68.199  1.00  0.00    -0.204 C  
BRANCH  12  13
HETATM   13  N   UNL     1      -9.349  13.577  67.667  1.00  0.00    -0.208 N  
HETATM   14  C   UNL     1      -7.953  13.945  67.175  1.00  0.00    -0.050 C  
HETATM   15  C   UNL     1     -10.343  13.748  66.513  1.00  0.00    -0.286 C  
BRANCH  13  16
HETATM   16  C   UNL     1      -9.795  14.566  68.804  1.00  0.00    -0.220 C  
BRANCH  16  17
HETATM   17  C   UNL     1     -11.296  14.878  68.765  1.00  0.00    -0.287 C  
BRANCH  17  18
HETATM   18  O   UNL     1     -12.033  14.010  69.622  1.00  0.00    -0.298 OA 
BRANCH  18  19
HETATM   19  C   UNL     1     -12.403  14.616  70.802  1.00  0.00    -0.328 A  
HETATM   20  C   UNL     1     -13.773  14.774  71.001  1.00  0.00    -0.322 A  
HETATM   21  C   UNL     1     -14.245  15.421  72.146  1.00  0.00    -0.660 A  
HETATM   22  C   UNL     1     -13.349  15.900  73.103  1.00  0.00    -0.681 A  
HETATM   23  C   UNL     1     -11.981  15.713  72.925  1.00  0.00    -0.588 A  
HETATM   24  C   UNL     1     -11.511  15.066  71.784  1.00  0.00    -0.376 A  
ENDBRANCH  18  19
ENDBRANCH  17  18
ENDBRANCH  16  17
ENDBRANCH  13  16
ENDBRANCH  12  13
ENDBRANCH  11  12
ENDBRANCH  10  11
ENDBRANCH   9  10
ENDBRANCH   8   9
ENDBRANCH   7   8
ENDBRANCH   6   7
ENDBRANCH   5   6
ENDBRANCH   4   5
ENDBRANCH   3   4
ENDBRANCH   2   3
TORSDOF 15
ENDMDL
MODEL      158
REMARK 921   NORMALIZED FREE ENERGY PREDICTED BY IDOCK:   -4.07 KCAL/MOL
REMARK 922        TOTAL FREE ENERGY PREDICTED BY IDOCK:   -8.76 KCAL/MOL
REMARK 923 INTER-LIGAND FREE ENERGY PREDICTED BY IDOCK:   -6.62 KCAL/MOL
REMARK 924 INTRA-LIGAND FREE ENERGY PREDICTED BY IDOCK:   -2.14 KCAL/MOL
REMARK 927      BINDING AFFINITY PREDICTED BY RF-SCORE:    0.00 PKD
ROOT
HETATM    1  C   UNL     1     -11.105   6.350  69.296  1.00  0.00    -0.437 C  
HETATM    2  C   UNL     1     -11.619   6.522  70.714  1.00  0.00    -0.437 C  
ENDROOT
BRANCH   2   3
HETATM    3  C   UNL     1     -11.263   7.899  71.264  1.00  0.00    -0.283 C  
BRANCH   3   4
HETATM    4  C   UNL     1     -12.440   8.503  72.021  1.00  0.00    -0.417 C  
BRANCH   4   5
HETATM    5  C   UNL     1     -13.219   9.470  71.137  1.00  0.00    -0.332 C  
BRANCH   5   6
HETATM    6  C   UNL     1     -12.815  10.906  71.443  1.00  0.00    -0.554 C  
BRANCH   6   7
HETATM    7  C   UNL     1     -12.175  11.554  70.226  1.00  0.00    -0.415 C  
BRANCH   7   8
HETATM    8  C   UNL     1     -11.849  13.018  70.505  1.00  0.00    -0.168 C  
BRANCH   8   9
HETATM    9  C   UNL     1     -11.423  13.696  69.212  1.00  0.00    -0.344 C  
BRANCH   9  10
HETATM   10  C   UNL     1     -11.886  12.921  67.983  1.00  0.00    -0.390 C  
BRANCH  10  11
HETATM   11  C   UNL     1     -11.419  13.587  66.677  1.00  0.00    -0.366 C  
BRANCH  11  12
HETATM   12  C   UNL     1     -12.304  13.169  65.503  1.00  0.00    -0.474 C  
BRANCH  12  13
HETATM   13  N   UNL     1     -11.620  12.244  64.484  1.00  0.00    -0.340 N  
HETATM   14  C   UNL     1     -12.508  11.993  63.270  1.00  0.00    -0.425 C  
HETATM   15  C   UNL     1     -10.299  12.862  64.014  1.00  0.00    -0.322 C  
BRANCH  13  16
HETATM   16  C   UNL     1     -11.263  10.880  65.179  1.00  0.00     0.295 C  
BRANCH  16  17
HETATM   17  C   UNL     1     -10.013  10.220  64.585  1.00  0.00    -0.307 C  
BRANCH  17  18
HETATM   18  O   UNL     1      -9.331   9.427  65.552  1.00  0.00    -0.222 OA 
BRANCH  18  19
HETATM   19  C   UNL     1      -9.059  10.119  66.712  1.00  0.00    -0.139 A  
HETATM   20  C   UNL     1      -8.138  11.158  66.597  1.00  0.00    -0.159 A  
HETATM   21  C   UNL     1      -7.760  11.888  67.727  1.00  0.00    -0.136 A  
HETATM   22  C   UNL     1      -8.313  11.591  68.973  1.00  0.00     0.085 A  
HETATM   23  C   UNL     1      -9.261  10.577  69.087  1.00  0.00    -0.183 A  
HETATM   24  C   UNL     1      -9.639   9.850  67.958  1.00  0.00    -0.155 A  
ENDBRANCH  18  19
ENDBRANCH  17  18
ENDBRANCH  16  17
ENDBRANCH  13  16
ENDBRANCH  12  13
ENDBRANCH  11  12
ENDBRANCH  10  11
ENDBRANCH   9  10
ENDBRANCH   8   9
ENDBRANCH   7   8
ENDBRANCH   6   7
ENDBRANCH   5   6
ENDBRANCH   4   5
ENDBRANCH   3   4
ENDBRANCH   2   3
TORSDOF 15
ENDMDL
MODEL      159
REMARK 921   NORMALIZED FREE ENERGY PREDICTED BY IDOCK:   -4.06 KCAL/MOL
REMARK 922        TOTAL FREE ENERGY PREDICTED BY IDOCK:   -8.75 KCAL/MOL
REMARK 923 INTER-LIGAND FREE ENERGY PREDICTED BY IDOCK:   -7.44 KCAL/MOL
REMARK 924 INTRA-LIGAND FREE ENERGY PREDICTED BY IDOCK:   -1.31 KCAL/MOL
REMARK 927      BINDING AFFINITY PREDICTED BY RF-SCORE:    0.00 PKD
ROOT
HETATM    1  C   UNL     1      -7.514   5.860  63.884  1.00  0.00    -0.075 C  
HETATM    2  C   UNL     1      -6.526   5.796  65.035  1.00  0.00    -0.042 C  
ENDROOT
BRANCH   2   3
HETATM    3  C   UNL     1      -6.640   7.029  65.925  1.00  0.00    -0.052 C  
BRANCH   3   4
HETATM    4  C   UNL     1      -7.263   6.671  67.270  1.00  0.00    -0.085 C  
BRANCH   4   5
HETATM    5  C   UNL     1      -8.275   7.725  67.700  1.00  0.00    -0.125 C  
BRANCH   5   6
HETATM    6  C   UNL     1      -9.544   7.611  66.865  1.00  0.00    -0.249 C  
BRANCH   6   7
HETATM    7  C   UNL     1      -9.980   8.977  66.360  1.00  0.00    -0.370 C  
BRANCH   7   8
HETATM    8  C   UNL     1      -8.831   9.976  66.452  1.00  0.00    -0.158 C  
BRANCH   8   9
HETATM    9  C   UNL     1      -8.783  10.810  65.182  1.00  0.00    -0.174 C  
BRANCH   9  10
HETATM   10  C   UNL     1      -9.758  10.297  64.127  1.00  0.00    -0.357 C  
BRANCH  10  11
HETATM   11  C   UNL     1     -10.602  11.434  63.527  1.00  0.00    -0.468 C  
BRANCH  11  12
HETATM   12  C   UNL     1     -10.267  12.772  64.189  1.00  0.00    -0.318 C  
BRANCH  12  13
HETATM   13  N   UNL     1     -11.382  13.341  65.081  1.00  0.00    -0.293 N  
HETATM   14  C   UNL     1     -12.746  12.777  64.701  1.00  0.00    -0.362 C  
HETATM   15  C   UNL     1     -11.101  13.014  66.551  1.00  0.00    -0.288 C  
BRANCH  13  16
HETATM   16  C   UNL     1     -11.396  14.908  64.957  1.00  0.00    -0.398 C  
BRANCH  16  17
HETATM   17  C   UNL     1     -10.468  15.592  65.968  1.00  0.00    -0.331 C  
BRANCH  17  18
HETATM   18  O   UNL     1     -10.070  16.885  65.521  1.00  0.00    -0.575 OA 
BRANCH  18  19
HETATM   19  C   UNL     1     -10.112  17.830  66.522  1.00  0.00    -0.358 A  
HETATM   20  C   UNL     1     -10.360  19.139  66.111  1.00  0.00    -0.561 A  
HETATM   21  C   UNL     1     -10.374  20.176  67.047  1.00  0.00    -0.502 A  
HETATM   22  C   UNL     1     -10.155  19.908  68.398  1.00  0.00    -0.557 A  
HETATM   23  C   UNL     1      -9.942  18.597  68.818  1.00  0.00    -0.427 A  
HETATM   24  C   UNL     1      -9.930  17.562  67.885  1.00  0.00    -0.312 A  
ENDBRANCH  18  19
ENDBRANCH  17  18
ENDBRANCH  16  17
ENDBRANCH  13  16
ENDBRANCH  12  13
ENDBRANCH  11  12
ENDBRANCH  10  11
ENDBRANCH   9  10
ENDBRANCH   8   9
ENDBRANCH   7   8
ENDBRANCH   6   7
ENDBRANCH   5   6
ENDBRANCH   4   5
ENDBRANCH   3   4
ENDBRANCH   2   3
TORSDOF 15
ENDMDL
MODEL      160
REMARK 921   NORMALIZED FREE ENERGY PREDICTED BY IDOCK:   -4.05 KCAL/MOL
REMARK 922        TOTAL FREE ENERGY PREDICTED BY IDOCK:   -8.72 KCAL/MOL
REMARK 923 INTER-LIGAND FREE ENERGY PREDICTED BY IDOCK:   -7.37 KCAL/MOL
REMARK 924 INTRA-LIGAND FREE ENERGY PREDICTED BY IDOCK:   -1.35 KCAL/MOL
REMARK 927      BINDING AFFINITY PREDICTED BY RF-SCORE:    0.00 PKD
ROOT
HETATM    1  C   UNL     1      -7.821   8.110  70.446  1.00  0.00    -0.090 C  
HETATM    2  C   UNL     1      -8.475   8.773  69.247  1.00  0.00    -0.122 C  
ENDROOT
BRANCH   2   3
HETATM    3  C   UNL     1      -9.716   8.006  68.803  1.00  0.00    -0.157 C  
BRANCH   3   4
HETATM    4  C   UNL     1      -9.967   8.197  67.312  1.00  0.00    -0.283 C  
BRANCH   4   5
HETATM    5  C   UNL     1      -9.129   7.227  66.488  1.00  0.00    -0.186 C  
BRANCH   5   6
HETATM    6  C   UNL     1      -8.480   7.953  65.318  1.00  0.00    -0.119 C  
BRANCH   6   7
HETATM    7  C   UNL     1      -8.426   9.450  65.578  1.00  0.00    -0.153 C  
BRANCH   7   8
HETATM    8  C   UNL     1      -8.133  10.210  64.289  1.00  0.00    -0.159 C  
BRANCH   8   9
HETATM    9  C   UNL     1      -9.442  10.657  63.656  1.00  0.00    -0.337 C  
BRANCH   9  10
HETATM   10  C   UNL     1     -10.459  11.097  64.704  1.00  0.00    -0.400 C  
BRANCH  10  11
HETATM   11  C   UNL     1     -10.295  12.582  65.071  1.00  0.00    -0.323 C  
BRANCH  11  12
HETATM   12  C   UNL     1     -10.160  12.759  66.584  1.00  0.00    -0.243 C  
BRANCH  12  13
HETATM   13  N   UNL     1     -11.273  13.598  67.232  1.00  0.00    -0.300 N  
HETATM   14  C   UNL     1     -12.409  13.872  66.254  1.00  0.00    -0.449 C  
HETATM   15  C   UNL     1     -11.837  12.871  68.457  1.00  0.00    -0.313 C  
BRANCH  13  16
HETATM   16  C   UNL     1     -10.668  14.955  67.746  1.00  0.00    -0.271 C  
BRANCH  16  17
HETATM   17  C   UNL     1     -10.547  15.011  69.273  1.00  0.00    -0.247 C  
BRANCH  17  18
HETATM   18  O   UNL     1     -11.357  16.046  69.824  1.00  0.00    -0.306 OA 
BRANCH  18  19
HETATM   19  C   UNL     1     -11.967  15.675  71.002  1.00  0.00    -0.400 A  
HETATM   20  C   UNL     1     -13.324  15.372  70.915  1.00  0.00    -0.476 A  
HETATM   21  C   UNL     1     -14.041  15.031  72.064  1.00  0.00    -0.633 A  
HETATM   22  C   UNL     1     -13.401  14.979  73.303  1.00  0.00    -0.429 A  
HETATM   23  C   UNL     1     -12.038  15.246  73.390  1.00  0.00    -0.579 A  
HETATM   24  C   UNL     1     -11.322  15.584  72.242  1.00  0.00    -0.397 A  
ENDBRANCH  18  19
ENDBRANCH  17  18
ENDBRANCH  16  17
ENDBRANCH  13  16
ENDBRANCH  12  13
ENDBRANCH  11  12
ENDBRANCH  10  11
ENDBRANCH   9  10
ENDBRANCH   8   9
ENDBRANCH   7   8
ENDBRANCH   6   7
ENDBRANCH   5   6
ENDBRANCH   4   5
ENDBRANCH   3   4
ENDBRANCH   2   3
TORSDOF 15
ENDMDL
MODEL      161
REMARK 921   NORMALIZED FREE ENERGY PREDICTED BY IDOCK:   -4.04 KCAL/MOL
REMARK 922        TOTAL FREE ENERGY PREDICTED BY IDOCK:   -8.70 KCAL/MOL
REMARK 923 INTER-LIGAND FREE ENERGY PREDICTED BY IDOCK:   -7.13 KCAL/MOL
REMARK 924 INTRA-LIGAND FREE ENERGY PREDICTED BY IDOCK:   -1.57 KCAL/MOL
REMARK 927      BINDING AFFINITY PREDICTED BY RF-SCORE:    0.00 PKD
ROOT
HETATM    1  C   UNL     1     -11.965  11.567  70.270  1.00  0.00    -0.455 C  
HETATM    2  C   UNL     1     -12.905  10.404  70.534  1.00  0.00    -0.326 C  
ENDROOT
BRANCH   2   3
HETATM    3  C   UNL     1     -12.536   9.682  71.826  1.00  0.00    -0.497 C  
BRANCH   3   4
HETATM    4  C   UNL     1     -11.115   9.137  71.757  1.00  0.00    -0.437 C  
BRANCH   4   5
HETATM    5  C   UNL     1     -10.960   7.903  72.638  1.00  0.00    -0.440 C  
BRANCH   5   6
HETATM    6  C   UNL     1     -11.742   6.735  72.052  1.00  0.00    -0.343 C  
BRANCH   6   7
HETATM    7  C   UNL     1     -10.811   5.584  71.708  1.00  0.00    -0.277 C  
BRANCH   7   8
HETATM    8  C   UNL     1     -10.114   5.836  70.375  1.00  0.00    -0.271 C  
BRANCH   8   9
HETATM    9  C   UNL     1     -11.152   6.174  69.317  1.00  0.00    -0.463 C  
BRANCH   9  10
HETATM   10  C   UNL     1     -10.774   5.614  67.949  1.00  0.00    -0.241 C  
BRANCH  10  11
HETATM   11  C   UNL     1     -10.862   6.685  66.849  1.00  0.00    -0.415 C  
BRANCH  11  12
HETATM   12  C   UNL     1     -10.312   8.024  67.344  1.00  0.00    -0.284 C  
BRANCH  12  13
HETATM   13  N   UNL     1      -8.868   8.321  66.911  1.00  0.00    -0.136 N  
HETATM   14  C   UNL     1      -7.901   8.229  68.086  1.00  0.00    -0.118 C  
HETATM   15  C   UNL     1      -8.427   7.332  65.827  1.00  0.00    -0.143 C  
BRANCH  13  16
HETATM   16  C   UNL     1      -8.802   9.756  66.273  1.00  0.00    -0.147 C  
BRANCH  16  17
HETATM   17  C   UNL     1      -8.730  10.870  67.324  1.00  0.00    -0.131 C  
BRANCH  17  18
HETATM   18  O   UNL     1      -8.679  12.159  66.718  1.00  0.00    -0.194 OA 
BRANCH  18  19
HETATM   19  C   UNL     1      -9.781  12.931  67.015  1.00  0.00    -0.230 A  
HETATM   20  C   UNL     1      -9.699  13.680  68.187  1.00  0.00    -0.229 A  
HETATM   21  C   UNL     1     -10.784  14.457  68.599  1.00  0.00    -0.258 A  
HETATM   22  C   UNL     1     -11.950  14.500  67.834  1.00  0.00    -0.322 A  
HETATM   23  C   UNL     1     -12.023  13.781  66.644  1.00  0.00    -0.469 A  
HETATM   24  C   UNL     1     -10.939  13.007  66.232  1.00  0.00    -0.303 A  
ENDBRANCH  18  19
ENDBRANCH  17  18
ENDBRANCH  16  17
ENDBRANCH  13  16
ENDBRANCH  12  13
ENDBRANCH  11  12
ENDBRANCH  10  11
ENDBRANCH   9  10
ENDBRANCH   8   9
ENDBRANCH   7   8
ENDBRANCH   6   7
ENDBRANCH   5   6
ENDBRANCH   4   5
ENDBRANCH   3   4
ENDBRANCH   2   3
TORSDOF 15
ENDMDL
MODEL      162
REMARK 921   NORMALIZED FREE ENERGY PREDICTED BY IDOCK:   -4.03 KCAL/MOL
REMARK 922        TOTAL FREE ENERGY PREDICTED BY IDOCK:   -8.68 KCAL/MOL
REMARK 923 INTER-LIGAND FREE ENERGY PREDICTED BY IDOCK:   -7.04 KCAL/MOL
REMARK 924 INTRA-LIGAND FREE ENERGY PREDICTED BY IDOCK:   -1.64 KCAL/MOL
REMARK 927      BINDING AFFINITY PREDICTED BY RF-SCORE:    0.00 PKD
ROOT
HETATM    1  C   UNL     1      -6.987   6.620  69.112  1.00  0.00    -0.078 C  
HETATM    2  C   UNL     1      -7.556   6.194  70.453  1.00  0.00    -0.096 C  
ENDROOT
BRANCH   2   3
HETATM    3  C   UNL     1      -8.193   4.811  70.364  1.00  0.00    -0.083 C  
BRANCH   3   4
HETATM    4  C   UNL     1      -9.296   4.788  69.312  1.00  0.00    -0.196 C  
BRANCH   4   5
HETATM    5  C   UNL     1     -10.548   5.494  69.819  1.00  0.00    -0.388 C  
BRANCH   5   6
HETATM    6  C   UNL     1     -11.203   6.281  68.691  1.00  0.00    -0.328 C  
BRANCH   6   7
HETATM    7  C   UNL     1     -10.358   6.215  67.429  1.00  0.00    -0.262 C  
BRANCH   7   8
HETATM    8  C   UNL     1     -10.107   7.613  66.875  1.00  0.00    -0.348 C  
BRANCH   8   9
HETATM    9  C   UNL     1     -10.261   8.634  67.991  1.00  0.00    -0.261 C  
BRANCH   9  10
HETATM   10  C   UNL     1     -10.821   9.957  67.479  1.00  0.00    -0.307 C  
BRANCH  10  11
HETATM   11  C   UNL     1     -10.321  10.279  66.060  1.00  0.00    -0.248 C  
BRANCH  11  12
HETATM   12  C   UNL     1     -10.109  11.783  65.883  1.00  0.00    -0.234 C  
BRANCH  12  13
HETATM   13  N   UNL     1     -10.750  12.375  64.617  1.00  0.00    -0.289 N  
HETATM   14  C   UNL     1     -10.044  11.892  63.355  1.00  0.00    -0.438 C  
HETATM   15  C   UNL     1     -12.228  11.982  64.541  1.00  0.00    -0.241 C  
BRANCH  13  16
HETATM   16  C   UNL     1     -10.698  13.944  64.694  1.00  0.00    -0.407 C  
BRANCH  16  17
HETATM   17  C   UNL     1     -10.573  14.464  66.131  1.00  0.00    -0.298 C  
BRANCH  17  18
HETATM   18  O   UNL     1     -11.851  14.692  66.718  1.00  0.00    -0.377 OA 
BRANCH  18  19
HETATM   19  C   UNL     1     -11.802  14.757  68.093  1.00  0.00    -0.287 A  
HETATM   20  C   UNL     1     -12.074  13.569  68.767  1.00  0.00    -0.305 A  
HETATM   21  C   UNL     1     -12.096  13.545  70.164  1.00  0.00    -0.425 A  
HETATM   22  C   UNL     1     -11.831  14.705  70.892  1.00  0.00    -0.372 A  
HETATM   23  C   UNL     1     -11.523  15.887  70.223  1.00  0.00    -0.376 A  
HETATM   24  C   UNL     1     -11.499  15.910  68.829  1.00  0.00    -0.393 A  
ENDBRANCH  18  19
ENDBRANCH  17  18
ENDBRANCH  16  17
ENDBRANCH  13  16
ENDBRANCH  12  13
ENDBRANCH  11  12
ENDBRANCH  10  11
ENDBRANCH   9  10
ENDBRANCH   8   9
ENDBRANCH   7   8
ENDBRANCH   6   7
ENDBRANCH   5   6
ENDBRANCH   4   5
ENDBRANCH   3   4
ENDBRANCH   2   3
TORSDOF 15
ENDMDL
MODEL      163
REMARK 921   NORMALIZED FREE ENERGY PREDICTED BY IDOCK:   -4.01 KCAL/MOL
REMARK 922        TOTAL FREE ENERGY PREDICTED BY IDOCK:   -8.66 KCAL/MOL
REMARK 923 INTER-LIGAND FREE ENERGY PREDICTED BY IDOCK:   -5.76 KCAL/MOL
REMARK 924 INTRA-LIGAND FREE ENERGY PREDICTED BY IDOCK:   -2.89 KCAL/MOL
REMARK 927      BINDING AFFINITY PREDICTED BY RF-SCORE:    0.00 PKD
ROOT
HETATM    1  C   UNL     1     -10.872  15.879  68.176  1.00  0.00    -0.317 C  
HETATM    2  C   UNL     1     -11.792  14.682  68.339  1.00  0.00    -0.330 C  
ENDROOT
BRANCH   2   3
HETATM    3  C   UNL     1     -12.096  14.036  66.991  1.00  0.00    -0.455 C  
BRANCH   3   4
HETATM    4  C   UNL     1     -11.348  14.746  65.868  1.00  0.00    -0.331 C  
BRANCH   4   5
HETATM    5  C   UNL     1     -11.768  14.205  64.507  1.00  0.00    -0.426 C  
BRANCH   5   6
HETATM    6  C   UNL     1     -12.404  12.829  64.659  1.00  0.00    -0.524 C  
BRANCH   6   7
HETATM    7  C   UNL     1     -11.668  11.801  63.814  1.00  0.00    -0.499 C  
BRANCH   7   8
HETATM    8  C   UNL     1     -10.286  12.314  63.425  1.00  0.00    -0.395 C  
BRANCH   8   9
HETATM    9  C   UNL     1      -9.485  11.185  62.797  1.00  0.00    -0.357 C  
BRANCH   9  10
HETATM   10  C   UNL     1      -9.182  10.076  63.799  1.00  0.00    -0.314 C  
BRANCH  10  11
HETATM   11  C   UNL     1      -7.813   9.425  63.535  1.00  0.00    -0.130 C  
BRANCH  11  12
HETATM   12  C   UNL     1      -7.959   7.920  63.306  1.00  0.00    -0.125 C  
BRANCH  12  13
HETATM   13  N   UNL     1      -7.301   7.043  64.383  1.00  0.00    -0.078 N  
HETATM   14  C   UNL     1      -6.905   5.679  63.829  1.00  0.00    -0.045 C  
HETATM   15  C   UNL     1      -6.052   7.736  64.937  1.00  0.00    -0.041 C  
BRANCH  13  16
HETATM   16  C   UNL     1      -8.296   6.865  65.587  1.00  0.00    -0.146 C  
BRANCH  16  17
HETATM   17  C   UNL     1      -7.722   7.377  66.913  1.00  0.00    -0.110 C  
BRANCH  17  18
HETATM   18  O   UNL     1      -8.697   8.100  67.660  1.00  0.00    -0.129 OA 
BRANCH  18  19
HETATM   19  C   UNL     1      -8.649   9.456  67.426  1.00  0.00    -0.125 A  
HETATM   20  C   UNL     1      -9.881  10.103  67.352  1.00  0.00    -0.225 A  
HETATM   21  C   UNL     1      -9.938  11.471  67.070  1.00  0.00    -0.225 A  
HETATM   22  C   UNL     1      -8.764  12.198  66.874  1.00  0.00    -0.194 A  
HETATM   23  C   UNL     1      -7.530  11.563  66.982  1.00  0.00    -0.151 A  
HETATM   24  C   UNL     1      -7.473  10.200  67.265  1.00  0.00    -0.091 A  
ENDBRANCH  18  19
ENDBRANCH  17  18
ENDBRANCH  16  17
ENDBRANCH  13  16
ENDBRANCH  12  13
ENDBRANCH  11  12
ENDBRANCH  10  11
ENDBRANCH   9  10
ENDBRANCH   8   9
ENDBRANCH   7   8
ENDBRANCH   6   7
ENDBRANCH   5   6
ENDBRANCH   4   5
ENDBRANCH   3   4
ENDBRANCH   2   3
TORSDOF 15
ENDMDL
MODEL      164
REMARK 921   NORMALIZED FREE ENERGY PREDICTED BY IDOCK:   -4.01 KCAL/MOL
REMARK 922        TOTAL FREE ENERGY PREDICTED BY IDOCK:   -8.64 KCAL/MOL
REMARK 923 INTER-LIGAND FREE ENERGY PREDICTED BY IDOCK:   -7.36 KCAL/MOL
REMARK 924 INTRA-LIGAND FREE ENERGY PREDICTED BY IDOCK:   -1.29 KCAL/MOL
REMARK 927      BINDING AFFINITY PREDICTED BY RF-SCORE:    0.00 PKD
ROOT
HETATM    1  C   UNL     1      -6.403  19.870  70.048  1.00  0.00    -0.381 C  
HETATM    2  C   UNL     1      -5.888  20.303  68.686  1.00  0.00    -0.319 C  
ENDROOT
BRANCH   2   3
HETATM    3  C   UNL     1      -6.758  19.742  67.566  1.00  0.00    -0.247 C  
BRANCH   3   4
HETATM    4  C   UNL     1      -7.712  20.807  67.036  1.00  0.00    -0.271 C  
BRANCH   4   5
HETATM    5  C   UNL     1      -9.162  20.364  67.186  1.00  0.00    -0.511 C  
BRANCH   5   6
HETATM    6  C   UNL     1      -9.248  18.843  67.228  1.00  0.00    -0.308 C  
BRANCH   6   7
HETATM    7  C   UNL     1     -10.165  18.388  68.352  1.00  0.00    -0.407 C  
BRANCH   7   8
HETATM    8  C   UNL     1      -9.795  16.982  68.812  1.00  0.00    -0.278 C  
BRANCH   8   9
HETATM    9  C   UNL     1      -8.294  16.784  68.679  1.00  0.00    -0.252 C  
BRANCH   9  10
HETATM   10  C   UNL     1      -7.953  15.505  67.922  1.00  0.00    -0.146 C  
BRANCH  10  11
HETATM   11  C   UNL     1      -8.859  14.334  68.341  1.00  0.00    -0.187 C  
BRANCH  11  12
HETATM   12  C   UNL     1      -9.610  13.765  67.136  1.00  0.00    -0.244 C  
BRANCH  12  13
HETATM   13  N   UNL     1     -10.469  12.529  67.443  1.00  0.00    -0.218 N  
HETATM   14  C   UNL     1     -11.826  12.919  68.019  1.00  0.00    -0.343 C  
HETATM   15  C   UNL     1     -10.688  11.708  66.168  1.00  0.00    -0.278 C  
BRANCH  13  16
HETATM   16  C   UNL     1      -9.702  11.603  68.456  1.00  0.00    -0.184 C  
BRANCH  16  17
HETATM   17  C   UNL     1     -10.544  10.410  68.924  1.00  0.00    -0.216 C  
BRANCH  17  18
HETATM   18  O   UNL     1     -10.314  10.116  70.299  1.00  0.00    -0.267 OA 
BRANCH  18  19
HETATM   19  C   UNL     1     -11.368   9.449  70.884  1.00  0.00    -0.319 A  
HETATM   20  C   UNL     1     -12.435  10.245  71.298  1.00  0.00    -0.514 A  
HETATM   21  C   UNL     1     -13.530   9.667  71.946  1.00  0.00    -0.496 A  
HETATM   22  C   UNL     1     -13.569   8.291  72.170  1.00  0.00    -0.313 A  
HETATM   23  C   UNL     1     -12.522   7.487  71.727  1.00  0.00    -0.360 A  
HETATM   24  C   UNL     1     -11.431   8.064  71.078  1.00  0.00    -0.300 A  
ENDBRANCH  18  19
ENDBRANCH  17  18
ENDBRANCH  16  17
ENDBRANCH  13  16
ENDBRANCH  12  13
ENDBRANCH  11  12
ENDBRANCH  10  11
ENDBRANCH   9  10
ENDBRANCH   8   9
ENDBRANCH   7   8
ENDBRANCH   6   7
ENDBRANCH   5   6
ENDBRANCH   4   5
ENDBRANCH   3   4
ENDBRANCH   2   3
TORSDOF 15
ENDMDL
MODEL      165
REMARK 921   NORMALIZED FREE ENERGY PREDICTED BY IDOCK:   -3.98 KCAL/MOL
REMARK 922        TOTAL FREE ENERGY PREDICTED BY IDOCK:   -8.60 KCAL/MOL
REMARK 923 INTER-LIGAND FREE ENERGY PREDICTED BY IDOCK:   -6.95 KCAL/MOL
REMARK 924 INTRA-LIGAND FREE ENERGY PREDICTED BY IDOCK:   -1.65 KCAL/MOL
REMARK 927      BINDING AFFINITY PREDICTED BY RF-SCORE:    0.00 PKD
ROOT
HETATM    1  C   UNL     1     -10.286  17.650  66.329  1.00  0.00    -0.342 C  
HETATM    2  C   UNL     1     -10.385  16.223  66.838  1.00  0.00    -0.299 C  
ENDROOT
BRANCH   2   3
HETATM    3  C   UNL     1      -9.778  16.094  68.232  1.00  0.00    -0.220 C  
BRANCH   3   4
HETATM    4  C   UNL     1     -10.669  16.760  69.275  1.00  0.00    -0.324 C  
BRANCH   4   5
HETATM    5  C   UNL     1     -10.959  15.810  70.430  1.00  0.00    -0.369 C  
BRANCH   5   6
HETATM    6  C   UNL     1     -12.453  15.524  70.517  1.00  0.00    -0.472 C  
BRANCH   6   7
HETATM    7  C   UNL     1     -12.709  14.028  70.603  1.00  0.00    -0.373 C  
BRANCH   7   8
HETATM    8  C   UNL     1     -11.941  13.287  69.515  1.00  0.00    -0.366 C  
BRANCH   8   9
HETATM    9  C   UNL     1     -11.921  11.800  69.832  1.00  0.00    -0.405 C  
BRANCH   9  10
HETATM   10  C   UNL     1     -10.822  11.069  69.067  1.00  0.00    -0.274 C  
BRANCH  10  11
HETATM   11  C   UNL     1     -10.269   9.874  69.862  1.00  0.00    -0.298 C  
BRANCH  11  12
HETATM   12  C   UNL     1     -11.296   9.370  70.876  1.00  0.00    -0.319 C  
BRANCH  12  13
HETATM   13  N   UNL     1     -10.987   7.985  71.465  1.00  0.00    -0.230 N  
HETATM   14  C   UNL     1      -9.492   7.684  71.433  1.00  0.00    -0.148 C  
HETATM   15  C   UNL     1     -11.478   7.905  72.914  1.00  0.00    -0.297 C  
BRANCH  13  16
HETATM   16  C   UNL     1     -11.772   6.889  70.656  1.00  0.00    -0.367 C  
BRANCH  16  17
HETATM   17  C   UNL     1     -10.844   5.911  69.926  1.00  0.00    -0.369 C  
BRANCH  17  18
HETATM   18  O   UNL     1     -11.058   5.939  68.518  1.00  0.00    -0.274 OA 
BRANCH  18  19
HETATM   19  C   UNL     1     -10.222   6.820  67.869  1.00  0.00    -0.171 A  
HETATM   20  C   UNL     1      -8.875   6.747  68.218  1.00  0.00    -0.125 A  
HETATM   21  C   UNL     1      -7.955   7.632  67.650  1.00  0.00    -0.121 A  
HETATM   22  C   UNL     1      -8.375   8.584  66.721  1.00  0.00    -0.109 A  
HETATM   23  C   UNL     1      -9.714   8.637  66.343  1.00  0.00    -0.333 A  
HETATM   24  C   UNL     1     -10.631   7.753  66.908  1.00  0.00    -0.347 A  
ENDBRANCH  18  19
ENDBRANCH  17  18
ENDBRANCH  16  17
ENDBRANCH  13  16
ENDBRANCH  12  13
ENDBRANCH  11  12
ENDBRANCH  10  11
ENDBRANCH   9  10
ENDBRANCH   8   9
ENDBRANCH   7   8
ENDBRANCH   6   7
ENDBRANCH   5   6
ENDBRANCH   4   5
ENDBRANCH   3   4
ENDBRANCH   2   3
TORSDOF 15
ENDMDL
MODEL      166
REMARK 921   NORMALIZED FREE ENERGY PREDICTED BY IDOCK:   -3.98 KCAL/MOL
REMARK 922        TOTAL FREE ENERGY PREDICTED BY IDOCK:   -8.59 KCAL/MOL
REMARK 923 INTER-LIGAND FREE ENERGY PREDICTED BY IDOCK:   -6.91 KCAL/MOL
REMARK 924 INTRA-LIGAND FREE ENERGY PREDICTED BY IDOCK:   -1.68 KCAL/MOL
REMARK 927      BINDING AFFINITY PREDICTED BY RF-SCORE:    0.00 PKD
ROOT
HETATM    1  C   UNL     1     -12.052  12.479  63.457  1.00  0.00    -0.653 C  
HETATM    2  C   UNL     1     -10.596  12.077  63.603  1.00  0.00    -0.503 C  
ENDROOT
BRANCH   2   3
HETATM    3  C   UNL     1     -10.433  10.966  64.635  1.00  0.00    -0.384 C  
BRANCH   3   4
HETATM    4  C   UNL     1      -9.075  10.288  64.493  1.00  0.00    -0.270 C  
BRANCH   4   5
HETATM    5  C   UNL     1      -8.762   9.433  65.714  1.00  0.00    -0.183 C  
BRANCH   5   6
HETATM    6  C   UNL     1      -7.265   9.167  65.803  1.00  0.00    -0.089 C  
BRANCH   6   7
HETATM    7  C   UNL     1      -6.574  10.253  66.612  1.00  0.00    -0.078 C  
BRANCH   7   8
HETATM    8  C   UNL     1      -7.578  10.991  67.490  1.00  0.00    -0.106 C  
BRANCH   8   9
HETATM    9  C   UNL     1      -6.977  12.310  67.948  1.00  0.00    -0.104 C  
BRANCH   9  10
HETATM   10  C   UNL     1      -7.750  13.507  67.404  1.00  0.00    -0.149 C  
BRANCH  10  11
HETATM   11  C   UNL     1      -9.259  13.222  67.317  1.00  0.00    -0.222 C  
BRANCH  11  12
HETATM   12  C   UNL     1      -9.976  13.684  68.587  1.00  0.00    -0.161 C  
BRANCH  12  13
HETATM   13  N   UNL     1     -11.313  14.401  68.341  1.00  0.00    -0.273 N  
HETATM   14  C   UNL     1     -11.181  15.909  68.523  1.00  0.00    -0.362 C  
HETATM   15  C   UNL     1     -11.814  14.113  66.923  1.00  0.00    -0.431 C  
BRANCH  13  16
HETATM   16  C   UNL     1     -12.396  13.835  69.331  1.00  0.00    -0.173 C  
BRANCH  16  17
HETATM   17  C   UNL     1     -11.857  12.707  70.218  1.00  0.00    -0.214 C  
BRANCH  17  18
HETATM   18  O   UNL     1     -12.515  11.472  69.953  1.00  0.00    -0.200 OA 
BRANCH  18  19
HETATM   19  C   UNL     1     -11.938  10.408  70.611  1.00  0.00    -0.351 A  
HETATM   20  C   UNL     1     -12.798   9.639  71.392  1.00  0.00    -0.471 A  
HETATM   21  C   UNL     1     -12.298   8.567  72.137  1.00  0.00    -0.444 A  
HETATM   22  C   UNL     1     -10.940   8.253  72.092  1.00  0.00    -0.396 A  
HETATM   23  C   UNL     1     -10.083   8.997  71.285  1.00  0.00    -0.384 A  
HETATM   24  C   UNL     1     -10.582  10.064  70.541  1.00  0.00    -0.313 A  
ENDBRANCH  18  19
ENDBRANCH  17  18
ENDBRANCH  16  17
ENDBRANCH  13  16
ENDBRANCH  12  13
ENDBRANCH  11  12
ENDBRANCH  10  11
ENDBRANCH   9  10
ENDBRANCH   8   9
ENDBRANCH   7   8
ENDBRANCH   6   7
ENDBRANCH   5   6
ENDBRANCH   4   5
ENDBRANCH   3   4
ENDBRANCH   2   3
TORSDOF 15
ENDMDL
MODEL      167
REMARK 921   NORMALIZED FREE ENERGY PREDICTED BY IDOCK:   -3.97 KCAL/MOL
REMARK 922        TOTAL FREE ENERGY PREDICTED BY IDOCK:   -8.58 KCAL/MOL
REMARK 923 INTER-LIGAND FREE ENERGY PREDICTED BY IDOCK:   -7.09 KCAL/MOL
REMARK 924 INTRA-LIGAND FREE ENERGY PREDICTED BY IDOCK:   -1.48 KCAL/MOL
REMARK 927      BINDING AFFINITY PREDICTED BY RF-SCORE:    0.00 PKD
ROOT
HETATM    1  C   UNL     1      -6.181  10.606  68.630  1.00  0.00    -0.046 C  
HETATM    2  C   UNL     1      -6.626  10.356  70.060  1.00  0.00    -0.137 C  
ENDROOT
BRANCH   2   3
HETATM    3  C   UNL     1      -7.220   8.960  70.214  1.00  0.00    -0.054 C  
BRANCH   3   4
HETATM    4  C   UNL     1      -8.357   8.963  71.229  1.00  0.00    -0.223 C  
BRANCH   4   5
HETATM    5  C   UNL     1      -9.572   8.216  70.691  1.00  0.00    -0.179 C  
BRANCH   5   6
HETATM    6  C   UNL     1      -9.350   7.827  69.236  1.00  0.00    -0.148 C  
BRANCH   6   7
HETATM    7  C   UNL     1     -10.583   8.140  68.402  1.00  0.00    -0.148 C  
BRANCH   7   8
HETATM    8  C   UNL     1     -10.782   9.647  68.283  1.00  0.00    -0.262 C  
BRANCH   8   9
HETATM    9  C   UNL     1      -9.591  10.260  67.563  1.00  0.00    -0.180 C  
BRANCH   9  10
HETATM   10  C   UNL     1      -9.664  10.044  66.055  1.00  0.00    -0.301 C  
BRANCH  10  11
HETATM   11  C   UNL     1     -10.533  11.110  65.366  1.00  0.00    -0.321 C  
BRANCH  11  12
HETATM   12  C   UNL     1     -10.210  12.506  65.901  1.00  0.00    -0.261 C  
BRANCH  12  13
HETATM   13  N   UNL     1     -11.298  13.560  65.636  1.00  0.00    -0.297 N  
HETATM   14  C   UNL     1     -12.478  12.966  64.875  1.00  0.00    -0.478 C  
HETATM   15  C   UNL     1     -11.802  14.142  66.960  1.00  0.00    -0.429 C  
BRANCH  13  16
HETATM   16  C   UNL     1     -10.678  14.752  64.819  1.00  0.00    -0.358 C  
BRANCH  16  17
HETATM   17  C   UNL     1     -10.660  16.066  65.609  1.00  0.00    -0.377 C  
BRANCH  17  18
HETATM   18  O   UNL     1      -9.338  16.586  65.728  1.00  0.00    -0.487 OA 
BRANCH  18  19
HETATM   19  C   UNL     1      -9.309  17.839  66.297  1.00  0.00    -0.201 A  
HETATM   20  C   UNL     1     -10.519  18.300  66.814  1.00  0.00    -0.387 A  
HETATM   21  C   UNL     1     -10.602  19.579  67.369  1.00  0.00    -0.607 A  
HETATM   22  C   UNL     1      -9.473  20.398  67.422  1.00  0.00    -0.561 A  
HETATM   23  C   UNL     1      -8.254  19.929  66.940  1.00  0.00    -0.358 A  
HETATM   24  C   UNL     1      -8.172  18.651  66.388  1.00  0.00    -0.295 A  
ENDBRANCH  18  19
ENDBRANCH  17  18
ENDBRANCH  16  17
ENDBRANCH  13  16
ENDBRANCH  12  13
ENDBRANCH  11  12
ENDBRANCH  10  11
ENDBRANCH   9  10
ENDBRANCH   8   9
ENDBRANCH   7   8
ENDBRANCH   6   7
ENDBRANCH   5   6
ENDBRANCH   4   5
ENDBRANCH   3   4
ENDBRANCH   2   3
TORSDOF 15
ENDMDL
MODEL      168
REMARK 921   NORMALIZED FREE ENERGY PREDICTED BY IDOCK:   -3.97 KCAL/MOL
REMARK 922        TOTAL FREE ENERGY PREDICTED BY IDOCK:   -8.57 KCAL/MOL
REMARK 923 INTER-LIGAND FREE ENERGY PREDICTED BY IDOCK:   -6.35 KCAL/MOL
REMARK 924 INTRA-LIGAND FREE ENERGY PREDICTED BY IDOCK:   -2.23 KCAL/MOL
REMARK 927      BINDING AFFINITY PREDICTED BY RF-SCORE:    0.00 PKD
ROOT
HETATM    1  C   UNL     1      -6.275   9.126  64.882  1.00  0.00    -0.066 C  
HETATM    2  C   UNL     1      -7.465  10.067  64.934  1.00  0.00    -0.140 C  
ENDROOT
BRANCH   2   3
HETATM    3  C   UNL     1      -8.712   9.347  65.437  1.00  0.00    -0.194 C  
BRANCH   3   4
HETATM    4  C   UNL     1      -9.974  10.097  65.025  1.00  0.00    -0.375 C  
BRANCH   4   5
HETATM    5  C   UNL     1      -9.851  10.631  63.603  1.00  0.00    -0.392 C  
BRANCH   5   6
HETATM    6  C   UNL     1     -10.545  11.982  63.485  1.00  0.00    -0.514 C  
BRANCH   6   7
HETATM    7  C   UNL     1     -11.751  12.048  64.408  1.00  0.00    -0.399 C  
BRANCH   7   8
HETATM    8  C   UNL     1     -12.178  13.494  64.632  1.00  0.00    -0.450 C  
BRANCH   8   9
HETATM    9  C   UNL     1     -10.947  14.357  64.855  1.00  0.00    -0.416 C  
BRANCH   9  10
HETATM   10  C   UNL     1     -11.285  15.844  64.852  1.00  0.00    -0.345 C  
BRANCH  10  11
HETATM   11  C   UNL     1     -10.200  16.680  65.552  1.00  0.00    -0.227 C  
BRANCH  11  12
HETATM   12  C   UNL     1     -10.291  16.531  67.072  1.00  0.00    -0.301 C  
BRANCH  12  13
HETATM   13  N   UNL     1      -8.946  16.282  67.772  1.00  0.00    -0.192 N  
HETATM   14  C   UNL     1      -7.846  15.953  66.769  1.00  0.00    -0.238 C  
HETATM   15  C   UNL     1      -8.532  17.519  68.575  1.00  0.00    -0.280 C  
BRANCH  13  16
HETATM   16  C   UNL     1      -9.105  15.103  68.799  1.00  0.00    -0.200 C  
BRANCH  16  17
HETATM   17  C   UNL     1     -10.261  14.159  68.446  1.00  0.00    -0.247 C  
BRANCH  17  18
HETATM   18  O   UNL     1      -9.854  13.162  67.512  1.00  0.00    -0.209 OA 
BRANCH  18  19
HETATM   19  C   UNL     1      -9.715  11.919  68.088  1.00  0.00    -0.194 A  
HETATM   20  C   UNL     1     -10.898  11.219  68.315  1.00  0.00    -0.249 A  
HETATM   21  C   UNL     1     -10.864   9.969  68.939  1.00  0.00    -0.250 A  
HETATM   22  C   UNL     1      -9.647   9.409  69.326  1.00  0.00    -0.171 A  
HETATM   23  C   UNL     1      -8.459  10.089  69.069  1.00  0.00    -0.147 A  
HETATM   24  C   UNL     1      -8.493  11.334  68.444  1.00  0.00    -0.153 A  
ENDBRANCH  18  19
ENDBRANCH  17  18
ENDBRANCH  16  17
ENDBRANCH  13  16
ENDBRANCH  12  13
ENDBRANCH  11  12
ENDBRANCH  10  11
ENDBRANCH   9  10
ENDBRANCH   8   9
ENDBRANCH   7   8
ENDBRANCH   6   7
ENDBRANCH   5   6
ENDBRANCH   4   5
ENDBRANCH   3   4
ENDBRANCH   2   3
TORSDOF 15
ENDMDL
MODEL      169
REMARK 921   NORMALIZED FREE ENERGY PREDICTED BY IDOCK:   -3.97 KCAL/MOL
REMARK 922        TOTAL FREE ENERGY PREDICTED BY IDOCK:   -8.57 KCAL/MOL
REMARK 923 INTER-LIGAND FREE ENERGY PREDICTED BY IDOCK:   -7.45 KCAL/MOL
REMARK 924 INTRA-LIGAND FREE ENERGY PREDICTED BY IDOCK:   -1.12 KCAL/MOL
REMARK 927      BINDING AFFINITY PREDICTED BY RF-SCORE:    0.00 PKD
ROOT
HETATM    1  C   UNL     1     -14.075   7.301  71.536  1.00  0.00    -0.515 C  
HETATM    2  C   UNL     1     -14.226   8.778  71.853  1.00  0.00    -0.467 C  
ENDROOT
BRANCH   2   3
HETATM    3  C   UNL     1     -12.865   9.442  72.037  1.00  0.00    -0.496 C  
BRANCH   3   4
HETATM    4  C   UNL     1     -11.743   8.510  71.594  1.00  0.00    -0.369 C  
BRANCH   4   5
HETATM    5  C   UNL     1     -11.054   9.041  70.343  1.00  0.00    -0.279 C  
BRANCH   5   6
HETATM    6  C   UNL     1     -11.189  10.557  70.269  1.00  0.00    -0.391 C  
BRANCH   6   7
HETATM    7  C   UNL     1     -10.829  11.060  68.880  1.00  0.00    -0.262 C  
BRANCH   7   8
HETATM    8  C   UNL     1      -9.324  11.273  68.758  1.00  0.00    -0.136 C  
BRANCH   8   9
HETATM    9  C   UNL     1      -9.050  12.406  67.782  1.00  0.00    -0.193 C  
BRANCH   9  10
HETATM   10  C   UNL     1      -9.052  13.766  68.473  1.00  0.00    -0.133 C  
BRANCH  10  11
HETATM   11  C   UNL     1      -9.759  14.837  67.625  1.00  0.00    -0.213 C  
BRANCH  11  12
HETATM   12  C   UNL     1     -11.099  14.321  67.098  1.00  0.00    -0.311 C  
BRANCH  12  13
HETATM   13  N   UNL     1     -11.268  14.422  65.574  1.00  0.00    -0.320 N  
HETATM   14  C   UNL     1     -12.703  14.133  65.150  1.00  0.00    -0.364 C  
HETATM   15  C   UNL     1     -10.879  15.822  65.091  1.00  0.00    -0.428 C  
BRANCH  13  16
HETATM   16  C   UNL     1     -10.288  13.410  64.875  1.00  0.00    -0.366 C  
BRANCH  16  17
HETATM   17  C   UNL     1     -11.015  12.206  64.263  1.00  0.00    -0.339 C  
BRANCH  17  18
HETATM   18  O   UNL     1     -10.223  11.571  63.263  1.00  0.00    -0.366 OA 
BRANCH  18  19
HETATM   19  C   UNL     1      -9.575  10.449  63.732  1.00  0.00    -0.310 A  
HETATM   20  C   UNL     1      -9.724  10.185  65.092  1.00  0.00    -0.370 A  
HETATM   21  C   UNL     1      -9.065   9.098  65.671  1.00  0.00    -0.273 A  
HETATM   22  C   UNL     1      -8.267   8.262  64.890  1.00  0.00    -0.154 A  
HETATM   23  C   UNL     1      -8.144   8.500  63.524  1.00  0.00    -0.155 A  
HETATM   24  C   UNL     1      -8.803   9.584  62.946  1.00  0.00    -0.242 A  
ENDBRANCH  18  19
ENDBRANCH  17  18
ENDBRANCH  16  17
ENDBRANCH  13  16
ENDBRANCH  12  13
ENDBRANCH  11  12
ENDBRANCH  10  11
ENDBRANCH   9  10
ENDBRANCH   8   9
ENDBRANCH   7   8
ENDBRANCH   6   7
ENDBRANCH   5   6
ENDBRANCH   4   5
ENDBRANCH   3   4
ENDBRANCH   2   3
TORSDOF 15
ENDMDL
MODEL      170
REMARK 921   NORMALIZED FREE ENERGY PREDICTED BY IDOCK:   -3.96 KCAL/MOL
REMARK 922        TOTAL FREE ENERGY PREDICTED BY IDOCK:   -8.55 KCAL/MOL
REMARK 923 INTER-LIGAND FREE ENERGY PREDICTED BY IDOCK:   -5.99 KCAL/MOL
REMARK 924 INTRA-LIGAND FREE ENERGY PREDICTED BY IDOCK:   -2.57 KCAL/MOL
REMARK 927      BINDING AFFINITY PREDICTED BY RF-SCORE:    0.00 PKD
ROOT
HETATM    1  C   UNL     1     -10.221  10.615  67.324  1.00  0.00    -0.250 C  
HETATM    2  C   UNL     1      -9.448  11.591  66.456  1.00  0.00    -0.220 C  
ENDROOT
BRANCH   2   3
HETATM    3  C   UNL     1      -8.936  10.913  65.189  1.00  0.00    -0.195 C  
BRANCH   3   4
HETATM    4  C   UNL     1     -10.087  10.588  64.245  1.00  0.00    -0.380 C  
BRANCH   4   5
HETATM    5  C   UNL     1     -10.535  11.830  63.484  1.00  0.00    -0.500 C  
BRANCH   5   6
HETATM    6  C   UNL     1     -12.011  12.104  63.743  1.00  0.00    -0.607 C  
BRANCH   6   7
HETATM    7  C   UNL     1     -12.183  13.330  64.626  1.00  0.00    -0.460 C  
BRANCH   7   8
HETATM    8  C   UNL     1     -10.913  14.173  64.629  1.00  0.00    -0.393 C  
BRANCH   8   9
HETATM    9  C   UNL     1     -11.283  15.646  64.570  1.00  0.00    -0.337 C  
BRANCH   9  10
HETATM   10  C   UNL     1     -10.524  16.466  65.608  1.00  0.00    -0.364 C  
BRANCH  10  11
HETATM   11  C   UNL     1      -9.455  15.627  66.329  1.00  0.00    -0.351 C  
BRANCH  11  12
HETATM   12  C   UNL     1      -9.225  16.140  67.751  1.00  0.00    -0.202 C  
BRANCH  12  13
HETATM   13  N   UNL     1      -7.908  16.908  67.949  1.00  0.00    -0.172 N  
HETATM   14  C   UNL     1      -7.071  16.921  66.675  1.00  0.00    -0.254 C  
HETATM   15  C   UNL     1      -8.198  18.353  68.368  1.00  0.00    -0.312 C  
BRANCH  13  16
HETATM   16  C   UNL     1      -7.093  16.248  69.120  1.00  0.00    -0.214 C  
BRANCH  16  17
HETATM   17  C   UNL     1      -6.422  14.932  68.708  1.00  0.00    -0.086 C  
BRANCH  17  18
HETATM   18  O   UNL     1      -7.055  13.809  69.315  1.00  0.00    -0.091 OA 
BRANCH  18  19
HETATM   19  C   UNL     1      -6.715  12.618  68.714  1.00  0.00    -0.093 A  
HETATM   20  C   UNL     1      -6.015  12.721  67.514  1.00  0.00    -0.143 A  
HETATM   21  C   UNL     1      -5.667  11.569  66.804  1.00  0.00    -0.139 A  
HETATM   22  C   UNL     1      -6.005  10.309  67.299  1.00  0.00    -0.053 A  
HETATM   23  C   UNL     1      -6.674  10.199  68.515  1.00  0.00    -0.057 A  
HETATM   24  C   UNL     1      -7.018  11.349  69.224  1.00  0.00    -0.115 A  
ENDBRANCH  18  19
ENDBRANCH  17  18
ENDBRANCH  16  17
ENDBRANCH  13  16
ENDBRANCH  12  13
ENDBRANCH  11  12
ENDBRANCH  10  11
ENDBRANCH   9  10
ENDBRANCH   8   9
ENDBRANCH   7   8
ENDBRANCH   6   7
ENDBRANCH   5   6
ENDBRANCH   4   5
ENDBRANCH   3   4
ENDBRANCH   2   3
TORSDOF 15
ENDMDL
MODEL      171
REMARK 921   NORMALIZED FREE ENERGY PREDICTED BY IDOCK:   -3.96 KCAL/MOL
REMARK 922        TOTAL FREE ENERGY PREDICTED BY IDOCK:   -8.55 KCAL/MOL
REMARK 923 INTER-LIGAND FREE ENERGY PREDICTED BY IDOCK:   -7.06 KCAL/MOL
REMARK 924 INTRA-LIGAND FREE ENERGY PREDICTED BY IDOCK:   -1.49 KCAL/MOL
REMARK 927      BINDING AFFINITY PREDICTED BY RF-SCORE:    0.00 PKD
ROOT
HETATM    1  C   UNL     1      -8.077   9.738  69.845  1.00  0.00    -0.192 C  
HETATM    2  C   UNL     1      -8.437   8.281  70.071  1.00  0.00    -0.123 C  
ENDROOT
BRANCH   2   3
HETATM    3  C   UNL     1      -8.436   7.505  68.758  1.00  0.00    -0.129 C  
BRANCH   3   4
HETATM    4  C   UNL     1      -7.018   7.108  68.364  1.00  0.00    -0.076 C  
BRANCH   4   5
HETATM    5  C   UNL     1      -6.630   7.727  67.026  1.00  0.00    -0.063 C  
BRANCH   5   6
HETATM    6  C   UNL     1      -7.031   6.806  65.882  1.00  0.00    -0.064 C  
BRANCH   6   7
HETATM    7  C   UNL     1      -8.283   7.321  65.191  1.00  0.00    -0.112 C  
BRANCH   7   8
HETATM    8  C   UNL     1      -8.073   8.746  64.691  1.00  0.00    -0.157 C  
BRANCH   8   9
HETATM    9  C   UNL     1      -9.300   9.583  65.017  1.00  0.00    -0.294 C  
BRANCH   9  10
HETATM   10  C   UNL     1      -9.228  10.174  66.421  1.00  0.00    -0.190 C  
BRANCH  10  11
HETATM   11  C   UNL     1     -10.575  10.778  66.857  1.00  0.00    -0.312 C  
BRANCH  11  12
HETATM   12  C   UNL     1     -10.410  12.242  67.266  1.00  0.00    -0.214 C  
BRANCH  12  13
HETATM   13  N   UNL     1     -11.166  13.243  66.379  1.00  0.00    -0.296 N  
HETATM   14  C   UNL     1     -10.218  14.254  65.742  1.00  0.00    -0.334 C  
HETATM   15  C   UNL     1     -11.920  12.502  65.270  1.00  0.00    -0.438 C  
BRANCH  13  16
HETATM   16  C   UNL     1     -12.245  13.991  67.243  1.00  0.00    -0.290 C  
BRANCH  16  17
HETATM   17  C   UNL     1     -11.894  14.023  68.735  1.00  0.00    -0.361 C  
BRANCH  17  18
HETATM   18  O   UNL     1     -11.905  15.353  69.247  1.00  0.00    -0.325 OA 
BRANCH  18  19
HETATM   19  C   UNL     1     -12.383  15.422  70.536  1.00  0.00    -0.408 A  
HETATM   20  C   UNL     1     -11.417  15.480  71.540  1.00  0.00    -0.489 A  
HETATM   21  C   UNL     1     -11.803  15.504  72.882  1.00  0.00    -0.565 A  
HETATM   22  C   UNL     1     -13.154  15.485  73.227  1.00  0.00    -0.658 A  
HETATM   23  C   UNL     1     -14.123  15.464  72.227  1.00  0.00    -0.660 A  
HETATM   24  C   UNL     1     -13.738  15.442  70.888  1.00  0.00    -0.310 A  
ENDBRANCH  18  19
ENDBRANCH  17  18
ENDBRANCH  16  17
ENDBRANCH  13  16
ENDBRANCH  12  13
ENDBRANCH  11  12
ENDBRANCH  10  11
ENDBRANCH   9  10
ENDBRANCH   8   9
ENDBRANCH   7   8
ENDBRANCH   6   7
ENDBRANCH   5   6
ENDBRANCH   4   5
ENDBRANCH   3   4
ENDBRANCH   2   3
TORSDOF 15
ENDMDL
MODEL      172
REMARK 921   NORMALIZED FREE ENERGY PREDICTED BY IDOCK:   -3.96 KCAL/MOL
REMARK 922        TOTAL FREE ENERGY PREDICTED BY IDOCK:   -8.55 KCAL/MOL
REMARK 923 INTER-LIGAND FREE ENERGY PREDICTED BY IDOCK:   -7.32 KCAL/MOL
REMARK 924 INTRA-LIGAND FREE ENERGY PREDICTED BY IDOCK:   -1.22 KCAL/MOL
REMARK 927      BINDING AFFINITY PREDICTED BY RF-SCORE:    0.00 PKD
ROOT
HETATM    1  C   UNL     1     -13.792  13.823  72.204  1.00  0.00    -0.649 C  
HETATM    2  C   UNL     1     -13.197  15.146  71.758  1.00  0.00    -0.484 C  
ENDROOT
BRANCH   2   3
HETATM    3  C   UNL     1     -12.637  15.047  70.343  1.00  0.00    -0.399 C  
BRANCH   3   4
HETATM    4  C   UNL     1     -12.136  13.636  70.056  1.00  0.00    -0.417 C  
BRANCH   4   5
HETATM    5  C   UNL     1     -11.994  13.401  68.557  1.00  0.00    -0.363 C  
BRANCH   5   6
HETATM    6  C   UNL     1     -11.516  14.673  67.867  1.00  0.00    -0.350 C  
BRANCH   6   7
HETATM    7  C   UNL     1     -11.490  14.487  66.358  1.00  0.00    -0.362 C  
BRANCH   7   8
HETATM    8  C   UNL     1     -12.598  13.538  65.914  1.00  0.00    -0.454 C  
BRANCH   8   9
HETATM    9  C   UNL     1     -12.372  13.139  64.464  1.00  0.00    -0.447 C  
BRANCH   9  10
HETATM   10  C   UNL     1     -10.916  12.768  64.197  1.00  0.00    -0.435 C  
BRANCH  10  11
HETATM   11  C   UNL     1     -10.776  11.314  63.716  1.00  0.00    -0.448 C  
BRANCH  11  12
HETATM   12  C   UNL     1     -10.275  10.411  64.844  1.00  0.00    -0.260 C  
BRANCH  12  13
HETATM   13  N   UNL     1      -8.793  10.020  64.741  1.00  0.00    -0.178 N  
HETATM   14  C   UNL     1      -8.224  10.341  63.364  1.00  0.00    -0.164 C  
HETATM   15  C   UNL     1      -7.975  10.764  65.802  1.00  0.00    -0.122 C  
BRANCH  13  16
HETATM   16  C   UNL     1      -8.639   8.484  65.040  1.00  0.00    -0.135 C  
BRANCH  16  17
HETATM   17  C   UNL     1      -8.147   8.203  66.465  1.00  0.00    -0.106 C  
BRANCH  17  18
HETATM   18  O   UNL     1      -8.618   6.946  66.942  1.00  0.00    -0.113 OA 
BRANCH  18  19
HETATM   19  C   UNL     1      -9.466   7.069  68.020  1.00  0.00    -0.125 A  
HETATM   20  C   UNL     1      -9.115   8.036  68.961  1.00  0.00    -0.144 A  
HETATM   21  C   UNL     1      -9.887   8.203  70.114  1.00  0.00    -0.184 A  
HETATM   22  C   UNL     1     -11.019   7.415  70.323  1.00  0.00    -0.272 A  
HETATM   23  C   UNL     1     -11.393   6.473  69.369  1.00  0.00    -0.395 A  
HETATM   24  C   UNL     1     -10.625   6.308  68.218  1.00  0.00    -0.318 A  
ENDBRANCH  18  19
ENDBRANCH  17  18
ENDBRANCH  16  17
ENDBRANCH  13  16
ENDBRANCH  12  13
ENDBRANCH  11  12
ENDBRANCH  10  11
ENDBRANCH   9  10
ENDBRANCH   8   9
ENDBRANCH   7   8
ENDBRANCH   6   7
ENDBRANCH   5   6
ENDBRANCH   4   5
ENDBRANCH   3   4
ENDBRANCH   2   3
TORSDOF 15
ENDMDL
MODEL      173
REMARK 921   NORMALIZED FREE ENERGY PREDICTED BY IDOCK:   -3.95 KCAL/MOL
REMARK 922        TOTAL FREE ENERGY PREDICTED BY IDOCK:   -8.54 KCAL/MOL
REMARK 923 INTER-LIGAND FREE ENERGY PREDICTED BY IDOCK:   -6.44 KCAL/MOL
REMARK 924 INTRA-LIGAND FREE ENERGY PREDICTED BY IDOCK:   -2.10 KCAL/MOL
REMARK 927      BINDING AFFINITY PREDICTED BY RF-SCORE:    0.00 PKD
ROOT
HETATM    1  C   UNL     1     -12.456  14.616  70.244  1.00  0.00    -0.401 C  
HETATM    2  C   UNL     1     -12.871  14.200  71.644  1.00  0.00    -0.428 C  
ENDROOT
BRANCH   2   3
HETATM    3  C   UNL     1     -13.192  12.710  71.701  1.00  0.00    -0.394 C  
BRANCH   3   4
HETATM    4  C   UNL     1     -12.233  11.915  70.822  1.00  0.00    -0.401 C  
BRANCH   4   5
HETATM    5  C   UNL     1     -12.722  10.483  70.637  1.00  0.00    -0.441 C  
BRANCH   5   6
HETATM    6  C   UNL     1     -13.698  10.111  71.746  1.00  0.00    -0.183 C  
BRANCH   6   7
HETATM    7  C   UNL     1     -13.116   9.018  72.627  1.00  0.00    -0.358 C  
BRANCH   7   8
HETATM    8  C   UNL     1     -12.268   8.056  71.802  1.00  0.00    -0.352 C  
BRANCH   8   9
HETATM    9  C   UNL     1     -11.101   7.562  72.642  1.00  0.00    -0.398 C  
BRANCH   9  10
HETATM   10  C   UNL     1      -9.793   8.247  72.259  1.00  0.00    -0.364 C  
BRANCH  10  11
HETATM   11  C   UNL     1      -9.621   8.337  70.733  1.00  0.00    -0.196 C  
BRANCH  11  12
HETATM   12  C   UNL     1      -8.738   7.201  70.214  1.00  0.00    -0.144 C  
BRANCH  12  13
HETATM   13  N   UNL     1      -9.370   6.360  69.094  1.00  0.00    -0.133 N  
HETATM   14  C   UNL     1      -8.309   5.724  68.204  1.00  0.00    -0.107 C  
HETATM   15  C   UNL     1     -10.243   5.252  69.694  1.00  0.00    -0.278 C  
BRANCH  13  16
HETATM   16  C   UNL     1     -10.318   7.271  68.233  1.00  0.00    -0.193 C  
BRANCH  16  17
HETATM   17  C   UNL     1      -9.667   7.735  66.924  1.00  0.00    -0.216 C  
BRANCH  17  18
HETATM   18  O   UNL     1     -10.391   8.811  66.333  1.00  0.00    -0.271 OA 
BRANCH  18  19
HETATM   19  C   UNL     1     -10.023  10.039  66.837  1.00  0.00    -0.209 A  
HETATM   20  C   UNL     1     -10.950  11.066  66.669  1.00  0.00    -0.253 A  
HETATM   21  C   UNL     1     -10.649  12.359  67.104  1.00  0.00    -0.247 A  
HETATM   22  C   UNL     1      -9.426  12.628  67.719  1.00  0.00    -0.198 A  
HETATM   23  C   UNL     1      -8.511  11.598  67.920  1.00  0.00    -0.148 A  
HETATM   24  C   UNL     1      -8.813  10.307  67.489  1.00  0.00    -0.128 A  
ENDBRANCH  18  19
ENDBRANCH  17  18
ENDBRANCH  16  17
ENDBRANCH  13  16
ENDBRANCH  12  13
ENDBRANCH  11  12
ENDBRANCH  10  11
ENDBRANCH   9  10
ENDBRANCH   8   9
ENDBRANCH   7   8
ENDBRANCH   6   7
ENDBRANCH   5   6
ENDBRANCH   4   5
ENDBRANCH   3   4
ENDBRANCH   2   3
TORSDOF 15
ENDMDL
MODEL      174
REMARK 921   NORMALIZED FREE ENERGY PREDICTED BY IDOCK:   -3.95 KCAL/MOL
REMARK 922        TOTAL FREE ENERGY PREDICTED BY IDOCK:   -8.54 KCAL/MOL
REMARK 923 INTER-LIGAND FREE ENERGY PREDICTED BY IDOCK:   -6.60 KCAL/MOL
REMARK 924 INTRA-LIGAND FREE ENERGY PREDICTED BY IDOCK:   -1.94 KCAL/MOL
REMARK 927      BINDING AFFINITY PREDICTED BY RF-SCORE:    0.00 PKD
ROOT
HETATM    1  C   UNL     1     -12.078  13.615  64.185  1.00  0.00    -0.484 C  
HETATM    2  C   UNL     1     -10.758  13.548  64.931  1.00  0.00    -0.391 C  
ENDROOT
BRANCH   2   3
HETATM    3  C   UNL     1      -9.923  12.361  64.463  1.00  0.00    -0.202 C  
BRANCH   3   4
HETATM    4  C   UNL     1     -10.520  11.048  64.957  1.00  0.00    -0.344 C  
BRANCH   4   5
HETATM    5  C   UNL     1     -10.899  11.142  66.430  1.00  0.00    -0.284 C  
BRANCH   5   6
HETATM    6  C   UNL     1     -10.257  10.004  67.213  1.00  0.00    -0.275 C  
BRANCH   6   7
HETATM    7  C   UNL     1      -8.847   9.737  66.713  1.00  0.00    -0.151 C  
BRANCH   7   8
HETATM    8  C   UNL     1      -7.816  10.290  67.691  1.00  0.00    -0.098 C  
BRANCH   8   9
HETATM    9  C   UNL     1      -7.544  11.751  67.367  1.00  0.00    -0.143 C  
BRANCH   9  10
HETATM   10  C   UNL     1      -7.967  12.674  68.505  1.00  0.00    -0.093 C  
BRANCH  10  11
HETATM   11  C   UNL     1      -8.922  13.779  68.020  1.00  0.00    -0.187 C  
BRANCH  11  12
HETATM   12  C   UNL     1      -9.298  14.718  69.166  1.00  0.00    -0.101 C  
BRANCH  12  13
HETATM   13  N   UNL     1     -10.810  14.913  69.364  1.00  0.00    -0.257 N  
HETATM   14  C   UNL     1     -11.570  13.602  69.200  1.00  0.00    -0.309 C  
HETATM   15  C   UNL     1     -11.091  15.479  70.760  1.00  0.00    -0.351 C  
BRANCH  13  16
HETATM   16  C   UNL     1     -11.337  15.972  68.328  1.00  0.00    -0.326 C  
BRANCH  16  17
HETATM   17  C   UNL     1     -10.526  17.274  68.345  1.00  0.00    -0.381 C  
BRANCH  17  18
HETATM   18  O   UNL     1     -10.428  17.846  67.044  1.00  0.00    -0.358 OA 
BRANCH  18  19
HETATM   19  C   UNL     1      -9.132  18.156  66.696  1.00  0.00    -0.282 A  
HETATM   20  C   UNL     1      -8.914  19.464  66.269  1.00  0.00    -0.374 A  
HETATM   21  C   UNL     1      -7.642  19.861  65.848  1.00  0.00    -0.334 A  
HETATM   22  C   UNL     1      -6.581  18.956  65.866  1.00  0.00    -0.278 A  
HETATM   23  C   UNL     1      -6.786  17.658  66.325  1.00  0.00    -0.317 A  
HETATM   24  C   UNL     1      -8.054  17.263  66.747  1.00  0.00    -0.280 A  
ENDBRANCH  18  19
ENDBRANCH  17  18
ENDBRANCH  16  17
ENDBRANCH  13  16
ENDBRANCH  12  13
ENDBRANCH  11  12
ENDBRANCH  10  11
ENDBRANCH   9  10
ENDBRANCH   8   9
ENDBRANCH   7   8
ENDBRANCH   6   7
ENDBRANCH   5   6
ENDBRANCH   4   5
ENDBRANCH   3   4
ENDBRANCH   2   3
TORSDOF 15
ENDMDL
MODEL      175
REMARK 921   NORMALIZED FREE ENERGY PREDICTED BY IDOCK:   -3.95 KCAL/MOL
REMARK 922        TOTAL FREE ENERGY PREDICTED BY IDOCK:   -8.53 KCAL/MOL
REMARK 923 INTER-LIGAND FREE ENERGY PREDICTED BY IDOCK:   -7.65 KCAL/MOL
REMARK 924 INTRA-LIGAND FREE ENERGY PREDICTED BY IDOCK:   -0.89 KCAL/MOL
REMARK 927      BINDING AFFINITY PREDICTED BY RF-SCORE:    0.00 PKD
ROOT
HETATM    1  C   UNL     1      -9.969  19.714  67.899  1.00  0.00    -0.527 C  
HETATM    2  C   UNL     1     -10.361  18.250  67.813  1.00  0.00    -0.419 C  
ENDROOT
BRANCH   2   3
HETATM    3  C   UNL     1     -10.364  17.766  66.367  1.00  0.00    -0.351 C  
BRANCH   3   4
HETATM    4  C   UNL     1      -9.394  16.604  66.182  1.00  0.00    -0.318 C  
BRANCH   4   5
HETATM    5  C   UNL     1     -10.058  15.452  65.437  1.00  0.00    -0.394 C  
BRANCH   5   6
HETATM    6  C   UNL     1     -11.253  15.958  64.640  1.00  0.00    -0.361 C  
BRANCH   6   7
HETATM    7  C   UNL     1     -12.141  14.801  64.212  1.00  0.00    -0.415 C  
BRANCH   7   8
HETATM    8  C   UNL     1     -12.467  13.905  65.402  1.00  0.00    -0.528 C  
BRANCH   8   9
HETATM    9  C   UNL     1     -12.101  12.468  65.069  1.00  0.00    -0.504 C  
BRANCH   9  10
HETATM   10  C   UNL     1     -10.776  12.056  65.703  1.00  0.00    -0.313 C  
BRANCH  10  11
HETATM   11  C   UNL     1     -10.476  10.563  65.483  1.00  0.00    -0.220 C  
BRANCH  11  12
HETATM   12  C   UNL     1      -9.055  10.220  65.931  1.00  0.00    -0.163 C  
BRANCH  12  13
HETATM   13  N   UNL     1      -8.952   9.660  67.358  1.00  0.00    -0.131 N  
HETATM   14  C   UNL     1      -8.259   8.302  67.378  1.00  0.00    -0.121 C  
HETATM   15  C   UNL     1      -8.171  10.629  68.251  1.00  0.00    -0.120 C  
BRANCH  13  16
HETATM   16  C   UNL     1     -10.394   9.535  67.972  1.00  0.00    -0.214 C  
BRANCH  16  17
HETATM   17  C   UNL     1     -10.600  10.440  69.192  1.00  0.00    -0.228 C  
BRANCH  17  18
HETATM   18  O   UNL     1     -11.607   9.927  70.060  1.00  0.00    -0.238 OA 
BRANCH  18  19
HETATM   19  C   UNL     1     -11.090   9.158  71.079  1.00  0.00    -0.305 A  
HETATM   20  C   UNL     1     -12.017   8.419  71.812  1.00  0.00    -0.380 A  
HETATM   21  C   UNL     1     -11.595   7.645  72.896  1.00  0.00    -0.280 A  
HETATM   22  C   UNL     1     -10.245   7.596  73.243  1.00  0.00    -0.398 A  
HETATM   23  C   UNL     1      -9.311   8.305  72.492  1.00  0.00    -0.350 A  
HETATM   24  C   UNL     1      -9.732   9.075  71.409  1.00  0.00    -0.369 A  
ENDBRANCH  18  19
ENDBRANCH  17  18
ENDBRANCH  16  17
ENDBRANCH  13  16
ENDBRANCH  12  13
ENDBRANCH  11  12
ENDBRANCH  10  11
ENDBRANCH   9  10
ENDBRANCH   8   9
ENDBRANCH   7   8
ENDBRANCH   6   7
ENDBRANCH   5   6
ENDBRANCH   4   5
ENDBRANCH   3   4
ENDBRANCH   2   3
TORSDOF 15
ENDMDL
MODEL      176
REMARK 921   NORMALIZED FREE ENERGY PREDICTED BY IDOCK:   -3.94 KCAL/MOL
REMARK 922        TOTAL FREE ENERGY PREDICTED BY IDOCK:   -8.51 KCAL/MOL
REMARK 923 INTER-LIGAND FREE ENERGY PREDICTED BY IDOCK:   -6.28 KCAL/MOL
REMARK 924 INTRA-LIGAND FREE ENERGY PREDICTED BY IDOCK:   -2.23 KCAL/MOL
REMARK 927      BINDING AFFINITY PREDICTED BY RF-SCORE:    0.00 PKD
ROOT
HETATM    1  C   UNL     1     -12.380  12.246  63.234  1.00  0.00    -0.518 C  
HETATM    2  C   UNL     1     -11.247  11.793  64.138  1.00  0.00    -0.437 C  
ENDROOT
BRANCH   2   3
HETATM    3  C   UNL     1     -10.136  11.126  63.334  1.00  0.00    -0.439 C  
BRANCH   3   4
HETATM    4  C   UNL     1      -9.549   9.945  64.097  1.00  0.00    -0.177 C  
BRANCH   4   5
HETATM    5  C   UNL     1      -9.812  10.076  65.593  1.00  0.00    -0.363 C  
BRANCH   5   6
HETATM    6  C   UNL     1      -9.702   8.715  66.269  1.00  0.00    -0.322 C  
BRANCH   6   7
HETATM    7  C   UNL     1      -8.250   8.386  66.580  1.00  0.00    -0.105 C  
BRANCH   7   8
HETATM    8  C   UNL     1      -7.699   9.332  67.642  1.00  0.00    -0.092 C  
BRANCH   8   9
HETATM    9  C   UNL     1      -7.337   8.538  68.887  1.00  0.00    -0.086 C  
BRANCH   9  10
HETATM   10  C   UNL     1      -7.788   7.084  68.787  1.00  0.00    -0.118 C  
BRANCH  10  11
HETATM   11  C   UNL     1      -8.738   6.699  69.934  1.00  0.00    -0.141 C  
BRANCH  11  12
HETATM   12  C   UNL     1      -9.207   7.940  70.695  1.00  0.00    -0.157 C  
BRANCH  12  13
HETATM   13  N   UNL     1     -10.724   8.183  70.649  1.00  0.00    -0.220 N  
HETATM   14  C   UNL     1     -11.494   6.879  70.473  1.00  0.00    -0.342 C  
HETATM   15  C   UNL     1     -11.189   8.865  71.939  1.00  0.00    -0.377 C  
BRANCH  13  16
HETATM   16  C   UNL     1     -11.057   9.165  69.468  1.00  0.00    -0.051 C  
BRANCH  16  17
HETATM   17  C   UNL     1     -11.203  10.620  69.929  1.00  0.00    -0.308 C  
BRANCH  17  18
HETATM   18  O   UNL     1     -11.963  11.389  69.001  1.00  0.00    -0.329 OA 
BRANCH  18  19
HETATM   19  C   UNL     1     -11.194  12.298  68.308  1.00  0.00    -0.267 A  
HETATM   20  C   UNL     1     -11.896  13.235  67.552  1.00  0.00    -0.403 A  
HETATM   21  C   UNL     1     -11.205  14.168  66.775  1.00  0.00    -0.330 A  
HETATM   22  C   UNL     1      -9.810  14.178  66.762  1.00  0.00    -0.275 A  
HETATM   23  C   UNL     1      -9.104  13.266  67.544  1.00  0.00    -0.208 A  
HETATM   24  C   UNL     1      -9.794  12.337  68.320  1.00  0.00    -0.217 A  
ENDBRANCH  18  19
ENDBRANCH  17  18
ENDBRANCH  16  17
ENDBRANCH  13  16
ENDBRANCH  12  13
ENDBRANCH  11  12
ENDBRANCH  10  11
ENDBRANCH   9  10
ENDBRANCH   8   9
ENDBRANCH   7   8
ENDBRANCH   6   7
ENDBRANCH   5   6
ENDBRANCH   4   5
ENDBRANCH   3   4
ENDBRANCH   2   3
TORSDOF 15
ENDMDL
MODEL      177
REMARK 921   NORMALIZED FREE ENERGY PREDICTED BY IDOCK:   -3.92 KCAL/MOL
REMARK 922        TOTAL FREE ENERGY PREDICTED BY IDOCK:   -8.47 KCAL/MOL
REMARK 923 INTER-LIGAND FREE ENERGY PREDICTED BY IDOCK:   -6.28 KCAL/MOL
REMARK 924 INTRA-LIGAND FREE ENERGY PREDICTED BY IDOCK:   -2.19 KCAL/MOL
REMARK 927      BINDING AFFINITY PREDICTED BY RF-SCORE:    0.00 PKD
ROOT
HETATM    1  C   UNL     1      -6.245  19.961  70.294  1.00  0.00    -0.352 C  
HETATM    2  C   UNL     1      -6.993  19.796  68.983  1.00  0.00    -0.372 C  
ENDROOT
BRANCH   2   3
HETATM    3  C   UNL     1      -6.583  18.508  68.276  1.00  0.00    -0.225 C  
BRANCH   3   4
HETATM    4  C   UNL     1      -6.438  17.364  69.273  1.00  0.00    -0.245 C  
BRANCH   4   5
HETATM    5  C   UNL     1      -7.497  16.295  69.033  1.00  0.00    -0.220 C  
BRANCH   5   6
HETATM    6  C   UNL     1      -8.150  16.494  67.672  1.00  0.00    -0.177 C  
BRANCH   6   7
HETATM    7  C   UNL     1      -8.295  15.165  66.946  1.00  0.00    -0.267 C  
BRANCH   7   8
HETATM    8  C   UNL     1      -8.195  14.003  67.928  1.00  0.00    -0.158 C  
BRANCH   8   9
HETATM    9  C   UNL     1      -8.182  12.691  67.160  1.00  0.00    -0.159 C  
BRANCH   9  10
HETATM   10  C   UNL     1      -6.833  11.986  67.259  1.00  0.00    -0.150 C  
BRANCH  10  11
HETATM   11  C   UNL     1      -6.956  10.475  66.999  1.00  0.00    -0.089 C  
BRANCH  11  12
HETATM   12  C   UNL     1      -8.324  10.132  66.407  1.00  0.00    -0.125 C  
BRANCH  12  13
HETATM   13  N   UNL     1      -8.963   8.854  66.972  1.00  0.00    -0.125 N  
HETATM   14  C   UNL     1      -8.833   7.686  66.001  1.00  0.00    -0.155 C  
HETATM   15  C   UNL     1      -8.299   8.473  68.299  1.00  0.00    -0.124 C  
BRANCH  13  16
HETATM   16  C   UNL     1     -10.480   9.126  67.283  1.00  0.00    -0.265 C  
BRANCH  16  17
HETATM   17  C   UNL     1     -10.684  10.228  68.329  1.00  0.00    -0.237 C  
BRANCH  17  18
HETATM   18  O   UNL     1     -11.934  10.889  68.157  1.00  0.00    -0.581 OA 
BRANCH  18  19
HETATM   19  C   UNL     1     -11.812  12.260  68.132  1.00  0.00    -0.311 A  
HETATM   20  C   UNL     1     -11.663  12.879  69.371  1.00  0.00    -0.382 A  
HETATM   21  C   UNL     1     -11.580  14.272  69.454  1.00  0.00    -0.354 A  
HETATM   22  C   UNL     1     -11.631  15.049  68.296  1.00  0.00    -0.355 A  
HETATM   23  C   UNL     1     -11.744  14.433  67.053  1.00  0.00    -0.420 A  
HETATM   24  C   UNL     1     -11.824  13.044  66.971  1.00  0.00    -0.437 A  
ENDBRANCH  18  19
ENDBRANCH  17  18
ENDBRANCH  16  17
ENDBRANCH  13  16
ENDBRANCH  12  13
ENDBRANCH  11  12
ENDBRANCH  10  11
ENDBRANCH   9  10
ENDBRANCH   8   9
ENDBRANCH   7   8
ENDBRANCH   6   7
ENDBRANCH   5   6
ENDBRANCH   4   5
ENDBRANCH   3   4
ENDBRANCH   2   3
TORSDOF 15
ENDMDL
MODEL      178
REMARK 921   NORMALIZED FREE ENERGY PREDICTED BY IDOCK:   -3.91 KCAL/MOL
REMARK 922        TOTAL FREE ENERGY PREDICTED BY IDOCK:   -8.46 KCAL/MOL
REMARK 923 INTER-LIGAND FREE ENERGY PREDICTED BY IDOCK:   -7.24 KCAL/MOL
REMARK 924 INTRA-LIGAND FREE ENERGY PREDICTED BY IDOCK:   -1.21 KCAL/MOL
REMARK 927      BINDING AFFINITY PREDICTED BY RF-SCORE:    0.00 PKD
ROOT
HETATM    1  C   UNL     1     -11.777  15.909  71.486  1.00  0.00    -0.545 C  
HETATM    2  C   UNL     1     -12.573  15.365  70.313  1.00  0.00    -0.377 C  
ENDROOT
BRANCH   2   3
HETATM    3  C   UNL     1     -11.717  15.297  69.053  1.00  0.00    -0.368 C  
BRANCH   3   4
HETATM    4  C   UNL     1     -11.755  13.899  68.446  1.00  0.00    -0.391 C  
BRANCH   4   5
HETATM    5  C   UNL     1     -12.252  13.943  67.006  1.00  0.00    -0.392 C  
BRANCH   5   6
HETATM    6  C   UNL     1     -11.259  14.692  66.127  1.00  0.00    -0.341 C  
BRANCH   6   7
HETATM    7  C   UNL     1     -11.518  14.403  64.657  1.00  0.00    -0.390 C  
BRANCH   7   8
HETATM    8  C   UNL     1     -12.364  13.144  64.498  1.00  0.00    -0.447 C  
BRANCH   8   9
HETATM    9  C   UNL     1     -11.633  12.152  63.608  1.00  0.00    -0.575 C  
BRANCH   9  10
HETATM   10  C   UNL     1     -10.208  11.899  64.089  1.00  0.00    -0.364 C  
BRANCH  10  11
HETATM   11  C   UNL     1     -10.100  10.593  64.896  1.00  0.00    -0.402 C  
BRANCH  11  12
HETATM   12  C   UNL     1     -10.232  10.865  66.395  1.00  0.00    -0.238 C  
BRANCH  12  13
HETATM   13  N   UNL     1      -9.378   9.951  67.289  1.00  0.00    -0.143 N  
HETATM   14  C   UNL     1      -8.816   8.770  66.506  1.00  0.00    -0.131 C  
HETATM   15  C   UNL     1      -8.215  10.743  67.895  1.00  0.00    -0.113 C  
BRANCH  13  16
HETATM   16  C   UNL     1     -10.252   9.433  68.488  1.00  0.00    -0.199 C  
BRANCH  16  17
HETATM   17  C   UNL     1      -9.753   8.099  69.054  1.00  0.00    -0.163 C  
BRANCH  17  18
HETATM   18  O   UNL     1     -10.770   7.101  69.015  1.00  0.00    -0.213 OA 
BRANCH  18  19
HETATM   19  C   UNL     1     -10.281   5.856  68.685  1.00  0.00    -0.192 A  
HETATM   20  C   UNL     1      -9.951   5.030  69.758  1.00  0.00    -0.319 A  
HETATM   21  C   UNL     1      -9.402   3.766  69.525  1.00  0.00    -0.249 A  
HETATM   22  C   UNL     1      -9.195   3.318  68.220  1.00  0.00    -0.239 A  
HETATM   23  C   UNL     1      -9.557   4.126  67.145  1.00  0.00    -0.229 A  
HETATM   24  C   UNL     1     -10.106   5.386  67.378  1.00  0.00    -0.223 A  
ENDBRANCH  18  19
ENDBRANCH  17  18
ENDBRANCH  16  17
ENDBRANCH  13  16
ENDBRANCH  12  13
ENDBRANCH  11  12
ENDBRANCH  10  11
ENDBRANCH   9  10
ENDBRANCH   8   9
ENDBRANCH   7   8
ENDBRANCH   6   7
ENDBRANCH   5   6
ENDBRANCH   4   5
ENDBRANCH   3   4
ENDBRANCH   2   3
TORSDOF 15
ENDMDL
MODEL      179
REMARK 921   NORMALIZED FREE ENERGY PREDICTED BY IDOCK:   -3.88 KCAL/MOL
REMARK 922        TOTAL FREE ENERGY PREDICTED BY IDOCK:   -8.41 KCAL/MOL
REMARK 923 INTER-LIGAND FREE ENERGY PREDICTED BY IDOCK:   -7.20 KCAL/MOL
REMARK 924 INTRA-LIGAND FREE ENERGY PREDICTED BY IDOCK:   -1.21 KCAL/MOL
REMARK 927      BINDING AFFINITY PREDICTED BY RF-SCORE:    0.00 PKD
ROOT
HETATM    1  C   UNL     1     -10.198  20.169  66.699  1.00  0.00    -0.556 C  
HETATM    2  C   UNL     1     -10.493  18.799  66.115  1.00  0.00    -0.499 C  
ENDROOT
BRANCH   2   3
HETATM    3  C   UNL     1      -9.394  17.803  66.469  1.00  0.00    -0.291 C  
BRANCH   3   4
HETATM    4  C   UNL     1      -8.036  18.492  66.531  1.00  0.00    -0.295 C  
BRANCH   4   5
HETATM    5  C   UNL     1      -7.405  18.333  67.909  1.00  0.00    -0.233 C  
BRANCH   5   6
HETATM    6  C   UNL     1      -8.010  17.135  68.631  1.00  0.00    -0.265 C  
BRANCH   6   7
HETATM    7  C   UNL     1      -6.919  16.264  69.232  1.00  0.00    -0.217 C  
BRANCH   7   8
HETATM    8  C   UNL     1      -6.698  15.016  68.384  1.00  0.00    -0.111 C  
BRANCH   8   9
HETATM    9  C   UNL     1      -7.992  14.653  67.672  1.00  0.00    -0.193 C  
BRANCH   9  10
HETATM   10  C   UNL     1      -8.005  13.195  67.225  1.00  0.00    -0.140 C  
BRANCH  10  11
HETATM   11  C   UNL     1      -8.724  12.291  68.241  1.00  0.00    -0.178 C  
BRANCH  11  12
HETATM   12  C   UNL     1     -10.191  12.696  68.391  1.00  0.00    -0.232 C  
BRANCH  12  13
HETATM   13  N   UNL     1     -11.191  11.730  67.736  1.00  0.00    -0.245 N  
HETATM   14  C   UNL     1     -11.859  12.357  66.517  1.00  0.00    -0.339 C  
HETATM   15  C   UNL     1     -10.479  10.444  67.305  1.00  0.00    -0.252 C  
BRANCH  13  16
HETATM   16  C   UNL     1     -12.280  11.316  68.791  1.00  0.00    -0.032 C  
BRANCH  16  17
HETATM   17  C   UNL     1     -11.844  11.593  70.235  1.00  0.00    -0.326 C  
BRANCH  17  18
HETATM   18  O   UNL     1     -11.229  10.450  70.823  1.00  0.00    -0.326 OA 
BRANCH  18  19
HETATM   19  C   UNL     1     -12.136   9.467  71.151  1.00  0.00    -0.347 A  
HETATM   20  C   UNL     1     -11.678   8.156  71.036  1.00  0.00    -0.295 A  
HETATM   21  C   UNL     1     -12.539   7.088  71.300  1.00  0.00    -0.418 A  
HETATM   22  C   UNL     1     -13.856   7.327  71.694  1.00  0.00    -0.461 A  
HETATM   23  C   UNL     1     -14.307   8.635  71.845  1.00  0.00    -0.492 A  
HETATM   24  C   UNL     1     -13.447   9.700  71.584  1.00  0.00    -0.455 A  
ENDBRANCH  18  19
ENDBRANCH  17  18
ENDBRANCH  16  17
ENDBRANCH  13  16
ENDBRANCH  12  13
ENDBRANCH  11  12
ENDBRANCH  10  11
ENDBRANCH   9  10
ENDBRANCH   8   9
ENDBRANCH   7   8
ENDBRANCH   6   7
ENDBRANCH   5   6
ENDBRANCH   4   5
ENDBRANCH   3   4
ENDBRANCH   2   3
TORSDOF 15
ENDMDL
MODEL      180
REMARK 921   NORMALIZED FREE ENERGY PREDICTED BY IDOCK:   -3.87 KCAL/MOL
REMARK 922        TOTAL FREE ENERGY PREDICTED BY IDOCK:   -8.39 KCAL/MOL
REMARK 923 INTER-LIGAND FREE ENERGY PREDICTED BY IDOCK:   -7.67 KCAL/MOL
REMARK 924 INTRA-LIGAND FREE ENERGY PREDICTED BY IDOCK:   -0.71 KCAL/MOL
REMARK 927      BINDING AFFINITY PREDICTED BY RF-SCORE:    0.00 PKD
ROOT
HETATM    1  C   UNL     1      -6.541   9.394  63.507  1.00  0.00    -0.095 C  
HETATM    2  C   UNL     1      -7.285  10.308  64.464  1.00  0.00    -0.073 C  
ENDROOT
BRANCH   2   3
HETATM    3  C   UNL     1      -8.376   9.548  65.212  1.00  0.00    -0.144 C  
BRANCH   3   4
HETATM    4  C   UNL     1      -9.717  10.263  65.089  1.00  0.00    -0.364 C  
BRANCH   4   5
HETATM    5  C   UNL     1      -9.957  10.730  63.658  1.00  0.00    -0.405 C  
BRANCH   5   6
HETATM    6  C   UNL     1     -10.381  12.193  63.644  1.00  0.00    -0.482 C  
BRANCH   6   7
HETATM    7  C   UNL     1     -11.893  12.314  63.750  1.00  0.00    -0.587 C  
BRANCH   7   8
HETATM    8  C   UNL     1     -12.277  13.473  64.663  1.00  0.00    -0.450 C  
BRANCH   8   9
HETATM    9  C   UNL     1     -11.026  14.036  65.320  1.00  0.00    -0.335 C  
BRANCH   9  10
HETATM   10  C   UNL     1     -10.871  15.531  65.059  1.00  0.00    -0.468 C  
BRANCH  10  11
HETATM   11  C   UNL     1     -10.051  16.222  66.162  1.00  0.00    -0.362 C  
BRANCH  11  12
HETATM   12  C   UNL     1     -10.455  15.709  67.545  1.00  0.00    -0.285 C  
BRANCH  12  13
HETATM   13  N   UNL     1      -9.315  15.060  68.345  1.00  0.00    -0.188 N  
HETATM   14  C   UNL     1      -8.170  14.626  67.437  1.00  0.00    -0.201 C  
HETATM   15  C   UNL     1      -8.775  16.043  69.389  1.00  0.00    -0.153 C  
BRANCH  13  16
HETATM   16  C   UNL     1      -9.874  13.820  69.133  1.00  0.00     0.234 C  
BRANCH  16  17
HETATM   17  C   UNL     1     -11.359  13.560  68.855  1.00  0.00    -0.289 C  
BRANCH  17  18
HETATM   18  O   UNL     1     -12.006  12.966  69.977  1.00  0.00    -0.334 OA 
BRANCH  18  19
HETATM   19  C   UNL     1     -12.323  13.882  70.956  1.00  0.00    -0.376 A  
HETATM   20  C   UNL     1     -13.604  13.778  71.492  1.00  0.00    -0.323 A  
HETATM   21  C   UNL     1     -14.036  14.692  72.457  1.00  0.00    -0.442 A  
HETATM   22  C   UNL     1     -13.184  15.705  72.898  1.00  0.00    -0.630 A  
HETATM   23  C   UNL     1     -11.890  15.791  72.391  1.00  0.00    -0.606 A  
HETATM   24  C   UNL     1     -11.459  14.877  71.430  1.00  0.00    -0.317 A  
ENDBRANCH  18  19
ENDBRANCH  17  18
ENDBRANCH  16  17
ENDBRANCH  13  16
ENDBRANCH  12  13
ENDBRANCH  11  12
ENDBRANCH  10  11
ENDBRANCH   9  10
ENDBRANCH   8   9
ENDBRANCH   7   8
ENDBRANCH   6   7
ENDBRANCH   5   6
ENDBRANCH   4   5
ENDBRANCH   3   4
ENDBRANCH   2   3
TORSDOF 15
ENDMDL
MODEL      181
REMARK 921   NORMALIZED FREE ENERGY PREDICTED BY IDOCK:   -3.87 KCAL/MOL
REMARK 922        TOTAL FREE ENERGY PREDICTED BY IDOCK:   -8.39 KCAL/MOL
REMARK 923 INTER-LIGAND FREE ENERGY PREDICTED BY IDOCK:   -6.70 KCAL/MOL
REMARK 924 INTRA-LIGAND FREE ENERGY PREDICTED BY IDOCK:   -1.69 KCAL/MOL
REMARK 927      BINDING AFFINITY PREDICTED BY RF-SCORE:    0.00 PKD
ROOT
HETATM    1  C   UNL     1     -10.520  14.843  67.392  1.00  0.00    -0.255 C  
HETATM    2  C   UNL     1     -11.761  14.073  67.808  1.00  0.00    -0.403 C  
ENDROOT
BRANCH   2   3
HETATM    3  C   UNL     1     -12.253  13.174  66.679  1.00  0.00    -0.331 C  
BRANCH   3   4
HETATM    4  C   UNL     1     -12.528  13.986  65.419  1.00  0.00    -0.520 C  
BRANCH   4   5
HETATM    5  C   UNL     1     -12.128  13.209  64.171  1.00  0.00    -0.496 C  
BRANCH   5   6
HETATM    6  C   UNL     1     -10.632  12.925  64.183  1.00  0.00    -0.442 C  
BRANCH   6   7
HETATM    7  C   UNL     1     -10.327  11.621  63.462  1.00  0.00    -0.488 C  
BRANCH   7   8
HETATM    8  C   UNL     1      -9.947  10.531  64.459  1.00  0.00    -0.413 C  
BRANCH   8   9
HETATM    9  C   UNL     1      -9.337  11.169  65.698  1.00  0.00    -0.243 C  
BRANCH   9  10
HETATM   10  C   UNL     1      -9.836  10.511  66.980  1.00  0.00    -0.223 C  
BRANCH  10  11
HETATM   11  C   UNL     1      -9.375   9.047  67.089  1.00  0.00    -0.184 C  
BRANCH  11  12
HETATM   12  C   UNL     1     -10.519   8.148  67.562  1.00  0.00    -0.256 C  
BRANCH  12  13
HETATM   13  N   UNL     1     -10.384   7.652  69.010  1.00  0.00    -0.211 N  
HETATM   14  C   UNL     1     -10.885   8.691  70.007  1.00  0.00    -0.221 C  
HETATM   15  C   UNL     1     -11.181   6.357  69.201  1.00  0.00    -0.354 C  
BRANCH  13  16
HETATM   16  C   UNL     1      -8.878   7.308  69.304  1.00  0.00    -0.136 C  
BRANCH  16  17
HETATM   17  C   UNL     1      -8.525   7.412  70.792  1.00  0.00    -0.131 C  
BRANCH  17  18
HETATM   18  O   UNL     1      -7.951   6.202  71.279  1.00  0.00    -0.109 OA 
BRANCH  18  19
HETATM   19  C   UNL     1      -8.860   5.414  71.948  1.00  0.00    -0.135 A  
HETATM   20  C   UNL     1      -9.414   5.969  73.099  1.00  0.00    -0.142 A  
HETATM   21  C   UNL     1     -10.311   5.228  73.873  1.00  0.00    -0.288 A  
HETATM   22  C   UNL     1     -10.667   3.934  73.492  1.00  0.00    -0.305 A  
HETATM   23  C   UNL     1     -10.143   3.388  72.323  1.00  0.00    -0.219 A  
HETATM   24  C   UNL     1      -9.251   4.129  71.550  1.00  0.00    -0.194 A  
ENDBRANCH  18  19
ENDBRANCH  17  18
ENDBRANCH  16  17
ENDBRANCH  13  16
ENDBRANCH  12  13
ENDBRANCH  11  12
ENDBRANCH  10  11
ENDBRANCH   9  10
ENDBRANCH   8   9
ENDBRANCH   7   8
ENDBRANCH   6   7
ENDBRANCH   5   6
ENDBRANCH   4   5
ENDBRANCH   3   4
ENDBRANCH   2   3
TORSDOF 15
ENDMDL
MODEL      182
REMARK 921   NORMALIZED FREE ENERGY PREDICTED BY IDOCK:   -3.87 KCAL/MOL
REMARK 922        TOTAL FREE ENERGY PREDICTED BY IDOCK:   -8.38 KCAL/MOL
REMARK 923 INTER-LIGAND FREE ENERGY PREDICTED BY IDOCK:   -6.67 KCAL/MOL
REMARK 924 INTRA-LIGAND FREE ENERGY PREDICTED BY IDOCK:   -1.71 KCAL/MOL
REMARK 927      BINDING AFFINITY PREDICTED BY RF-SCORE:    0.00 PKD
ROOT
HETATM    1  C   UNL     1      -8.999  15.041  66.539  1.00  0.00    -0.310 C  
HETATM    2  C   UNL     1      -9.999  14.430  67.504  1.00  0.00    -0.224 C  
ENDROOT
BRANCH   2   3
HETATM    3  C   UNL     1     -11.397  14.391  66.895  1.00  0.00    -0.357 C  
BRANCH   3   4
HETATM    4  C   UNL     1     -11.448  15.198  65.603  1.00  0.00    -0.192 C  
BRANCH   4   5
HETATM    5  C   UNL     1     -12.244  14.463  64.531  1.00  0.00    -0.483 C  
BRANCH   5   6
HETATM    6  C   UNL     1     -12.463  13.012  64.939  1.00  0.00    -0.512 C  
BRANCH   6   7
HETATM    7  C   UNL     1     -11.914  12.068  63.881  1.00  0.00    -0.542 C  
BRANCH   7   8
HETATM    8  C   UNL     1     -10.418  12.289  63.688  1.00  0.00    -0.483 C  
BRANCH   8   9
HETATM    9  C   UNL     1      -9.730  10.948  63.483  1.00  0.00    -0.384 C  
BRANCH   9  10
HETATM   10  C   UNL     1      -9.976   9.999  64.651  1.00  0.00    -0.206 C  
BRANCH  10  11
HETATM   11  C   UNL     1      -9.417  10.559  65.971  1.00  0.00    -0.227 C  
BRANCH  11  12
HETATM   12  C   UNL     1      -9.348   9.469  67.041  1.00  0.00    -0.148 C  
BRANCH  12  13
HETATM   13  N   UNL     1      -8.574   9.865  68.308  1.00  0.00    -0.114 N  
HETATM   14  C   UNL     1      -7.913   8.657  68.961  1.00  0.00    -0.115 C  
HETATM   15  C   UNL     1      -7.494  10.897  67.966  1.00  0.00    -0.090 C  
BRANCH  13  16
HETATM   16  C   UNL     1      -9.557  10.553  69.324  1.00  0.00    -0.181 C  
BRANCH  16  17
HETATM   17  C   UNL     1     -10.938   9.889  69.356  1.00  0.00    -0.230 C  
BRANCH  17  18
HETATM   18  O   UNL     1     -11.228   9.347  70.642  1.00  0.00    -0.249 OA 
BRANCH  18  19
HETATM   19  C   UNL     1     -10.969   7.996  70.720  1.00  0.00    -0.248 A  
HETATM   20  C   UNL     1     -10.417   7.552  71.920  1.00  0.00    -0.235 A  
HETATM   21  C   UNL     1     -10.074   6.207  72.078  1.00  0.00    -0.206 A  
HETATM   22  C   UNL     1     -10.297   5.298  71.044  1.00  0.00    -0.298 A  
HETATM   23  C   UNL     1     -10.881   5.730  69.856  1.00  0.00    -0.417 A  
HETATM   24  C   UNL     1     -11.225   7.072  69.699  1.00  0.00    -0.222 A  
ENDBRANCH  18  19
ENDBRANCH  17  18
ENDBRANCH  16  17
ENDBRANCH  13  16
ENDBRANCH  12  13
ENDBRANCH  11  12
ENDBRANCH  10  11
ENDBRANCH   9  10
ENDBRANCH   8   9
ENDBRANCH   7   8
ENDBRANCH   6   7
ENDBRANCH   5   6
ENDBRANCH   4   5
ENDBRANCH   3   4
ENDBRANCH   2   3
TORSDOF 15
ENDMDL
MODEL      183
REMARK 921   NORMALIZED FREE ENERGY PREDICTED BY IDOCK:   -3.87 KCAL/MOL
REMARK 922        TOTAL FREE ENERGY PREDICTED BY IDOCK:   -8.38 KCAL/MOL
REMARK 923 INTER-LIGAND FREE ENERGY PREDICTED BY IDOCK:   -7.18 KCAL/MOL
REMARK 924 INTRA-LIGAND FREE ENERGY PREDICTED BY IDOCK:   -1.20 KCAL/MOL
REMARK 927      BINDING AFFINITY PREDICTED BY RF-SCORE:    0.00 PKD
ROOT
HETATM    1  C   UNL     1      -8.394   7.196  67.731  1.00  0.00    -0.118 C  
HETATM    2  C   UNL     1      -9.804   7.133  67.171  1.00  0.00    -0.235 C  
ENDROOT
BRANCH   2   3
HETATM    3  C   UNL     1     -10.554   8.437  67.423  1.00  0.00    -0.313 C  
BRANCH   3   4
HETATM    4  C   UNL     1     -10.064   9.535  66.487  1.00  0.00    -0.326 C  
BRANCH   4   5
HETATM    5  C   UNL     1      -9.465  10.695  67.273  1.00  0.00    -0.178 C  
BRANCH   5   6
HETATM    6  C   UNL     1      -8.313  11.320  66.496  1.00  0.00    -0.168 C  
BRANCH   6   7
HETATM    7  C   UNL     1      -7.041  11.320  67.330  1.00  0.00    -0.114 C  
BRANCH   7   8
HETATM    8  C   UNL     1      -7.177  12.265  68.519  1.00  0.00    -0.103 C  
BRANCH   8   9
HETATM    9  C   UNL     1      -7.582  13.645  68.025  1.00  0.00    -0.139 C  
BRANCH   9  10
HETATM   10  C   UNL     1      -7.808  14.618  69.178  1.00  0.00    -0.107 C  
BRANCH  10  11
HETATM   11  C   UNL     1      -7.724  16.083  68.715  1.00  0.00    -0.187 C  
BRANCH  11  12
HETATM   12  C   UNL     1      -9.093  16.760  68.794  1.00  0.00    -0.259 C  
BRANCH  12  13
HETATM   13  N   UNL     1      -9.838  16.855  67.453  1.00  0.00    -0.255 N  
HETATM   14  C   UNL     1     -10.489  18.221  67.269  1.00  0.00    -0.398 C  
HETATM   15  C   UNL     1      -8.870  16.606  66.292  1.00  0.00    -0.312 C  
BRANCH  13  16
HETATM   16  C   UNL     1     -10.931  15.726  67.385  1.00  0.00    -0.279 C  
BRANCH  16  17
HETATM   17  C   UNL     1     -11.259  15.134  68.761  1.00  0.00    -0.284 C  
BRANCH  17  18
HETATM   18  O   UNL     1     -12.410  15.748  69.334  1.00  0.00    -0.248 OA 
BRANCH  18  19
HETATM   19  C   UNL     1     -12.590  15.412  70.657  1.00  0.00    -0.439 A  
HETATM   20  C   UNL     1     -11.783  16.086  71.570  1.00  0.00    -0.554 A  
HETATM   21  C   UNL     1     -11.857  15.779  72.932  1.00  0.00    -0.568 A  
HETATM   22  C   UNL     1     -12.749  14.807  73.386  1.00  0.00    -0.588 A  
HETATM   23  C   UNL     1     -13.583  14.156  72.481  1.00  0.00    -0.644 A  
HETATM   24  C   UNL     1     -13.510  14.464  71.124  1.00  0.00    -0.368 A  
ENDBRANCH  18  19
ENDBRANCH  17  18
ENDBRANCH  16  17
ENDBRANCH  13  16
ENDBRANCH  12  13
ENDBRANCH  11  12
ENDBRANCH  10  11
ENDBRANCH   9  10
ENDBRANCH   8   9
ENDBRANCH   7   8
ENDBRANCH   6   7
ENDBRANCH   5   6
ENDBRANCH   4   5
ENDBRANCH   3   4
ENDBRANCH   2   3
TORSDOF 15
ENDMDL
MODEL      184
REMARK 921   NORMALIZED FREE ENERGY PREDICTED BY IDOCK:   -3.86 KCAL/MOL
REMARK 922        TOTAL FREE ENERGY PREDICTED BY IDOCK:   -8.37 KCAL/MOL
REMARK 923 INTER-LIGAND FREE ENERGY PREDICTED BY IDOCK:   -6.11 KCAL/MOL
REMARK 924 INTRA-LIGAND FREE ENERGY PREDICTED BY IDOCK:   -2.26 KCAL/MOL
REMARK 927      BINDING AFFINITY PREDICTED BY RF-SCORE:    0.00 PKD
ROOT
HETATM    1  C   UNL     1      -8.499   6.963  68.228  1.00  0.00    -0.125 C  
HETATM    2  C   UNL     1      -9.782   6.585  67.510  1.00  0.00    -0.141 C  
ENDROOT
BRANCH   2   3
HETATM    3  C   UNL     1     -10.547   7.826  67.063  1.00  0.00    -0.396 C  
BRANCH   3   4
HETATM    4  C   UNL     1      -9.651   8.750  66.245  1.00  0.00    -0.328 C  
BRANCH   4   5
HETATM    5  C   UNL     1      -9.550  10.126  66.893  1.00  0.00    -0.219 C  
BRANCH   5   6
HETATM    6  C   UNL     1      -8.425  10.929  66.253  1.00  0.00    -0.166 C  
BRANCH   6   7
HETATM    7  C   UNL     1      -7.474  11.459  67.314  1.00  0.00    -0.134 C  
BRANCH   7   8
HETATM    8  C   UNL     1      -8.175  12.480  68.204  1.00  0.00    -0.170 C  
BRANCH   8   9
HETATM    9  C   UNL     1      -7.889  13.881  67.689  1.00  0.00    -0.187 C  
BRANCH   9  10
HETATM   10  C   UNL     1      -7.954  14.921  68.803  1.00  0.00    -0.156 C  
BRANCH  10  11
HETATM   11  C   UNL     1      -7.308  16.252  68.382  1.00  0.00    -0.158 C  
BRANCH  11  12
HETATM   12  C   UNL     1      -8.294  17.411  68.538  1.00  0.00    -0.271 C  
BRANCH  12  13
HETATM   13  N   UNL     1      -8.325  18.388  67.352  1.00  0.00    -0.250 N  
HETATM   14  C   UNL     1      -8.540  19.824  67.815  1.00  0.00    -0.324 C  
HETATM   15  C   UNL     1      -7.011  18.310  66.569  1.00  0.00    -0.216 C  
BRANCH  13  16
HETATM   16  C   UNL     1      -9.471  17.966  66.362  1.00  0.00    -0.267 C  
BRANCH  16  17
HETATM   17  C   UNL     1     -10.614  17.219  67.060  1.00  0.00    -0.231 C  
BRANCH  17  18
HETATM   18  O   UNL     1     -10.932  16.004  66.388  1.00  0.00    -0.218 OA 
BRANCH  18  19
HETATM   19  C   UNL     1     -11.307  15.000  67.253  1.00  0.00    -0.332 A  
HETATM   20  C   UNL     1     -11.446  15.371  68.590  1.00  0.00    -0.357 A  
HETATM   21  C   UNL     1     -11.777  14.413  69.552  1.00  0.00    -0.362 A  
HETATM   22  C   UNL     1     -11.983  13.084  69.179  1.00  0.00    -0.320 A  
HETATM   23  C   UNL     1     -11.881  12.716  67.840  1.00  0.00    -0.388 A  
HETATM   24  C   UNL     1     -11.553  13.673  66.881  1.00  0.00    -0.397 A  
ENDBRANCH  18  19
ENDBRANCH  17  18
ENDBRANCH  16  17
ENDBRANCH  13  16
ENDBRANCH  12  13
ENDBRANCH  11  12
ENDBRANCH  10  11
ENDBRANCH   9  10
ENDBRANCH   8   9
ENDBRANCH   7   8
ENDBRANCH   6   7
ENDBRANCH   5   6
ENDBRANCH   4   5
ENDBRANCH   3   4
ENDBRANCH   2   3
TORSDOF 15
ENDMDL
MODEL      185
REMARK 921   NORMALIZED FREE ENERGY PREDICTED BY IDOCK:   -3.86 KCAL/MOL
REMARK 922        TOTAL FREE ENERGY PREDICTED BY IDOCK:   -8.37 KCAL/MOL
REMARK 923 INTER-LIGAND FREE ENERGY PREDICTED BY IDOCK:   -6.53 KCAL/MOL
REMARK 924 INTRA-LIGAND FREE ENERGY PREDICTED BY IDOCK:   -1.84 KCAL/MOL
REMARK 927      BINDING AFFINITY PREDICTED BY RF-SCORE:    0.00 PKD
ROOT
HETATM    1  C   UNL     1      -6.293   5.193  67.736  1.00  0.00    -0.040 C  
HETATM    2  C   UNL     1      -6.259   6.461  68.571  1.00  0.00    -0.032 C  
ENDROOT
BRANCH   2   3
HETATM    3  C   UNL     1      -7.259   7.487  68.050  1.00  0.00    -0.090 C  
BRANCH   3   4
HETATM    4  C   UNL     1      -7.215   7.565  66.529  1.00  0.00    -0.076 C  
BRANCH   4   5
HETATM    5  C   UNL     1      -8.587   7.286  65.927  1.00  0.00    -0.159 C  
BRANCH   5   6
HETATM    6  C   UNL     1      -9.681   7.838  66.832  1.00  0.00    -0.282 C  
BRANCH   6   7
HETATM    7  C   UNL     1     -10.808   6.829  66.989  1.00  0.00    -0.453 C  
BRANCH   7   8
HETATM    8  C   UNL     1     -10.326   5.427  66.634  1.00  0.00    -0.325 C  
BRANCH   8   9
HETATM    9  C   UNL     1      -9.732   4.768  67.869  1.00  0.00    -0.200 C  
BRANCH   9  10
HETATM   10  C   UNL     1     -10.530   5.095  69.128  1.00  0.00    -0.170 C  
BRANCH  10  11
HETATM   11  C   UNL     1      -9.629   5.632  70.253  1.00  0.00    -0.216 C  
BRANCH  11  12
HETATM   12  C   UNL     1     -10.042   7.049  70.654  1.00  0.00    -0.191 C  
BRANCH  12  13
HETATM   13  N   UNL     1     -10.742   7.149  72.018  1.00  0.00    -0.212 N  
HETATM   14  C   UNL     1     -12.092   6.441  72.008  1.00  0.00    -0.303 C  
HETATM   15  C   UNL     1      -9.863   6.528  73.109  1.00  0.00    -0.170 C  
BRANCH  13  16
HETATM   16  C   UNL     1     -10.933   8.664  72.394  1.00  0.00    -0.253 C  
BRANCH  16  17
HETATM   17  C   UNL     1     -10.909   9.587  71.170  1.00  0.00    -0.355 C  
BRANCH  17  18
HETATM   18  O   UNL     1     -12.222   9.994  70.797  1.00  0.00    -0.293 OA 
BRANCH  18  19
HETATM   19  C   UNL     1     -12.417  11.351  70.934  1.00  0.00    -0.379 A  
HETATM   20  C   UNL     1     -13.145  11.749  72.054  1.00  0.00    -0.436 A  
HETATM   21  C   UNL     1     -13.437  13.101  72.255  1.00  0.00    -0.665 A  
HETATM   22  C   UNL     1     -12.990  14.060  71.345  1.00  0.00    -0.427 A  
HETATM   23  C   UNL     1     -12.233  13.670  70.244  1.00  0.00    -0.423 A  
HETATM   24  C   UNL     1     -11.940  12.322  70.045  1.00  0.00    -0.379 A  
ENDBRANCH  18  19
ENDBRANCH  17  18
ENDBRANCH  16  17
ENDBRANCH  13  16
ENDBRANCH  12  13
ENDBRANCH  11  12
ENDBRANCH  10  11
ENDBRANCH   9  10
ENDBRANCH   8   9
ENDBRANCH   7   8
ENDBRANCH   6   7
ENDBRANCH   5   6
ENDBRANCH   4   5
ENDBRANCH   3   4
ENDBRANCH   2   3
TORSDOF 15
ENDMDL
MODEL      186
REMARK 921   NORMALIZED FREE ENERGY PREDICTED BY IDOCK:   -3.86 KCAL/MOL
REMARK 922        TOTAL FREE ENERGY PREDICTED BY IDOCK:   -8.36 KCAL/MOL
REMARK 923 INTER-LIGAND FREE ENERGY PREDICTED BY IDOCK:   -6.44 KCAL/MOL
REMARK 924 INTRA-LIGAND FREE ENERGY PREDICTED BY IDOCK:   -1.92 KCAL/MOL
REMARK 927      BINDING AFFINITY PREDICTED BY RF-SCORE:    0.00 PKD
ROOT
HETATM    1  C   UNL     1      -6.770   5.660  68.943  1.00  0.00    -0.053 C  
HETATM    2  C   UNL     1      -7.866   6.001  67.949  1.00  0.00    -0.105 C  
ENDROOT
BRANCH   2   3
HETATM    3  C   UNL     1      -9.247   5.789  68.560  1.00  0.00    -0.126 C  
BRANCH   3   4
HETATM    4  C   UNL     1      -9.142   5.082  69.907  1.00  0.00    -0.162 C  
BRANCH   4   5
HETATM    5  C   UNL     1     -10.449   5.189  70.683  1.00  0.00    -0.269 C  
BRANCH   5   6
HETATM    6  C   UNL     1     -11.351   6.244  70.055  1.00  0.00    -0.486 C  
BRANCH   6   7
HETATM    7  C   UNL     1     -11.892   7.188  71.117  1.00  0.00    -0.363 C  
BRANCH   7   8
HETATM    8  C   UNL     1     -10.882   7.363  72.246  1.00  0.00    -0.287 C  
BRANCH   8   9
HETATM    9  C   UNL     1     -10.249   8.742  72.151  1.00  0.00    -0.371 C  
BRANCH   9  10
HETATM   10  C   UNL     1      -8.950   8.717  71.353  1.00  0.00    -0.307 C  
BRANCH  10  11
HETATM   11  C   UNL     1      -9.049   9.565  70.073  1.00  0.00    -0.255 C  
BRANCH  11  12
HETATM   12  C   UNL     1      -7.791   9.411  69.217  1.00  0.00    -0.085 C  
BRANCH  12  13
HETATM   13  N   UNL     1      -7.731  10.341  67.995  1.00  0.00    -0.088 N  
HETATM   14  C   UNL     1      -8.418  11.674  68.272  1.00  0.00    -0.160 C  
HETATM   15  C   UNL     1      -6.273  10.606  67.603  1.00  0.00    -0.055 C  
BRANCH  13  16
HETATM   16  C   UNL     1      -8.411   9.632  66.768  1.00  0.00    -0.127 C  
BRANCH  16  17
HETATM   17  C   UNL     1      -9.850  10.106  66.531  1.00  0.00    -0.212 C  
BRANCH  17  18
HETATM   18  O   UNL     1     -10.105  10.329  65.147  1.00  0.00    -0.310 OA 
BRANCH  18  19
HETATM   19  C   UNL     1     -10.860  11.458  64.920  1.00  0.00    -0.257 A  
HETATM   20  C   UNL     1     -11.367  12.087  66.055  1.00  0.00    -0.398 A  
HETATM   21  C   UNL     1     -12.185  13.213  65.926  1.00  0.00    -0.497 A  
HETATM   22  C   UNL     1     -12.486  13.723  64.663  1.00  0.00    -0.356 A  
HETATM   23  C   UNL     1     -11.952  13.119  63.527  1.00  0.00    -0.580 A  
HETATM   24  C   UNL     1     -11.135  11.997  63.657  1.00  0.00    -0.525 A  
ENDBRANCH  18  19
ENDBRANCH  17  18
ENDBRANCH  16  17
ENDBRANCH  13  16
ENDBRANCH  12  13
ENDBRANCH  11  12
ENDBRANCH  10  11
ENDBRANCH   9  10
ENDBRANCH   8   9
ENDBRANCH   7   8
ENDBRANCH   6   7
ENDBRANCH   5   6
ENDBRANCH   4   5
ENDBRANCH   3   4
ENDBRANCH   2   3
TORSDOF 15
ENDMDL
MODEL      187
REMARK 921   NORMALIZED FREE ENERGY PREDICTED BY IDOCK:   -3.85 KCAL/MOL
REMARK 922        TOTAL FREE ENERGY PREDICTED BY IDOCK:   -8.35 KCAL/MOL
REMARK 923 INTER-LIGAND FREE ENERGY PREDICTED BY IDOCK:   -7.21 KCAL/MOL
REMARK 924 INTRA-LIGAND FREE ENERGY PREDICTED BY IDOCK:   -1.14 KCAL/MOL
REMARK 927      BINDING AFFINITY PREDICTED BY RF-SCORE:    0.00 PKD
ROOT
HETATM    1  C   UNL     1      -9.342   3.055  64.594  1.00  0.00    -0.147 C  
HETATM    2  C   UNL     1     -10.288   4.196  64.924  1.00  0.00    -0.210 C  
ENDROOT
BRANCH   2   3
HETATM    3  C   UNL     1      -9.651   5.170  65.910  1.00  0.00    -0.163 C  
BRANCH   3   4
HETATM    4  C   UNL     1     -10.537   5.357  67.136  1.00  0.00    -0.274 C  
BRANCH   4   5
HETATM    5  C   UNL     1      -9.769   6.031  68.266  1.00  0.00    -0.138 C  
BRANCH   5   6
HETATM    6  C   UNL     1      -9.183   7.354  67.791  1.00  0.00    -0.133 C  
BRANCH   6   7
HETATM    7  C   UNL     1      -9.941   8.525  68.396  1.00  0.00    -0.208 C  
BRANCH   7   8
HETATM    8  C   UNL     1     -10.695   9.293  67.315  1.00  0.00    -0.244 C  
BRANCH   8   9
HETATM    9  C   UNL     1      -9.904   9.249  66.018  1.00  0.00    -0.363 C  
BRANCH   9  10
HETATM   10  C   UNL     1     -10.109  10.509  65.183  1.00  0.00    -0.383 C  
BRANCH  10  11
HETATM   11  C   UNL     1      -9.440  11.736  65.826  1.00  0.00    -0.232 C  
BRANCH  11  12
HETATM   12  C   UNL     1     -10.379  12.943  65.807  1.00  0.00    -0.284 C  
BRANCH  12  13
HETATM   13  N   UNL     1     -10.567  13.629  67.170  1.00  0.00    -0.271 N  
HETATM   14  C   UNL     1     -12.034  13.943  67.440  1.00  0.00    -0.401 C  
HETATM   15  C   UNL     1     -10.036  12.730  68.291  1.00  0.00    -0.237 C  
BRANCH  13  16
HETATM   16  C   UNL     1      -9.719  14.952  67.206  1.00  0.00    -0.228 C  
BRANCH  16  17
HETATM   17  C   UNL     1      -9.805  15.748  65.899  1.00  0.00    -0.349 C  
BRANCH  17  18
HETATM   18  O   UNL     1      -8.762  16.715  65.805  1.00  0.00    -0.482 OA 
BRANCH  18  19
HETATM   19  C   UNL     1      -9.120  17.936  66.331  1.00  0.00    -0.235 A  
HETATM   20  C   UNL     1      -8.136  18.592  67.069  1.00  0.00    -0.254 A  
HETATM   21  C   UNL     1      -8.419  19.815  67.683  1.00  0.00    -0.361 A  
HETATM   22  C   UNL     1      -9.681  20.393  67.550  1.00  0.00    -0.571 A  
HETATM   23  C   UNL     1     -10.656  19.760  66.784  1.00  0.00    -0.586 A  
HETATM   24  C   UNL     1     -10.373  18.541  66.170  1.00  0.00    -0.457 A  
ENDBRANCH  18  19
ENDBRANCH  17  18
ENDBRANCH  16  17
ENDBRANCH  13  16
ENDBRANCH  12  13
ENDBRANCH  11  12
ENDBRANCH  10  11
ENDBRANCH   9  10
ENDBRANCH   8   9
ENDBRANCH   7   8
ENDBRANCH   6   7
ENDBRANCH   5   6
ENDBRANCH   4   5
ENDBRANCH   3   4
ENDBRANCH   2   3
TORSDOF 15
ENDMDL
MODEL      188
REMARK 921   NORMALIZED FREE ENERGY PREDICTED BY IDOCK:   -3.85 KCAL/MOL
REMARK 922        TOTAL FREE ENERGY PREDICTED BY IDOCK:   -8.34 KCAL/MOL
REMARK 923 INTER-LIGAND FREE ENERGY PREDICTED BY IDOCK:   -6.86 KCAL/MOL
REMARK 924 INTRA-LIGAND FREE ENERGY PREDICTED BY IDOCK:   -1.49 KCAL/MOL
REMARK 927      BINDING AFFINITY PREDICTED BY RF-SCORE:    0.00 PKD
ROOT
HETATM    1  C   UNL     1     -14.054   7.200  71.584  1.00  0.00    -0.477 C  
HETATM    2  C   UNL     1     -13.867   8.703  71.694  1.00  0.00    -0.440 C  
ENDROOT
BRANCH   2   3
HETATM    3  C   UNL     1     -12.410   9.057  71.971  1.00  0.00    -0.455 C  
BRANCH   3   4
HETATM    4  C   UNL     1     -11.473   8.189  71.139  1.00  0.00    -0.304 C  
BRANCH   4   5
HETATM    5  C   UNL     1     -11.243   8.800  69.762  1.00  0.00    -0.002 C  
BRANCH   5   6
HETATM    6  C   UNL     1     -10.203   9.910  69.844  1.00  0.00    -0.298 C  
BRANCH   6   7
HETATM    7  C   UNL     1     -10.757  11.208  69.280  1.00  0.00    -0.241 C  
BRANCH   7   8
HETATM    8  C   UNL     1     -10.038  11.584  67.989  1.00  0.00    -0.197 C  
BRANCH   8   9
HETATM    9  C   UNL     1      -9.334  12.919  68.172  1.00  0.00    -0.214 C  
BRANCH   9  10
HETATM   10  C   UNL     1      -7.847  12.828  67.847  1.00  0.00    -0.156 C  
BRANCH  10  11
HETATM   11  C   UNL     1      -7.229  14.215  67.602  1.00  0.00    -0.195 C  
BRANCH  11  12
HETATM   12  C   UNL     1      -7.952  15.288  68.417  1.00  0.00    -0.131 C  
BRANCH  12  13
HETATM   13  N   UNL     1      -8.090  16.645  67.709  1.00  0.00    -0.174 N  
HETATM   14  C   UNL     1      -9.057  17.566  68.445  1.00  0.00    -0.276 C  
HETATM   15  C   UNL     1      -6.724  17.332  67.615  1.00  0.00    -0.150 C  
BRANCH  13  16
HETATM   16  C   UNL     1      -8.586  16.414  66.235  1.00  0.00    -0.340 C  
BRANCH  16  17
HETATM   17  C   UNL     1     -10.044  16.836  66.026  1.00  0.00    -0.332 C  
BRANCH  17  18
HETATM   18  O   UNL     1     -10.582  16.284  64.828  1.00  0.00    -0.658 OA 
BRANCH  18  19
HETATM   19  C   UNL     1     -11.157  15.048  65.022  1.00  0.00    -0.413 A  
HETATM   20  C   UNL     1     -11.044  14.152  63.962  1.00  0.00     0.196 A  
HETATM   21  C   UNL     1     -11.636  12.889  64.045  1.00  0.00    -0.486 A  
HETATM   22  C   UNL     1     -12.332  12.513  65.194  1.00  0.00    -0.496 A  
HETATM   23  C   UNL     1     -12.418  13.391  66.270  1.00  0.00    -0.338 A  
HETATM   24  C   UNL     1     -11.825  14.650  66.188  1.00  0.00    -0.282 A  
ENDBRANCH  18  19
ENDBRANCH  17  18
ENDBRANCH  16  17
ENDBRANCH  13  16
ENDBRANCH  12  13
ENDBRANCH  11  12
ENDBRANCH  10  11
ENDBRANCH   9  10
ENDBRANCH   8   9
ENDBRANCH   7   8
ENDBRANCH   6   7
ENDBRANCH   5   6
ENDBRANCH   4   5
ENDBRANCH   3   4
ENDBRANCH   2   3
TORSDOF 15
ENDMDL
MODEL      189
REMARK 921   NORMALIZED FREE ENERGY PREDICTED BY IDOCK:   -3.85 KCAL/MOL
REMARK 922        TOTAL FREE ENERGY PREDICTED BY IDOCK:   -8.34 KCAL/MOL
REMARK 923 INTER-LIGAND FREE ENERGY PREDICTED BY IDOCK:   -7.06 KCAL/MOL
REMARK 924 INTRA-LIGAND FREE ENERGY PREDICTED BY IDOCK:   -1.28 KCAL/MOL
REMARK 927      BINDING AFFINITY PREDICTED BY RF-SCORE:    0.00 PKD
ROOT
HETATM    1  C   UNL     1     -10.672  15.698  68.645  1.00  0.00    -0.256 C  
HETATM    2  C   UNL     1     -11.902  15.461  69.502  1.00  0.00    -0.370 C  
ENDROOT
BRANCH   2   3
HETATM    3  C   UNL     1     -11.608  15.738  70.973  1.00  0.00    -0.453 C  
BRANCH   3   4
HETATM    4  C   UNL     1     -12.899  15.813  71.780  1.00  0.00    -0.517 C  
BRANCH   4   5
HETATM    5  C   UNL     1     -13.005  14.642  72.750  1.00  0.00    -0.564 C  
BRANCH   5   6
HETATM    6  C   UNL     1     -13.896  13.553  72.167  1.00  0.00    -0.628 C  
BRANCH   6   7
HETATM    7  C   UNL     1     -13.135  12.242  72.050  1.00  0.00    -0.461 C  
BRANCH   7   8
HETATM    8  C   UNL     1     -12.855  11.913  70.588  1.00  0.00    -0.058 C  
BRANCH   8   9
HETATM    9  C   UNL     1     -11.666  10.968  70.501  1.00  0.00    -0.416 C  
BRANCH   9  10
HETATM   10  C   UNL     1     -11.412  10.503  69.071  1.00  0.00    -0.304 C  
BRANCH  10  11
HETATM   11  C   UNL     1     -10.071  11.027  68.528  1.00  0.00    -0.198 C  
BRANCH  11  12
HETATM   12  C   UNL     1      -9.304   9.919  67.806  1.00  0.00    -0.140 C  
BRANCH  12  13
HETATM   13  N   UNL     1      -9.294  10.042  66.274  1.00  0.00    -0.161 N  
HETATM   14  C   UNL     1     -10.373  11.000  65.782  1.00  0.00    -0.257 C  
HETATM   15  C   UNL     1      -7.928  10.543  65.794  1.00  0.00    -0.158 C  
BRANCH  13  16
HETATM   16  C   UNL     1      -9.508   8.620  65.637  1.00  0.00    -0.044 C  
BRANCH  16  17
HETATM   17  C   UNL     1      -9.342   7.484  66.653  1.00  0.00    -0.174 C  
BRANCH  17  18
HETATM   18  O   UNL     1     -10.602   6.974  67.078  1.00  0.00    -0.289 OA 
BRANCH  18  19
HETATM   19  C   UNL     1     -10.524   6.286  68.269  1.00  0.00    -0.228 A  
HETATM   20  C   UNL     1     -11.134   6.897  69.363  1.00  0.00    -0.249 A  
HETATM   21  C   UNL     1     -11.067   6.301  70.625  1.00  0.00    -0.389 A  
HETATM   22  C   UNL     1     -10.402   5.086  70.795  1.00  0.00    -0.265 A  
HETATM   23  C   UNL     1      -9.822   4.455  69.698  1.00  0.00    -0.272 A  
HETATM   24  C   UNL     1      -9.891   5.049  68.439  1.00  0.00    -0.209 A  
ENDBRANCH  18  19
ENDBRANCH  17  18
ENDBRANCH  16  17
ENDBRANCH  13  16
ENDBRANCH  12  13
ENDBRANCH  11  12
ENDBRANCH  10  11
ENDBRANCH   9  10
ENDBRANCH   8   9
ENDBRANCH   7   8
ENDBRANCH   6   7
ENDBRANCH   5   6
ENDBRANCH   4   5
ENDBRANCH   3   4
ENDBRANCH   2   3
TORSDOF 15
ENDMDL
MODEL      190
REMARK 921   NORMALIZED FREE ENERGY PREDICTED BY IDOCK:   -3.84 KCAL/MOL
REMARK 922        TOTAL FREE ENERGY PREDICTED BY IDOCK:   -8.32 KCAL/MOL
REMARK 923 INTER-LIGAND FREE ENERGY PREDICTED BY IDOCK:   -7.20 KCAL/MOL
REMARK 924 INTRA-LIGAND FREE ENERGY PREDICTED BY IDOCK:   -1.13 KCAL/MOL
REMARK 927      BINDING AFFINITY PREDICTED BY RF-SCORE:    0.00 PKD
ROOT
HETATM    1  C   UNL     1      -8.213   9.350  70.612  1.00  0.00    -0.207 C  
HETATM    2  C   UNL     1      -8.386   7.961  71.199  1.00  0.00    -0.116 C  
ENDROOT
BRANCH   2   3
HETATM    3  C   UNL     1      -8.903   6.982  70.150  1.00  0.00    -0.145 C  
BRANCH   3   4
HETATM    4  C   UNL     1      -7.811   6.639  69.144  1.00  0.00    -0.111 C  
BRANCH   4   5
HETATM    5  C   UNL     1      -7.961   7.465  67.872  1.00  0.00    -0.119 C  
BRANCH   5   6
HETATM    6  C   UNL     1      -9.166   6.988  67.071  1.00  0.00    -0.167 C  
BRANCH   6   7
HETATM    7  C   UNL     1     -10.318   7.972  67.197  1.00  0.00    -0.395 C  
BRANCH   7   8
HETATM    8  C   UNL     1     -10.146   9.129  66.219  1.00  0.00    -0.319 C  
BRANCH   8   9
HETATM    9  C   UNL     1     -10.528  10.432  66.905  1.00  0.00    -0.300 C  
BRANCH   9  10
HETATM   10  C   UNL     1      -9.300  11.222  67.348  1.00  0.00    -0.168 C  
BRANCH  10  11
HETATM   11  C   UNL     1      -9.687  12.475  68.152  1.00  0.00    -0.222 C  
BRANCH  11  12
HETATM   12  C   UNL     1      -9.105  13.736  67.511  1.00  0.00    -0.209 C  
BRANCH  12  13
HETATM   13  N   UNL     1     -10.154  14.716  66.960  1.00  0.00    -0.247 N  
HETATM   14  C   UNL     1      -9.935  14.995  65.478  1.00  0.00    -0.356 C  
HETATM   15  C   UNL     1     -11.563  14.146  67.156  1.00  0.00    -0.377 C  
BRANCH  13  16
HETATM   16  C   UNL     1     -10.088  16.059  67.774  1.00  0.00    -0.243 C  
BRANCH  16  17
HETATM   17  C   UNL     1     -10.191  15.842  69.288  1.00  0.00    -0.248 C  
BRANCH  17  18
HETATM   18  O   UNL     1     -11.363  16.449  69.826  1.00  0.00    -0.293 OA 
BRANCH  18  19
HETATM   19  C   UNL     1     -11.867  15.765  70.910  1.00  0.00    -0.414 A  
HETATM   20  C   UNL     1     -12.628  14.635  70.614  1.00  0.00    -0.419 A  
HETATM   21  C   UNL     1     -13.223  13.902  71.645  1.00  0.00    -0.446 A  
HETATM   22  C   UNL     1     -13.048  14.288  72.974  1.00  0.00    -0.526 A  
HETATM   23  C   UNL     1     -12.260  15.395  73.276  1.00  0.00    -0.589 A  
HETATM   24  C   UNL     1     -11.665  16.125  72.248  1.00  0.00    -0.564 A  
ENDBRANCH  18  19
ENDBRANCH  17  18
ENDBRANCH  16  17
ENDBRANCH  13  16
ENDBRANCH  12  13
ENDBRANCH  11  12
ENDBRANCH  10  11
ENDBRANCH   9  10
ENDBRANCH   8   9
ENDBRANCH   7   8
ENDBRANCH   6   7
ENDBRANCH   5   6
ENDBRANCH   4   5
ENDBRANCH   3   4
ENDBRANCH   2   3
TORSDOF 15
ENDMDL
MODEL      191
REMARK 921   NORMALIZED FREE ENERGY PREDICTED BY IDOCK:   -3.84 KCAL/MOL
REMARK 922        TOTAL FREE ENERGY PREDICTED BY IDOCK:   -8.32 KCAL/MOL
REMARK 923 INTER-LIGAND FREE ENERGY PREDICTED BY IDOCK:   -7.06 KCAL/MOL
REMARK 924 INTRA-LIGAND FREE ENERGY PREDICTED BY IDOCK:   -1.26 KCAL/MOL
REMARK 927      BINDING AFFINITY PREDICTED BY RF-SCORE:    0.00 PKD
ROOT
HETATM    1  C   UNL     1      -9.080  20.173  67.098  1.00  0.00    -0.489 C  
HETATM    2  C   UNL     1     -10.395  19.416  67.144  1.00  0.00    -0.548 C  
ENDROOT
BRANCH   2   3
HETATM    3  C   UNL     1     -10.212  17.970  66.695  1.00  0.00    -0.375 C  
BRANCH   3   4
HETATM    4  C   UNL     1      -8.739  17.578  66.716  1.00  0.00    -0.278 C  
BRANCH   4   5
HETATM    5  C   UNL     1      -8.544  16.229  67.397  1.00  0.00    -0.194 C  
BRANCH   5   6
HETATM    6  C   UNL     1      -9.883  15.676  67.868  1.00  0.00    -0.217 C  
BRANCH   6   7
HETATM    7  C   UNL     1     -10.031  14.216  67.471  1.00  0.00    -0.236 C  
BRANCH   7   8
HETATM    8  C   UNL     1      -9.428  13.970  66.092  1.00  0.00    -0.210 C  
BRANCH   8   9
HETATM    9  C   UNL     1     -10.540  13.920  65.056  1.00  0.00    -0.418 C  
BRANCH   9  10
HETATM   10  C   UNL     1     -10.423  12.694  64.155  1.00  0.00    -0.438 C  
BRANCH  10  11
HETATM   11  C   UNL     1     -10.999  11.435  64.826  1.00  0.00    -0.303 C  
BRANCH  11  12
HETATM   12  C   UNL     1      -9.894  10.420  65.124  1.00  0.00    -0.313 C  
BRANCH  12  13
HETATM   13  N   UNL     1      -9.846   9.937  66.582  1.00  0.00    -0.196 N  
HETATM   14  C   UNL     1      -8.516  10.282  67.243  1.00  0.00    -0.125 C  
HETATM   15  C   UNL     1     -10.982  10.575  67.388  1.00  0.00    -0.288 C  
BRANCH  13  16
HETATM   16  C   UNL     1     -10.077   8.382  66.621  1.00  0.00    -0.288 C  
BRANCH  16  17
HETATM   17  C   UNL     1      -9.876   7.787  68.020  1.00  0.00    -0.163 C  
BRANCH  17  18
HETATM   18  O   UNL     1     -11.024   7.061  68.449  1.00  0.00    -0.165 OA 
BRANCH  18  19
HETATM   19  C   UNL     1     -10.880   6.537  69.715  1.00  0.00    -0.295 A  
HETATM   20  C   UNL     1     -11.806   6.971  70.661  1.00  0.00    -0.377 A  
HETATM   21  C   UNL     1     -11.713   6.533  71.985  1.00  0.00    -0.367 A  
HETATM   22  C   UNL     1     -10.702   5.649  72.364  1.00  0.00    -0.286 A  
HETATM   23  C   UNL     1      -9.796   5.185  71.414  1.00  0.00    -0.239 A  
HETATM   24  C   UNL     1      -9.890   5.621  70.093  1.00  0.00    -0.250 A  
ENDBRANCH  18  19
ENDBRANCH  17  18
ENDBRANCH  16  17
ENDBRANCH  13  16
ENDBRANCH  12  13
ENDBRANCH  11  12
ENDBRANCH  10  11
ENDBRANCH   9  10
ENDBRANCH   8   9
ENDBRANCH   7   8
ENDBRANCH   6   7
ENDBRANCH   5   6
ENDBRANCH   4   5
ENDBRANCH   3   4
ENDBRANCH   2   3
TORSDOF 15
ENDMDL
MODEL      192
REMARK 921   NORMALIZED FREE ENERGY PREDICTED BY IDOCK:   -3.83 KCAL/MOL
REMARK 922        TOTAL FREE ENERGY PREDICTED BY IDOCK:   -8.31 KCAL/MOL
REMARK 923 INTER-LIGAND FREE ENERGY PREDICTED BY IDOCK:   -7.06 KCAL/MOL
REMARK 924 INTRA-LIGAND FREE ENERGY PREDICTED BY IDOCK:   -1.25 KCAL/MOL
REMARK 927      BINDING AFFINITY PREDICTED BY RF-SCORE:    0.00 PKD
ROOT
HETATM    1  C   UNL     1      -8.140   3.336  63.391  1.00  0.00    -0.084 C  
HETATM    2  C   UNL     1      -9.363   4.134  63.809  1.00  0.00    -0.147 C  
ENDROOT
BRANCH   2   3
HETATM    3  C   UNL     1      -9.350   4.414  65.308  1.00  0.00    -0.164 C  
BRANCH   3   4
HETATM    4  C   UNL     1     -10.751   4.740  65.811  1.00  0.00    -0.220 C  
BRANCH   4   5
HETATM    5  C   UNL     1     -10.704   5.786  66.918  1.00  0.00    -0.381 C  
BRANCH   5   6
HETATM    6  C   UNL     1      -9.616   6.812  66.629  1.00  0.00    -0.211 C  
BRANCH   6   7
HETATM    7  C   UNL     1     -10.139   8.224  66.845  1.00  0.00    -0.366 C  
BRANCH   7   8
HETATM    8  C   UNL     1      -9.099   9.078  67.562  1.00  0.00    -0.145 C  
BRANCH   8   9
HETATM    9  C   UNL     1      -8.076   8.175  68.232  1.00  0.00    -0.128 C  
BRANCH   9  10
HETATM   10  C   UNL     1      -8.043   8.375  69.744  1.00  0.00    -0.117 C  
BRANCH  10  11
HETATM   11  C   UNL     1      -8.995   7.410  70.470  1.00  0.00    -0.156 C  
BRANCH  11  12
HETATM   12  C   UNL     1      -9.843   8.152  71.503  1.00  0.00    -0.179 C  
BRANCH  12  13
HETATM   13  N   UNL     1     -11.344   8.209  71.177  1.00  0.00    -0.264 N  
HETATM   14  C   UNL     1     -11.824   6.916  70.526  1.00  0.00    -0.333 C  
HETATM   15  C   UNL     1     -12.153   8.452  72.455  1.00  0.00    -0.378 C  
BRANCH  13  16
HETATM   16  C   UNL     1     -11.622   9.426  70.222  1.00  0.00    -0.138 C  
BRANCH  16  17
HETATM   17  C   UNL     1     -12.256  10.618  70.949  1.00  0.00    -0.395 C  
BRANCH  17  18
HETATM   18  O   UNL     1     -11.931  11.851  70.313  1.00  0.00    -0.344 OA 
BRANCH  18  19
HETATM   19  C   UNL     1     -12.573  12.929  70.882  1.00  0.00    -0.270 A  
HETATM   20  C   UNL     1     -12.337  14.163  70.280  1.00  0.00    -0.421 A  
HETATM   21  C   UNL     1     -12.906  15.323  70.814  1.00  0.00    -0.494 A  
HETATM   22  C   UNL     1     -13.722  15.250  71.943  1.00  0.00    -0.601 A  
HETATM   23  C   UNL     1     -13.989  14.015  72.527  1.00  0.00    -0.553 A  
HETATM   24  C   UNL     1     -13.424  12.858  71.992  1.00  0.00    -0.568 A  
ENDBRANCH  18  19
ENDBRANCH  17  18
ENDBRANCH  16  17
ENDBRANCH  13  16
ENDBRANCH  12  13
ENDBRANCH  11  12
ENDBRANCH  10  11
ENDBRANCH   9  10
ENDBRANCH   8   9
ENDBRANCH   7   8
ENDBRANCH   6   7
ENDBRANCH   5   6
ENDBRANCH   4   5
ENDBRANCH   3   4
ENDBRANCH   2   3
TORSDOF 15
ENDMDL
MODEL      193
REMARK 921   NORMALIZED FREE ENERGY PREDICTED BY IDOCK:   -3.83 KCAL/MOL
REMARK 922        TOTAL FREE ENERGY PREDICTED BY IDOCK:   -8.31 KCAL/MOL
REMARK 923 INTER-LIGAND FREE ENERGY PREDICTED BY IDOCK:   -7.16 KCAL/MOL
REMARK 924 INTRA-LIGAND FREE ENERGY PREDICTED BY IDOCK:   -1.14 KCAL/MOL
REMARK 927      BINDING AFFINITY PREDICTED BY RF-SCORE:    0.00 PKD
ROOT
HETATM    1  C   UNL     1     -12.902  12.904  71.307  1.00  0.00    -0.361 C  
HETATM    2  C   UNL     1     -13.071  11.498  71.855  1.00  0.00    -0.492 C  
ENDROOT
BRANCH   2   3
HETATM    3  C   UNL     1     -12.862  10.455  70.763  1.00  0.00    -0.450 C  
BRANCH   3   4
HETATM    4  C   UNL     1     -11.379  10.159  70.571  1.00  0.00    -0.416 C  
BRANCH   4   5
HETATM    5  C   UNL     1     -10.938  10.477  69.147  1.00  0.00    -0.286 C  
BRANCH   5   6
HETATM    6  C   UNL     1      -9.579   9.851  68.863  1.00  0.00    -0.172 C  
BRANCH   6   7
HETATM    7  C   UNL     1      -9.530   9.294  67.449  1.00  0.00    -0.165 C  
BRANCH   7   8
HETATM    8  C   UNL     1      -8.278   9.776  66.724  1.00  0.00    -0.120 C  
BRANCH   8   9
HETATM    9  C   UNL     1      -8.681  10.623  65.527  1.00  0.00    -0.199 C  
BRANCH   9  10
HETATM   10  C   UNL     1     -10.178  10.536  65.247  1.00  0.00    -0.352 C  
BRANCH  10  11
HETATM   11  C   UNL     1     -10.829  11.928  65.179  1.00  0.00    -0.350 C  
BRANCH  11  12
HETATM   12  C   UNL     1     -10.065  12.932  66.044  1.00  0.00    -0.285 C  
BRANCH  12  13
HETATM   13  N   UNL     1     -10.677  14.341  66.080  1.00  0.00    -0.298 N  
HETATM   14  C   UNL     1     -11.242  14.741  64.722  1.00  0.00    -0.385 C  
HETATM   15  C   UNL     1     -11.797  14.405  67.123  1.00  0.00    -0.410 C  
BRANCH  13  16
HETATM   16  C   UNL     1      -9.578  15.373  66.528  1.00  0.00    -0.275 C  
BRANCH  16  17
HETATM   17  C   UNL     1      -9.860  15.980  67.907  1.00  0.00    -0.226 C  
BRANCH  17  18
HETATM   18  O   UNL     1      -8.667  16.114  68.673  1.00  0.00    -0.192 OA 
BRANCH  18  19
HETATM   19  C   UNL     1      -8.164  17.396  68.655  1.00  0.00    -0.264 A  
HETATM   20  C   UNL     1      -6.942  17.579  69.299  1.00  0.00    -0.172 A  
HETATM   21  C   UNL     1      -6.374  18.853  69.376  1.00  0.00    -0.299 A  
HETATM   22  C   UNL     1      -7.018  19.947  68.798  1.00  0.00    -0.352 A  
HETATM   23  C   UNL     1      -8.222  19.764  68.122  1.00  0.00    -0.324 A  
HETATM   24  C   UNL     1      -8.787  18.492  68.044  1.00  0.00    -0.317 A  
ENDBRANCH  18  19
ENDBRANCH  17  18
ENDBRANCH  16  17
ENDBRANCH  13  16
ENDBRANCH  12  13
ENDBRANCH  11  12
ENDBRANCH  10  11
ENDBRANCH   9  10
ENDBRANCH   8   9
ENDBRANCH   7   8
ENDBRANCH   6   7
ENDBRANCH   5   6
ENDBRANCH   4   5
ENDBRANCH   3   4
ENDBRANCH   2   3
TORSDOF 15
ENDMDL
MODEL      194
REMARK 921   NORMALIZED FREE ENERGY PREDICTED BY IDOCK:   -3.82 KCAL/MOL
REMARK 922        TOTAL FREE ENERGY PREDICTED BY IDOCK:   -8.29 KCAL/MOL
REMARK 923 INTER-LIGAND FREE ENERGY PREDICTED BY IDOCK:   -7.00 KCAL/MOL
REMARK 924 INTRA-LIGAND FREE ENERGY PREDICTED BY IDOCK:   -1.29 KCAL/MOL
REMARK 927      BINDING AFFINITY PREDICTED BY RF-SCORE:    0.00 PKD
ROOT
HETATM    1  C   UNL     1      -5.877   5.512  65.575  1.00  0.00    -0.021 C  
HETATM    2  C   UNL     1      -6.926   6.134  64.671  1.00  0.00    -0.051 C  
ENDROOT
BRANCH   2   3
HETATM    3  C   UNL     1      -8.330   5.699  65.078  1.00  0.00    -0.146 C  
BRANCH   3   4
HETATM    4  C   UNL     1      -8.281   4.769  66.284  1.00  0.00    -0.107 C  
BRANCH   4   5
HETATM    5  C   UNL     1      -9.328   5.163  67.319  1.00  0.00    -0.129 C  
BRANCH   5   6
HETATM    6  C   UNL     1     -10.654   5.476  66.637  1.00  0.00    -0.365 C  
BRANCH   6   7
HETATM    7  C   UNL     1     -11.258   6.753  67.198  1.00  0.00    -0.276 C  
BRANCH   7   8
HETATM    8  C   UNL     1     -10.290   7.427  68.164  1.00  0.00    -0.235 C  
BRANCH   8   9
HETATM    9  C   UNL     1     -10.176   8.903  67.820  1.00  0.00    -0.283 C  
BRANCH   9  10
HETATM   10  C   UNL     1     -10.476   9.169  66.348  1.00  0.00    -0.141 C  
BRANCH  10  11
HETATM   11  C   UNL     1      -9.648  10.343  65.799  1.00  0.00    -0.269 C  
BRANCH  11  12
HETATM   12  C   UNL     1     -10.558  11.468  65.302  1.00  0.00    -0.283 C  
BRANCH  12  13
HETATM   13  N   UNL     1     -10.467  12.770  66.114  1.00  0.00    -0.263 N  
HETATM   14  C   UNL     1     -11.625  12.898  67.097  1.00  0.00    -0.363 C  
HETATM   15  C   UNL     1      -9.148  12.817  66.891  1.00  0.00    -0.221 C  
BRANCH  13  16
HETATM   16  C   UNL     1     -10.461  13.996  65.130  1.00  0.00    -0.397 C  
BRANCH  16  17
HETATM   17  C   UNL     1     -10.941  15.292  65.793  1.00  0.00    -0.338 C  
BRANCH  17  18
HETATM   18  O   UNL     1     -10.130  16.402  65.420  1.00  0.00    -0.543 OA 
BRANCH  18  19
HETATM   19  C   UNL     1     -10.128  17.402  66.367  1.00  0.00    -0.327 A  
HETATM   20  C   UNL     1      -9.804  17.010  67.664  1.00  0.00    -0.257 A  
HETATM   21  C   UNL     1      -9.823  17.944  68.703  1.00  0.00    -0.375 A  
HETATM   22  C   UNL     1     -10.152  19.275  68.448  1.00  0.00    -0.518 A  
HETATM   23  C   UNL     1     -10.443  19.679  67.147  1.00  0.00    -0.595 A  
HETATM   24  C   UNL     1     -10.421  18.748  66.110  1.00  0.00    -0.499 A  
ENDBRANCH  18  19
ENDBRANCH  17  18
ENDBRANCH  16  17
ENDBRANCH  13  16
ENDBRANCH  12  13
ENDBRANCH  11  12
ENDBRANCH  10  11
ENDBRANCH   9  10
ENDBRANCH   8   9
ENDBRANCH   7   8
ENDBRANCH   6   7
ENDBRANCH   5   6
ENDBRANCH   4   5
ENDBRANCH   3   4
ENDBRANCH   2   3
TORSDOF 15
ENDMDL
MODEL      195
REMARK 921   NORMALIZED FREE ENERGY PREDICTED BY IDOCK:   -3.82 KCAL/MOL
REMARK 922        TOTAL FREE ENERGY PREDICTED BY IDOCK:   -8.29 KCAL/MOL
REMARK 923 INTER-LIGAND FREE ENERGY PREDICTED BY IDOCK:   -7.70 KCAL/MOL
REMARK 924 INTRA-LIGAND FREE ENERGY PREDICTED BY IDOCK:   -0.59 KCAL/MOL
REMARK 927      BINDING AFFINITY PREDICTED BY RF-SCORE:    0.00 PKD
ROOT
HETATM    1  C   UNL     1     -11.132  12.649  66.195  1.00  0.00    -0.327 C  
HETATM    2  C   UNL     1     -11.913  12.308  67.452  1.00  0.00    -0.204 C  
ENDROOT
BRANCH   2   3
HETATM    3  C   UNL     1     -11.423  11.001  68.066  1.00  0.00    -0.365 C  
BRANCH   3   4
HETATM    4  C   UNL     1     -11.923  10.853  69.498  1.00  0.00    -0.401 C  
BRANCH   4   5
HETATM    5  C   UNL     1     -12.151  12.217  70.139  1.00  0.00    -0.368 C  
BRANCH   5   6
HETATM    6  C   UNL     1     -12.939  12.066  71.434  1.00  0.00    -0.362 C  
BRANCH   6   7
HETATM    7  C   UNL     1     -13.555  13.394  71.846  1.00  0.00    -0.494 C  
BRANCH   7   8
HETATM    8  C   UNL     1     -12.469  14.403  72.201  1.00  0.00    -0.341 C  
BRANCH   8   9
HETATM    9  C   UNL     1     -12.574  15.606  71.277  1.00  0.00    -0.523 C  
BRANCH   9  10
HETATM   10  C   UNL     1     -11.216  16.258  71.035  1.00  0.00    -0.227 C  
BRANCH  10  11
HETATM   11  C   UNL     1     -10.847  16.270  69.541  1.00  0.00    -0.342 C  
BRANCH  11  12
HETATM   12  C   UNL     1     -10.090  14.998  69.155  1.00  0.00    -0.245 C  
BRANCH  12  13
HETATM   13  N   UNL     1      -8.675  15.238  68.606  1.00  0.00    -0.172 N  
HETATM   14  C   UNL     1      -7.654  15.371  69.730  1.00  0.00    -0.091 C  
HETATM   15  C   UNL     1      -8.260  14.081  67.692  1.00  0.00    -0.180 C  
BRANCH  13  16
HETATM   16  C   UNL     1      -8.674  16.540  67.724  1.00  0.00    -0.196 C  
BRANCH  16  17
HETATM   17  C   UNL     1      -9.081  16.272  66.270  1.00  0.00    -0.331 C  
BRANCH  17  18
HETATM   18  O   UNL     1      -9.865  17.338  65.742  1.00  0.00    -0.528 OA 
BRANCH  18  19
HETATM   19  C   UNL     1      -9.737  18.502  66.467  1.00  0.00    -0.343 A  
HETATM   20  C   UNL     1      -8.468  19.076  66.474  1.00  0.00    -0.320 A  
HETATM   21  C   UNL     1      -8.226  20.233  67.220  1.00  0.00    -0.393 A  
HETATM   22  C   UNL     1      -9.255  20.827  67.950  1.00  0.00    -0.056 A  
HETATM   23  C   UNL     1     -10.534  20.278  67.917  1.00  0.00    -0.321 A  
HETATM   24  C   UNL     1     -10.775  19.125  67.171  1.00  0.00    -0.567 A  
ENDBRANCH  18  19
ENDBRANCH  17  18
ENDBRANCH  16  17
ENDBRANCH  13  16
ENDBRANCH  12  13
ENDBRANCH  11  12
ENDBRANCH  10  11
ENDBRANCH   9  10
ENDBRANCH   8   9
ENDBRANCH   7   8
ENDBRANCH   6   7
ENDBRANCH   5   6
ENDBRANCH   4   5
ENDBRANCH   3   4
ENDBRANCH   2   3
TORSDOF 15
ENDMDL
MODEL      196
REMARK 921   NORMALIZED FREE ENERGY PREDICTED BY IDOCK:   -3.81 KCAL/MOL
REMARK 922        TOTAL FREE ENERGY PREDICTED BY IDOCK:   -8.28 KCAL/MOL
REMARK 923 INTER-LIGAND FREE ENERGY PREDICTED BY IDOCK:   -6.23 KCAL/MOL
REMARK 924 INTRA-LIGAND FREE ENERGY PREDICTED BY IDOCK:   -2.05 KCAL/MOL
REMARK 927      BINDING AFFINITY PREDICTED BY RF-SCORE:    0.00 PKD
ROOT
HETATM    1  C   UNL     1     -10.654  19.574  66.029  1.00  0.00    -0.589 C  
HETATM    2  C   UNL     1     -10.097  18.386  66.793  1.00  0.00    -0.391 C  
ENDROOT
BRANCH   2   3
HETATM    3  C   UNL     1     -10.304  17.089  66.017  1.00  0.00    -0.324 C  
BRANCH   3   4
HETATM    4  C   UNL     1     -10.902  16.011  66.913  1.00  0.00    -0.203 C  
BRANCH   4   5
HETATM    5  C   UNL     1     -10.681  14.624  66.320  1.00  0.00    -0.316 C  
BRANCH   5   6
HETATM    6  C   UNL     1     -11.067  14.613  64.846  1.00  0.00    -0.409 C  
BRANCH   6   7
HETATM    7  C   UNL     1     -12.451  14.012  64.658  1.00  0.00    -0.366 C  
BRANCH   7   8
HETATM    8  C   UNL     1     -12.379  12.489  64.647  1.00  0.00    -0.547 C  
BRANCH   8   9
HETATM    9  C   UNL     1     -11.367  12.038  63.606  1.00  0.00    -0.536 C  
BRANCH   9  10
HETATM   10  C   UNL     1     -10.331  11.085  64.195  1.00  0.00    -0.434 C  
BRANCH  10  11
HETATM   11  C   UNL     1     -10.562  10.847  65.697  1.00  0.00    -0.233 C  
BRANCH  11  12
HETATM   12  C   UNL     1      -9.314  10.256  66.355  1.00  0.00    -0.165 C  
BRANCH  12  13
HETATM   13  N   UNL     1      -9.386  10.156  67.887  1.00  0.00    -0.141 N  
HETATM   14  C   UNL     1     -10.822  10.260  68.389  1.00  0.00    -0.245 C  
HETATM   15  C   UNL     1      -8.792   8.824  68.357  1.00  0.00    -0.138 C  
BRANCH  13  16
HETATM   16  C   UNL     1      -8.511  11.296  68.524  1.00  0.00    -0.156 C  
BRANCH  16  17
HETATM   17  C   UNL     1      -7.369  11.750  67.607  1.00  0.00    -0.119 C  
BRANCH  17  18
HETATM   18  O   UNL     1      -6.355  12.436  68.336  1.00  0.00    -0.051 OA 
BRANCH  18  19
HETATM   19  C   UNL     1      -6.637  13.773  68.510  1.00  0.00    -0.099 A  
HETATM   20  C   UNL     1      -6.933  14.487  67.351  1.00  0.00    -0.106 A  
HETATM   21  C   UNL     1      -7.185  15.860  67.419  1.00  0.00    -0.227 A  
HETATM   22  C   UNL     1      -7.157  16.520  68.648  1.00  0.00    -0.175 A  
HETATM   23  C   UNL     1      -6.897  15.804  69.813  1.00  0.00    -0.120 A  
HETATM   24  C   UNL     1      -6.647  14.434  69.745  1.00  0.00    -0.142 A  
ENDBRANCH  18  19
ENDBRANCH  17  18
ENDBRANCH  16  17
ENDBRANCH  13  16
ENDBRANCH  12  13
ENDBRANCH  11  12
ENDBRANCH  10  11
ENDBRANCH   9  10
ENDBRANCH   8   9
ENDBRANCH   7   8
ENDBRANCH   6   7
ENDBRANCH   5   6
ENDBRANCH   4   5
ENDBRANCH   3   4
ENDBRANCH   2   3
TORSDOF 15
ENDMDL
MODEL      197
REMARK 921   NORMALIZED FREE ENERGY PREDICTED BY IDOCK:   -3.80 KCAL/MOL
REMARK 922        TOTAL FREE ENERGY PREDICTED BY IDOCK:   -8.25 KCAL/MOL
REMARK 923 INTER-LIGAND FREE ENERGY PREDICTED BY IDOCK:   -6.88 KCAL/MOL
REMARK 924 INTRA-LIGAND FREE ENERGY PREDICTED BY IDOCK:   -1.37 KCAL/MOL
REMARK 927      BINDING AFFINITY PREDICTED BY RF-SCORE:    0.00 PKD
ROOT
HETATM    1  C   UNL     1     -10.951   6.227  67.514  1.00  0.00    -0.444 C  
HETATM    2  C   UNL     1     -11.130   6.054  69.012  1.00  0.00    -0.377 C  
ENDROOT
BRANCH   2   3
HETATM    3  C   UNL     1     -10.635   7.282  69.769  1.00  0.00    -0.247 C  
BRANCH   3   4
HETATM    4  C   UNL     1     -11.344   7.413  71.112  1.00  0.00    -0.291 C  
BRANCH   4   5
HETATM    5  C   UNL     1     -12.427   8.483  71.055  1.00  0.00    -0.104 C  
BRANCH   5   6
HETATM    6  C   UNL     1     -11.849   9.841  71.433  1.00  0.00    -0.488 C  
BRANCH   6   7
HETATM    7  C   UNL     1     -12.508  10.949  70.627  1.00  0.00    -0.460 C  
BRANCH   7   8
HETATM    8  C   UNL     1     -12.612  12.226  71.454  1.00  0.00    -0.303 C  
BRANCH   8   9
HETATM    9  C   UNL     1     -12.266  13.423  70.582  1.00  0.00    -0.427 C  
BRANCH   9  10
HETATM   10  C   UNL     1     -12.018  13.018  69.133  1.00  0.00    -0.320 C  
BRANCH  10  11
HETATM   11  C   UNL     1     -10.866  13.820  68.504  1.00  0.00    -0.280 C  
BRANCH  11  12
HETATM   12  C   UNL     1     -11.376  14.713  67.371  1.00  0.00    -0.356 C  
BRANCH  12  13
HETATM   13  N   UNL     1     -11.378  14.048  65.986  1.00  0.00    -0.322 N  
HETATM   14  C   UNL     1     -12.764  13.533  65.614  1.00  0.00    -0.421 C  
HETATM   15  C   UNL     1     -10.918  15.048  64.920  1.00  0.00    -0.413 C  
BRANCH  13  16
HETATM   16  C   UNL     1     -10.345  12.863  65.977  1.00  0.00    -0.283 C  
BRANCH  16  17
HETATM   17  C   UNL     1     -11.018  11.489  65.881  1.00  0.00    -0.243 C  
BRANCH  17  18
HETATM   18  O   UNL     1     -10.115  10.497  65.401  1.00  0.00    -0.271 OA 
BRANCH  18  19
HETATM   19  C   UNL     1      -9.413   9.881  66.414  1.00  0.00    -0.183 A  
HETATM   20  C   UNL     1      -9.775  10.242  67.710  1.00  0.00    -0.178 A  
HETATM   21  C   UNL     1      -9.089   9.708  68.803  1.00  0.00    -0.134 A  
HETATM   22  C   UNL     1      -8.047   8.801  68.606  1.00  0.00    -0.116 A  
HETATM   23  C   UNL     1      -7.705   8.411  67.314  1.00  0.00    -0.098 A  
HETATM   24  C   UNL     1      -8.392   8.942  66.223  1.00  0.00    -0.119 A  
ENDBRANCH  18  19
ENDBRANCH  17  18
ENDBRANCH  16  17
ENDBRANCH  13  16
ENDBRANCH  12  13
ENDBRANCH  11  12
ENDBRANCH  10  11
ENDBRANCH   9  10
ENDBRANCH   8   9
ENDBRANCH   7   8
ENDBRANCH   6   7
ENDBRANCH   5   6
ENDBRANCH   4   5
ENDBRANCH   3   4
ENDBRANCH   2   3
TORSDOF 15
ENDMDL
MODEL      198
REMARK 921   NORMALIZED FREE ENERGY PREDICTED BY IDOCK:   -3.80 KCAL/MOL
REMARK 922        TOTAL FREE ENERGY PREDICTED BY IDOCK:   -8.25 KCAL/MOL
REMARK 923 INTER-LIGAND FREE ENERGY PREDICTED BY IDOCK:   -6.86 KCAL/MOL
REMARK 924 INTRA-LIGAND FREE ENERGY PREDICTED BY IDOCK:   -1.39 KCAL/MOL
REMARK 927      BINDING AFFINITY PREDICTED BY RF-SCORE:    0.00 PKD
ROOT
HETATM    1  C   UNL     1     -12.530  12.103  63.406  1.00  0.00    -0.625 C  
HETATM    2  C   UNL     1     -11.872  12.379  64.746  1.00  0.00    -0.442 C  
ENDROOT
BRANCH   2   3
HETATM    3  C   UNL     1     -10.793  11.345  65.052  1.00  0.00    -0.311 C  
BRANCH   3   4
HETATM    4  C   UNL     1      -9.607  11.992  65.758  1.00  0.00    -0.227 C  
BRANCH   4   5
HETATM    5  C   UNL     1      -9.292  11.272  67.064  1.00  0.00    -0.183 C  
BRANCH   5   6
HETATM    6  C   UNL     1      -8.001  10.474  66.928  1.00  0.00    -0.121 C  
BRANCH   6   7
HETATM    7  C   UNL     1      -6.817  11.278  67.443  1.00  0.00    -0.096 C  
BRANCH   7   8
HETATM    8  C   UNL     1      -7.266  12.276  68.505  1.00  0.00    -0.103 C  
BRANCH   8   9
HETATM    9  C   UNL     1      -6.295  13.446  68.542  1.00  0.00    -0.087 C  
BRANCH   9  10
HETATM   10  C   UNL     1      -6.904  14.709  67.943  1.00  0.00    -0.176 C  
BRANCH  10  11
HETATM   11  C   UNL     1      -8.442  14.669  67.965  1.00  0.00    -0.154 C  
BRANCH  11  12
HETATM   12  C   UNL     1      -9.003  15.750  68.890  1.00  0.00    -0.226 C  
BRANCH  12  13
HETATM   13  N   UNL     1     -10.519  15.973  68.766  1.00  0.00    -0.235 N  
HETATM   14  C   UNL     1     -11.196  14.823  68.030  1.00  0.00    -0.299 C  
HETATM   15  C   UNL     1     -11.148  16.112  70.156  1.00  0.00    -0.371 C  
BRANCH  13  16
HETATM   16  C   UNL     1     -10.785  17.325  68.008  1.00  0.00    -0.367 C  
BRANCH  16  17
HETATM   17  C   UNL     1      -9.817  18.439  68.424  1.00  0.00    -0.371 C  
BRANCH  17  18
HETATM   18  O   UNL     1      -9.119  18.972  67.302  1.00  0.00    -0.279 OA 
BRANCH  18  19
HETATM   19  C   UNL     1      -7.964  19.632  67.659  1.00  0.00    -0.285 A  
HETATM   20  C   UNL     1      -7.463  19.338  68.926  1.00  0.00    -0.397 A  
HETATM   21  C   UNL     1      -6.322  19.993  69.397  1.00  0.00    -0.374 A  
HETATM   22  C   UNL     1      -5.670  20.933  68.599  1.00  0.00    -0.387 A  
HETATM   23  C   UNL     1      -6.146  21.203  67.319  1.00  0.00    -0.403 A  
HETATM   24  C   UNL     1      -7.283  20.548  66.848  1.00  0.00    -0.344 A  
ENDBRANCH  18  19
ENDBRANCH  17  18
ENDBRANCH  16  17
ENDBRANCH  13  16
ENDBRANCH  12  13
ENDBRANCH  11  12
ENDBRANCH  10  11
ENDBRANCH   9  10
ENDBRANCH   8   9
ENDBRANCH   7   8
ENDBRANCH   6   7
ENDBRANCH   5   6
ENDBRANCH   4   5
ENDBRANCH   3   4
ENDBRANCH   2   3
TORSDOF 15
ENDMDL
MODEL      199
REMARK 921   NORMALIZED FREE ENERGY PREDICTED BY IDOCK:   -3.79 KCAL/MOL
REMARK 922        TOTAL FREE ENERGY PREDICTED BY IDOCK:   -8.23 KCAL/MOL
REMARK 923 INTER-LIGAND FREE ENERGY PREDICTED BY IDOCK:   -6.78 KCAL/MOL
REMARK 924 INTRA-LIGAND FREE ENERGY PREDICTED BY IDOCK:   -1.45 KCAL/MOL
REMARK 927      BINDING AFFINITY PREDICTED BY RF-SCORE:    0.00 PKD
ROOT
HETATM    1  C   UNL     1     -12.457  11.780  70.914  1.00  0.00    -0.416 C  
HETATM    2  C   UNL     1     -12.502  10.307  71.276  1.00  0.00    -0.514 C  
ENDROOT
BRANCH   2   3
HETATM    3  C   UNL     1     -11.100   9.705  71.303  1.00  0.00    -0.426 C  
BRANCH   3   4
HETATM    4  C   UNL     1     -11.095   8.377  72.051  1.00  0.00    -0.397 C  
BRANCH   4   5
HETATM    5  C   UNL     1     -11.606   7.249  71.163  1.00  0.00    -0.323 C  
BRANCH   5   6
HETATM    6  C   UNL     1     -10.458   6.333  70.759  1.00  0.00    -0.273 C  
BRANCH   6   7
HETATM    7  C   UNL     1      -9.130   6.892  71.244  1.00  0.00    -0.149 C  
BRANCH   7   8
HETATM    8  C   UNL     1      -8.279   7.356  70.066  1.00  0.00    -0.131 C  
BRANCH   8   9
HETATM    9  C   UNL     1      -7.620   8.683  70.408  1.00  0.00    -0.075 C  
BRANCH   9  10
HETATM   10  C   UNL     1      -7.142   9.419  69.161  1.00  0.00    -0.062 C  
BRANCH  10  11
HETATM   11  C   UNL     1      -7.782   8.853  67.882  1.00  0.00    -0.101 C  
BRANCH  11  12
HETATM   12  C   UNL     1      -8.341   9.977  67.008  1.00  0.00    -0.121 C  
BRANCH  12  13
HETATM   13  N   UNL     1      -9.801   9.779  66.569  1.00  0.00    -0.210 N  
HETATM   14  C   UNL     1     -10.001  10.156  65.105  1.00  0.00    -0.309 C  
HETATM   15  C   UNL     1     -10.219   8.319  66.768  1.00  0.00    -0.304 C  
BRANCH  13  16
HETATM   16  C   UNL     1     -10.739  10.651  67.481  1.00  0.00    -0.272 C  
BRANCH  16  17
HETATM   17  C   UNL     1     -11.461  11.758  66.703  1.00  0.00    -0.267 C  
BRANCH  17  18
HETATM   18  O   UNL     1     -12.151  12.647  67.577  1.00  0.00    -0.411 OA 
BRANCH  18  19
HETATM   19  C   UNL     1     -11.637  13.924  67.551  1.00  0.00    -0.360 A  
HETATM   20  C   UNL     1     -11.802  14.670  68.716  1.00  0.00    -0.348 A  
HETATM   21  C   UNL     1     -11.358  15.993  68.771  1.00  0.00    -0.380 A  
HETATM   22  C   UNL     1     -10.733  16.572  67.665  1.00  0.00    -0.311 A  
HETATM   23  C   UNL     1     -10.534  15.819  66.510  1.00  0.00    -0.304 A  
HETATM   24  C   UNL     1     -10.976  14.498  66.458  1.00  0.00    -0.321 A  
ENDBRANCH  18  19
ENDBRANCH  17  18
ENDBRANCH  16  17
ENDBRANCH  13  16
ENDBRANCH  12  13
ENDBRANCH  11  12
ENDBRANCH  10  11
ENDBRANCH   9  10
ENDBRANCH   8   9
ENDBRANCH   7   8
ENDBRANCH   6   7
ENDBRANCH   5   6
ENDBRANCH   4   5
ENDBRANCH   3   4
ENDBRANCH   2   3
TORSDOF 15
ENDMDL
MODEL      200
REMARK 921   NORMALIZED FREE ENERGY PREDICTED BY IDOCK:   -3.79 KCAL/MOL
REMARK 922        TOTAL FREE ENERGY PREDICTED BY IDOCK:   -8.23 KCAL/MOL
REMARK 923 INTER-LIGAND FREE ENERGY PREDICTED BY IDOCK:   -6.79 KCAL/MOL
REMARK 924 INTRA-LIGAND FREE ENERGY PREDICTED BY IDOCK:   -1.44 KCAL/MOL
REMARK 927      BINDING AFFINITY PREDICTED BY RF-SCORE:    0.00 PKD
ROOT
HETATM    1  C   UNL     1      -5.284  14.162  73.399  1.00  0.00    -0.363 C  
HETATM    2  C   UNL     1      -5.197  13.787  71.930  1.00  0.00    -0.199 C  
ENDROOT
BRANCH   2   3
HETATM    3  C   UNL     1      -5.574  14.967  71.039  1.00  0.00    -0.090 C  
BRANCH   3   4
HETATM    4  C   UNL     1      -6.363  14.497  69.823  1.00  0.00    -0.148 C  
BRANCH   4   5
HETATM    5  C   UNL     1      -5.802  13.189  69.280  1.00  0.00    -0.089 C  
BRANCH   5   6
HETATM    6  C   UNL     1      -6.932  12.209  68.992  1.00  0.00    -0.086 C  
BRANCH   6   7
HETATM    7  C   UNL     1      -7.005  11.895  67.506  1.00  0.00    -0.123 C  
BRANCH   7   8
HETATM    8  C   UNL     1      -8.456  11.795  67.048  1.00  0.00    -0.175 C  
BRANCH   8   9
HETATM    9  C   UNL     1      -9.377  12.134  68.208  1.00  0.00    -0.198 C  
BRANCH   9  10
HETATM   10  C   UNL     1     -10.776  11.558  68.011  1.00  0.00    -0.241 C  
BRANCH  10  11
HETATM   11  C   UNL     1     -11.248  11.690  66.553  1.00  0.00    -0.356 C  
BRANCH  11  12
HETATM   12  C   UNL     1     -11.765  13.102  66.271  1.00  0.00    -0.375 C  
BRANCH  12  13
HETATM   13  N   UNL     1     -11.200  13.746  64.995  1.00  0.00    -0.322 N  
HETATM   14  C   UNL     1     -10.735  12.694  63.995  1.00  0.00    -0.425 C  
HETATM   15  C   UNL     1     -12.265  14.625  64.332  1.00  0.00    -0.452 C  
BRANCH  13  16
HETATM   16  C   UNL     1     -10.003  14.691  65.378  1.00  0.00    -0.330 C  
BRANCH  16  17
HETATM   17  C   UNL     1     -10.148  15.297  66.778  1.00  0.00    -0.258 C  
BRANCH  17  18
HETATM   18  O   UNL     1     -10.911  16.500  66.750  1.00  0.00    -0.217 OA 
BRANCH  18  19
HETATM   19  C   UNL     1     -10.244  17.566  67.314  1.00  0.00    -0.335 A  
HETATM   20  C   UNL     1      -8.949  17.306  67.758  1.00  0.00    -0.234 A  
HETATM   21  C   UNL     1      -8.209  18.310  68.388  1.00  0.00    -0.326 A  
HETATM   22  C   UNL     1      -8.756  19.581  68.563  1.00  0.00    -0.388 A  
HETATM   23  C   UNL     1     -10.036  19.856  68.089  1.00  0.00    -0.551 A  
HETATM   24  C   UNL     1     -10.773  18.855  67.459  1.00  0.00    -0.509 A  
ENDBRANCH  18  19
ENDBRANCH  17  18
ENDBRANCH  16  17
ENDBRANCH  13  16
ENDBRANCH  12  13
ENDBRANCH  11  12
ENDBRANCH  10  11
ENDBRANCH   9  10
ENDBRANCH   8   9
ENDBRANCH   7   8
ENDBRANCH   6   7
ENDBRANCH   5   6
ENDBRANCH   4   5
ENDBRANCH   3   4
ENDBRANCH   2   3
TORSDOF 15
ENDMDL
MODEL      201
REMARK 921   NORMALIZED FREE ENERGY PREDICTED BY IDOCK:   -3.79 KCAL/MOL
REMARK 922        TOTAL FREE ENERGY PREDICTED BY IDOCK:   -8.23 KCAL/MOL
REMARK 923 INTER-LIGAND FREE ENERGY PREDICTED BY IDOCK:   -6.53 KCAL/MOL
REMARK 924 INTRA-LIGAND FREE ENERGY PREDICTED BY IDOCK:   -1.70 KCAL/MOL
REMARK 927      BINDING AFFINITY PREDICTED BY RF-SCORE:    0.00 PKD
ROOT
HETATM    1  C   UNL     1      -8.657  14.512  67.084  1.00  0.00    -0.242 C  
HETATM    2  C   UNL     1      -9.970  14.869  67.759  1.00  0.00    -0.222 C  
ENDROOT
BRANCH   2   3
HETATM    3  C   UNL     1     -11.154  14.264  67.011  1.00  0.00    -0.317 C  
BRANCH   3   4
HETATM    4  C   UNL     1     -11.356  14.953  65.667  1.00  0.00    -0.325 C  
BRANCH   4   5
HETATM    5  C   UNL     1     -11.669  13.937  64.575  1.00  0.00    -0.430 C  
BRANCH   5   6
HETATM    6  C   UNL     1     -10.404  13.188  64.172  1.00  0.00    -0.286 C  
BRANCH   6   7
HETATM    7  C   UNL     1     -10.750  11.835  63.572  1.00  0.00    -0.501 C  
BRANCH   7   8
HETATM    8  C   UNL     1     -10.521  10.722  64.589  1.00  0.00    -0.346 C  
BRANCH   8   9
HETATM    9  C   UNL     1      -9.435  11.144  65.566  1.00  0.00    -0.251 C  
BRANCH   9  10
HETATM   10  C   UNL     1      -9.875  10.969  67.016  1.00  0.00    -0.211 C  
BRANCH  10  11
HETATM   11  C   UNL     1      -9.261   9.710  67.652  1.00  0.00    -0.144 C  
BRANCH  11  12
HETATM   12  C   UNL     1     -10.299   8.594  67.769  1.00  0.00    -0.242 C  
BRANCH  12  13
HETATM   13  N   UNL     1     -10.300   7.859  69.119  1.00  0.00    -0.217 N  
HETATM   14  C   UNL     1     -11.020   6.519  69.026  1.00  0.00    -0.321 C  
HETATM   15  C   UNL     1      -8.862   7.619  69.589  1.00  0.00    -0.140 C  
BRANCH  13  16
HETATM   16  C   UNL     1     -10.989   8.765  70.203  1.00  0.00    -0.223 C  
BRANCH  16  17
HETATM   17  C   UNL     1     -12.131   8.051  70.935  1.00  0.00    -0.152 C  
BRANCH  17  18
HETATM   18  O   UNL     1     -11.992   8.155  72.349  1.00  0.00    -0.352 OA 
BRANCH  18  19
HETATM   19  C   UNL     1     -11.177   7.178  72.877  1.00  0.00    -0.262 A  
HETATM   20  C   UNL     1     -11.578   5.863  72.648  1.00  0.00    -0.289 A  
HETATM   21  C   UNL     1     -10.844   4.803  73.184  1.00  0.00    -0.340 A  
HETATM   22  C   UNL     1      -9.698   5.052  73.939  1.00  0.00    -0.154 A  
HETATM   23  C   UNL     1      -9.273   6.362  74.141  1.00  0.00    -0.181 A  
HETATM   24  C   UNL     1     -10.005   7.420  73.604  1.00  0.00    -0.379 A  
ENDBRANCH  18  19
ENDBRANCH  17  18
ENDBRANCH  16  17
ENDBRANCH  13  16
ENDBRANCH  12  13
ENDBRANCH  11  12
ENDBRANCH  10  11
ENDBRANCH   9  10
ENDBRANCH   8   9
ENDBRANCH   7   8
ENDBRANCH   6   7
ENDBRANCH   5   6
ENDBRANCH   4   5
ENDBRANCH   3   4
ENDBRANCH   2   3
TORSDOF 15
ENDMDL
MODEL      202
REMARK 921   NORMALIZED FREE ENERGY PREDICTED BY IDOCK:   -3.78 KCAL/MOL
REMARK 922        TOTAL FREE ENERGY PREDICTED BY IDOCK:   -8.22 KCAL/MOL
REMARK 923 INTER-LIGAND FREE ENERGY PREDICTED BY IDOCK:   -5.60 KCAL/MOL
REMARK 924 INTRA-LIGAND FREE ENERGY PREDICTED BY IDOCK:   -2.62 KCAL/MOL
REMARK 927      BINDING AFFINITY PREDICTED BY RF-SCORE:    0.00 PKD
ROOT
HETATM    1  C   UNL     1     -10.565  14.044  67.367  1.00  0.00    -0.278 C  
HETATM    2  C   UNL     1     -10.165  12.580  67.401  1.00  0.00    -0.217 C  
ENDROOT
BRANCH   2   3
HETATM    3  C   UNL     1     -11.389  11.675  67.305  1.00  0.00    -0.372 C  
BRANCH   3   4
HETATM    4  C   UNL     1     -11.895  11.299  68.693  1.00  0.00    -0.369 C  
BRANCH   4   5
HETATM    5  C   UNL     1     -10.787  10.663  69.524  1.00  0.00    -0.303 C  
BRANCH   5   6
HETATM    6  C   UNL     1     -10.473   9.266  69.005  1.00  0.00    -0.233 C  
BRANCH   6   7
HETATM    7  C   UNL     1      -8.973   9.018  69.005  1.00  0.00    -0.140 C  
BRANCH   7   8
HETATM    8  C   UNL     1      -8.392   9.234  67.611  1.00  0.00    -0.116 C  
BRANCH   8   9
HETATM    9  C   UNL     1      -9.290   8.570  66.580  1.00  0.00    -0.260 C  
BRANCH   9  10
HETATM   10  C   UNL     1      -8.504   8.100  65.360  1.00  0.00    -0.164 C  
BRANCH  10  11
HETATM   11  C   UNL     1      -8.349   6.570  65.335  1.00  0.00    -0.140 C  
BRANCH  11  12
HETATM   12  C   UNL     1      -9.218   5.914  66.410  1.00  0.00    -0.150 C  
BRANCH  12  13
HETATM   13  N   UNL     1      -8.499   4.847  67.250  1.00  0.00    -0.106 N  
HETATM   14  C   UNL     1      -8.025   3.682  66.389  1.00  0.00    -0.089 C  
HETATM   15  C   UNL     1      -7.290   5.462  67.962  1.00  0.00    -0.073 C  
BRANCH  13  16
HETATM   16  C   UNL     1      -9.471   4.326  68.370  1.00  0.00    -0.155 C  
BRANCH  16  17
HETATM   17  C   UNL     1     -10.303   5.448  69.003  1.00  0.00    -0.212 C  
BRANCH  17  18
HETATM   18  O   UNL     1     -10.515   5.220  70.394  1.00  0.00    -0.271 OA 
BRANCH  18  19
HETATM   19  C   UNL     1     -11.076   6.305  71.031  1.00  0.00    -0.298 A  
HETATM   20  C   UNL     1     -10.264   6.950  71.961  1.00  0.00    -0.206 A  
HETATM   21  C   UNL     1     -10.760   8.031  72.694  1.00  0.00    -0.426 A  
HETATM   22  C   UNL     1     -12.064   8.480  72.490  1.00  0.00    -0.395 A  
HETATM   23  C   UNL     1     -12.868   7.861  71.536  1.00  0.00    -0.340 A  
HETATM   24  C   UNL     1     -12.373   6.784  70.804  1.00  0.00    -0.289 A  
ENDBRANCH  18  19
ENDBRANCH  17  18
ENDBRANCH  16  17
ENDBRANCH  13  16
ENDBRANCH  12  13
ENDBRANCH  11  12
ENDBRANCH  10  11
ENDBRANCH   9  10
ENDBRANCH   8   9
ENDBRANCH   7   8
ENDBRANCH   6   7
ENDBRANCH   5   6
ENDBRANCH   4   5
ENDBRANCH   3   4
ENDBRANCH   2   3
TORSDOF 15
ENDMDL
MODEL      203
REMARK 921   NORMALIZED FREE ENERGY PREDICTED BY IDOCK:   -3.78 KCAL/MOL
REMARK 922        TOTAL FREE ENERGY PREDICTED BY IDOCK:   -8.22 KCAL/MOL
REMARK 923 INTER-LIGAND FREE ENERGY PREDICTED BY IDOCK:   -7.35 KCAL/MOL
REMARK 924 INTRA-LIGAND FREE ENERGY PREDICTED BY IDOCK:   -0.87 KCAL/MOL
REMARK 927      BINDING AFFINITY PREDICTED BY RF-SCORE:    0.00 PKD
ROOT
HETATM    1  C   UNL     1     -10.164  19.888  67.703  1.00  0.00    -0.564 C  
HETATM    2  C   UNL     1     -10.092  18.805  68.765  1.00  0.00    -0.407 C  
ENDROOT
BRANCH   2   3
HETATM    3  C   UNL     1      -9.967  17.423  68.132  1.00  0.00    -0.308 C  
BRANCH   3   4
HETATM    4  C   UNL     1     -11.022  16.474  68.688  1.00  0.00    -0.344 C  
BRANCH   4   5
HETATM    5  C   UNL     1     -10.374  15.252  69.327  1.00  0.00    -0.259 C  
BRANCH   5   6
HETATM    6  C   UNL     1      -9.648  14.427  68.272  1.00  0.00    -0.211 C  
BRANCH   6   7
HETATM    7  C   UNL     1     -10.643  13.761  67.334  1.00  0.00    -0.260 C  
BRANCH   7   8
HETATM    8  C   UNL     1     -11.470  12.719  68.080  1.00  0.00    -0.357 C  
BRANCH   8   9
HETATM    9  C   UNL     1     -10.580  11.550  68.471  1.00  0.00    -0.236 C  
BRANCH   9  10
HETATM   10  C   UNL     1     -11.394  10.330  68.889  1.00  0.00    -0.230 C  
BRANCH  10  11
HETATM   11  C   UNL     1     -11.771  10.378  70.380  1.00  0.00    -0.419 C  
BRANCH  11  12
HETATM   12  C   UNL     1     -11.020   9.304  71.169  1.00  0.00    -0.339 C  
BRANCH  12  13
HETATM   13  N   UNL     1     -11.923   8.336  71.949  1.00  0.00    -0.309 N  
HETATM   14  C   UNL     1     -11.187   7.711  73.129  1.00  0.00    -0.256 C  
HETATM   15  C   UNL     1     -13.161   9.072  72.470  1.00  0.00    -0.406 C  
BRANCH  13  16
HETATM   16  C   UNL     1     -12.437   7.210  70.980  1.00  0.00    -0.316 C  
BRANCH  16  17
HETATM   17  C   UNL     1     -11.297   6.388  70.367  1.00  0.00    -0.389 C  
BRANCH  17  18
HETATM   18  O   UNL     1     -10.927   6.883  69.083  1.00  0.00    -0.233 OA 
BRANCH  18  19
HETATM   19  C   UNL     1     -10.405   5.904  68.266  1.00  0.00    -0.214 A  
HETATM   20  C   UNL     1     -10.750   5.991  66.918  1.00  0.00    -0.407 A  
HETATM   21  C   UNL     1     -10.309   5.017  66.018  1.00  0.00    -0.276 A  
HETATM   22  C   UNL     1      -9.510   3.962  66.460  1.00  0.00    -0.211 A  
HETATM   23  C   UNL     1      -9.134   3.891  67.798  1.00  0.00    -0.183 A  
HETATM   24  C   UNL     1      -9.572   4.864  68.695  1.00  0.00    -0.215 A  
ENDBRANCH  18  19
ENDBRANCH  17  18
ENDBRANCH  16  17
ENDBRANCH  13  16
ENDBRANCH  12  13
ENDBRANCH  11  12
ENDBRANCH  10  11
ENDBRANCH   9  10
ENDBRANCH   8   9
ENDBRANCH   7   8
ENDBRANCH   6   7
ENDBRANCH   5   6
ENDBRANCH   4   5
ENDBRANCH   3   4
ENDBRANCH   2   3
TORSDOF 15
ENDMDL
MODEL      204
REMARK 921   NORMALIZED FREE ENERGY PREDICTED BY IDOCK:   -3.78 KCAL/MOL
REMARK 922        TOTAL FREE ENERGY PREDICTED BY IDOCK:   -8.21 KCAL/MOL
REMARK 923 INTER-LIGAND FREE ENERGY PREDICTED BY IDOCK:   -5.45 KCAL/MOL
REMARK 924 INTRA-LIGAND FREE ENERGY PREDICTED BY IDOCK:   -2.76 KCAL/MOL
REMARK 927      BINDING AFFINITY PREDICTED BY RF-SCORE:    0.00 PKD
ROOT
HETATM    1  C   UNL     1     -12.945  11.940  63.910  1.00  0.00    -0.244 C  
HETATM    2  C   UNL     1     -11.746  12.676  63.342  1.00  0.00    -0.571 C  
ENDROOT
BRANCH   2   3
HETATM    3  C   UNL     1     -10.567  12.636  64.309  1.00  0.00    -0.408 C  
BRANCH   3   4
HETATM    4  C   UNL     1     -10.864  13.456  65.560  1.00  0.00    -0.299 C  
BRANCH   4   5
HETATM    5  C   UNL     1     -10.235  12.817  66.792  1.00  0.00    -0.245 C  
BRANCH   5   6
HETATM    6  C   UNL     1      -9.821  11.383  66.491  1.00  0.00    -0.237 C  
BRANCH   6   7
HETATM    7  C   UNL     1     -10.499  10.416  67.449  1.00  0.00    -0.299 C  
BRANCH   7   8
HETATM    8  C   UNL     1     -10.517  10.985  68.864  1.00  0.00    -0.229 C  
BRANCH   8   9
HETATM    9  C   UNL     1     -10.709   9.854  69.862  1.00  0.00    -0.318 C  
BRANCH   9  10
HETATM   10  C   UNL     1     -10.457   8.489  69.230  1.00  0.00    -0.224 C  
BRANCH  10  11
HETATM   11  C   UNL     1     -11.086   7.352  70.055  1.00  0.00    -0.238 C  
BRANCH  11  12
HETATM   12  C   UNL     1     -10.087   6.795  71.069  1.00  0.00    -0.189 C  
BRANCH  12  13
HETATM   13  N   UNL     1     -10.285   7.301  72.507  1.00  0.00    -0.190 N  
HETATM   14  C   UNL     1     -11.645   7.967  72.683  1.00  0.00    -0.377 C  
HETATM   15  C   UNL     1     -10.170   6.138  73.497  1.00  0.00    -0.227 C  
BRANCH  13  16
HETATM   16  C   UNL     1      -9.140   8.318  72.862  1.00  0.00    -0.262 C  
BRANCH  16  17
HETATM   17  C   UNL     1      -7.834   8.026  72.115  1.00  0.00    -0.115 C  
BRANCH  17  18
HETATM   18  O   UNL     1      -7.091   9.218  71.874  1.00  0.00    -0.319 OA 
BRANCH  18  19
HETATM   19  C   UNL     1      -6.987   9.517  70.533  1.00  0.00    -0.123 A  
HETATM   20  C   UNL     1      -6.843   8.427  69.677  1.00  0.00    -0.044 A  
HETATM   21  C   UNL     1      -6.681   8.631  68.304  1.00  0.00    -0.065 A  
HETATM   22  C   UNL     1      -6.676   9.924  67.781  1.00  0.00    -0.072 A  
HETATM   23  C   UNL     1      -6.855  11.014  68.628  1.00  0.00    -0.064 A  
HETATM   24  C   UNL     1      -7.019  10.810  69.997  1.00  0.00    -0.091 A  
ENDBRANCH  18  19
ENDBRANCH  17  18
ENDBRANCH  16  17
ENDBRANCH  13  16
ENDBRANCH  12  13
ENDBRANCH  11  12
ENDBRANCH  10  11
ENDBRANCH   9  10
ENDBRANCH   8   9
ENDBRANCH   7   8
ENDBRANCH   6   7
ENDBRANCH   5   6
ENDBRANCH   4   5
ENDBRANCH   3   4
ENDBRANCH   2   3
TORSDOF 15
ENDMDL
MODEL      205
REMARK 921   NORMALIZED FREE ENERGY PREDICTED BY IDOCK:   -3.76 KCAL/MOL
REMARK 922        TOTAL FREE ENERGY PREDICTED BY IDOCK:   -8.19 KCAL/MOL
REMARK 923 INTER-LIGAND FREE ENERGY PREDICTED BY IDOCK:   -7.00 KCAL/MOL
REMARK 924 INTRA-LIGAND FREE ENERGY PREDICTED BY IDOCK:   -1.19 KCAL/MOL
REMARK 927      BINDING AFFINITY PREDICTED BY RF-SCORE:    0.00 PKD
ROOT
HETATM    1  C   UNL     1      -9.880   4.346  66.169  1.00  0.00    -0.243 C  
HETATM    2  C   UNL     1      -9.604   5.836  66.264  1.00  0.00    -0.159 C  
ENDROOT
BRANCH   2   3
HETATM    3  C   UNL     1      -8.734   6.157  67.475  1.00  0.00    -0.104 C  
BRANCH   3   4
HETATM    4  C   UNL     1      -9.428   7.158  68.391  1.00  0.00    -0.138 C  
BRANCH   4   5
HETATM    5  C   UNL     1     -10.392   8.039  67.606  1.00  0.00    -0.312 C  
BRANCH   5   6
HETATM    6  C   UNL     1     -10.018   9.507  67.768  1.00  0.00    -0.216 C  
BRANCH   6   7
HETATM    7  C   UNL     1     -10.289  10.275  66.485  1.00  0.00    -0.276 C  
BRANCH   7   8
HETATM    8  C   UNL     1      -9.354   9.811  65.373  1.00  0.00    -0.311 C  
BRANCH   8   9
HETATM    9  C   UNL     1      -9.553  10.687  64.146  1.00  0.00    -0.353 C  
BRANCH   9  10
HETATM   10  C   UNL     1     -10.999  11.155  64.009  1.00  0.00    -0.269 C  
BRANCH  10  11
HETATM   11  C   UNL     1     -11.084  12.635  63.599  1.00  0.00    -0.496 C  
BRANCH  11  12
HETATM   12  C   UNL     1     -10.333  13.522  64.594  1.00  0.00    -0.385 C  
BRANCH  12  13
HETATM   13  N   UNL     1     -11.236  14.404  65.472  1.00  0.00    -0.320 N  
HETATM   14  C   UNL     1     -12.703  14.266  65.083  1.00  0.00    -0.316 C  
HETATM   15  C   UNL     1     -11.074  14.021  66.946  1.00  0.00    -0.304 C  
BRANCH  13  16
HETATM   16  C   UNL     1     -10.784  15.904  65.338  1.00  0.00    -0.399 C  
BRANCH  16  17
HETATM   17  C   UNL     1      -9.808  16.331  66.441  1.00  0.00    -0.291 C  
BRANCH  17  18
HETATM   18  O   UNL     1      -8.551  16.730  65.901  1.00  0.00    -0.500 OA 
BRANCH  18  19
HETATM   19  C   UNL     1      -8.030  17.839  66.530  1.00  0.00    -0.264 A  
HETATM   20  C   UNL     1      -6.639  17.911  66.580  1.00  0.00    -0.249 A  
HETATM   21  C   UNL     1      -6.016  18.973  67.239  1.00  0.00    -0.164 A  
HETATM   22  C   UNL     1      -6.780  19.974  67.840  1.00  0.00    -0.295 A  
HETATM   23  C   UNL     1      -8.169  19.925  67.762  1.00  0.00    -0.337 A  
HETATM   24  C   UNL     1      -8.791  18.866  67.102  1.00  0.00    -0.298 A  
ENDBRANCH  18  19
ENDBRANCH  17  18
ENDBRANCH  16  17
ENDBRANCH  13  16
ENDBRANCH  12  13
ENDBRANCH  11  12
ENDBRANCH  10  11
ENDBRANCH   9  10
ENDBRANCH   8   9
ENDBRANCH   7   8
ENDBRANCH   6   7
ENDBRANCH   5   6
ENDBRANCH   4   5
ENDBRANCH   3   4
ENDBRANCH   2   3
TORSDOF 15
ENDMDL
MODEL      206
REMARK 921   NORMALIZED FREE ENERGY PREDICTED BY IDOCK:   -3.76 KCAL/MOL
REMARK 922        TOTAL FREE ENERGY PREDICTED BY IDOCK:   -8.18 KCAL/MOL
REMARK 923 INTER-LIGAND FREE ENERGY PREDICTED BY IDOCK:   -6.27 KCAL/MOL
REMARK 924 INTRA-LIGAND FREE ENERGY PREDICTED BY IDOCK:   -1.91 KCAL/MOL
REMARK 927      BINDING AFFINITY PREDICTED BY RF-SCORE:    0.00 PKD
ROOT
HETATM    1  C   UNL     1      -6.083   8.432  72.623  1.00  0.00    -0.073 C  
HETATM    2  C   UNL     1      -7.400   7.798  72.210  1.00  0.00    -0.090 C  
ENDROOT
BRANCH   2   3
HETATM    3  C   UNL     1      -7.587   7.858  70.698  1.00  0.00    -0.077 C  
BRANCH   3   4
HETATM    4  C   UNL     1      -7.086   9.186  70.141  1.00  0.00    -0.059 C  
BRANCH   4   5
HETATM    5  C   UNL     1      -7.398   9.307  68.655  1.00  0.00    -0.076 C  
BRANCH   5   6
HETATM    6  C   UNL     1      -8.541   8.373  68.277  1.00  0.00    -0.139 C  
BRANCH   6   7
HETATM    7  C   UNL     1      -8.762   8.376  66.773  1.00  0.00    -0.138 C  
BRANCH   7   8
HETATM    8  C   UNL     1      -7.781   9.321  66.087  1.00  0.00    -0.096 C  
BRANCH   8   9
HETATM    9  C   UNL     1      -8.446   9.944  64.870  1.00  0.00    -0.168 C  
BRANCH   9  10
HETATM   10  C   UNL     1      -9.964   9.988  65.010  1.00  0.00    -0.320 C  
BRANCH  10  11
HETATM   11  C   UNL     1     -10.508  11.421  64.881  1.00  0.00    -0.363 C  
BRANCH  11  12
HETATM   12  C   UNL     1     -10.320  12.197  66.186  1.00  0.00    -0.234 C  
BRANCH  12  13
HETATM   13  N   UNL     1     -11.268  13.394  66.360  1.00  0.00    -0.299 N  
HETATM   14  C   UNL     1     -10.501  14.709  66.437  1.00  0.00    -0.295 C  
HETATM   15  C   UNL     1     -12.254  13.462  65.190  1.00  0.00    -0.434 C  
BRANCH  13  16
HETATM   16  C   UNL     1     -12.122  13.194  67.665  1.00  0.00    -0.232 C  
BRANCH  16  17
HETATM   17  C   UNL     1     -11.469  12.228  68.660  1.00  0.00    -0.307 C  
BRANCH  17  18
HETATM   18  O   UNL     1     -12.124  12.257  69.925  1.00  0.00    -0.299 OA 
BRANCH  18  19
HETATM   19  C   UNL     1     -12.051  11.053  70.590  1.00  0.00    -0.373 A  
HETATM   20  C   UNL     1     -13.028  10.834  71.558  1.00  0.00    -0.562 A  
HETATM   21  C   UNL     1     -13.009   9.663  72.321  1.00  0.00    -0.440 A  
HETATM   22  C   UNL     1     -12.021   8.701  72.108  1.00  0.00    -0.449 A  
HETATM   23  C   UNL     1     -11.064   8.900  71.117  1.00  0.00    -0.354 A  
HETATM   24  C   UNL     1     -11.084  10.067  70.355  1.00  0.00    -0.393 A  
ENDBRANCH  18  19
ENDBRANCH  17  18
ENDBRANCH  16  17
ENDBRANCH  13  16
ENDBRANCH  12  13
ENDBRANCH  11  12
ENDBRANCH  10  11
ENDBRANCH   9  10
ENDBRANCH   8   9
ENDBRANCH   7   8
ENDBRANCH   6   7
ENDBRANCH   5   6
ENDBRANCH   4   5
ENDBRANCH   3   4
ENDBRANCH   2   3
TORSDOF 15
ENDMDL
MODEL      207
REMARK 921   NORMALIZED FREE ENERGY PREDICTED BY IDOCK:   -3.75 KCAL/MOL
REMARK 922        TOTAL FREE ENERGY PREDICTED BY IDOCK:   -8.16 KCAL/MOL
REMARK 923 INTER-LIGAND FREE ENERGY PREDICTED BY IDOCK:   -7.28 KCAL/MOL
REMARK 924 INTRA-LIGAND FREE ENERGY PREDICTED BY IDOCK:   -0.88 KCAL/MOL
REMARK 927      BINDING AFFINITY PREDICTED BY RF-SCORE:    0.00 PKD
ROOT
HETATM    1  C   UNL     1     -10.524   5.272  69.650  1.00  0.00    -0.320 C  
HETATM    2  C   UNL     1      -9.483   4.907  68.607  1.00  0.00    -0.198 C  
ENDROOT
BRANCH   2   3
HETATM    3  C   UNL     1     -10.006   5.160  67.197  1.00  0.00    -0.221 C  
BRANCH   3   4
HETATM    4  C   UNL     1     -11.071   6.251  67.201  1.00  0.00    -0.389 C  
BRANCH   4   5
HETATM    5  C   UNL     1     -10.435   7.634  67.132  1.00  0.00    -0.412 C  
BRANCH   5   6
HETATM    6  C   UNL     1      -9.040   7.545  66.529  1.00  0.00    -0.201 C  
BRANCH   6   7
HETATM    7  C   UNL     1      -8.126   8.601  67.130  1.00  0.00    -0.100 C  
BRANCH   7   8
HETATM    8  C   UNL     1      -8.867   9.416  68.184  1.00  0.00    -0.124 C  
BRANCH   8   9
HETATM    9  C   UNL     1      -7.951  10.505  68.718  1.00  0.00    -0.127 C  
BRANCH   9  10
HETATM   10  C   UNL     1      -8.449  11.899  68.348  1.00  0.00    -0.155 C  
BRANCH  10  11
HETATM   11  C   UNL     1      -9.720  11.842  67.485  1.00  0.00    -0.185 C  
BRANCH  11  12
HETATM   12  C   UNL     1     -10.716  12.923  67.906  1.00  0.00    -0.220 C  
BRANCH  12  13
HETATM   13  N   UNL     1     -10.895  14.060  66.887  1.00  0.00    -0.288 N  
HETATM   14  C   UNL     1      -9.869  13.971  65.763  1.00  0.00    -0.256 C  
HETATM   15  C   UNL     1     -12.301  14.011  66.281  1.00  0.00    -0.448 C  
BRANCH  13  16
HETATM   16  C   UNL     1     -10.764  15.443  67.624  1.00  0.00    -0.292 C  
BRANCH  16  17
HETATM   17  C   UNL     1     -11.881  15.679  68.647  1.00  0.00    -0.291 C  
BRANCH  17  18
HETATM   18  O   UNL     1     -11.376  15.688  69.979  1.00  0.00    -0.277 OA 
BRANCH  18  19
HETATM   19  C   UNL     1     -12.167  14.973  70.852  1.00  0.00    -0.329 A  
HETATM   20  C   UNL     1     -12.128  13.587  70.711  1.00  0.00    -0.351 A  
HETATM   21  C   UNL     1     -12.932  12.778  71.518  1.00  0.00    -0.388 A  
HETATM   22  C   UNL     1     -13.766  13.350  72.479  1.00  0.00    -0.636 A  
HETATM   23  C   UNL     1     -13.782  14.732  72.648  1.00  0.00    -0.547 A  
HETATM   24  C   UNL     1     -12.978  15.539  71.844  1.00  0.00    -0.522 A  
ENDBRANCH  18  19
ENDBRANCH  17  18
ENDBRANCH  16  17
ENDBRANCH  13  16
ENDBRANCH  12  13
ENDBRANCH  11  12
ENDBRANCH  10  11
ENDBRANCH   9  10
ENDBRANCH   8   9
ENDBRANCH   7   8
ENDBRANCH   6   7
ENDBRANCH   5   6
ENDBRANCH   4   5
ENDBRANCH   3   4
ENDBRANCH   2   3
TORSDOF 15
ENDMDL
MODEL      208
REMARK 921   NORMALIZED FREE ENERGY PREDICTED BY IDOCK:   -3.75 KCAL/MOL
REMARK 922        TOTAL FREE ENERGY PREDICTED BY IDOCK:   -8.16 KCAL/MOL
REMARK 923 INTER-LIGAND FREE ENERGY PREDICTED BY IDOCK:   -6.58 KCAL/MOL
REMARK 924 INTRA-LIGAND FREE ENERGY PREDICTED BY IDOCK:   -1.58 KCAL/MOL
REMARK 927      BINDING AFFINITY PREDICTED BY RF-SCORE:    0.00 PKD
ROOT
HETATM    1  C   UNL     1     -10.893   6.430  66.833  1.00  0.00    -0.428 C  
HETATM    2  C   UNL     1     -10.659   7.312  68.047  1.00  0.00    -0.247 C  
ENDROOT
BRANCH   2   3
HETATM    3  C   UNL     1     -10.391   8.755  67.633  1.00  0.00    -0.317 C  
BRANCH   3   4
HETATM    4  C   UNL     1      -8.895   9.009  67.490  1.00  0.00    -0.128 C  
BRANCH   4   5
HETATM    5  C   UNL     1      -8.458  10.194  68.343  1.00  0.00    -0.118 C  
BRANCH   5   6
HETATM    6  C   UNL     1      -7.404  11.013  67.609  1.00  0.00    -0.094 C  
BRANCH   6   7
HETATM    7  C   UNL     1      -7.314  12.416  68.189  1.00  0.00    -0.111 C  
BRANCH   7   8
HETATM    8  C   UNL     1      -5.981  13.063  67.827  1.00  0.00    -0.145 C  
BRANCH   8   9
HETATM    9  C   UNL     1      -6.172  14.563  67.674  1.00  0.00    -0.101 C  
BRANCH   9  10
HETATM   10  C   UNL     1      -7.635  14.969  67.822  1.00  0.00    -0.175 C  
BRANCH  10  11
HETATM   11  C   UNL     1      -8.149  15.719  66.582  1.00  0.00    -0.282 C  
BRANCH  11  12
HETATM   12  C   UNL     1      -8.461  17.179  66.916  1.00  0.00    -0.222 C  
BRANCH  12  13
HETATM   13  N   UNL     1      -9.933  17.456  67.261  1.00  0.00    -0.292 N  
HETATM   14  C   UNL     1     -10.127  17.665  68.758  1.00  0.00    -0.377 C  
HETATM   15  C   UNL     1     -10.424  18.702  66.517  1.00  0.00    -0.420 C  
BRANCH  13  16
HETATM   16  C   UNL     1     -10.816  16.252  66.768  1.00  0.00    -0.125 C  
BRANCH  16  17
HETATM   17  C   UNL     1     -11.218  15.305  67.905  1.00  0.00    -0.331 C  
BRANCH  17  18
HETATM   18  O   UNL     1     -12.214  14.377  67.486  1.00  0.00    -0.342 OA 
BRANCH  18  19
HETATM   19  C   UNL     1     -11.809  13.609  66.416  1.00  0.00    -0.398 A  
HETATM   20  C   UNL     1     -10.624  12.897  66.594  1.00  0.00    -0.273 A  
HETATM   21  C   UNL     1     -10.106  12.127  65.549  1.00  0.00    -0.275 A  
HETATM   22  C   UNL     1     -10.777  12.056  64.328  1.00  0.00    -0.382 A  
HETATM   23  C   UNL     1     -11.979  12.737  64.158  1.00  0.00    -0.499 A  
HETATM   24  C   UNL     1     -12.497  13.503  65.201  1.00  0.00    -0.495 A  
ENDBRANCH  18  19
ENDBRANCH  17  18
ENDBRANCH  16  17
ENDBRANCH  13  16
ENDBRANCH  12  13
ENDBRANCH  11  12
ENDBRANCH  10  11
ENDBRANCH   9  10
ENDBRANCH   8   9
ENDBRANCH   7   8
ENDBRANCH   6   7
ENDBRANCH   5   6
ENDBRANCH   4   5
ENDBRANCH   3   4
ENDBRANCH   2   3
TORSDOF 15
ENDMDL
MODEL      209
REMARK 921   NORMALIZED FREE ENERGY PREDICTED BY IDOCK:   -3.75 KCAL/MOL
REMARK 922        TOTAL FREE ENERGY PREDICTED BY IDOCK:   -8.16 KCAL/MOL
REMARK 923 INTER-LIGAND FREE ENERGY PREDICTED BY IDOCK:   -6.09 KCAL/MOL
REMARK 924 INTRA-LIGAND FREE ENERGY PREDICTED BY IDOCK:   -2.07 KCAL/MOL
REMARK 927      BINDING AFFINITY PREDICTED BY RF-SCORE:    0.00 PKD
ROOT
HETATM    1  C   UNL     1     -10.643  19.880  65.710  1.00  0.00    -0.490 C  
HETATM    2  C   UNL     1      -9.307  19.719  66.413  1.00  0.00    -0.488 C  
ENDROOT
BRANCH   2   3
HETATM    3  C   UNL     1      -9.494  19.201  67.835  1.00  0.00    -0.381 C  
BRANCH   3   4
HETATM    4  C   UNL     1      -8.174  18.699  68.407  1.00  0.00    -0.361 C  
BRANCH   4   5
HETATM    5  C   UNL     1      -8.248  17.210  68.726  1.00  0.00    -0.238 C  
BRANCH   5   6
HETATM    6  C   UNL     1      -9.170  16.505  67.740  1.00  0.00    -0.202 C  
BRANCH   6   7
HETATM    7  C   UNL     1      -8.567  15.183  67.292  1.00  0.00    -0.218 C  
BRANCH   7   8
HETATM    8  C   UNL     1      -8.316  14.273  68.490  1.00  0.00    -0.156 C  
BRANCH   8   9
HETATM    9  C   UNL     1      -6.900  13.724  68.420  1.00  0.00    -0.101 C  
BRANCH   9  10
HETATM   10  C   UNL     1      -6.772  12.387  69.144  1.00  0.00    -0.090 C  
BRANCH  10  11
HETATM   11  C   UNL     1      -7.916  11.426  68.777  1.00  0.00    -0.122 C  
BRANCH  11  12
HETATM   12  C   UNL     1      -7.367  10.115  68.211  1.00  0.00    -0.081 C  
BRANCH  12  13
HETATM   13  N   UNL     1      -7.542   9.952  66.692  1.00  0.00    -0.102 N  
HETATM   14  C   UNL     1      -6.235  10.202  65.948  1.00  0.00    -0.096 C  
HETATM   15  C   UNL     1      -8.036   8.539  66.367  1.00  0.00    -0.103 C  
BRANCH  13  16
HETATM   16  C   UNL     1      -8.647  10.950  66.187  1.00  0.00    -0.169 C  
BRANCH  16  17
HETATM   17  C   UNL     1      -9.978  10.255  65.879  1.00  0.00    -0.256 C  
BRANCH  17  18
HETATM   18  O   UNL     1     -10.906  10.403  66.950  1.00  0.00    -0.236 OA 
BRANCH  18  19
HETATM   19  C   UNL     1     -11.317  11.706  67.121  1.00  0.00    -0.306 A  
HETATM   20  C   UNL     1     -11.451  12.132  68.441  1.00  0.00    -0.356 A  
HETATM   21  C   UNL     1     -11.909  13.423  68.718  1.00  0.00    -0.386 A  
HETATM   22  C   UNL     1     -12.222  14.296  67.676  1.00  0.00    -0.215 A  
HETATM   23  C   UNL     1     -12.057  13.887  66.356  1.00  0.00    -0.489 A  
HETATM   24  C   UNL     1     -11.597  12.600  66.080  1.00  0.00    -0.445 A  
ENDBRANCH  18  19
ENDBRANCH  17  18
ENDBRANCH  16  17
ENDBRANCH  13  16
ENDBRANCH  12  13
ENDBRANCH  11  12
ENDBRANCH  10  11
ENDBRANCH   9  10
ENDBRANCH   8   9
ENDBRANCH   7   8
ENDBRANCH   6   7
ENDBRANCH   5   6
ENDBRANCH   4   5
ENDBRANCH   3   4
ENDBRANCH   2   3
TORSDOF 15
ENDMDL
MODEL      210
REMARK 921   NORMALIZED FREE ENERGY PREDICTED BY IDOCK:   -3.75 KCAL/MOL
REMARK 922        TOTAL FREE ENERGY PREDICTED BY IDOCK:   -8.16 KCAL/MOL
REMARK 923 INTER-LIGAND FREE ENERGY PREDICTED BY IDOCK:   -6.78 KCAL/MOL
REMARK 924 INTRA-LIGAND FREE ENERGY PREDICTED BY IDOCK:   -1.37 KCAL/MOL
REMARK 927      BINDING AFFINITY PREDICTED BY RF-SCORE:    0.00 PKD
ROOT
HETATM    1  C   UNL     1      -6.682  12.913  67.774  1.00  0.00    -0.141 C  
HETATM    2  C   UNL     1      -6.570  11.576  67.063  1.00  0.00    -0.138 C  
ENDROOT
BRANCH   2   3
HETATM    3  C   UNL     1      -5.968  10.516  67.980  1.00  0.00    -0.047 C  
BRANCH   3   4
HETATM    4  C   UNL     1      -5.808   9.190  67.244  1.00  0.00    -0.046 C  
BRANCH   4   5
HETATM    5  C   UNL     1      -7.158   8.659  66.777  1.00  0.00    -0.078 C  
BRANCH   5   6
HETATM    6  C   UNL     1      -7.178   8.532  65.259  1.00  0.00    -0.083 C  
BRANCH   6   7
HETATM    7  C   UNL     1      -8.514   8.994  64.700  1.00  0.00    -0.194 C  
BRANCH   7   8
HETATM    8  C   UNL     1      -9.419   9.501  65.817  1.00  0.00    -0.314 C  
BRANCH   8   9
HETATM    9  C   UNL     1      -9.972  10.866  65.441  1.00  0.00    -0.319 C  
BRANCH   9  10
HETATM   10  C   UNL     1     -10.319  10.951  63.958  1.00  0.00    -0.417 C  
BRANCH  10  11
HETATM   11  C   UNL     1     -10.798  12.358  63.562  1.00  0.00    -0.487 C  
BRANCH  11  12
HETATM   12  C   UNL     1     -10.386  13.391  64.612  1.00  0.00    -0.381 C  
BRANCH  12  13
HETATM   13  N   UNL     1     -11.542  14.243  65.159  1.00  0.00    -0.340 N  
HETATM   14  C   UNL     1     -11.898  15.380  64.208  1.00  0.00    -0.199 C  
HETATM   15  C   UNL     1     -12.782  13.372  65.378  1.00  0.00    -0.426 C  
BRANCH  13  16
HETATM   16  C   UNL     1     -11.139  14.825  66.563  1.00  0.00    -0.334 C  
BRANCH  16  17
HETATM   17  C   UNL     1     -10.748  16.306  66.502  1.00  0.00    -0.187 C  
BRANCH  17  18
HETATM   18  O   UNL     1     -10.797  16.913  67.790  1.00  0.00    -0.345 OA 
BRANCH  18  19
HETATM   19  C   UNL     1     -10.026  18.051  67.872  1.00  0.00    -0.331 A  
HETATM   20  C   UNL     1     -10.637  19.231  67.451  1.00  0.00    -0.594 A  
HETATM   21  C   UNL     1      -9.920  20.430  67.451  1.00  0.00    -0.556 A  
HETATM   22  C   UNL     1      -8.594  20.457  67.884  1.00  0.00    -0.149 A  
HETATM   23  C   UNL     1      -7.990  19.287  68.339  1.00  0.00    -0.376 A  
HETATM   24  C   UNL     1      -8.707  18.092  68.342  1.00  0.00    -0.301 A  
ENDBRANCH  18  19
ENDBRANCH  17  18
ENDBRANCH  16  17
ENDBRANCH  13  16
ENDBRANCH  12  13
ENDBRANCH  11  12
ENDBRANCH  10  11
ENDBRANCH   9  10
ENDBRANCH   8   9
ENDBRANCH   7   8
ENDBRANCH   6   7
ENDBRANCH   5   6
ENDBRANCH   4   5
ENDBRANCH   3   4
ENDBRANCH   2   3
TORSDOF 15
ENDMDL
MODEL      211
REMARK 921   NORMALIZED FREE ENERGY PREDICTED BY IDOCK:   -3.75 KCAL/MOL
REMARK 922        TOTAL FREE ENERGY PREDICTED BY IDOCK:   -8.16 KCAL/MOL
REMARK 923 INTER-LIGAND FREE ENERGY PREDICTED BY IDOCK:   -6.62 KCAL/MOL
REMARK 924 INTRA-LIGAND FREE ENERGY PREDICTED BY IDOCK:   -1.53 KCAL/MOL
REMARK 927      BINDING AFFINITY PREDICTED BY RF-SCORE:    0.00 PKD
ROOT
HETATM    1  C   UNL     1      -9.146   7.191  73.794  1.00  0.00    -0.238 C  
HETATM    2  C   UNL     1     -10.653   7.211  73.611  1.00  0.00    -0.375 C  
ENDROOT
BRANCH   2   3
HETATM    3  C   UNL     1     -11.113   6.062  72.718  1.00  0.00    -0.305 C  
BRANCH   3   4
HETATM    4  C   UNL     1     -10.301   6.020  71.429  1.00  0.00    -0.269 C  
BRANCH   4   5
HETATM    5  C   UNL     1     -11.203   6.178  70.210  1.00  0.00    -0.439 C  
BRANCH   5   6
HETATM    6  C   UNL     1     -11.347   7.650  69.848  1.00  0.00    -0.017 C  
BRANCH   6   7
HETATM    7  C   UNL     1     -10.043   8.393  70.091  1.00  0.00    -0.193 C  
BRANCH   7   8
HETATM    8  C   UNL     1     -10.312   9.771  70.686  1.00  0.00    -0.330 C  
BRANCH   8   9
HETATM    9  C   UNL     1     -11.811   9.972  70.841  1.00  0.00    -0.459 C  
BRANCH   9  10
HETATM   10  C   UNL     1     -12.284  11.260  70.174  1.00  0.00    -0.410 C  
BRANCH  10  11
HETATM   11  C   UNL     1     -11.185  11.889  69.301  1.00  0.00    -0.304 C  
BRANCH  11  12
HETATM   12  C   UNL     1     -11.782  12.525  68.044  1.00  0.00    -0.355 C  
BRANCH  12  13
HETATM   13  N   UNL     1     -10.755  13.192  67.115  1.00  0.00    -0.254 N  
HETATM   14  C   UNL     1     -10.543  12.382  65.841  1.00  0.00    -0.258 C  
HETATM   15  C   UNL     1     -11.222  14.601  66.737  1.00  0.00    -0.344 C  
BRANCH  13  16
HETATM   16  C   UNL     1      -9.391  13.354  67.881  1.00  0.00    -0.216 C  
BRANCH  16  17
HETATM   17  C   UNL     1      -9.058  14.817  68.198  1.00  0.00    -0.180 C  
BRANCH  17  18
HETATM   18  O   UNL     1      -7.817  15.209  67.618  1.00  0.00    -0.133 OA 
BRANCH  18  19
HETATM   19  C   UNL     1      -7.642  16.575  67.608  1.00  0.00    -0.146 A  
HETATM   20  C   UNL     1      -7.480  17.175  68.855  1.00  0.00    -0.241 A  
HETATM   21  C   UNL     1      -7.344  18.562  68.953  1.00  0.00    -0.289 A  
HETATM   22  C   UNL     1      -7.355  19.353  67.804  1.00  0.00    -0.288 A  
HETATM   23  C   UNL     1      -7.481  18.754  66.553  1.00  0.00    -0.260 A  
HETATM   24  C   UNL     1      -7.614  17.370  66.456  1.00  0.00    -0.317 A  
ENDBRANCH  18  19
ENDBRANCH  17  18
ENDBRANCH  16  17
ENDBRANCH  13  16
ENDBRANCH  12  13
ENDBRANCH  11  12
ENDBRANCH  10  11
ENDBRANCH   9  10
ENDBRANCH   8   9
ENDBRANCH   7   8
ENDBRANCH   6   7
ENDBRANCH   5   6
ENDBRANCH   4   5
ENDBRANCH   3   4
ENDBRANCH   2   3
TORSDOF 15
ENDMDL
MODEL      212
REMARK 921   NORMALIZED FREE ENERGY PREDICTED BY IDOCK:   -3.74 KCAL/MOL
REMARK 922        TOTAL FREE ENERGY PREDICTED BY IDOCK:   -8.15 KCAL/MOL
REMARK 923 INTER-LIGAND FREE ENERGY PREDICTED BY IDOCK:   -5.40 KCAL/MOL
REMARK 924 INTRA-LIGAND FREE ENERGY PREDICTED BY IDOCK:   -2.75 KCAL/MOL
REMARK 927      BINDING AFFINITY PREDICTED BY RF-SCORE:    0.00 PKD
ROOT
HETATM    1  C   UNL     1     -12.123   9.516  71.203  1.00  0.00    -0.429 C  
HETATM    2  C   UNL     1     -11.980   8.387  72.208  1.00  0.00    -0.455 C  
ENDROOT
BRANCH   2   3
HETATM    3  C   UNL     1     -10.534   8.245  72.673  1.00  0.00    -0.373 C  
BRANCH   3   4
HETATM    4  C   UNL     1     -10.329   6.929  73.413  1.00  0.00    -0.337 C  
BRANCH   4   5
HETATM    5  C   UNL     1     -11.191   5.825  72.812  1.00  0.00    -0.336 C  
BRANCH   5   6
HETATM    6  C   UNL     1     -10.311   4.754  72.180  1.00  0.00    -0.256 C  
BRANCH   6   7
HETATM    7  C   UNL     1      -8.996   5.350  71.706  1.00  0.00    -0.146 C  
BRANCH   7   8
HETATM    8  C   UNL     1      -9.058   5.678  70.218  1.00  0.00    -0.163 C  
BRANCH   8   9
HETATM    9  C   UNL     1     -10.391   5.214  69.653  1.00  0.00    -0.316 C  
BRANCH   9  10
HETATM   10  C   UNL     1     -10.964   6.214  68.654  1.00  0.00    -0.415 C  
BRANCH  10  11
HETATM   11  C   UNL     1     -10.048   7.437  68.479  1.00  0.00    -0.187 C  
BRANCH  11  12
HETATM   12  C   UNL     1     -10.525   8.316  67.322  1.00  0.00    -0.303 C  
BRANCH  12  13
HETATM   13  N   UNL     1      -9.494   9.348  66.836  1.00  0.00    -0.149 N  
HETATM   14  C   UNL     1      -9.895   9.950  65.494  1.00  0.00    -0.311 C  
HETATM   15  C   UNL     1      -9.350  10.475  67.863  1.00  0.00    -0.143 C  
BRANCH  13  16
HETATM   16  C   UNL     1      -8.086   8.658  66.716  1.00  0.00    -0.101 C  
BRANCH  16  17
HETATM   17  C   UNL     1      -8.032   7.612  65.597  1.00  0.00    -0.116 C  
BRANCH  17  18
HETATM   18  O   UNL     1      -7.099   6.576  65.894  1.00  0.00    -0.060 OA 
BRANCH  18  19
HETATM   19  C   UNL     1      -7.711   5.403  66.276  1.00  0.00    -0.099 A  
HETATM   20  C   UNL     1      -8.925   5.121  65.654  1.00  0.00    -0.154 A  
HETATM   21  C   UNL     1      -9.646   3.978  66.010  1.00  0.00    -0.200 A  
HETATM   22  C   UNL     1      -9.148   3.105  66.977  1.00  0.00    -0.198 A  
HETATM   23  C   UNL     1      -7.918   3.364  67.576  1.00  0.00    -0.081 A  
HETATM   24  C   UNL     1      -7.198   4.503  67.219  1.00  0.00    -0.069 A  
ENDBRANCH  18  19
ENDBRANCH  17  18
ENDBRANCH  16  17
ENDBRANCH  13  16
ENDBRANCH  12  13
ENDBRANCH  11  12
ENDBRANCH  10  11
ENDBRANCH   9  10
ENDBRANCH   8   9
ENDBRANCH   7   8
ENDBRANCH   6   7
ENDBRANCH   5   6
ENDBRANCH   4   5
ENDBRANCH   3   4
ENDBRANCH   2   3
TORSDOF 15
ENDMDL
MODEL      213
REMARK 921   NORMALIZED FREE ENERGY PREDICTED BY IDOCK:   -3.74 KCAL/MOL
REMARK 922        TOTAL FREE ENERGY PREDICTED BY IDOCK:   -8.14 KCAL/MOL
REMARK 923 INTER-LIGAND FREE ENERGY PREDICTED BY IDOCK:   -7.07 KCAL/MOL
REMARK 924 INTRA-LIGAND FREE ENERGY PREDICTED BY IDOCK:   -1.06 KCAL/MOL
REMARK 927      BINDING AFFINITY PREDICTED BY RF-SCORE:    0.00 PKD
ROOT
HETATM    1  C   UNL     1      -7.070  19.988  66.364  1.00  0.00    -0.269 C  
HETATM    2  C   UNL     1      -8.038  19.988  67.534  1.00  0.00    -0.351 C  
ENDROOT
BRANCH   2   3
HETATM    3  C   UNL     1      -9.366  20.630  67.148  1.00  0.00    -0.464 C  
BRANCH   3   4
HETATM    4  C   UNL     1     -10.452  19.574  66.983  1.00  0.00    -0.587 C  
BRANCH   4   5
HETATM    5  C   UNL     1     -10.488  18.636  68.184  1.00  0.00    -0.361 C  
BRANCH   5   6
HETATM    6  C   UNL     1     -10.564  17.187  67.720  1.00  0.00    -0.360 C  
BRANCH   6   7
HETATM    7  C   UNL     1     -10.288  17.086  66.229  1.00  0.00    -0.309 C  
BRANCH   7   8
HETATM    8  C   UNL     1      -9.534  15.800  65.907  1.00  0.00    -0.377 C  
BRANCH   8   9
HETATM    9  C   UNL     1      -9.967  14.706  66.870  1.00  0.00    -0.254 C  
BRANCH   9  10
HETATM   10  C   UNL     1      -8.778  13.906  67.393  1.00  0.00    -0.208 C  
BRANCH  10  11
HETATM   11  C   UNL     1      -8.946  12.398  67.139  1.00  0.00    -0.195 C  
BRANCH  11  12
HETATM   12  C   UNL     1      -9.207  11.649  68.447  1.00  0.00    -0.182 C  
BRANCH  12  13
HETATM   13  N   UNL     1     -10.421  10.707  68.414  1.00  0.00    -0.177 N  
HETATM   14  C   UNL     1     -11.624  11.367  67.748  1.00  0.00    -0.251 C  
HETATM   15  C   UNL     1     -10.073   9.425  67.652  1.00  0.00    -0.211 C  
BRANCH  13  16
HETATM   16  C   UNL     1     -10.788  10.281  69.882  1.00  0.00    -0.302 C  
BRANCH  16  17
HETATM   17  C   UNL     1     -10.335   8.855  70.216  1.00  0.00    -0.206 C  
BRANCH  17  18
HETATM   18  O   UNL     1     -11.443   8.008  70.507  1.00  0.00    -0.264 OA 
BRANCH  18  19
HETATM   19  C   UNL     1     -11.068   6.827  71.108  1.00  0.00    -0.270 A  
HETATM   20  C   UNL     1     -11.428   6.687  72.447  1.00  0.00    -0.300 A  
HETATM   21  C   UNL     1     -11.051   5.545  73.158  1.00  0.00    -0.337 A  
HETATM   22  C   UNL     1     -10.324   4.533  72.530  1.00  0.00    -0.257 A  
HETATM   23  C   UNL     1      -9.992   4.653  71.183  1.00  0.00    -0.265 A  
HETATM   24  C   UNL     1     -10.371   5.792  70.473  1.00  0.00    -0.312 A  
ENDBRANCH  18  19
ENDBRANCH  17  18
ENDBRANCH  16  17
ENDBRANCH  13  16
ENDBRANCH  12  13
ENDBRANCH  11  12
ENDBRANCH  10  11
ENDBRANCH   9  10
ENDBRANCH   8   9
ENDBRANCH   7   8
ENDBRANCH   6   7
ENDBRANCH   5   6
ENDBRANCH   4   5
ENDBRANCH   3   4
ENDBRANCH   2   3
TORSDOF 15
ENDMDL
MODEL      214
REMARK 921   NORMALIZED FREE ENERGY PREDICTED BY IDOCK:   -3.73 KCAL/MOL
REMARK 922        TOTAL FREE ENERGY PREDICTED BY IDOCK:   -8.13 KCAL/MOL
REMARK 923 INTER-LIGAND FREE ENERGY PREDICTED BY IDOCK:   -6.98 KCAL/MOL
REMARK 924 INTRA-LIGAND FREE ENERGY PREDICTED BY IDOCK:   -1.15 KCAL/MOL
REMARK 927      BINDING AFFINITY PREDICTED BY RF-SCORE:    0.00 PKD
ROOT
HETATM    1  C   UNL     1      -5.237  14.129  72.877  1.00  0.00    -0.272 C  
HETATM    2  C   UNL     1      -5.442  14.091  71.374  1.00  0.00    -0.218 C  
ENDROOT
BRANCH   2   3
HETATM    3  C   UNL     1      -5.351  15.489  70.771  1.00  0.00    -0.130 C  
BRANCH   3   4
HETATM    4  C   UNL     1      -6.448  15.707  69.736  1.00  0.00    -0.169 C  
BRANCH   4   5
HETATM    5  C   UNL     1      -6.557  14.511  68.797  1.00  0.00    -0.088 C  
BRANCH   5   6
HETATM    6  C   UNL     1      -7.984  14.373  68.282  1.00  0.00    -0.140 C  
BRANCH   6   7
HETATM    7  C   UNL     1      -8.920  15.302  69.038  1.00  0.00    -0.225 C  
BRANCH   7   8
HETATM    8  C   UNL     1      -9.873  16.005  68.077  1.00  0.00    -0.222 C  
BRANCH   8   9
HETATM    9  C   UNL     1      -9.286  15.981  66.675  1.00  0.00    -0.268 C  
BRANCH   9  10
HETATM   10  C   UNL     1     -10.285  16.472  65.632  1.00  0.00    -0.316 C  
BRANCH  10  11
HETATM   11  C   UNL     1     -11.293  15.376  65.246  1.00  0.00    -0.243 C  
BRANCH  11  12
HETATM   12  C   UNL     1     -10.573  14.116  64.762  1.00  0.00    -0.418 C  
BRANCH  12  13
HETATM   13  N   UNL     1     -11.107  12.805  65.359  1.00  0.00    -0.279 N  
HETATM   14  C   UNL     1     -12.339  12.309  64.610  1.00  0.00    -0.369 C  
HETATM   15  C   UNL     1     -10.025  11.722  65.306  1.00  0.00    -0.253 C  
BRANCH  13  16
HETATM   16  C   UNL     1     -11.455  13.029  66.876  1.00  0.00    -0.339 C  
BRANCH  16  17
HETATM   17  C   UNL     1     -10.835  11.966  67.791  1.00  0.00    -0.211 C  
BRANCH  17  18
HETATM   18  O   UNL     1     -11.828  11.103  68.337  1.00  0.00    -0.495 OA 
BRANCH  18  19
HETATM   19  C   UNL     1     -12.277  11.522  69.569  1.00  0.00    -0.221 A  
HETATM   20  C   UNL     1     -12.267  12.898  69.784  1.00  0.00    -0.227 A  
HETATM   21  C   UNL     1     -12.659  13.418  71.020  1.00  0.00    -0.425 A  
HETATM   22  C   UNL     1     -13.077  12.564  72.041  1.00  0.00    -0.472 A  
HETATM   23  C   UNL     1     -13.123  11.190  71.820  1.00  0.00    -0.536 A  
HETATM   24  C   UNL     1     -12.733  10.673  70.586  1.00  0.00    -0.445 A  
ENDBRANCH  18  19
ENDBRANCH  17  18
ENDBRANCH  16  17
ENDBRANCH  13  16
ENDBRANCH  12  13
ENDBRANCH  11  12
ENDBRANCH  10  11
ENDBRANCH   9  10
ENDBRANCH   8   9
ENDBRANCH   7   8
ENDBRANCH   6   7
ENDBRANCH   5   6
ENDBRANCH   4   5
ENDBRANCH   3   4
ENDBRANCH   2   3
TORSDOF 15
ENDMDL
MODEL      215
REMARK 921   NORMALIZED FREE ENERGY PREDICTED BY IDOCK:   -3.73 KCAL/MOL
REMARK 922        TOTAL FREE ENERGY PREDICTED BY IDOCK:   -8.13 KCAL/MOL
REMARK 923 INTER-LIGAND FREE ENERGY PREDICTED BY IDOCK:   -6.65 KCAL/MOL
REMARK 924 INTRA-LIGAND FREE ENERGY PREDICTED BY IDOCK:   -1.47 KCAL/MOL
REMARK 927      BINDING AFFINITY PREDICTED BY RF-SCORE:    0.00 PKD
ROOT
HETATM    1  C   UNL     1      -9.533   3.912  67.912  1.00  0.00    -0.227 C  
HETATM    2  C   UNL     1      -9.467   3.665  66.416  1.00  0.00    -0.184 C  
ENDROOT
BRANCH   2   3
HETATM    3  C   UNL     1      -8.021   3.599  65.934  1.00  0.00    -0.093 C  
BRANCH   3   4
HETATM    4  C   UNL     1      -7.817   4.483  64.709  1.00  0.00    -0.086 C  
BRANCH   4   5
HETATM    5  C   UNL     1      -7.122   5.786  65.086  1.00  0.00    -0.064 C  
BRANCH   5   6
HETATM    6  C   UNL     1      -8.092   6.955  64.969  1.00  0.00    -0.117 C  
BRANCH   6   7
HETATM    7  C   UNL     1      -8.584   7.383  66.343  1.00  0.00    -0.138 C  
BRANCH   7   8
HETATM    8  C   UNL     1      -7.543   7.066  67.410  1.00  0.00    -0.109 C  
BRANCH   8   9
HETATM    9  C   UNL     1      -8.197   7.105  68.782  1.00  0.00    -0.122 C  
BRANCH   9  10
HETATM   10  C   UNL     1      -9.152   8.286  68.924  1.00  0.00    -0.147 C  
BRANCH  10  11
HETATM   11  C   UNL     1     -10.500   7.861  69.532  1.00  0.00    -0.226 C  
BRANCH  11  12
HETATM   12  C   UNL     1     -10.946   8.846  70.614  1.00  0.00    -0.241 C  
BRANCH  12  13
HETATM   13  N   UNL     1     -11.874   8.246  71.681  1.00  0.00    -0.284 N  
HETATM   14  C   UNL     1     -12.738   7.128  71.107  1.00  0.00    -0.315 C  
HETATM   15  C   UNL     1     -11.050   7.688  72.846  1.00  0.00    -0.393 C  
BRANCH  13  16
HETATM   16  C   UNL     1     -12.788   9.381  72.271  1.00  0.00    -0.375 C  
BRANCH  16  17
HETATM   17  C   UNL     1     -12.617  10.719  71.544  1.00  0.00    -0.395 C  
BRANCH  17  18
HETATM   18  O   UNL     1     -13.628  11.651  71.919  1.00  0.00    -0.259 OA 
BRANCH  18  19
HETATM   19  C   UNL     1     -13.282  12.954  71.635  1.00  0.00    -0.324 A  
HETATM   20  C   UNL     1     -13.959  13.933  72.359  1.00  0.00    -0.633 A  
HETATM   21  C   UNL     1     -13.713  15.286  72.108  1.00  0.00    -0.598 A  
HETATM   22  C   UNL     1     -12.779  15.664  71.142  1.00  0.00    -0.525 A  
HETATM   23  C   UNL     1     -12.075  14.688  70.441  1.00  0.00    -0.383 A  
HETATM   24  C   UNL     1     -12.320  13.339  70.693  1.00  0.00    -0.416 A  
ENDBRANCH  18  19
ENDBRANCH  17  18
ENDBRANCH  16  17
ENDBRANCH  13  16
ENDBRANCH  12  13
ENDBRANCH  11  12
ENDBRANCH  10  11
ENDBRANCH   9  10
ENDBRANCH   8   9
ENDBRANCH   7   8
ENDBRANCH   6   7
ENDBRANCH   5   6
ENDBRANCH   4   5
ENDBRANCH   3   4
ENDBRANCH   2   3
TORSDOF 15
ENDMDL
MODEL      216
REMARK 921   NORMALIZED FREE ENERGY PREDICTED BY IDOCK:   -3.71 KCAL/MOL
REMARK 922        TOTAL FREE ENERGY PREDICTED BY IDOCK:   -8.09 KCAL/MOL
REMARK 923 INTER-LIGAND FREE ENERGY PREDICTED BY IDOCK:   -5.09 KCAL/MOL
REMARK 924 INTRA-LIGAND FREE ENERGY PREDICTED BY IDOCK:   -3.01 KCAL/MOL
REMARK 927      BINDING AFFINITY PREDICTED BY RF-SCORE:    0.00 PKD
ROOT
HETATM    1  C   UNL     1      -6.528   4.740  66.997  1.00  0.00    -0.045 C  
HETATM    2  C   UNL     1      -6.175   5.959  67.830  1.00  0.00    -0.032 C  
ENDROOT
BRANCH   2   3
HETATM    3  C   UNL     1      -7.314   6.974  67.829  1.00  0.00    -0.097 C  
BRANCH   3   4
HETATM    4  C   UNL     1      -7.586   7.482  66.418  1.00  0.00    -0.088 C  
BRANCH   4   5
HETATM    5  C   UNL     1      -9.023   7.189  66.001  1.00  0.00    -0.141 C  
BRANCH   5   6
HETATM    6  C   UNL     1      -9.971   7.435  67.167  1.00  0.00    -0.281 C  
BRANCH   6   7
HETATM    7  C   UNL     1     -11.056   6.370  67.210  1.00  0.00    -0.416 C  
BRANCH   7   8
HETATM    8  C   UNL     1     -10.452   4.980  67.042  1.00  0.00    -0.208 C  
BRANCH   8   9
HETATM    9  C   UNL     1      -9.902   4.502  68.376  1.00  0.00    -0.153 C  
BRANCH   9  10
HETATM   10  C   UNL     1     -10.553   5.225  69.551  1.00  0.00    -0.244 C  
BRANCH  10  11
HETATM   11  C   UNL     1      -9.532   5.559  70.653  1.00  0.00    -0.209 C  
BRANCH  11  12
HETATM   12  C   UNL     1      -9.459   7.068  70.892  1.00  0.00    -0.160 C  
BRANCH  12  13
HETATM   13  N   UNL     1      -9.963   7.522  72.271  1.00  0.00    -0.175 N  
HETATM   14  C   UNL     1     -10.564   6.362  73.057  1.00  0.00    -0.242 C  
HETATM   15  C   UNL     1      -8.811   8.126  73.081  1.00  0.00    -0.257 C  
BRANCH  13  16
HETATM   16  C   UNL     1     -11.035   8.656  72.085  1.00  0.00    -0.364 C  
BRANCH  16  17
HETATM   17  C   UNL     1     -11.309   8.978  70.611  1.00  0.00    -0.265 C  
BRANCH  17  18
HETATM   18  O   UNL     1     -11.167  10.370  70.344  1.00  0.00    -0.297 OA 
BRANCH  18  19
HETATM   19  C   UNL     1     -10.534  10.621  69.146  1.00  0.00    -0.222 A  
HETATM   20  C   UNL     1     -11.370  10.837  68.052  1.00  0.00    -0.378 A  
HETATM   21  C   UNL     1     -10.822  11.051  66.785  1.00  0.00    -0.307 A  
HETATM   22  C   UNL     1      -9.438  11.064  66.609  1.00  0.00    -0.207 A  
HETATM   23  C   UNL     1      -8.599  10.884  67.705  1.00  0.00    -0.128 A  
HETATM   24  C   UNL     1      -9.146  10.672  68.970  1.00  0.00    -0.174 A  
ENDBRANCH  18  19
ENDBRANCH  17  18
ENDBRANCH  16  17
ENDBRANCH  13  16
ENDBRANCH  12  13
ENDBRANCH  11  12
ENDBRANCH  10  11
ENDBRANCH   9  10
ENDBRANCH   8   9
ENDBRANCH   7   8
ENDBRANCH   6   7
ENDBRANCH   5   6
ENDBRANCH   4   5
ENDBRANCH   3   4
ENDBRANCH   2   3
TORSDOF 15
ENDMDL
MODEL      217
REMARK 921   NORMALIZED FREE ENERGY PREDICTED BY IDOCK:   -3.71 KCAL/MOL
REMARK 922        TOTAL FREE ENERGY PREDICTED BY IDOCK:   -8.08 KCAL/MOL
REMARK 923 INTER-LIGAND FREE ENERGY PREDICTED BY IDOCK:   -6.37 KCAL/MOL
REMARK 924 INTRA-LIGAND FREE ENERGY PREDICTED BY IDOCK:   -1.71 KCAL/MOL
REMARK 927      BINDING AFFINITY PREDICTED BY RF-SCORE:    0.00 PKD
ROOT
HETATM    1  C   UNL     1     -10.990  11.686  63.402  1.00  0.00    -0.442 C  
HETATM    2  C   UNL     1     -11.815  12.958  63.488  1.00  0.00    -0.605 C  
ENDROOT
BRANCH   2   3
HETATM    3  C   UNL     1     -11.441  13.772  64.722  1.00  0.00    -0.366 C  
BRANCH   3   4
HETATM    4  C   UNL     1     -12.535  13.687  65.780  1.00  0.00    -0.524 C  
BRANCH   4   5
HETATM    5  C   UNL     1     -12.135  14.442  67.042  1.00  0.00    -0.374 C  
BRANCH   5   6
HETATM    6  C   UNL     1     -12.090  13.494  68.233  1.00  0.00    -0.295 C  
BRANCH   6   7
HETATM    7  C   UNL     1     -11.270  14.092  69.365  1.00  0.00    -0.298 C  
BRANCH   7   8
HETATM    8  C   UNL     1     -10.421  15.254  68.858  1.00  0.00    -0.241 C  
BRANCH   8   9
HETATM    9  C   UNL     1      -8.958  14.841  68.840  1.00  0.00    -0.167 C  
BRANCH   9  10
HETATM   10  C   UNL     1      -8.514  14.382  67.454  1.00  0.00    -0.216 C  
BRANCH  10  11
HETATM   11  C   UNL     1      -8.006  12.930  67.469  1.00  0.00    -0.178 C  
BRANCH  11  12
HETATM   12  C   UNL     1      -8.910  12.026  66.628  1.00  0.00    -0.191 C  
BRANCH  12  13
HETATM   13  N   UNL     1      -9.242  10.673  67.277  1.00  0.00    -0.143 N  
HETATM   14  C   UNL     1     -10.710  10.307  67.087  1.00  0.00    -0.241 C  
HETATM   15  C   UNL     1      -8.372   9.568  66.670  1.00  0.00    -0.116 C  
BRANCH  13  16
HETATM   16  C   UNL     1      -8.898  10.734  68.810  1.00  0.00    -0.163 C  
BRANCH  16  17
HETATM   17  C   UNL     1      -9.865   9.910  69.668  1.00  0.00    -0.232 C  
BRANCH  17  18
HETATM   18  O   UNL     1      -9.350   8.609  69.935  1.00  0.00    -0.155 OA 
BRANCH  18  19
HETATM   19  C   UNL     1      -9.107   8.396  71.274  1.00  0.00    -0.178 A  
HETATM   20  C   UNL     1      -7.789   8.579  71.688  1.00  0.00    -0.160 A  
HETATM   21  C   UNL     1      -7.433   8.341  73.018  1.00  0.00    -0.158 A  
HETATM   22  C   UNL     1      -8.396   7.932  73.941  1.00  0.00    -0.300 A  
HETATM   23  C   UNL     1      -9.721   7.783  73.540  1.00  0.00    -0.319 A  
HETATM   24  C   UNL     1     -10.076   8.023  72.213  1.00  0.00    -0.311 A  
ENDBRANCH  18  19
ENDBRANCH  17  18
ENDBRANCH  16  17
ENDBRANCH  13  16
ENDBRANCH  12  13
ENDBRANCH  11  12
ENDBRANCH  10  11
ENDBRANCH   9  10
ENDBRANCH   8   9
ENDBRANCH   7   8
ENDBRANCH   6   7
ENDBRANCH   5   6
ENDBRANCH   4   5
ENDBRANCH   3   4
ENDBRANCH   2   3
TORSDOF 15
ENDMDL
MODEL      218
REMARK 921   NORMALIZED FREE ENERGY PREDICTED BY IDOCK:   -3.71 KCAL/MOL
REMARK 922        TOTAL FREE ENERGY PREDICTED BY IDOCK:   -8.08 KCAL/MOL
REMARK 923 INTER-LIGAND FREE ENERGY PREDICTED BY IDOCK:   -5.78 KCAL/MOL
REMARK 924 INTRA-LIGAND FREE ENERGY PREDICTED BY IDOCK:   -2.29 KCAL/MOL
REMARK 927      BINDING AFFINITY PREDICTED BY RF-SCORE:    0.00 PKD
ROOT
HETATM    1  C   UNL     1     -10.185   3.976  63.157  1.00  0.00    -0.137 C  
HETATM    2  C   UNL     1      -9.065   3.767  64.159  1.00  0.00    -0.128 C  
ENDROOT
BRANCH   2   3
HETATM    3  C   UNL     1      -9.077   4.851  65.231  1.00  0.00    -0.154 C  
BRANCH   3   4
HETATM    4  C   UNL     1      -9.367   4.254  66.604  1.00  0.00    -0.179 C  
BRANCH   4   5
HETATM    5  C   UNL     1      -9.903   5.314  67.558  1.00  0.00    -0.183 C  
BRANCH   5   6
HETATM    6  C   UNL     1     -10.903   6.213  66.842  1.00  0.00    -0.411 C  
BRANCH   6   7
HETATM    7  C   UNL     1     -10.656   7.673  67.187  1.00  0.00    -0.410 C  
BRANCH   7   8
HETATM    8  C   UNL     1      -9.164   7.943  67.347  1.00  0.00    -0.160 C  
BRANCH   8   9
HETATM    9  C   UNL     1      -8.750   9.070  66.415  1.00  0.00    -0.149 C  
BRANCH   9  10
HETATM   10  C   UNL     1      -9.904   9.526  65.527  1.00  0.00    -0.304 C  
BRANCH  10  11
HETATM   11  C   UNL     1     -10.155  11.039  65.648  1.00  0.00    -0.310 C  
BRANCH  11  12
HETATM   12  C   UNL     1      -9.721  11.558  67.020  1.00  0.00    -0.184 C  
BRANCH  12  13
HETATM   13  N   UNL     1     -10.425  12.849  67.467  1.00  0.00    -0.222 N  
HETATM   14  C   UNL     1      -9.456  13.807  68.151  1.00  0.00    -0.212 C  
HETATM   15  C   UNL     1     -11.052  13.554  66.260  1.00  0.00    -0.300 C  
BRANCH  13  16
HETATM   16  C   UNL     1     -11.601  12.487  68.446  1.00  0.00    -0.322 C  
BRANCH  16  17
HETATM   17  C   UNL     1     -11.589  11.013  68.869  1.00  0.00    -0.314 C  
BRANCH  17  18
HETATM   18  O   UNL     1     -11.122  10.856  70.206  1.00  0.00    -0.248 OA 
BRANCH  18  19
HETATM   19  C   UNL     1     -10.937   9.537  70.554  1.00  0.00    -0.288 A  
HETATM   20  C   UNL     1      -9.613   9.111  70.639  1.00  0.00    -0.312 A  
HETATM   21  C   UNL     1      -9.324   7.777  70.939  1.00  0.00    -0.157 A  
HETATM   22  C   UNL     1     -10.357   6.867  71.167  1.00  0.00    -0.222 A  
HETATM   23  C   UNL     1     -11.681   7.296  71.117  1.00  0.00    -0.334 A  
HETATM   24  C   UNL     1     -11.969   8.627  70.821  1.00  0.00    -0.143 A  
ENDBRANCH  18  19
ENDBRANCH  17  18
ENDBRANCH  16  17
ENDBRANCH  13  16
ENDBRANCH  12  13
ENDBRANCH  11  12
ENDBRANCH  10  11
ENDBRANCH   9  10
ENDBRANCH   8   9
ENDBRANCH   7   8
ENDBRANCH   6   7
ENDBRANCH   5   6
ENDBRANCH   4   5
ENDBRANCH   3   4
ENDBRANCH   2   3
TORSDOF 15
ENDMDL
MODEL      219
REMARK 921   NORMALIZED FREE ENERGY PREDICTED BY IDOCK:   -3.70 KCAL/MOL
REMARK 922        TOTAL FREE ENERGY PREDICTED BY IDOCK:   -8.06 KCAL/MOL
REMARK 923 INTER-LIGAND FREE ENERGY PREDICTED BY IDOCK:   -7.02 KCAL/MOL
REMARK 924 INTRA-LIGAND FREE ENERGY PREDICTED BY IDOCK:   -1.04 KCAL/MOL
REMARK 927      BINDING AFFINITY PREDICTED BY RF-SCORE:    0.00 PKD
ROOT
HETATM    1  C   UNL     1      -7.468   4.892  69.013  1.00  0.00    -0.061 C  
HETATM    2  C   UNL     1      -7.798   5.260  70.448  1.00  0.00    -0.076 C  
ENDROOT
BRANCH   2   3
HETATM    3  C   UNL     1      -9.188   4.768  70.836  1.00  0.00    -0.194 C  
BRANCH   3   4
HETATM    4  C   UNL     1     -10.213   5.147  69.773  1.00  0.00    -0.357 C  
BRANCH   4   5
HETATM    5  C   UNL     1     -11.187   6.193  70.302  1.00  0.00    -0.439 C  
BRANCH   5   6
HETATM    6  C   UNL     1     -10.966   7.524  69.595  1.00  0.00    -0.164 C  
BRANCH   6   7
HETATM    7  C   UNL     1     -10.278   7.313  68.256  1.00  0.00    -0.208 C  
BRANCH   7   8
HETATM    8  C   UNL     1     -10.480   8.524  67.351  1.00  0.00    -0.351 C  
BRANCH   8   9
HETATM    9  C   UNL     1     -10.178   9.794  68.129  1.00  0.00    -0.220 C  
BRANCH   9  10
HETATM   10  C   UNL     1     -11.212  10.883  67.865  1.00  0.00    -0.387 C  
BRANCH  10  11
HETATM   11  C   UNL     1     -11.015  11.537  66.487  1.00  0.00    -0.346 C  
BRANCH  11  12
HETATM   12  C   UNL     1     -10.358  12.911  66.622  1.00  0.00    -0.251 C  
BRANCH  12  13
HETATM   13  N   UNL     1     -11.318  14.099  66.451  1.00  0.00    -0.328 N  
HETATM   14  C   UNL     1     -12.447  13.771  65.479  1.00  0.00    -0.512 C  
HETATM   15  C   UNL     1     -11.924  14.488  67.803  1.00  0.00    -0.310 C  
BRANCH  13  16
HETATM   16  C   UNL     1     -10.513  15.347  65.935  1.00  0.00    -0.340 C  
BRANCH  16  17
HETATM   17  C   UNL     1     -10.072  16.279  67.070  1.00  0.00    -0.270 C  
BRANCH  17  18
HETATM   18  O   UNL     1     -10.288  17.647  66.738  1.00  0.00    -0.332 OA 
BRANCH  18  19
HETATM   19  C   UNL     1      -9.349  18.486  67.296  1.00  0.00    -0.280 A  
HETATM   20  C   UNL     1      -9.035  19.624  66.557  1.00  0.00    -0.422 A  
HETATM   21  C   UNL     1      -8.058  20.511  67.017  1.00  0.00    -0.324 A  
HETATM   22  C   UNL     1      -7.403  20.271  68.225  1.00  0.00    -0.207 A  
HETATM   23  C   UNL     1      -7.739  19.154  68.985  1.00  0.00    -0.316 A  
HETATM   24  C   UNL     1      -8.715  18.270  68.526  1.00  0.00    -0.325 A  
ENDBRANCH  18  19
ENDBRANCH  17  18
ENDBRANCH  16  17
ENDBRANCH  13  16
ENDBRANCH  12  13
ENDBRANCH  11  12
ENDBRANCH  10  11
ENDBRANCH   9  10
ENDBRANCH   8   9
ENDBRANCH   7   8
ENDBRANCH   6   7
ENDBRANCH   5   6
ENDBRANCH   4   5
ENDBRANCH   3   4
ENDBRANCH   2   3
TORSDOF 15
ENDMDL
MODEL      220
REMARK 921   NORMALIZED FREE ENERGY PREDICTED BY IDOCK:   -3.68 KCAL/MOL
REMARK 922        TOTAL FREE ENERGY PREDICTED BY IDOCK:   -8.03 KCAL/MOL
REMARK 923 INTER-LIGAND FREE ENERGY PREDICTED BY IDOCK:   -6.71 KCAL/MOL
REMARK 924 INTRA-LIGAND FREE ENERGY PREDICTED BY IDOCK:   -1.32 KCAL/MOL
REMARK 927      BINDING AFFINITY PREDICTED BY RF-SCORE:    0.00 PKD
ROOT
HETATM    1  C   UNL     1     -10.631  12.887  68.352  1.00  0.00    -0.267 C  
HETATM    2  C   UNL     1     -11.664  13.978  68.134  1.00  0.00    -0.387 C  
ENDROOT
BRANCH   2   3
HETATM    3  C   UNL     1     -11.134  15.056  67.194  1.00  0.00    -0.332 C  
BRANCH   3   4
HETATM    4  C   UNL     1     -10.991  14.516  65.775  1.00  0.00    -0.319 C  
BRANCH   4   5
HETATM    5  C   UNL     1     -12.352  14.383  65.103  1.00  0.00    -0.383 C  
BRANCH   5   6
HETATM    6  C   UNL     1     -12.318  13.276  64.056  1.00  0.00    -0.415 C  
BRANCH   6   7
HETATM    7  C   UNL     1     -11.277  12.228  64.417  1.00  0.00    -0.389 C  
BRANCH   7   8
HETATM    8  C   UNL     1     -10.410  11.894  63.208  1.00  0.00    -0.432 C  
BRANCH   8   9
HETATM    9  C   UNL     1      -9.769  10.530  63.407  1.00  0.00    -0.368 C  
BRANCH   9  10
HETATM   10  C   UNL     1      -9.564  10.207  64.884  1.00  0.00    -0.369 C  
BRANCH  10  11
HETATM   11  C   UNL     1      -8.087   9.925  65.209  1.00  0.00    -0.139 C  
BRANCH  11  12
HETATM   12  C   UNL     1      -7.949   9.224  66.561  1.00  0.00    -0.104 C  
BRANCH  12  13
HETATM   13  N   UNL     1      -7.632   7.723  66.473  1.00  0.00    -0.094 N  
HETATM   14  C   UNL     1      -7.141   7.334  65.083  1.00  0.00    -0.064 C  
HETATM   15  C   UNL     1      -6.560   7.348  67.502  1.00  0.00    -0.061 C  
BRANCH  13  16
HETATM   16  C   UNL     1      -8.920   6.898  66.837  1.00  0.00    -0.122 C  
BRANCH  16  17
HETATM   17  C   UNL     1      -9.284   6.990  68.323  1.00  0.00    -0.128 C  
BRANCH  17  18
HETATM   18  O   UNL     1     -10.307   7.955  68.553  1.00  0.00    -0.203 OA 
BRANCH  18  19
HETATM   19  C   UNL     1     -10.841   7.873  69.820  1.00  0.00    -0.202 A  
HETATM   20  C   UNL     1     -10.884   9.066  70.539  1.00  0.00    -0.296 A  
HETATM   21  C   UNL     1     -11.364   9.076  71.851  1.00  0.00    -0.438 A  
HETATM   22  C   UNL     1     -11.816   7.897  72.444  1.00  0.00    -0.402 A  
HETATM   23  C   UNL     1     -11.808   6.709  71.717  1.00  0.00    -0.380 A  
HETATM   24  C   UNL     1     -11.331   6.700  70.407  1.00  0.00    -0.421 A  
ENDBRANCH  18  19
ENDBRANCH  17  18
ENDBRANCH  16  17
ENDBRANCH  13  16
ENDBRANCH  12  13
ENDBRANCH  11  12
ENDBRANCH  10  11
ENDBRANCH   9  10
ENDBRANCH   8   9
ENDBRANCH   7   8
ENDBRANCH   6   7
ENDBRANCH   5   6
ENDBRANCH   4   5
ENDBRANCH   3   4
ENDBRANCH   2   3
TORSDOF 15
ENDMDL
MODEL      221
REMARK 921   NORMALIZED FREE ENERGY PREDICTED BY IDOCK:   -3.67 KCAL/MOL
REMARK 922        TOTAL FREE ENERGY PREDICTED BY IDOCK:   -8.01 KCAL/MOL
REMARK 923 INTER-LIGAND FREE ENERGY PREDICTED BY IDOCK:   -6.13 KCAL/MOL
REMARK 924 INTRA-LIGAND FREE ENERGY PREDICTED BY IDOCK:   -1.89 KCAL/MOL
REMARK 927      BINDING AFFINITY PREDICTED BY RF-SCORE:    0.00 PKD
ROOT
HETATM    1  C   UNL     1     -12.967  11.955  64.128  1.00  0.00    -0.086 C  
HETATM    2  C   UNL     1     -12.059  12.918  63.385  1.00  0.00    -0.610 C  
ENDROOT
BRANCH   2   3
HETATM    3  C   UNL     1     -10.602  12.723  63.792  1.00  0.00    -0.370 C  
BRANCH   3   4
HETATM    4  C   UNL     1     -10.435  12.877  65.299  1.00  0.00    -0.312 C  
BRANCH   4   5
HETATM    5  C   UNL     1      -9.456  11.846  65.848  1.00  0.00    -0.227 C  
BRANCH   5   6
HETATM    6  C   UNL     1      -9.467  10.594  64.980  1.00  0.00    -0.293 C  
BRANCH   6   7
HETATM    7  C   UNL     1     -10.122   9.437  65.716  1.00  0.00    -0.166 C  
BRANCH   7   8
HETATM    8  C   UNL     1      -9.491   9.246  67.091  1.00  0.00    -0.191 C  
BRANCH   8   9
HETATM    9  C   UNL     1     -10.437   8.452  67.977  1.00  0.00    -0.242 C  
BRANCH   9  10
HETATM   10  C   UNL     1     -10.942   7.191  67.283  1.00  0.00    -0.333 C  
BRANCH  10  11
HETATM   11  C   UNL     1     -10.787   5.947  68.175  1.00  0.00    -0.323 C  
BRANCH  11  12
HETATM   12  C   UNL     1      -9.404   5.911  68.827  1.00  0.00    -0.122 C  
BRANCH  12  13
HETATM   13  N   UNL     1      -9.023   4.555  69.443  1.00  0.00    -0.089 N  
HETATM   14  C   UNL     1      -9.093   3.433  68.413  1.00  0.00    -0.153 C  
HETATM   15  C   UNL     1      -7.603   4.616  70.015  1.00  0.00    -0.054 C  
BRANCH  13  16
HETATM   16  C   UNL     1      -9.987   4.241  70.644  1.00  0.00    -0.148 C  
BRANCH  16  17
HETATM   17  C   UNL     1      -9.581   4.963  71.935  1.00  0.00    -0.154 C  
BRANCH  17  18
HETATM   18  O   UNL     1     -10.720   5.387  72.678  1.00  0.00    -0.214 OA 
BRANCH  18  19
HETATM   19  C   UNL     1     -11.242   6.577  72.218  1.00  0.00    -0.273 A  
HETATM   20  C   UNL     1     -10.369   7.662  72.218  1.00  0.00    -0.277 A  
HETATM   21  C   UNL     1     -10.818   8.923  71.816  1.00  0.00    -0.436 A  
HETATM   22  C   UNL     1     -12.138   9.099  71.399  1.00  0.00    -0.409 A  
HETATM   23  C   UNL     1     -13.004   8.010  71.363  1.00  0.00    -0.277 A  
HETATM   24  C   UNL     1     -12.555   6.752  71.763  1.00  0.00    -0.370 A  
ENDBRANCH  18  19
ENDBRANCH  17  18
ENDBRANCH  16  17
ENDBRANCH  13  16
ENDBRANCH  12  13
ENDBRANCH  11  12
ENDBRANCH  10  11
ENDBRANCH   9  10
ENDBRANCH   8   9
ENDBRANCH   7   8
ENDBRANCH   6   7
ENDBRANCH   5   6
ENDBRANCH   4   5
ENDBRANCH   3   4
ENDBRANCH   2   3
TORSDOF 15
ENDMDL
MODEL      222
REMARK 921   NORMALIZED FREE ENERGY PREDICTED BY IDOCK:   -3.67 KCAL/MOL
REMARK 922        TOTAL FREE ENERGY PREDICTED BY IDOCK:   -8.01 KCAL/MOL
REMARK 923 INTER-LIGAND FREE ENERGY PREDICTED BY IDOCK:   -6.86 KCAL/MOL
REMARK 924 INTRA-LIGAND FREE ENERGY PREDICTED BY IDOCK:   -1.15 KCAL/MOL
REMARK 927      BINDING AFFINITY PREDICTED BY RF-SCORE:    0.00 PKD
ROOT
HETATM    1  C   UNL     1     -10.179  18.259  68.507  1.00  0.00    -0.402 C  
HETATM    2  C   UNL     1      -9.580  16.958  68.002  1.00  0.00    -0.247 C  
ENDROOT
BRANCH   2   3
HETATM    3  C   UNL     1     -10.530  16.254  67.039  1.00  0.00    -0.306 C  
BRANCH   3   4
HETATM    4  C   UNL     1      -9.793  15.803  65.783  1.00  0.00    -0.383 C  
BRANCH   4   5
HETATM    5  C   UNL     1     -10.600  14.758  65.022  1.00  0.00    -0.452 C  
BRANCH   5   6
HETATM    6  C   UNL     1     -12.071  14.845  65.407  1.00  0.00    -0.076 C  
BRANCH   6   7
HETATM    7  C   UNL     1     -12.633  13.462  65.696  1.00  0.00    -0.496 C  
BRANCH   7   8
HETATM    8  C   UNL     1     -11.701  12.685  66.619  1.00  0.00    -0.464 C  
BRANCH   8   9
HETATM    9  C   UNL     1     -11.409  11.322  66.013  1.00  0.00    -0.004 C  
BRANCH   9  10
HETATM   10  C   UNL     1      -9.911  11.068  65.879  1.00  0.00    -0.289 C  
BRANCH  10  11
HETATM   11  C   UNL     1      -9.558   9.589  66.113  1.00  0.00    -0.302 C  
BRANCH  11  12
HETATM   12  C   UNL     1      -9.867   9.175  67.553  1.00  0.00    -0.177 C  
BRANCH  12  13
HETATM   13  N   UNL     1      -8.628   8.899  68.419  1.00  0.00    -0.133 N  
HETATM   14  C   UNL     1      -7.510   8.253  67.607  1.00  0.00    -0.094 C  
HETATM   15  C   UNL     1      -8.108  10.204  69.029  1.00  0.00    -0.125 C  
BRANCH  13  16
HETATM   16  C   UNL     1      -9.029   7.963  69.617  1.00  0.00    -0.146 C  
BRANCH  16  17
HETATM   17  C   UNL     1      -9.659   8.732  70.785  1.00  0.00    -0.208 C  
BRANCH  17  18
HETATM   18  O   UNL     1     -10.246   7.848  71.736  1.00  0.00    -0.186 OA 
BRANCH  18  19
HETATM   19  C   UNL     1     -11.604   8.035  71.870  1.00  0.00    -0.298 A  
HETATM   20  C   UNL     1     -12.408   6.996  71.407  1.00  0.00    -0.419 A  
HETATM   21  C   UNL     1     -13.800   7.113  71.455  1.00  0.00    -0.368 A  
HETATM   22  C   UNL     1     -14.392   8.262  71.979  1.00  0.00    -0.541 A  
HETATM   23  C   UNL     1     -13.592   9.288  72.475  1.00  0.00    -0.478 A  
HETATM   24  C   UNL     1     -12.204   9.170  72.429  1.00  0.00    -0.263 A  
ENDBRANCH  18  19
ENDBRANCH  17  18
ENDBRANCH  16  17
ENDBRANCH  13  16
ENDBRANCH  12  13
ENDBRANCH  11  12
ENDBRANCH  10  11
ENDBRANCH   9  10
ENDBRANCH   8   9
ENDBRANCH   7   8
ENDBRANCH   6   7
ENDBRANCH   5   6
ENDBRANCH   4   5
ENDBRANCH   3   4
ENDBRANCH   2   3
TORSDOF 15
ENDMDL
MODEL      223
REMARK 921   NORMALIZED FREE ENERGY PREDICTED BY IDOCK:   -3.66 KCAL/MOL
REMARK 922        TOTAL FREE ENERGY PREDICTED BY IDOCK:   -8.00 KCAL/MOL
REMARK 923 INTER-LIGAND FREE ENERGY PREDICTED BY IDOCK:   -6.84 KCAL/MOL
REMARK 924 INTRA-LIGAND FREE ENERGY PREDICTED BY IDOCK:   -1.16 KCAL/MOL
REMARK 927      BINDING AFFINITY PREDICTED BY RF-SCORE:    0.00 PKD
ROOT
HETATM    1  C   UNL     1      -5.895   9.405  63.343  1.00  0.00    -0.089 C  
HETATM    2  C   UNL     1      -6.692  10.006  64.487  1.00  0.00    -0.128 C  
ENDROOT
BRANCH   2   3
HETATM    3  C   UNL     1      -7.888   9.129  64.843  1.00  0.00    -0.117 C  
BRANCH   3   4
HETATM    4  C   UNL     1      -9.190   9.914  64.727  1.00  0.00    -0.309 C  
BRANCH   4   5
HETATM    5  C   UNL     1      -9.445  10.337  63.285  1.00  0.00    -0.342 C  
BRANCH   5   6
HETATM    6  C   UNL     1     -10.180  11.670  63.249  1.00  0.00    -0.445 C  
BRANCH   6   7
HETATM    7  C   UNL     1     -11.637  11.491  63.645  1.00  0.00    -0.323 C  
BRANCH   7   8
HETATM    8  C   UNL     1     -12.107  12.657  64.509  1.00  0.00    -0.485 C  
BRANCH   8   9
HETATM    9  C   UNL     1     -11.118  13.805  64.391  1.00  0.00    -0.356 C  
BRANCH   9  10
HETATM   10  C   UNL     1     -11.781  15.156  64.640  1.00  0.00    -0.348 C  
BRANCH  10  11
HETATM   11  C   UNL     1     -10.935  16.047  65.564  1.00  0.00    -0.215 C  
BRANCH  11  12
HETATM   12  C   UNL     1     -10.942  15.512  66.997  1.00  0.00    -0.283 C  
BRANCH  12  13
HETATM   13  N   UNL     1      -9.549  15.357  67.628  1.00  0.00    -0.210 N  
HETATM   14  C   UNL     1      -9.368  13.978  68.252  1.00  0.00    -0.208 C  
HETATM   15  C   UNL     1      -8.462  15.570  66.569  1.00  0.00    -0.248 C  
BRANCH  13  16
HETATM   16  C   UNL     1      -9.347  16.470  68.719  1.00  0.00    -0.247 C  
BRANCH  16  17
HETATM   17  C   UNL     1      -8.924  17.818  68.122  1.00  0.00    -0.271 C  
BRANCH  17  18
HETATM   18  O   UNL     1      -7.930  18.455  68.919  1.00  0.00    -0.282 OA 
BRANCH  18  19
HETATM   19  C   UNL     1      -7.231  19.420  68.228  1.00  0.00    -0.296 A  
HETATM   20  C   UNL     1      -7.542  19.542  66.875  1.00  0.00    -0.267 A  
HETATM   21  C   UNL     1      -6.853  20.461  66.079  1.00  0.00    -0.276 A  
HETATM   22  C   UNL     1      -5.861  21.270  66.634  1.00  0.00    -0.357 A  
HETATM   23  C   UNL     1      -5.573  21.176  67.993  1.00  0.00    -0.385 A  
HETATM   24  C   UNL     1      -6.262  20.261  68.788  1.00  0.00    -0.352 A  
ENDBRANCH  18  19
ENDBRANCH  17  18
ENDBRANCH  16  17
ENDBRANCH  13  16
ENDBRANCH  12  13
ENDBRANCH  11  12
ENDBRANCH  10  11
ENDBRANCH   9  10
ENDBRANCH   8   9
ENDBRANCH   7   8
ENDBRANCH   6   7
ENDBRANCH   5   6
ENDBRANCH   4   5
ENDBRANCH   3   4
ENDBRANCH   2   3
TORSDOF 15
ENDMDL
MODEL      224
REMARK 921   NORMALIZED FREE ENERGY PREDICTED BY IDOCK:   -3.66 KCAL/MOL
REMARK 922        TOTAL FREE ENERGY PREDICTED BY IDOCK:   -8.00 KCAL/MOL
REMARK 923 INTER-LIGAND FREE ENERGY PREDICTED BY IDOCK:   -7.14 KCAL/MOL
REMARK 924 INTRA-LIGAND FREE ENERGY PREDICTED BY IDOCK:   -0.86 KCAL/MOL
REMARK 927      BINDING AFFINITY PREDICTED BY RF-SCORE:    0.00 PKD
ROOT
HETATM    1  C   UNL     1      -5.498  20.991  68.080  1.00  0.00    -0.366 C  
HETATM    2  C   UNL     1      -6.376  20.247  67.090  1.00  0.00    -0.239 C  
ENDROOT
BRANCH   2   3
HETATM    3  C   UNL     1      -7.810  20.143  67.597  1.00  0.00    -0.335 C  
BRANCH   3   4
HETATM    4  C   UNL     1      -8.150  18.705  67.971  1.00  0.00    -0.296 C  
BRANCH   4   5
HETATM    5  C   UNL     1      -9.644  18.546  68.226  1.00  0.00    -0.370 C  
BRANCH   5   6
HETATM    6  C   UNL     1     -10.431  18.838  66.955  1.00  0.00    -0.472 C  
BRANCH   6   7
HETATM    7  C   UNL     1     -10.287  17.696  65.961  1.00  0.00    -0.305 C  
BRANCH   7   8
HETATM    8  C   UNL     1     -10.542  16.355  66.641  1.00  0.00    -0.239 C  
BRANCH   8   9
HETATM    9  C   UNL     1     -10.391  15.235  65.624  1.00  0.00    -0.389 C  
BRANCH   9  10
HETATM   10  C   UNL     1     -11.742  14.683  65.181  1.00  0.00    -0.364 C  
BRANCH  10  11
HETATM   11  C   UNL     1     -12.022  13.299  65.793  1.00  0.00    -0.463 C  
BRANCH  11  12
HETATM   12  C   UNL     1     -12.034  13.369  67.320  1.00  0.00    -0.347 C  
BRANCH  12  13
HETATM   13  N   UNL     1     -11.247  12.248  68.018  1.00  0.00    -0.249 N  
HETATM   14  C   UNL     1      -9.830  12.691  68.363  1.00  0.00    -0.200 C  
HETATM   15  C   UNL     1     -11.961  11.822  69.304  1.00  0.00    -0.291 C  
BRANCH  13  16
HETATM   16  C   UNL     1     -11.201  10.986  67.082  1.00  0.00    -0.217 C  
BRANCH  16  17
HETATM   17  C   UNL     1     -10.000  10.077  67.369  1.00  0.00    -0.197 C  
BRANCH  17  18
HETATM   18  O   UNL     1     -10.259   8.730  66.981  1.00  0.00    -0.234 OA 
BRANCH  18  19
HETATM   19  C   UNL     1     -10.349   7.875  68.056  1.00  0.00    -0.209 A  
HETATM   20  C   UNL     1      -9.842   8.358  69.261  1.00  0.00    -0.186 A  
HETATM   21  C   UNL     1      -9.844   7.546  70.398  1.00  0.00    -0.183 A  
HETATM   22  C   UNL     1     -10.365   6.253  70.338  1.00  0.00    -0.260 A  
HETATM   23  C   UNL     1     -10.905   5.779  69.146  1.00  0.00    -0.355 A  
HETATM   24  C   UNL     1     -10.905   6.590  68.012  1.00  0.00    -0.372 A  
ENDBRANCH  18  19
ENDBRANCH  17  18
ENDBRANCH  16  17
ENDBRANCH  13  16
ENDBRANCH  12  13
ENDBRANCH  11  12
ENDBRANCH  10  11
ENDBRANCH   9  10
ENDBRANCH   8   9
ENDBRANCH   7   8
ENDBRANCH   6   7
ENDBRANCH   5   6
ENDBRANCH   4   5
ENDBRANCH   3   4
ENDBRANCH   2   3
TORSDOF 15
ENDMDL
MODEL      225
REMARK 921   NORMALIZED FREE ENERGY PREDICTED BY IDOCK:   -3.65 KCAL/MOL
REMARK 922        TOTAL FREE ENERGY PREDICTED BY IDOCK:   -7.96 KCAL/MOL
REMARK 923 INTER-LIGAND FREE ENERGY PREDICTED BY IDOCK:   -6.70 KCAL/MOL
REMARK 924 INTRA-LIGAND FREE ENERGY PREDICTED BY IDOCK:   -1.26 KCAL/MOL
REMARK 927      BINDING AFFINITY PREDICTED BY RF-SCORE:    0.00 PKD
ROOT
HETATM    1  C   UNL     1     -12.069   9.344  71.583  1.00  0.00    -0.462 C  
HETATM    2  C   UNL     1     -10.626   9.418  71.116  1.00  0.00    -0.403 C  
ENDROOT
BRANCH   2   3
HETATM    3  C   UNL     1     -10.531   9.272  69.601  1.00  0.00    -0.234 C  
BRANCH   3   4
HETATM    4  C   UNL     1     -11.261  10.411  68.899  1.00  0.00    -0.290 C  
BRANCH   4   5
HETATM    5  C   UNL     1     -10.313  11.566  68.603  1.00  0.00    -0.226 C  
BRANCH   5   6
HETATM    6  C   UNL     1      -9.213  11.116  67.649  1.00  0.00    -0.151 C  
BRANCH   6   7
HETATM    7  C   UNL     1      -9.786  10.816  66.273  1.00  0.00    -0.248 C  
BRANCH   7   8
HETATM    8  C   UNL     1      -9.683  12.040  65.369  1.00  0.00    -0.203 C  
BRANCH   8   9
HETATM    9  C   UNL     1     -10.952  12.166  64.541  1.00  0.00    -0.361 C  
BRANCH   9  10
HETATM   10  C   UNL     1     -11.827  13.322  65.014  1.00  0.00    -0.384 C  
BRANCH  10  11
HETATM   11  C   UNL     1     -10.998  14.584  65.308  1.00  0.00    -0.366 C  
BRANCH  11  12
HETATM   12  C   UNL     1     -11.024  14.919  66.800  1.00  0.00    -0.326 C  
BRANCH  12  13
HETATM   13  N   UNL     1      -9.887  15.842  67.268  1.00  0.00    -0.228 N  
HETATM   14  C   UNL     1      -9.523  15.585  68.726  1.00  0.00    -0.210 C  
HETATM   15  C   UNL     1      -8.643  15.629  66.400  1.00  0.00    -0.284 C  
BRANCH  13  16
HETATM   16  C   UNL     1     -10.324  17.340  67.079  1.00  0.00    -0.318 C  
BRANCH  16  17
HETATM   17  C   UNL     1      -9.750  18.266  68.158  1.00  0.00    -0.327 C  
BRANCH  17  18
HETATM   18  O   UNL     1      -8.536  18.877  67.731  1.00  0.00    -0.276 OA 
BRANCH  18  19
HETATM   19  C   UNL     1      -7.548  18.825  68.689  1.00  0.00    -0.326 A  
HETATM   20  C   UNL     1      -7.303  20.013  69.374  1.00  0.00    -0.065 A  
HETATM   21  C   UNL     1      -6.287  20.073  70.332  1.00  0.00    -0.323 A  
HETATM   22  C   UNL     1      -5.522  18.942  70.617  1.00  0.00    -0.228 A  
HETATM   23  C   UNL     1      -5.786  17.743  69.960  1.00  0.00    -0.221 A  
HETATM   24  C   UNL     1      -6.801  17.683  69.007  1.00  0.00    -0.240 A  
ENDBRANCH  18  19
ENDBRANCH  17  18
ENDBRANCH  16  17
ENDBRANCH  13  16
ENDBRANCH  12  13
ENDBRANCH  11  12
ENDBRANCH  10  11
ENDBRANCH   9  10
ENDBRANCH   8   9
ENDBRANCH   7   8
ENDBRANCH   6   7
ENDBRANCH   5   6
ENDBRANCH   4   5
ENDBRANCH   3   4
ENDBRANCH   2   3
TORSDOF 15
ENDMDL
MODEL      226
REMARK 921   NORMALIZED FREE ENERGY PREDICTED BY IDOCK:   -3.64 KCAL/MOL
REMARK 922        TOTAL FREE ENERGY PREDICTED BY IDOCK:   -7.95 KCAL/MOL
REMARK 923 INTER-LIGAND FREE ENERGY PREDICTED BY IDOCK:   -5.77 KCAL/MOL
REMARK 924 INTRA-LIGAND FREE ENERGY PREDICTED BY IDOCK:   -2.18 KCAL/MOL
REMARK 927      BINDING AFFINITY PREDICTED BY RF-SCORE:    0.00 PKD
ROOT
HETATM    1  C   UNL     1      -9.010  18.416  67.247  1.00  0.00    -0.265 C  
HETATM    2  C   UNL     1      -7.831  17.590  67.729  1.00  0.00    -0.209 C  
ENDROOT
BRANCH   2   3
HETATM    3  C   UNL     1      -8.281  16.509  68.706  1.00  0.00    -0.248 C  
BRANCH   3   4
HETATM    4  C   UNL     1      -7.083  15.874  69.403  1.00  0.00    -0.215 C  
BRANCH   4   5
HETATM    5  C   UNL     1      -7.215  14.356  69.441  1.00  0.00    -0.086 C  
BRANCH   5   6
HETATM    6  C   UNL     1      -8.214  13.887  68.391  1.00  0.00    -0.153 C  
BRANCH   6   7
HETATM    7  C   UNL     1      -7.716  12.625  67.703  1.00  0.00    -0.155 C  
BRANCH   7   8
HETATM    8  C   UNL     1      -7.260  11.596  68.732  1.00  0.00    -0.116 C  
BRANCH   8   9
HETATM    9  C   UNL     1      -6.232  10.671  68.100  1.00  0.00    -0.057 C  
BRANCH   9  10
HETATM   10  C   UNL     1      -6.395   9.231  68.576  1.00  0.00    -0.053 C  
BRANCH  10  11
HETATM   11  C   UNL     1      -7.833   8.941  69.040  1.00  0.00    -0.091 C  
BRANCH  11  12
HETATM   12  C   UNL     1      -8.444   7.789  68.241  1.00  0.00    -0.124 C  
BRANCH  12  13
HETATM   13  N   UNL     1      -9.680   8.172  67.411  1.00  0.00    -0.159 N  
HETATM   14  C   UNL     1      -9.293   8.626  66.008  1.00  0.00    -0.218 C  
HETATM   15  C   UNL     1     -10.633   6.977  67.301  1.00  0.00    -0.325 C  
BRANCH  13  16
HETATM   16  C   UNL     1     -10.466   9.316  68.149  1.00  0.00    -0.215 C  
BRANCH  16  17
HETATM   17  C   UNL     1     -10.778  10.507  67.234  1.00  0.00    -0.277 C  
BRANCH  17  18
HETATM   18  O   UNL     1     -12.003  11.138  67.597  1.00  0.00    -0.613 OA 
BRANCH  18  19
HETATM   19  C   UNL     1     -11.859  12.489  67.823  1.00  0.00    -0.313 A  
HETATM   20  C   UNL     1     -11.787  13.290  66.685  1.00  0.00    -0.447 A  
HETATM   21  C   UNL     1     -11.592  14.668  66.809  1.00  0.00    -0.370 A  
HETATM   22  C   UNL     1     -11.483  15.252  68.072  1.00  0.00    -0.351 A  
HETATM   23  C   UNL     1     -11.591  14.460  69.212  1.00  0.00    -0.345 A  
HETATM   24  C   UNL     1     -11.787  13.086  69.088  1.00  0.00    -0.360 A  
ENDBRANCH  18  19
ENDBRANCH  17  18
ENDBRANCH  16  17
ENDBRANCH  13  16
ENDBRANCH  12  13
ENDBRANCH  11  12
ENDBRANCH  10  11
ENDBRANCH   9  10
ENDBRANCH   8   9
ENDBRANCH   7   8
ENDBRANCH   6   7
ENDBRANCH   5   6
ENDBRANCH   4   5
ENDBRANCH   3   4
ENDBRANCH   2   3
TORSDOF 15
ENDMDL
MODEL      227
REMARK 921   NORMALIZED FREE ENERGY PREDICTED BY IDOCK:   -3.63 KCAL/MOL
REMARK 922        TOTAL FREE ENERGY PREDICTED BY IDOCK:   -7.94 KCAL/MOL
REMARK 923 INTER-LIGAND FREE ENERGY PREDICTED BY IDOCK:   -6.76 KCAL/MOL
REMARK 924 INTRA-LIGAND FREE ENERGY PREDICTED BY IDOCK:   -1.18 KCAL/MOL
REMARK 927      BINDING AFFINITY PREDICTED BY RF-SCORE:    0.00 PKD
ROOT
HETATM    1  C   UNL     1     -13.767  15.171  72.339  1.00  0.00    -0.600 C  
HETATM    2  C   UNL     1     -13.358  13.709  72.365  1.00  0.00    -0.641 C  
ENDROOT
BRANCH   2   3
HETATM    3  C   UNL     1     -12.602  13.327  71.097  1.00  0.00    -0.412 C  
BRANCH   3   4
HETATM    4  C   UNL     1     -11.901  14.541  70.497  1.00  0.00    -0.372 C  
BRANCH   4   5
HETATM    5  C   UNL     1     -12.148  14.626  68.996  1.00  0.00    -0.270 C  
BRANCH   5   6
HETATM    6  C   UNL     1     -10.839  14.459  68.236  1.00  0.00    -0.250 C  
BRANCH   6   7
HETATM    7  C   UNL     1     -10.413  13.000  68.214  1.00  0.00    -0.258 C  
BRANCH   7   8
HETATM    8  C   UNL     1     -11.557  12.113  67.732  1.00  0.00    -0.410 C  
BRANCH   8   9
HETATM    9  C   UNL     1     -11.535  12.040  66.214  1.00  0.00    -0.408 C  
BRANCH   9  10
HETATM   10  C   UNL     1     -10.191  11.548  65.687  1.00  0.00    -0.292 C  
BRANCH  10  11
HETATM   11  C   UNL     1      -9.991  10.045  65.944  1.00  0.00    -0.339 C  
BRANCH  11  12
HETATM   12  C   UNL     1      -8.856   9.807  66.941  1.00  0.00    -0.138 C  
BRANCH  12  13
HETATM   13  N   UNL     1      -8.302   8.373  66.949  1.00  0.00    -0.106 N  
HETATM   14  C   UNL     1      -9.163   7.436  66.110  1.00  0.00    -0.099 C  
HETATM   15  C   UNL     1      -6.871   8.356  66.403  1.00  0.00    -0.070 C  
BRANCH  13  16
HETATM   16  C   UNL     1      -8.231   7.853  68.431  1.00  0.00    -0.124 C  
BRANCH  16  17
HETATM   17  C   UNL     1      -9.527   8.104  69.211  1.00  0.00    -0.159 C  
BRANCH  17  18
HETATM   18  O   UNL     1      -9.268   8.340  70.593  1.00  0.00    -0.147 OA 
BRANCH  18  19
HETATM   19  C   UNL     1      -9.841   7.392  71.411  1.00  0.00    -0.185 A  
HETATM   20  C   UNL     1     -10.163   7.816  72.699  1.00  0.00    -0.340 A  
HETATM   21  C   UNL     1     -10.704   6.914  73.618  1.00  0.00    -0.304 A  
HETATM   22  C   UNL     1     -10.939   5.589  73.250  1.00  0.00    -0.339 A  
HETATM   23  C   UNL     1     -10.651   5.170  71.954  1.00  0.00    -0.256 A  
HETATM   24  C   UNL     1     -10.114   6.070  71.036  1.00  0.00    -0.241 A  
ENDBRANCH  18  19
ENDBRANCH  17  18
ENDBRANCH  16  17
ENDBRANCH  13  16
ENDBRANCH  12  13
ENDBRANCH  11  12
ENDBRANCH  10  11
ENDBRANCH   9  10
ENDBRANCH   8   9
ENDBRANCH   7   8
ENDBRANCH   6   7
ENDBRANCH   5   6
ENDBRANCH   4   5
ENDBRANCH   3   4
ENDBRANCH   2   3
TORSDOF 15
ENDMDL
MODEL      228
REMARK 921   NORMALIZED FREE ENERGY PREDICTED BY IDOCK:   -3.63 KCAL/MOL
REMARK 922        TOTAL FREE ENERGY PREDICTED BY IDOCK:   -7.93 KCAL/MOL
REMARK 923 INTER-LIGAND FREE ENERGY PREDICTED BY IDOCK:   -5.53 KCAL/MOL
REMARK 924 INTRA-LIGAND FREE ENERGY PREDICTED BY IDOCK:   -2.41 KCAL/MOL
REMARK 927      BINDING AFFINITY PREDICTED BY RF-SCORE:    0.00 PKD
ROOT
HETATM    1  C   UNL     1     -12.758  11.259  71.120  1.00  0.00    -0.492 C  
HETATM    2  C   UNL     1     -13.407   9.887  71.148  1.00  0.00    -0.371 C  
ENDROOT
BRANCH   2   3
HETATM    3  C   UNL     1     -12.878   9.052  72.310  1.00  0.00    -0.474 C  
BRANCH   3   4
HETATM    4  C   UNL     1     -11.393   8.755  72.131  1.00  0.00    -0.411 C  
BRANCH   4   5
HETATM    5  C   UNL     1     -11.004   7.470  72.852  1.00  0.00    -0.434 C  
BRANCH   5   6
HETATM    6  C   UNL     1     -11.569   6.261  72.117  1.00  0.00    -0.367 C  
BRANCH   6   7
HETATM    7  C   UNL     1     -10.516   5.173  71.984  1.00  0.00    -0.278 C  
BRANCH   7   8
HETATM    8  C   UNL     1      -9.699   5.368  70.711  1.00  0.00    -0.239 C  
BRANCH   8   9
HETATM    9  C   UNL     1     -10.639   5.581  69.535  1.00  0.00    -0.366 C  
BRANCH   9  10
HETATM   10  C   UNL     1     -10.065   5.016  68.239  1.00  0.00    -0.170 C  
BRANCH  10  11
HETATM   11  C   UNL     1     -10.562   5.792  67.007  1.00  0.00    -0.373 C  
BRANCH  11  12
HETATM   12  C   UNL     1     -10.766   7.270  67.339  1.00  0.00    -0.288 C  
BRANCH  12  13
HETATM   13  N   UNL     1      -9.590   8.181  66.952  1.00  0.00    -0.190 N  
HETATM   14  C   UNL     1      -8.688   7.521  65.916  1.00  0.00    -0.147 C  
HETATM   15  C   UNL     1     -10.112   9.505  66.385  1.00  0.00    -0.258 C  
BRANCH  13  16
HETATM   16  C   UNL     1      -8.760   8.532  68.240  1.00  0.00    -0.143 C  
BRANCH  16  17
HETATM   17  C   UNL     1      -7.482   7.695  68.369  1.00  0.00    -0.104 C  
BRANCH  17  18
HETATM   18  O   UNL     1      -6.568   8.275  69.296  1.00  0.00    -0.038 OA 
BRANCH  18  19
HETATM   19  C   UNL     1      -6.674   7.732  70.558  1.00  0.00    -0.038 A  
HETATM   20  C   UNL     1      -6.129   6.460  70.718  1.00  0.00    -0.031 A  
HETATM   21  C   UNL     1      -6.229   5.805  71.949  1.00  0.00    -0.044 A  
HETATM   22  C   UNL     1      -6.861   6.426  73.026  1.00  0.00    -0.074 A  
HETATM   23  C   UNL     1      -7.375   7.712  72.881  1.00  0.00    -0.097 A  
HETATM   24  C   UNL     1      -7.273   8.365  71.654  1.00  0.00    -0.099 A  
ENDBRANCH  18  19
ENDBRANCH  17  18
ENDBRANCH  16  17
ENDBRANCH  13  16
ENDBRANCH  12  13
ENDBRANCH  11  12
ENDBRANCH  10  11
ENDBRANCH   9  10
ENDBRANCH   8   9
ENDBRANCH   7   8
ENDBRANCH   6   7
ENDBRANCH   5   6
ENDBRANCH   4   5
ENDBRANCH   3   4
ENDBRANCH   2   3
TORSDOF 15
ENDMDL
MODEL      229
REMARK 921   NORMALIZED FREE ENERGY PREDICTED BY IDOCK:   -3.63 KCAL/MOL
REMARK 922        TOTAL FREE ENERGY PREDICTED BY IDOCK:   -7.93 KCAL/MOL
REMARK 923 INTER-LIGAND FREE ENERGY PREDICTED BY IDOCK:   -6.73 KCAL/MOL
REMARK 924 INTRA-LIGAND FREE ENERGY PREDICTED BY IDOCK:   -1.20 KCAL/MOL
REMARK 927      BINDING AFFINITY PREDICTED BY RF-SCORE:    0.00 PKD
ROOT
HETATM    1  C   UNL     1     -11.295  10.313  68.258  1.00  0.00    -0.245 C  
HETATM    2  C   UNL     1     -11.790  11.120  69.445  1.00  0.00    -0.415 C  
ENDROOT
BRANCH   2   3
HETATM    3  C   UNL     1     -11.658  10.328  70.741  1.00  0.00    -0.446 C  
BRANCH   3   4
HETATM    4  C   UNL     1     -12.611  10.863  71.803  1.00  0.00    -0.345 C  
BRANCH   4   5
HETATM    5  C   UNL     1     -13.272  12.156  71.342  1.00  0.00    -0.168 C  
BRANCH   5   6
HETATM    6  C   UNL     1     -13.191  13.211  72.437  1.00  0.00    -0.519 C  
BRANCH   6   7
HETATM    7  C   UNL     1     -14.079  14.399  72.105  1.00  0.00    -0.627 C  
BRANCH   7   8
HETATM    8  C   UNL     1     -13.266  15.512  71.452  1.00  0.00    -0.587 C  
BRANCH   8   9
HETATM    9  C   UNL     1     -12.507  14.952  70.260  1.00  0.00    -0.386 C  
BRANCH   9  10
HETATM   10  C   UNL     1     -11.064  15.443  70.222  1.00  0.00    -0.331 C  
BRANCH  10  11
HETATM   11  C   UNL     1     -10.843  16.484  69.110  1.00  0.00    -0.334 C  
BRANCH  11  12
HETATM   12  C   UNL     1      -9.366  16.562  68.720  1.00  0.00    -0.247 C  
BRANCH  12  13
HETATM   13  N   UNL     1      -9.106  17.110  67.308  1.00  0.00    -0.219 N  
HETATM   14  C   UNL     1     -10.301  17.897  66.784  1.00  0.00    -0.355 C  
HETATM   15  C   UNL     1      -7.875  18.021  67.314  1.00  0.00    -0.214 C  
BRANCH  13  16
HETATM   16  C   UNL     1      -8.784  15.914  66.339  1.00  0.00    -0.327 C  
BRANCH  16  17
HETATM   17  C   UNL     1      -8.543  14.595  67.083  1.00  0.00    -0.223 C  
BRANCH  17  18
HETATM   18  O   UNL     1      -7.152  14.347  67.271  1.00  0.00    -0.163 OA 
BRANCH  18  19
HETATM   19  C   UNL     1      -6.910  13.222  68.028  1.00  0.00    -0.122 A  
HETATM   20  C   UNL     1      -5.604  13.070  68.488  1.00  0.00    -0.069 A  
HETATM   21  C   UNL     1      -5.248  11.936  69.224  1.00  0.00    -0.052 A  
HETATM   22  C   UNL     1      -6.200  10.959  69.514  1.00  0.00    -0.073 A  
HETATM   23  C   UNL     1      -7.515  11.124  69.087  1.00  0.00    -0.109 A  
HETATM   24  C   UNL     1      -7.870  12.256  68.354  1.00  0.00    -0.151 A  
ENDBRANCH  18  19
ENDBRANCH  17  18
ENDBRANCH  16  17
ENDBRANCH  13  16
ENDBRANCH  12  13
ENDBRANCH  11  12
ENDBRANCH  10  11
ENDBRANCH   9  10
ENDBRANCH   8   9
ENDBRANCH   7   8
ENDBRANCH   6   7
ENDBRANCH   5   6
ENDBRANCH   4   5
ENDBRANCH   3   4
ENDBRANCH   2   3
TORSDOF 15
ENDMDL
MODEL      230
REMARK 921   NORMALIZED FREE ENERGY PREDICTED BY IDOCK:   -3.62 KCAL/MOL
REMARK 922        TOTAL FREE ENERGY PREDICTED BY IDOCK:   -7.92 KCAL/MOL
REMARK 923 INTER-LIGAND FREE ENERGY PREDICTED BY IDOCK:   -6.82 KCAL/MOL
REMARK 924 INTRA-LIGAND FREE ENERGY PREDICTED BY IDOCK:   -1.10 KCAL/MOL
REMARK 927      BINDING AFFINITY PREDICTED BY RF-SCORE:    0.00 PKD
ROOT
HETATM    1  C   UNL     1     -10.735   5.578  70.465  1.00  0.00    -0.310 C  
HETATM    2  C   UNL     1      -9.363   5.505  69.818  1.00  0.00    -0.181 C  
ENDROOT
BRANCH   2   3
HETATM    3  C   UNL     1      -9.475   5.463  68.297  1.00  0.00    -0.146 C  
BRANCH   3   4
HETATM    4  C   UNL     1     -10.835   5.975  67.839  1.00  0.00    -0.378 C  
BRANCH   4   5
HETATM    5  C   UNL     1     -10.706   7.329  67.152  1.00  0.00    -0.413 C  
BRANCH   5   6
HETATM    6  C   UNL     1      -9.315   7.485  66.550  1.00  0.00    -0.231 C  
BRANCH   6   7
HETATM    7  C   UNL     1      -8.724   8.839  66.907  1.00  0.00    -0.136 C  
BRANCH   7   8
HETATM    8  C   UNL     1      -9.455   9.447  68.100  1.00  0.00    -0.146 C  
BRANCH   8   9
HETATM    9  C   UNL     1      -8.668  10.639  68.622  1.00  0.00    -0.148 C  
BRANCH   9  10
HETATM   10  C   UNL     1      -8.850  11.871  67.742  1.00  0.00    -0.166 C  
BRANCH  10  11
HETATM   11  C   UNL     1      -9.981  12.779  68.256  1.00  0.00    -0.230 C  
BRANCH  11  12
HETATM   12  C   UNL     1      -9.653  14.252  68.010  1.00  0.00    -0.223 C  
BRANCH  12  13
HETATM   13  N   UNL     1     -10.809  15.074  67.415  1.00  0.00    -0.298 N  
HETATM   14  C   UNL     1     -11.920  14.174  66.886  1.00  0.00    -0.449 C  
HETATM   15  C   UNL     1     -11.392  16.011  68.477  1.00  0.00    -0.382 C  
BRANCH  13  16
HETATM   16  C   UNL     1     -10.257  15.983  66.258  1.00  0.00    -0.316 C  
BRANCH  16  17
HETATM   17  C   UNL     1     -10.115  17.452  66.673  1.00  0.00    -0.317 C  
BRANCH  17  18
HETATM   18  O   UNL     1      -9.052  18.093  65.973  1.00  0.00    -0.513 OA 
BRANCH  18  19
HETATM   19  C   UNL     1      -8.257  18.858  66.797  1.00  0.00    -0.279 A  
HETATM   20  C   UNL     1      -7.717  18.200  67.900  1.00  0.00    -0.237 A  
HETATM   21  C   UNL     1      -6.935  18.902  68.822  1.00  0.00    -0.332 A  
HETATM   22  C   UNL     1      -6.680  20.261  68.636  1.00  0.00    -0.294 A  
HETATM   23  C   UNL     1      -7.188  20.914  67.516  1.00  0.00    -0.364 A  
HETATM   24  C   UNL     1      -7.965  20.213  66.596  1.00  0.00    -0.335 A  
ENDBRANCH  18  19
ENDBRANCH  17  18
ENDBRANCH  16  17
ENDBRANCH  13  16
ENDBRANCH  12  13
ENDBRANCH  11  12
ENDBRANCH  10  11
ENDBRANCH   9  10
ENDBRANCH   8   9
ENDBRANCH   7   8
ENDBRANCH   6   7
ENDBRANCH   5   6
ENDBRANCH   4   5
ENDBRANCH   3   4
ENDBRANCH   2   3
TORSDOF 15
ENDMDL
MODEL      231
REMARK 921   NORMALIZED FREE ENERGY PREDICTED BY IDOCK:   -3.62 KCAL/MOL
REMARK 922        TOTAL FREE ENERGY PREDICTED BY IDOCK:   -7.91 KCAL/MOL
REMARK 923 INTER-LIGAND FREE ENERGY PREDICTED BY IDOCK:   -6.46 KCAL/MOL
REMARK 924 INTRA-LIGAND FREE ENERGY PREDICTED BY IDOCK:   -1.45 KCAL/MOL
REMARK 927      BINDING AFFINITY PREDICTED BY RF-SCORE:    0.00 PKD
ROOT
HETATM    1  C   UNL     1      -9.171   4.161  62.420  1.00  0.00    -0.116 C  
HETATM    2  C   UNL     1      -8.714   3.528  63.722  1.00  0.00    -0.094 C  
ENDROOT
BRANCH   2   3
HETATM    3  C   UNL     1      -9.500   4.080  64.906  1.00  0.00    -0.171 C  
BRANCH   3   4
HETATM    4  C   UNL     1      -8.765   3.816  66.216  1.00  0.00    -0.118 C  
BRANCH   4   5
HETATM    5  C   UNL     1      -9.650   4.141  67.413  1.00  0.00    -0.222 C  
BRANCH   5   6
HETATM    6  C   UNL     1      -9.500   5.608  67.797  1.00  0.00    -0.121 C  
BRANCH   6   7
HETATM    7  C   UNL     1     -10.788   6.368  67.527  1.00  0.00    -0.438 C  
BRANCH   7   8
HETATM    8  C   UNL     1     -10.488   7.787  67.058  1.00  0.00    -0.419 C  
BRANCH   8   9
HETATM    9  C   UNL     1      -9.048   8.138  67.398  1.00  0.00    -0.148 C  
BRANCH   9  10
HETATM   10  C   UNL     1      -8.964   9.211  68.479  1.00  0.00    -0.133 C  
BRANCH  10  11
HETATM   11  C   UNL     1      -8.312   8.677  69.765  1.00  0.00    -0.123 C  
BRANCH  11  12
HETATM   12  C   UNL     1      -9.194   8.958  70.983  1.00  0.00    -0.245 C  
BRANCH  12  13
HETATM   13  N   UNL     1      -9.776   7.704  71.654  1.00  0.00    -0.160 N  
HETATM   14  C   UNL     1      -9.048   6.442  71.209  1.00  0.00    -0.148 C  
HETATM   15  C   UNL     1      -9.674   7.826  73.178  1.00  0.00    -0.285 C  
BRANCH  13  16
HETATM   16  C   UNL     1     -11.305   7.592  71.307  1.00  0.00    -0.264 C  
BRANCH  16  17
HETATM   17  C   UNL     1     -12.153   8.663  72.004  1.00  0.00    -0.375 C  
BRANCH  17  18
HETATM   18  O   UNL     1     -13.010   9.332  71.084  1.00  0.00    -0.291 OA 
BRANCH  18  19
HETATM   19  C   UNL     1     -12.743  10.680  70.992  1.00  0.00    -0.415 A  
HETATM   20  C   UNL     1     -13.285  11.477  71.999  1.00  0.00    -0.443 A  
HETATM   21  C   UNL     1     -13.110  12.863  71.967  1.00  0.00    -0.483 A  
HETATM   22  C   UNL     1     -12.381  13.456  70.935  1.00  0.00    -0.436 A  
HETATM   23  C   UNL     1     -11.808  12.661  69.946  1.00  0.00    -0.364 A  
HETATM   24  C   UNL     1     -11.981  11.278  69.980  1.00  0.00    -0.447 A  
ENDBRANCH  18  19
ENDBRANCH  17  18
ENDBRANCH  16  17
ENDBRANCH  13  16
ENDBRANCH  12  13
ENDBRANCH  11  12
ENDBRANCH  10  11
ENDBRANCH   9  10
ENDBRANCH   8   9
ENDBRANCH   7   8
ENDBRANCH   6   7
ENDBRANCH   5   6
ENDBRANCH   4   5
ENDBRANCH   3   4
ENDBRANCH   2   3
TORSDOF 15
ENDMDL
MODEL      232
REMARK 921   NORMALIZED FREE ENERGY PREDICTED BY IDOCK:   -3.61 KCAL/MOL
REMARK 922        TOTAL FREE ENERGY PREDICTED BY IDOCK:   -7.90 KCAL/MOL
REMARK 923 INTER-LIGAND FREE ENERGY PREDICTED BY IDOCK:   -6.60 KCAL/MOL
REMARK 924 INTRA-LIGAND FREE ENERGY PREDICTED BY IDOCK:   -1.30 KCAL/MOL
REMARK 927      BINDING AFFINITY PREDICTED BY RF-SCORE:    0.00 PKD
ROOT
HETATM    1  C   UNL     1      -9.821  20.242  66.804  1.00  0.00    -0.586 C  
HETATM    2  C   UNL     1     -10.755  19.313  66.050  1.00  0.00    -0.477 C  
ENDROOT
BRANCH   2   3
HETATM    3  C   UNL     1     -10.276  17.867  66.133  1.00  0.00    -0.343 C  
BRANCH   3   4
HETATM    4  C   UNL     1      -8.775  17.808  66.393  1.00  0.00    -0.255 C  
BRANCH   4   5
HETATM    5  C   UNL     1      -8.466  16.950  67.614  1.00  0.00    -0.206 C  
BRANCH   5   6
HETATM    6  C   UNL     1      -9.747  16.334  68.164  1.00  0.00    -0.227 C  
BRANCH   6   7
HETATM    7  C   UNL     1      -9.620  14.821  68.251  1.00  0.00    -0.215 C  
BRANCH   7   8
HETATM    8  C   UNL     1      -9.935  14.177  66.905  1.00  0.00    -0.261 C  
BRANCH   8   9
HETATM    9  C   UNL     1     -11.442  14.077  66.732  1.00  0.00    -0.379 C  
BRANCH   9  10
HETATM   10  C   UNL     1     -11.871  12.687  66.275  1.00  0.00    -0.471 C  
BRANCH  10  11
HETATM   11  C   UNL     1     -11.672  11.635  67.379  1.00  0.00    -0.278 C  
BRANCH  11  12
HETATM   12  C   UNL     1     -10.611  10.611  66.973  1.00  0.00    -0.262 C  
BRANCH  12  13
HETATM   13  N   UNL     1      -9.687  10.160  68.116  1.00  0.00    -0.139 N  
HETATM   14  C   UNL     1      -8.409  10.989  68.163  1.00  0.00    -0.130 C  
HETATM   15  C   UNL     1     -10.410  10.285  69.460  1.00  0.00    -0.242 C  
BRANCH  13  16
HETATM   16  C   UNL     1      -9.333   8.640  67.928  1.00  0.00    -0.142 C  
BRANCH  16  17
HETATM   17  C   UNL     1     -10.451   7.851  67.236  1.00  0.00    -0.320 C  
BRANCH  17  18
HETATM   18  O   UNL     1     -11.106   6.967  68.142  1.00  0.00    -0.133 OA 
BRANCH  18  19
HETATM   19  C   UNL     1     -10.506   5.729  68.204  1.00  0.00    -0.217 A  
HETATM   20  C   UNL     1     -10.295   5.220  69.484  1.00  0.00    -0.333 A  
HETATM   21  C   UNL     1      -9.649   3.992  69.652  1.00  0.00    -0.270 A  
HETATM   22  C   UNL     1      -9.225   3.262  68.541  1.00  0.00    -0.233 A  
HETATM   23  C   UNL     1      -9.465   3.750  67.259  1.00  0.00    -0.238 A  
HETATM   24  C   UNL     1     -10.111   4.974  67.092  1.00  0.00    -0.239 A  
ENDBRANCH  18  19
ENDBRANCH  17  18
ENDBRANCH  16  17
ENDBRANCH  13  16
ENDBRANCH  12  13
ENDBRANCH  11  12
ENDBRANCH  10  11
ENDBRANCH   9  10
ENDBRANCH   8   9
ENDBRANCH   7   8
ENDBRANCH   6   7
ENDBRANCH   5   6
ENDBRANCH   4   5
ENDBRANCH   3   4
ENDBRANCH   2   3
TORSDOF 15
ENDMDL
MODEL      233
REMARK 921   NORMALIZED FREE ENERGY PREDICTED BY IDOCK:   -3.60 KCAL/MOL
REMARK 922        TOTAL FREE ENERGY PREDICTED BY IDOCK:   -7.88 KCAL/MOL
REMARK 923 INTER-LIGAND FREE ENERGY PREDICTED BY IDOCK:   -6.33 KCAL/MOL
REMARK 924 INTRA-LIGAND FREE ENERGY PREDICTED BY IDOCK:   -1.55 KCAL/MOL
REMARK 927      BINDING AFFINITY PREDICTED BY RF-SCORE:    0.00 PKD
ROOT
HETATM    1  C   UNL     1     -12.289  14.090  66.178  1.00  0.00    -0.491 C  
HETATM    2  C   UNL     1     -11.040  13.411  65.648  1.00  0.00    -0.298 C  
ENDROOT
BRANCH   2   3
HETATM    3  C   UNL     1     -10.995  11.943  66.062  1.00  0.00    -0.355 C  
BRANCH   3   4
HETATM    4  C   UNL     1     -10.404  11.084  64.950  1.00  0.00    -0.378 C  
BRANCH   4   5
HETATM    5  C   UNL     1      -9.848   9.779  65.506  1.00  0.00    -0.378 C  
BRANCH   5   6
HETATM    6  C   UNL     1     -10.527   9.435  66.825  1.00  0.00    -0.265 C  
BRANCH   6   7
HETATM    7  C   UNL     1      -9.511   8.933  67.838  1.00  0.00    -0.160 C  
BRANCH   7   8
HETATM    8  C   UNL     1      -9.618   9.717  69.141  1.00  0.00    -0.192 C  
BRANCH   8   9
HETATM    9  C   UNL     1      -8.255  10.286  69.503  1.00  0.00    -0.165 C  
BRANCH   9  10
HETATM   10  C   UNL     1      -7.259  10.152  68.356  1.00  0.00    -0.076 C  
BRANCH  10  11
HETATM   11  C   UNL     1      -6.709  11.518  67.913  1.00  0.00    -0.065 C  
BRANCH  11  12
HETATM   12  C   UNL     1      -6.895  12.565  69.013  1.00  0.00    -0.089 C  
BRANCH  12  13
HETATM   13  N   UNL     1      -6.907  14.019  68.517  1.00  0.00    -0.095 N  
HETATM   14  C   UNL     1      -5.523  14.467  68.060  1.00  0.00    -0.117 C  
HETATM   15  C   UNL     1      -7.888  14.171  67.350  1.00  0.00    -0.177 C  
BRANCH  13  16
HETATM   16  C   UNL     1      -7.421  14.957  69.669  1.00  0.00    -0.126 C  
BRANCH  16  17
HETATM   17  C   UNL     1      -8.524  15.916  69.207  1.00  0.00    -0.242 C  
BRANCH  17  18
HETATM   18  O   UNL     1      -8.044  17.254  69.105  1.00  0.00    -0.159 OA 
BRANCH  18  19
HETATM   19  C   UNL     1      -8.882  18.065  68.372  1.00  0.00    -0.292 A  
HETATM   20  C   UNL     1      -9.220  17.600  67.103  1.00  0.00    -0.245 A  
HETATM   21  C   UNL     1     -10.025  18.375  66.264  1.00  0.00    -0.378 A  
HETATM   22  C   UNL     1     -10.508  19.610  66.696  1.00  0.00    -0.610 A  
HETATM   23  C   UNL     1     -10.202  20.063  67.977  1.00  0.00    -0.538 A  
HETATM   24  C   UNL     1      -9.400  19.289  68.814  1.00  0.00    -0.437 A  
ENDBRANCH  18  19
ENDBRANCH  17  18
ENDBRANCH  16  17
ENDBRANCH  13  16
ENDBRANCH  12  13
ENDBRANCH  11  12
ENDBRANCH  10  11
ENDBRANCH   9  10
ENDBRANCH   8   9
ENDBRANCH   7   8
ENDBRANCH   6   7
ENDBRANCH   5   6
ENDBRANCH   4   5
ENDBRANCH   3   4
ENDBRANCH   2   3
TORSDOF 15
ENDMDL
MODEL      234
REMARK 921   NORMALIZED FREE ENERGY PREDICTED BY IDOCK:   -3.60 KCAL/MOL
REMARK 922        TOTAL FREE ENERGY PREDICTED BY IDOCK:   -7.88 KCAL/MOL
REMARK 923 INTER-LIGAND FREE ENERGY PREDICTED BY IDOCK:   -6.47 KCAL/MOL
REMARK 924 INTRA-LIGAND FREE ENERGY PREDICTED BY IDOCK:   -1.41 KCAL/MOL
REMARK 927      BINDING AFFINITY PREDICTED BY RF-SCORE:    0.00 PKD
ROOT
HETATM    1  C   UNL     1     -10.845  11.657  63.402  1.00  0.00    -0.453 C  
HETATM    2  C   UNL     1     -12.263  12.195  63.477  1.00  0.00    -0.670 C  
ENDROOT
BRANCH   2   3
HETATM    3  C   UNL     1     -12.563  12.764  64.860  1.00  0.00    -0.541 C  
BRANCH   3   4
HETATM    4  C   UNL     1     -11.928  14.139  65.030  1.00  0.00    -0.412 C  
BRANCH   4   5
HETATM    5  C   UNL     1     -10.765  14.086  66.013  1.00  0.00    -0.294 C  
BRANCH   5   6
HETATM    6  C   UNL     1     -10.824  15.273  66.966  1.00  0.00    -0.321 C  
BRANCH   6   7
HETATM    7  C   UNL     1      -9.984  16.425  66.441  1.00  0.00    -0.318 C  
BRANCH   7   8
HETATM    8  C   UNL     1      -8.535  15.990  66.246  1.00  0.00    -0.337 C  
BRANCH   8   9
HETATM    9  C   UNL     1      -7.856  15.873  67.602  1.00  0.00    -0.164 C  
BRANCH   9  10
HETATM   10  C   UNL     1      -6.968  14.636  67.687  1.00  0.00    -0.205 C  
BRANCH  10  11
HETATM   11  C   UNL     1      -7.745  13.407  68.189  1.00  0.00    -0.143 C  
BRANCH  11  12
HETATM   12  C   UNL     1      -6.803  12.228  68.437  1.00  0.00    -0.075 C  
BRANCH  12  13
HETATM   13  N   UNL     1      -7.162  10.949  67.665  1.00  0.00    -0.090 N  
HETATM   14  C   UNL     1      -6.198  10.703  66.509  1.00  0.00    -0.097 C  
HETATM   15  C   UNL     1      -7.131   9.739  68.604  1.00  0.00    -0.071 C  
BRANCH  13  16
HETATM   16  C   UNL     1      -8.632  11.066  67.120  1.00  0.00    -0.136 C  
BRANCH  16  17
HETATM   17  C   UNL     1      -9.151   9.754  66.521  1.00  0.00    -0.153 C  
BRANCH  17  18
HETATM   18  O   UNL     1     -10.471   9.461  66.968  1.00  0.00    -0.251 OA 
BRANCH  18  19
HETATM   19  C   UNL     1     -10.568   8.223  67.565  1.00  0.00    -0.221 A  
HETATM   20  C   UNL     1     -10.527   8.216  68.958  1.00  0.00    -0.211 A  
HETATM   21  C   UNL     1     -10.570   7.005  69.654  1.00  0.00    -0.253 A  
HETATM   22  C   UNL     1     -10.668   5.798  68.961  1.00  0.00    -0.354 A  
HETATM   23  C   UNL     1     -10.745   5.803  67.571  1.00  0.00    -0.320 A  
HETATM   24  C   UNL     1     -10.705   7.011  66.877  1.00  0.00    -0.376 A  
ENDBRANCH  18  19
ENDBRANCH  17  18
ENDBRANCH  16  17
ENDBRANCH  13  16
ENDBRANCH  12  13
ENDBRANCH  11  12
ENDBRANCH  10  11
ENDBRANCH   9  10
ENDBRANCH   8   9
ENDBRANCH   7   8
ENDBRANCH   6   7
ENDBRANCH   5   6
ENDBRANCH   4   5
ENDBRANCH   3   4
ENDBRANCH   2   3
TORSDOF 15
ENDMDL
MODEL      235
REMARK 921   NORMALIZED FREE ENERGY PREDICTED BY IDOCK:   -3.58 KCAL/MOL
REMARK 922        TOTAL FREE ENERGY PREDICTED BY IDOCK:   -7.84 KCAL/MOL
REMARK 923 INTER-LIGAND FREE ENERGY PREDICTED BY IDOCK:   -6.68 KCAL/MOL
REMARK 924 INTRA-LIGAND FREE ENERGY PREDICTED BY IDOCK:   -1.16 KCAL/MOL
REMARK 927      BINDING AFFINITY PREDICTED BY RF-SCORE:    0.00 PKD
ROOT
HETATM    1  C   UNL     1      -5.954   8.123  64.791  1.00  0.00    -0.045 C  
HETATM    2  C   UNL     1      -5.822   7.543  66.187  1.00  0.00    -0.037 C  
ENDROOT
BRANCH   2   3
HETATM    3  C   UNL     1      -6.806   6.397  66.401  1.00  0.00    -0.061 C  
BRANCH   3   4
HETATM    4  C   UNL     1      -8.161   6.724  65.783  1.00  0.00    -0.123 C  
BRANCH   4   5
HETATM    5  C   UNL     1      -9.276   6.597  66.814  1.00  0.00    -0.168 C  
BRANCH   5   6
HETATM    6  C   UNL     1     -10.179   7.822  66.768  1.00  0.00    -0.346 C  
BRANCH   6   7
HETATM    7  C   UNL     1      -9.377   9.068  66.426  1.00  0.00    -0.264 C  
BRANCH   7   8
HETATM    8  C   UNL     1      -9.910   9.718  65.153  1.00  0.00    -0.294 C  
BRANCH   8   9
HETATM    9  C   UNL     1     -10.676  10.981  65.513  1.00  0.00    -0.218 C  
BRANCH   9  10
HETATM   10  C   UNL     1     -10.427  11.406  66.956  1.00  0.00    -0.271 C  
BRANCH  10  11
HETATM   11  C   UNL     1     -11.692  11.993  67.606  1.00  0.00    -0.365 C  
BRANCH  11  12
HETATM   12  C   UNL     1     -11.339  13.156  68.535  1.00  0.00    -0.286 C  
BRANCH  12  13
HETATM   13  N   UNL     1     -11.210  14.518  67.835  1.00  0.00    -0.282 N  
HETATM   14  C   UNL     1     -12.042  14.572  66.558  1.00  0.00    -0.309 C  
HETATM   15  C   UNL     1     -11.667  15.640  68.773  1.00  0.00    -0.370 C  
BRANCH  13  16
HETATM   16  C   UNL     1      -9.698  14.790  67.502  1.00  0.00    -0.213 C  
BRANCH  16  17
HETATM   17  C   UNL     1      -9.505  15.516  66.166  1.00  0.00    -0.341 C  
BRANCH  17  18
HETATM   18  O   UNL     1      -8.509  16.531  66.261  1.00  0.00    -0.289 OA 
BRANCH  18  19
HETATM   19  C   UNL     1      -9.033  17.759  66.599  1.00  0.00    -0.266 A  
HETATM   20  C   UNL     1      -8.235  18.555  67.419  1.00  0.00    -0.259 A  
HETATM   21  C   UNL     1      -8.699  19.798  67.856  1.00  0.00    -0.370 A  
HETATM   22  C   UNL     1      -9.957  20.257  67.463  1.00  0.00    -0.557 A  
HETATM   23  C   UNL     1     -10.743  19.482  66.615  1.00  0.00    -0.552 A  
HETATM   24  C   UNL     1     -10.278  18.242  66.178  1.00  0.00    -0.393 A  
ENDBRANCH  18  19
ENDBRANCH  17  18
ENDBRANCH  16  17
ENDBRANCH  13  16
ENDBRANCH  12  13
ENDBRANCH  11  12
ENDBRANCH  10  11
ENDBRANCH   9  10
ENDBRANCH   8   9
ENDBRANCH   7   8
ENDBRANCH   6   7
ENDBRANCH   5   6
ENDBRANCH   4   5
ENDBRANCH   3   4
ENDBRANCH   2   3
TORSDOF 15
ENDMDL
MODEL      236
REMARK 921   NORMALIZED FREE ENERGY PREDICTED BY IDOCK:   -3.57 KCAL/MOL
REMARK 922        TOTAL FREE ENERGY PREDICTED BY IDOCK:   -7.82 KCAL/MOL
REMARK 923 INTER-LIGAND FREE ENERGY PREDICTED BY IDOCK:   -5.35 KCAL/MOL
REMARK 924 INTRA-LIGAND FREE ENERGY PREDICTED BY IDOCK:   -2.47 KCAL/MOL
REMARK 927      BINDING AFFINITY PREDICTED BY RF-SCORE:    0.00 PKD
ROOT
HETATM    1  C   UNL     1     -11.981  12.721  63.566  1.00  0.00    -0.633 C  
HETATM    2  C   UNL     1     -10.493  12.438  63.463  1.00  0.00    -0.430 C  
ENDROOT
BRANCH   2   3
HETATM    3  C   UNL     1     -10.171  11.019  63.918  1.00  0.00    -0.425 C  
BRANCH   3   4
HETATM    4  C   UNL     1      -9.105  11.028  65.008  1.00  0.00    -0.182 C  
BRANCH   4   5
HETATM    5  C   UNL     1      -9.348   9.912  66.017  1.00  0.00    -0.240 C  
BRANCH   5   6
HETATM    6  C   UNL     1     -10.644  10.162  66.779  1.00  0.00    -0.239 C  
BRANCH   6   7
HETATM    7  C   UNL     1     -10.610  11.519  67.463  1.00  0.00    -0.243 C  
BRANCH   7   8
HETATM    8  C   UNL     1     -12.003  12.139  67.496  1.00  0.00    -0.175 C  
BRANCH   8   9
HETATM    9  C   UNL     1     -11.952  13.529  66.881  1.00  0.00    -0.447 C  
BRANCH   9  10
HETATM   10  C   UNL     1     -10.557  14.139  66.966  1.00  0.00    -0.276 C  
BRANCH  10  11
HETATM   11  C   UNL     1     -10.505  15.539  66.331  1.00  0.00    -0.310 C  
BRANCH  11  12
HETATM   12  C   UNL     1      -9.059  15.975  66.088  1.00  0.00    -0.351 C  
BRANCH  12  13
HETATM   13  N   UNL     1      -8.353  16.564  67.320  1.00  0.00    -0.169 N  
HETATM   14  C   UNL     1      -8.117  18.063  67.167  1.00  0.00    -0.213 C  
HETATM   15  C   UNL     1      -9.194  16.320  68.577  1.00  0.00    -0.211 C  
BRANCH  13  16
HETATM   16  C   UNL     1      -6.983  15.825  67.537  1.00  0.00    -0.186 C  
BRANCH  16  17
HETATM   17  C   UNL     1      -7.153  14.422  68.132  1.00  0.00    -0.124 C  
BRANCH  17  18
HETATM   18  O   UNL     1      -6.918  13.408  67.159  1.00  0.00    -0.086 OA 
BRANCH  18  19
HETATM   19  C   UNL     1      -6.847  12.148  67.710  1.00  0.00    -0.106 A  
HETATM   20  C   UNL     1      -7.538  11.969  68.907  1.00  0.00    -0.016 A  
HETATM   21  C   UNL     1      -7.486  10.739  69.568  1.00  0.00    -0.113 A  
HETATM   22  C   UNL     1      -6.757   9.680  69.028  1.00  0.00    -0.050 A  
HETATM   23  C   UNL     1      -6.094   9.843  67.814  1.00  0.00    -0.054 A  
HETATM   24  C   UNL     1      -6.148  11.070  67.154  1.00  0.00    -0.074 A  
ENDBRANCH  18  19
ENDBRANCH  17  18
ENDBRANCH  16  17
ENDBRANCH  13  16
ENDBRANCH  12  13
ENDBRANCH  11  12
ENDBRANCH  10  11
ENDBRANCH   9  10
ENDBRANCH   8   9
ENDBRANCH   7   8
ENDBRANCH   6   7
ENDBRANCH   5   6
ENDBRANCH   4   5
ENDBRANCH   3   4
ENDBRANCH   2   3
TORSDOF 15
ENDMDL
MODEL      237
REMARK 921   NORMALIZED FREE ENERGY PREDICTED BY IDOCK:   -3.57 KCAL/MOL
REMARK 922        TOTAL FREE ENERGY PREDICTED BY IDOCK:   -7.82 KCAL/MOL
REMARK 923 INTER-LIGAND FREE ENERGY PREDICTED BY IDOCK:   -5.97 KCAL/MOL
REMARK 924 INTRA-LIGAND FREE ENERGY PREDICTED BY IDOCK:   -1.85 KCAL/MOL
REMARK 927      BINDING AFFINITY PREDICTED BY RF-SCORE:    0.00 PKD
ROOT
HETATM    1  C   UNL     1      -9.743  20.204  65.997  1.00  0.00    -0.431 C  
HETATM    2  C   UNL     1      -8.658  19.623  66.885  1.00  0.00    -0.359 C  
ENDROOT
BRANCH   2   3
HETATM    3  C   UNL     1      -9.260  18.861  68.061  1.00  0.00    -0.346 C  
BRANCH   3   4
HETATM    4  C   UNL     1      -8.169  18.201  68.896  1.00  0.00    -0.160 C  
BRANCH   4   5
HETATM    5  C   UNL     1      -8.143  16.694  68.666  1.00  0.00    -0.237 C  
BRANCH   5   6
HETATM    6  C   UNL     1      -7.096  16.338  67.619  1.00  0.00    -0.164 C  
BRANCH   6   7
HETATM    7  C   UNL     1      -6.172  15.246  68.134  1.00  0.00    -0.138 C  
BRANCH   7   8
HETATM    8  C   UNL     1      -6.826  14.484  69.281  1.00  0.00    -0.134 C  
BRANCH   8   9
HETATM    9  C   UNL     1      -5.957  13.295  69.660  1.00  0.00    -0.117 C  
BRANCH   9  10
HETATM   10  C   UNL     1      -6.649  11.968  69.366  1.00  0.00    -0.100 C  
BRANCH  10  11
HETATM   11  C   UNL     1      -7.905  12.158  68.498  1.00  0.00    -0.122 C  
BRANCH  11  12
HETATM   12  C   UNL     1      -8.877  10.992  68.681  1.00  0.00    -0.164 C  
BRANCH  12  13
HETATM   13  N   UNL     1      -9.314  10.311  67.374  1.00  0.00    -0.145 N  
HETATM   14  C   UNL     1      -8.132   9.674  66.652  1.00  0.00    -0.119 C  
HETATM   15  C   UNL     1     -10.359   9.229  67.665  1.00  0.00    -0.253 C  
BRANCH  13  16
HETATM   16  C   UNL     1     -10.003  11.373  66.442  1.00  0.00    -0.214 C  
BRANCH  16  17
HETATM   17  C   UNL     1     -11.522  11.440  66.641  1.00  0.00    -0.045 C  
BRANCH  17  18
HETATM   18  O   UNL     1     -11.912  12.646  67.291  1.00  0.00    -0.424 OA 
BRANCH  18  19
HETATM   19  C   UNL     1     -11.651  13.767  66.534  1.00  0.00    -0.365 A  
HETATM   20  C   UNL     1     -12.360  13.871  65.340  1.00  0.00    -0.494 A  
HETATM   21  C   UNL     1     -12.130  14.948  64.480  1.00  0.00    -0.420 A  
HETATM   22  C   UNL     1     -11.200  15.932  64.818  1.00  0.00    -0.364 A  
HETATM   23  C   UNL     1     -10.514  15.851  66.027  1.00  0.00    -0.357 A  
HETATM   24  C   UNL     1     -10.746  14.777  66.886  1.00  0.00    -0.308 A  
ENDBRANCH  18  19
ENDBRANCH  17  18
ENDBRANCH  16  17
ENDBRANCH  13  16
ENDBRANCH  12  13
ENDBRANCH  11  12
ENDBRANCH  10  11
ENDBRANCH   9  10
ENDBRANCH   8   9
ENDBRANCH   7   8
ENDBRANCH   6   7
ENDBRANCH   5   6
ENDBRANCH   4   5
ENDBRANCH   3   4
ENDBRANCH   2   3
TORSDOF 15
ENDMDL
MODEL      238
REMARK 921   NORMALIZED FREE ENERGY PREDICTED BY IDOCK:   -3.56 KCAL/MOL
REMARK 922        TOTAL FREE ENERGY PREDICTED BY IDOCK:   -7.81 KCAL/MOL
REMARK 923 INTER-LIGAND FREE ENERGY PREDICTED BY IDOCK:   -6.14 KCAL/MOL
REMARK 924 INTRA-LIGAND FREE ENERGY PREDICTED BY IDOCK:   -1.67 KCAL/MOL
REMARK 927      BINDING AFFINITY PREDICTED BY RF-SCORE:    0.00 PKD
ROOT
HETATM    1  C   UNL     1     -11.472  12.412  63.821  1.00  0.00    -0.544 C  
HETATM    2  C   UNL     1     -12.641  12.759  64.725  1.00  0.00    -0.518 C  
ENDROOT
BRANCH   2   3
HETATM    3  C   UNL     1     -12.339  13.997  65.563  1.00  0.00    -0.503 C  
BRANCH   3   4
HETATM    4  C   UNL     1     -11.198  14.801  64.950  1.00  0.00    -0.411 C  
BRANCH   4   5
HETATM    5  C   UNL     1     -10.142  15.134  65.998  1.00  0.00    -0.323 C  
BRANCH   5   6
HETATM    6  C   UNL     1     -10.738  16.018  67.085  1.00  0.00    -0.283 C  
BRANCH   6   7
HETATM    7  C   UNL     1     -10.410  17.480  66.828  1.00  0.00    -0.314 C  
BRANCH   7   8
HETATM    8  C   UNL     1      -8.910  17.725  66.951  1.00  0.00    -0.260 C  
BRANCH   8   9
HETATM    9  C   UNL     1      -8.486  17.550  68.400  1.00  0.00    -0.275 C  
BRANCH   9  10
HETATM   10  C   UNL     1      -7.333  16.561  68.541  1.00  0.00    -0.186 C  
BRANCH  10  11
HETATM   11  C   UNL     1      -7.804  15.210  69.106  1.00  0.00    -0.199 C  
BRANCH  11  12
HETATM   12  C   UNL     1      -6.611  14.328  69.478  1.00  0.00    -0.134 C  
BRANCH  12  13
HETATM   13  N   UNL     1      -6.609  12.943  68.811  1.00  0.00    -0.084 N  
HETATM   14  C   UNL     1      -5.601  12.873  67.670  1.00  0.00    -0.120 C  
HETATM   15  C   UNL     1      -6.268  11.862  69.842  1.00  0.00    -0.139 C  
BRANCH  13  16
HETATM   16  C   UNL     1      -8.051  12.623  68.274  1.00  0.00    -0.161 C  
BRANCH  16  17
HETATM   17  C   UNL     1      -8.037  11.962  66.891  1.00  0.00    -0.146 C  
BRANCH  17  18
HETATM   18  O   UNL     1      -9.330  11.491  66.522  1.00  0.00    -0.186 OA 
BRANCH  18  19
HETATM   19  C   UNL     1      -9.438  10.120  66.597  1.00  0.00    -0.170 A  
HETATM   20  C   UNL     1      -8.401   9.396  66.013  1.00  0.00    -0.123 A  
HETATM   21  C   UNL     1      -8.444   8.000  65.994  1.00  0.00    -0.144 A  
HETATM   22  C   UNL     1      -9.517   7.322  66.572  1.00  0.00    -0.218 A  
HETATM   23  C   UNL     1     -10.539   8.040  67.188  1.00  0.00    -0.367 A  
HETATM   24  C   UNL     1     -10.494   9.433  67.208  1.00  0.00    -0.332 A  
ENDBRANCH  18  19
ENDBRANCH  17  18
ENDBRANCH  16  17
ENDBRANCH  13  16
ENDBRANCH  12  13
ENDBRANCH  11  12
ENDBRANCH  10  11
ENDBRANCH   9  10
ENDBRANCH   8   9
ENDBRANCH   7   8
ENDBRANCH   6   7
ENDBRANCH   5   6
ENDBRANCH   4   5
ENDBRANCH   3   4
ENDBRANCH   2   3
TORSDOF 15
ENDMDL
MODEL      239
REMARK 921   NORMALIZED FREE ENERGY PREDICTED BY IDOCK:   -3.56 KCAL/MOL
REMARK 922        TOTAL FREE ENERGY PREDICTED BY IDOCK:   -7.80 KCAL/MOL
REMARK 923 INTER-LIGAND FREE ENERGY PREDICTED BY IDOCK:   -6.75 KCAL/MOL
REMARK 924 INTRA-LIGAND FREE ENERGY PREDICTED BY IDOCK:   -1.05 KCAL/MOL
REMARK 927      BINDING AFFINITY PREDICTED BY RF-SCORE:    0.00 PKD
ROOT
HETATM    1  C   UNL     1     -12.420  15.766  74.445  1.00  0.00    -0.790 C  
HETATM    2  C   UNL     1     -13.065  15.740  73.071  1.00  0.00    -0.645 C  
ENDROOT
BRANCH   2   3
HETATM    3  C   UNL     1     -12.026  15.940  71.973  1.00  0.00    -0.602 C  
BRANCH   3   4
HETATM    4  C   UNL     1     -12.591  15.547  70.613  1.00  0.00    -0.493 C  
BRANCH   4   5
HETATM    5  C   UNL     1     -12.062  14.187  70.174  1.00  0.00    -0.411 C  
BRANCH   5   6
HETATM    6  C   UNL     1     -11.282  14.318  68.872  1.00  0.00    -0.289 C  
BRANCH   6   7
HETATM    7  C   UNL     1     -12.020  13.633  67.733  1.00  0.00    -0.387 C  
BRANCH   7   8
HETATM    8  C   UNL     1     -11.053  13.256  66.616  1.00  0.00    -0.311 C  
BRANCH   8   9
HETATM    9  C   UNL     1     -11.198  11.776  66.298  1.00  0.00    -0.370 C  
BRANCH   9  10
HETATM   10  C   UNL     1     -11.439  10.946  67.554  1.00  0.00    -0.234 C  
BRANCH  10  11
HETATM   11  C   UNL     1     -10.449   9.773  67.663  1.00  0.00    -0.305 C  
BRANCH  11  12
HETATM   12  C   UNL     1      -9.914   9.380  66.285  1.00  0.00    -0.283 C  
BRANCH  12  13
HETATM   13  N   UNL     1      -8.381   9.360  66.176  1.00  0.00    -0.114 N  
HETATM   14  C   UNL     1      -7.885  10.305  65.088  1.00  0.00    -0.138 C  
HETATM   15  C   UNL     1      -7.751   9.767  67.512  1.00  0.00    -0.095 C  
BRANCH  13  16
HETATM   16  C   UNL     1      -7.901   7.894  65.874  1.00  0.00    -0.101 C  
BRANCH  16  17
HETATM   17  C   UNL     1      -7.825   7.022  67.132  1.00  0.00    -0.109 C  
BRANCH  17  18
HETATM   18  O   UNL     1      -8.905   6.094  67.191  1.00  0.00    -0.110 OA 
BRANCH  18  19
HETATM   19  C   UNL     1      -9.010   5.478  68.419  1.00  0.00    -0.110 A  
HETATM   20  C   UNL     1      -9.118   6.328  69.517  1.00  0.00    -0.137 A  
HETATM   21  C   UNL     1      -9.181   5.799  70.809  1.00  0.00    -0.171 A  
HETATM   22  C   UNL     1      -9.152   4.418  71.006  1.00  0.00    -0.185 A  
HETATM   23  C   UNL     1      -9.080   3.563  69.909  1.00  0.00    -0.195 A  
HETATM   24  C   UNL     1      -9.019   4.092  68.620  1.00  0.00    -0.164 A  
ENDBRANCH  18  19
ENDBRANCH  17  18
ENDBRANCH  16  17
ENDBRANCH  13  16
ENDBRANCH  12  13
ENDBRANCH  11  12
ENDBRANCH  10  11
ENDBRANCH   9  10
ENDBRANCH   8   9
ENDBRANCH   7   8
ENDBRANCH   6   7
ENDBRANCH   5   6
ENDBRANCH   4   5
ENDBRANCH   3   4
ENDBRANCH   2   3
TORSDOF 15
ENDMDL
MODEL      240
REMARK 921   NORMALIZED FREE ENERGY PREDICTED BY IDOCK:   -3.56 KCAL/MOL
REMARK 922        TOTAL FREE ENERGY PREDICTED BY IDOCK:   -7.80 KCAL/MOL
REMARK 923 INTER-LIGAND FREE ENERGY PREDICTED BY IDOCK:   -6.50 KCAL/MOL
REMARK 924 INTRA-LIGAND FREE ENERGY PREDICTED BY IDOCK:   -1.30 KCAL/MOL
REMARK 927      BINDING AFFINITY PREDICTED BY RF-SCORE:    0.00 PKD
ROOT
HETATM    1  C   UNL     1      -8.009   8.471  65.051  1.00  0.00    -0.131 C  
HETATM    2  C   UNL     1      -7.869   8.509  66.562  1.00  0.00    -0.096 C  
ENDROOT
BRANCH   2   3
HETATM    3  C   UNL     1      -9.042   7.809  67.241  1.00  0.00    -0.147 C  
BRANCH   3   4
HETATM    4  C   UNL     1     -10.338   8.578  67.011  1.00  0.00    -0.379 C  
BRANCH   4   5
HETATM    5  C   UNL     1     -10.503   9.690  68.041  1.00  0.00    -0.276 C  
BRANCH   5   6
HETATM    6  C   UNL     1     -11.004  10.962  67.369  1.00  0.00    -0.353 C  
BRANCH   6   7
HETATM    7  C   UNL     1      -9.944  11.530  66.438  1.00  0.00    -0.241 C  
BRANCH   7   8
HETATM    8  C   UNL     1     -10.477  11.631  65.013  1.00  0.00    -0.336 C  
BRANCH   8   9
HETATM    9  C   UNL     1     -10.809  13.081  64.698  1.00  0.00    -0.373 C  
BRANCH   9  10
HETATM   10  C   UNL     1     -10.177  14.040  65.702  1.00  0.00    -0.351 C  
BRANCH  10  11
HETATM   11  C   UNL     1     -11.129  15.191  66.071  1.00  0.00    -0.312 C  
BRANCH  11  12
HETATM   12  C   UNL     1     -10.779  15.771  67.441  1.00  0.00    -0.317 C  
BRANCH  12  13
HETATM   13  N   UNL     1      -9.964  17.074  67.395  1.00  0.00    -0.270 N  
HETATM   14  C   UNL     1     -10.264  17.878  66.135  1.00  0.00    -0.343 C  
HETATM   15  C   UNL     1     -10.277  17.937  68.621  1.00  0.00    -0.385 C  
BRANCH  13  16
HETATM   16  C   UNL     1      -8.431  16.730  67.459  1.00  0.00    -0.192 C  
BRANCH  16  17
HETATM   17  C   UNL     1      -7.659  17.226  66.231  1.00  0.00    -0.325 C  
BRANCH  17  18
HETATM   18  O   UNL     1      -6.797  18.312  66.559  1.00  0.00    -0.191 OA 
BRANCH  18  19
HETATM   19  C   UNL     1      -6.347  18.989  65.447  1.00  0.00    -0.277 A  
HETATM   20  C   UNL     1      -6.791  20.303  65.316  1.00  0.00    -0.318 A  
HETATM   21  C   UNL     1      -6.428  21.057  64.196  1.00  0.00    -0.246 A  
HETATM   22  C   UNL     1      -5.609  20.503  63.211  1.00  0.00    -0.284 A  
HETATM   23  C   UNL     1      -5.135  19.202  63.355  1.00  0.00    -0.302 A  
HETATM   24  C   UNL     1      -5.495  18.452  64.473  1.00  0.00    -0.059 A  
ENDBRANCH  18  19
ENDBRANCH  17  18
ENDBRANCH  16  17
ENDBRANCH  13  16
ENDBRANCH  12  13
ENDBRANCH  11  12
ENDBRANCH  10  11
ENDBRANCH   9  10
ENDBRANCH   8   9
ENDBRANCH   7   8
ENDBRANCH   6   7
ENDBRANCH   5   6
ENDBRANCH   4   5
ENDBRANCH   3   4
ENDBRANCH   2   3
TORSDOF 15
ENDMDL
MODEL      241
REMARK 921   NORMALIZED FREE ENERGY PREDICTED BY IDOCK:   -3.56 KCAL/MOL
REMARK 922        TOTAL FREE ENERGY PREDICTED BY IDOCK:   -7.80 KCAL/MOL
REMARK 923 INTER-LIGAND FREE ENERGY PREDICTED BY IDOCK:   -5.90 KCAL/MOL
REMARK 924 INTRA-LIGAND FREE ENERGY PREDICTED BY IDOCK:   -1.90 KCAL/MOL
REMARK 927      BINDING AFFINITY PREDICTED BY RF-SCORE:    0.00 PKD
ROOT
HETATM    1  C   UNL     1     -12.211  15.377  72.241  1.00  0.00    -0.475 C  
HETATM    2  C   UNL     1     -12.684  15.225  70.806  1.00  0.00    -0.491 C  
ENDROOT
BRANCH   2   3
HETATM    3  C   UNL     1     -11.634  15.738  69.825  1.00  0.00    -0.359 C  
BRANCH   3   4
HETATM    4  C   UNL     1     -11.822  15.107  68.451  1.00  0.00    -0.293 C  
BRANCH   4   5
HETATM    5  C   UNL     1     -11.092  13.773  68.358  1.00  0.00    -0.287 C  
BRANCH   5   6
HETATM    6  C   UNL     1      -9.671  13.911  68.891  1.00  0.00    -0.013 C  
BRANCH   6   7
HETATM    7  C   UNL     1      -8.686  14.104  67.749  1.00  0.00    -0.182 C  
BRANCH   7   8
HETATM    8  C   UNL     1      -7.414  13.300  67.994  1.00  0.00    -0.138 C  
BRANCH   8   9
HETATM    9  C   UNL     1      -7.318  12.179  66.971  1.00  0.00    -0.072 C  
BRANCH   9  10
HETATM   10  C   UNL     1      -7.523  10.808  67.608  1.00  0.00    -0.095 C  
BRANCH  10  11
HETATM   11  C   UNL     1      -6.604   9.744  66.983  1.00  0.00    -0.071 C  
BRANCH  11  12
HETATM   12  C   UNL     1      -7.411   8.745  66.153  1.00  0.00    -0.086 C  
BRANCH  12  13
HETATM   13  N   UNL     1      -7.126   8.790  64.644  1.00  0.00    -0.087 N  
HETATM   14  C   UNL     1      -6.196   9.943  64.284  1.00  0.00    -0.124 C  
HETATM   15  C   UNL     1      -6.486   7.474  64.188  1.00  0.00    -0.048 C  
BRANCH  13  16
HETATM   16  C   UNL     1      -8.483   8.931  63.863  1.00  0.00    -0.136 C  
BRANCH  16  17
HETATM   17  C   UNL     1      -9.360  10.070  64.398  1.00  0.00    -0.290 C  
BRANCH  17  18
HETATM   18  O   UNL     1      -9.792  10.933  63.351  1.00  0.00    -0.301 OA 
BRANCH  18  19
HETATM   19  C   UNL     1     -10.554  11.985  63.809  1.00  0.00    -0.430 A  
HETATM   20  C   UNL     1     -11.930  11.861  63.631  1.00  0.00    -0.578 A  
HETATM   21  C   UNL     1     -12.784  12.898  64.019  1.00  0.00    -0.233 A  
HETATM   22  C   UNL     1     -12.265  14.055  64.600  1.00  0.00    -0.460 A  
HETATM   23  C   UNL     1     -10.894  14.169  64.812  1.00  0.00    -0.426 A  
HETATM   24  C   UNL     1     -10.043  13.134  64.427  1.00  0.00    -0.224 A  
ENDBRANCH  18  19
ENDBRANCH  17  18
ENDBRANCH  16  17
ENDBRANCH  13  16
ENDBRANCH  12  13
ENDBRANCH  11  12
ENDBRANCH  10  11
ENDBRANCH   9  10
ENDBRANCH   8   9
ENDBRANCH   7   8
ENDBRANCH   6   7
ENDBRANCH   5   6
ENDBRANCH   4   5
ENDBRANCH   3   4
ENDBRANCH   2   3
TORSDOF 15
ENDMDL
MODEL      242
REMARK 921   NORMALIZED FREE ENERGY PREDICTED BY IDOCK:   -3.55 KCAL/MOL
REMARK 922        TOTAL FREE ENERGY PREDICTED BY IDOCK:   -7.79 KCAL/MOL
REMARK 923 INTER-LIGAND FREE ENERGY PREDICTED BY IDOCK:   -6.43 KCAL/MOL
REMARK 924 INTRA-LIGAND FREE ENERGY PREDICTED BY IDOCK:   -1.36 KCAL/MOL
REMARK 927      BINDING AFFINITY PREDICTED BY RF-SCORE:    0.00 PKD
ROOT
HETATM    1  C   UNL     1      -9.070  15.592  66.173  1.00  0.00    -0.378 C  
HETATM    2  C   UNL     1      -9.984  14.942  67.196  1.00  0.00    -0.231 C  
ENDROOT
BRANCH   2   3
HETATM    3  C   UNL     1     -11.306  14.521  66.562  1.00  0.00    -0.354 C  
BRANCH   3   4
HETATM    4  C   UNL     1     -11.497  15.194  65.208  1.00  0.00    -0.266 C  
BRANCH   4   5
HETATM    5  C   UNL     1     -12.220  14.269  64.236  1.00  0.00    -0.451 C  
BRANCH   5   6
HETATM    6  C   UNL     1     -12.257  12.850  64.787  1.00  0.00    -0.499 C  
BRANCH   6   7
HETATM    7  C   UNL     1     -11.808  11.852  63.731  1.00  0.00    -0.558 C  
BRANCH   7   8
HETATM    8  C   UNL     1     -10.376  12.140  63.293  1.00  0.00    -0.352 C  
BRANCH   8   9
HETATM    9  C   UNL     1      -9.641  10.828  63.071  1.00  0.00    -0.381 C  
BRANCH   9  10
HETATM   10  C   UNL     1      -9.515  10.021  64.359  1.00  0.00    -0.349 C  
BRANCH  10  11
HETATM   11  C   UNL     1      -8.695  10.769  65.425  1.00  0.00    -0.190 C  
BRANCH  11  12
HETATM   12  C   UNL     1      -7.886   9.791  66.278  1.00  0.00    -0.106 C  
BRANCH  12  13
HETATM   13  N   UNL     1      -6.467  10.267  66.625  1.00  0.00    -0.072 N  
HETATM   14  C   UNL     1      -5.705   9.219  67.429  1.00  0.00    -0.042 C  
HETATM   15  C   UNL     1      -5.685  10.574  65.344  1.00  0.00    -0.139 C  
BRANCH  13  16
HETATM   16  C   UNL     1      -6.554  11.609  67.439  1.00  0.00    -0.106 C  
BRANCH  16  17
HETATM   17  C   UNL     1      -7.931  11.829  68.076  1.00  0.00    -0.141 C  
BRANCH  17  18
HETATM   18  O   UNL     1      -8.147  10.948  69.174  1.00  0.00    -0.149 OA 
BRANCH  18  19
HETATM   19  C   UNL     1      -9.483  10.763  69.453  1.00  0.00    -0.012 A  
HETATM   20  C   UNL     1     -10.365  11.612  68.789  1.00  0.00    -0.213 A  
HETATM   21  C   UNL     1     -11.737  11.535  69.042  1.00  0.00    -0.400 A  
HETATM   22  C   UNL     1     -12.233  10.598  69.949  1.00  0.00    -0.346 A  
HETATM   23  C   UNL     1     -11.359   9.723  70.588  1.00  0.00    -0.401 A  
HETATM   24  C   UNL     1      -9.991   9.799  70.334  1.00  0.00    -0.294 A  
ENDBRANCH  18  19
ENDBRANCH  17  18
ENDBRANCH  16  17
ENDBRANCH  13  16
ENDBRANCH  12  13
ENDBRANCH  11  12
ENDBRANCH  10  11
ENDBRANCH   9  10
ENDBRANCH   8   9
ENDBRANCH   7   8
ENDBRANCH   6   7
ENDBRANCH   5   6
ENDBRANCH   4   5
ENDBRANCH   3   4
ENDBRANCH   2   3
TORSDOF 15
ENDMDL
MODEL      243
REMARK 921   NORMALIZED FREE ENERGY PREDICTED BY IDOCK:   -3.55 KCAL/MOL
REMARK 922        TOTAL FREE ENERGY PREDICTED BY IDOCK:   -7.79 KCAL/MOL
REMARK 923 INTER-LIGAND FREE ENERGY PREDICTED BY IDOCK:   -5.35 KCAL/MOL
REMARK 924 INTRA-LIGAND FREE ENERGY PREDICTED BY IDOCK:   -2.44 KCAL/MOL
REMARK 927      BINDING AFFINITY PREDICTED BY RF-SCORE:    0.00 PKD
ROOT
HETATM    1  C   UNL     1      -6.379   7.916  73.704  1.00  0.00    -0.095 C  
HETATM    2  C   UNL     1      -6.721   6.459  73.451  1.00  0.00    -0.074 C  
ENDROOT
BRANCH   2   3
HETATM    3  C   UNL     1      -6.313   6.035  72.044  1.00  0.00    -0.049 C  
BRANCH   3   4
HETATM    4  C   UNL     1      -6.024   7.252  71.173  1.00  0.00    -0.036 C  
BRANCH   4   5
HETATM    5  C   UNL     1      -6.687   7.116  69.808  1.00  0.00    -0.048 C  
BRANCH   5   6
HETATM    6  C   UNL     1      -8.116   7.641  69.860  1.00  0.00    -0.124 C  
BRANCH   6   7
HETATM    7  C   UNL     1      -8.979   6.956  68.812  1.00  0.00    -0.130 C  
BRANCH   7   8
HETATM    8  C   UNL     1      -8.182   6.716  67.534  1.00  0.00    -0.122 C  
BRANCH   8   9
HETATM    9  C   UNL     1      -8.919   7.332  66.355  1.00  0.00    -0.184 C  
BRANCH   9  10
HETATM   10  C   UNL     1     -10.141   8.129  66.801  1.00  0.00    -0.365 C  
BRANCH  10  11
HETATM   11  C   UNL     1     -10.143   9.550  66.212  1.00  0.00    -0.327 C  
BRANCH  11  12
HETATM   12  C   UNL     1      -9.564  10.555  67.209  1.00  0.00    -0.163 C  
BRANCH  12  13
HETATM   13  N   UNL     1     -10.576  11.584  67.739  1.00  0.00    -0.186 N  
HETATM   14  C   UNL     1      -9.878  12.824  68.286  1.00  0.00    -0.224 C  
HETATM   15  C   UNL     1     -11.535  12.006  66.622  1.00  0.00    -0.346 C  
BRANCH  13  16
HETATM   16  C   UNL     1     -11.450  10.920  68.864  1.00  0.00    -0.300 C  
BRANCH  16  17
HETATM   17  C   UNL     1     -10.605  10.270  69.966  1.00  0.00    -0.269 C  
BRANCH  17  18
HETATM   18  O   UNL     1     -11.374  10.032  71.143  1.00  0.00    -0.360 OA 
BRANCH  18  19
HETATM   19  C   UNL     1     -11.269   8.735  71.593  1.00  0.00    -0.324 A  
HETATM   20  C   UNL     1     -12.086   7.803  70.957  1.00  0.00    -0.264 A  
HETATM   21  C   UNL     1     -12.087   6.470  71.376  1.00  0.00    -0.344 A  
HETATM   22  C   UNL     1     -11.261   6.061  72.423  1.00  0.00    -0.338 A  
HETATM   23  C   UNL     1     -10.416   6.981  73.038  1.00  0.00    -0.307 A  
HETATM   24  C   UNL     1     -10.414   8.310  72.619  1.00  0.00    -0.373 A  
ENDBRANCH  18  19
ENDBRANCH  17  18
ENDBRANCH  16  17
ENDBRANCH  13  16
ENDBRANCH  12  13
ENDBRANCH  11  12
ENDBRANCH  10  11
ENDBRANCH   9  10
ENDBRANCH   8   9
ENDBRANCH   7   8
ENDBRANCH   6   7
ENDBRANCH   5   6
ENDBRANCH   4   5
ENDBRANCH   3   4
ENDBRANCH   2   3
TORSDOF 15
ENDMDL
MODEL      244
REMARK 921   NORMALIZED FREE ENERGY PREDICTED BY IDOCK:   -3.55 KCAL/MOL
REMARK 922        TOTAL FREE ENERGY PREDICTED BY IDOCK:   -7.79 KCAL/MOL
REMARK 923 INTER-LIGAND FREE ENERGY PREDICTED BY IDOCK:   -5.11 KCAL/MOL
REMARK 924 INTRA-LIGAND FREE ENERGY PREDICTED BY IDOCK:   -2.68 KCAL/MOL
REMARK 927      BINDING AFFINITY PREDICTED BY RF-SCORE:    0.00 PKD
ROOT
HETATM    1  C   UNL     1     -10.887  10.369  69.458  1.00  0.00    -0.295 C  
HETATM    2  C   UNL     1     -10.475   9.508  68.277  1.00  0.00    -0.265 C  
ENDROOT
BRANCH   2   3
HETATM    3  C   UNL     1      -8.999   9.704  67.944  1.00  0.00    -0.120 C  
BRANCH   3   4
HETATM    4  C   UNL     1      -8.163   9.794  69.215  1.00  0.00    -0.132 C  
BRANCH   4   5
HETATM    5  C   UNL     1      -6.711   9.420  68.941  1.00  0.00    -0.051 C  
BRANCH   5   6
HETATM    6  C   UNL     1      -6.196  10.166  67.717  1.00  0.00    -0.057 C  
BRANCH   6   7
HETATM    7  C   UNL     1      -5.604  11.508  68.117  1.00  0.00    -0.042 C  
BRANCH   7   8
HETATM    8  C   UNL     1      -6.318  12.647  67.396  1.00  0.00    -0.152 C  
BRANCH   8   9
HETATM    9  C   UNL     1      -6.892  13.613  68.420  1.00  0.00    -0.102 C  
BRANCH   9  10
HETATM   10  C   UNL     1      -8.410  13.720  68.313  1.00  0.00    -0.161 C  
BRANCH  10  11
HETATM   11  C   UNL     1      -8.890  13.600  66.856  1.00  0.00    -0.201 C  
BRANCH  11  12
HETATM   12  C   UNL     1     -10.263  12.930  66.787  1.00  0.00    -0.241 C  
BRANCH  12  13
HETATM   13  N   UNL     1     -11.448  13.906  66.722  1.00  0.00    -0.336 N  
HETATM   14  C   UNL     1     -12.534  13.407  65.775  1.00  0.00    -0.439 C  
HETATM   15  C   UNL     1     -12.054  14.094  68.117  1.00  0.00    -0.262 C  
BRANCH  13  16
HETATM   16  C   UNL     1     -10.934  15.316  66.254  1.00  0.00    -0.300 C  
BRANCH  16  17
HETATM   17  C   UNL     1     -10.969  16.363  67.374  1.00  0.00    -0.145 C  
BRANCH  17  18
HETATM   18  O   UNL     1     -10.225  17.527  67.026  1.00  0.00    -0.307 OA 
BRANCH  18  19
HETATM   19  C   UNL     1      -8.873  17.380  67.249  1.00  0.00    -0.232 A  
HETATM   20  C   UNL     1      -8.461  17.496  68.575  1.00  0.00    -0.280 A  
HETATM   21  C   UNL     1      -7.104  17.411  68.897  1.00  0.00    -0.251 A  
HETATM   22  C   UNL     1      -6.156  17.195  67.896  1.00  0.00    -0.145 A  
HETATM   23  C   UNL     1      -6.567  17.043  66.574  1.00  0.00    -0.254 A  
HETATM   24  C   UNL     1      -7.921  17.126  66.254  1.00  0.00    -0.339 A  
ENDBRANCH  18  19
ENDBRANCH  17  18
ENDBRANCH  16  17
ENDBRANCH  13  16
ENDBRANCH  12  13
ENDBRANCH  11  12
ENDBRANCH  10  11
ENDBRANCH   9  10
ENDBRANCH   8   9
ENDBRANCH   7   8
ENDBRANCH   6   7
ENDBRANCH   5   6
ENDBRANCH   4   5
ENDBRANCH   3   4
ENDBRANCH   2   3
TORSDOF 15
ENDMDL
MODEL      245
REMARK 921   NORMALIZED FREE ENERGY PREDICTED BY IDOCK:   -3.55 KCAL/MOL
REMARK 922        TOTAL FREE ENERGY PREDICTED BY IDOCK:   -7.79 KCAL/MOL
REMARK 923 INTER-LIGAND FREE ENERGY PREDICTED BY IDOCK:   -5.67 KCAL/MOL
REMARK 924 INTRA-LIGAND FREE ENERGY PREDICTED BY IDOCK:   -2.12 KCAL/MOL
REMARK 927      BINDING AFFINITY PREDICTED BY RF-SCORE:    0.00 PKD
ROOT
HETATM    1  C   UNL     1      -6.322  11.336  69.647  1.00  0.00    -0.124 C  
HETATM    2  C   UNL     1      -5.585  10.195  70.325  1.00  0.00    -0.054 C  
ENDROOT
BRANCH   2   3
HETATM    3  C   UNL     1      -6.405   9.617  71.474  1.00  0.00     0.126 C  
BRANCH   3   4
HETATM    4  C   UNL     1      -7.582   8.804  70.945  1.00  0.00    -0.109 C  
BRANCH   4   5
HETATM    5  C   UNL     1      -8.595   8.530  72.049  1.00  0.00    -0.250 C  
BRANCH   5   6
HETATM    6  C   UNL     1      -9.998   8.896  71.581  1.00  0.00    -0.397 C  
BRANCH   6   7
HETATM    7  C   UNL     1      -9.973   9.379  70.140  1.00  0.00    -0.269 C  
BRANCH   7   8
HETATM    8  C   UNL     1     -11.045  10.439  69.909  1.00  0.00    -0.367 C  
BRANCH   8   9
HETATM    9  C   UNL     1     -10.852  11.065  68.537  1.00  0.00    -0.254 C  
BRANCH   9  10
HETATM   10  C   UNL     1      -9.421  11.551  68.330  1.00  0.00    -0.195 C  
BRANCH  10  11
HETATM   11  C   UNL     1      -9.221  12.161  66.932  1.00  0.00    -0.203 C  
BRANCH  11  12
HETATM   12  C   UNL     1     -10.026  11.395  65.882  1.00  0.00    -0.234 C  
BRANCH  12  13
HETATM   13  N   UNL     1     -10.778  12.285  64.879  1.00  0.00    -0.285 N  
HETATM   14  C   UNL     1      -9.999  13.557  64.566  1.00  0.00     0.016 C  
HETATM   15  C   UNL     1     -11.023  11.519  63.574  1.00  0.00    -0.373 C  
BRANCH  13  16
HETATM   16  C   UNL     1     -12.190  12.650  65.465  1.00  0.00    -0.440 C  
BRANCH  16  17
HETATM   17  C   UNL     1     -12.284  14.111  65.920  1.00  0.00    -0.439 C  
BRANCH  17  18
HETATM   18  O   UNL     1     -12.647  14.208  67.295  1.00  0.00    -0.110 OA 
BRANCH  18  19
HETATM   19  C   UNL     1     -11.697  14.858  68.051  1.00  0.00    -0.320 A  
HETATM   20  C   UNL     1     -10.852  15.720  67.355  1.00  0.00    -0.306 A  
HETATM   21  C   UNL     1      -9.825  16.388  68.027  1.00  0.00    -0.238 A  
HETATM   22  C   UNL     1      -9.648  16.207  69.399  1.00  0.00    -0.208 A  
HETATM   23  C   UNL     1     -10.512  15.374  70.105  1.00  0.00    -0.291 A  
HETATM   24  C   UNL     1     -11.538  14.710  69.435  1.00  0.00    -0.342 A  
ENDBRANCH  18  19
ENDBRANCH  17  18
ENDBRANCH  16  17
ENDBRANCH  13  16
ENDBRANCH  12  13
ENDBRANCH  11  12
ENDBRANCH  10  11
ENDBRANCH   9  10
ENDBRANCH   8   9
ENDBRANCH   7   8
ENDBRANCH   6   7
ENDBRANCH   5   6
ENDBRANCH   4   5
ENDBRANCH   3   4
ENDBRANCH   2   3
TORSDOF 15
ENDMDL
MODEL      246
REMARK 921   NORMALIZED FREE ENERGY PREDICTED BY IDOCK:   -3.55 KCAL/MOL
REMARK 922        TOTAL FREE ENERGY PREDICTED BY IDOCK:   -7.78 KCAL/MOL
REMARK 923 INTER-LIGAND FREE ENERGY PREDICTED BY IDOCK:   -5.18 KCAL/MOL
REMARK 924 INTRA-LIGAND FREE ENERGY PREDICTED BY IDOCK:   -2.60 KCAL/MOL
REMARK 927      BINDING AFFINITY PREDICTED BY RF-SCORE:    0.00 PKD
ROOT
HETATM    1  C   UNL     1      -8.988   4.431  63.681  1.00  0.00    -0.139 C  
HETATM    2  C   UNL     1      -9.174   3.258  64.627  1.00  0.00    -0.141 C  
ENDROOT
BRANCH   2   3
HETATM    3  C   UNL     1      -9.408   3.736  66.056  1.00  0.00    -0.173 C  
BRANCH   3   4
HETATM    4  C   UNL     1      -9.276   2.582  67.043  1.00  0.00    -0.122 C  
BRANCH   4   5
HETATM    5  C   UNL     1      -9.418   3.073  68.479  1.00  0.00    -0.204 C  
BRANCH   5   6
HETATM    6  C   UNL     1      -9.413   4.595  68.519  1.00  0.00    -0.206 C  
BRANCH   6   7
HETATM    7  C   UNL     1     -10.396   5.108  69.560  1.00  0.00    -0.292 C  
BRANCH   7   8
HETATM    8  C   UNL     1     -11.203   6.278  69.007  1.00  0.00    -0.415 C  
BRANCH   8   9
HETATM    9  C   UNL     1     -10.757   6.572  67.584  1.00  0.00    -0.381 C  
BRANCH   9  10
HETATM   10  C   UNL     1     -10.682   8.071  67.310  1.00  0.00    -0.280 C  
BRANCH  10  11
HETATM   11  C   UNL     1      -9.618   8.406  66.251  1.00  0.00    -0.286 C  
BRANCH  11  12
HETATM   12  C   UNL     1      -8.403   9.079  66.891  1.00  0.00    -0.119 C  
BRANCH  12  13
HETATM   13  N   UNL     1      -7.219   8.137  67.162  1.00  0.00    -0.082 N  
HETATM   14  C   UNL     1      -7.271   6.902  66.269  1.00  0.00    -0.071 C  
HETATM   15  C   UNL     1      -5.895   8.869  66.921  1.00  0.00    -0.049 C  
BRANCH  13  16
HETATM   16  C   UNL     1      -7.233   7.707  68.674  1.00  0.00    -0.082 C  
BRANCH  16  17
HETATM   17  C   UNL     1      -7.589   8.862  69.617  1.00  0.00    -0.072 C  
BRANCH  17  18
HETATM   18  O   UNL     1      -7.822   8.401  70.945  1.00  0.00    -0.082 OA 
BRANCH  18  19
HETATM   19  C   UNL     1      -9.154   8.429  71.292  1.00  0.00    -0.178 A  
HETATM   20  C   UNL     1      -9.940   9.355  70.609  1.00  0.00    -0.349 A  
HETATM   21  C   UNL     1     -11.295   9.492  70.925  1.00  0.00    -0.410 A  
HETATM   22  C   UNL     1     -11.871   8.696  71.914  1.00  0.00    -0.420 A  
HETATM   23  C   UNL     1     -11.098   7.745  72.575  1.00  0.00    -0.403 A  
HETATM   24  C   UNL     1      -9.747   7.606  72.258  1.00  0.00    -0.226 A  
ENDBRANCH  18  19
ENDBRANCH  17  18
ENDBRANCH  16  17
ENDBRANCH  13  16
ENDBRANCH  12  13
ENDBRANCH  11  12
ENDBRANCH  10  11
ENDBRANCH   9  10
ENDBRANCH   8   9
ENDBRANCH   7   8
ENDBRANCH   6   7
ENDBRANCH   5   6
ENDBRANCH   4   5
ENDBRANCH   3   4
ENDBRANCH   2   3
TORSDOF 15
ENDMDL
MODEL      247
REMARK 921   NORMALIZED FREE ENERGY PREDICTED BY IDOCK:   -3.54 KCAL/MOL
REMARK 922        TOTAL FREE ENERGY PREDICTED BY IDOCK:   -7.77 KCAL/MOL
REMARK 923 INTER-LIGAND FREE ENERGY PREDICTED BY IDOCK:   -6.18 KCAL/MOL
REMARK 924 INTRA-LIGAND FREE ENERGY PREDICTED BY IDOCK:   -1.60 KCAL/MOL
REMARK 927      BINDING AFFINITY PREDICTED BY RF-SCORE:    0.00 PKD
ROOT
HETATM    1  C   UNL     1     -11.200  12.746  67.202  1.00  0.00    -0.336 C  
HETATM    2  C   UNL     1     -11.038  11.337  67.742  1.00  0.00    -0.328 C  
ENDROOT
BRANCH   2   3
HETATM    3  C   UNL     1      -9.573  11.020  68.020  1.00  0.00    -0.175 C  
BRANCH   3   4
HETATM    4  C   UNL     1      -9.244   9.584  67.630  1.00  0.00    -0.138 C  
BRANCH   4   5
HETATM    5  C   UNL     1     -10.246   9.052  66.612  1.00  0.00    -0.333 C  
BRANCH   5   6
HETATM    6  C   UNL     1     -10.703   7.653  67.002  1.00  0.00    -0.340 C  
BRANCH   6   7
HETATM    7  C   UNL     1      -9.520   6.807  67.448  1.00  0.00    -0.150 C  
BRANCH   7   8
HETATM    8  C   UNL     1      -9.668   6.405  68.911  1.00  0.00    -0.134 C  
BRANCH   8   9
HETATM    9  C   UNL     1      -9.901   4.906  69.004  1.00  0.00    -0.250 C  
BRANCH   9  10
HETATM   10  C   UNL     1      -8.628   4.154  69.375  1.00  0.00    -0.109 C  
BRANCH  10  11
HETATM   11  C   UNL     1      -8.537   3.894  70.889  1.00  0.00    -0.107 C  
BRANCH  11  12
HETATM   12  C   UNL     1      -9.908   3.536  71.464  1.00  0.00    -0.149 C  
BRANCH  12  13
HETATM   13  N   UNL     1     -10.001   3.623  72.996  1.00  0.00    -0.135 N  
HETATM   14  C   UNL     1     -10.386   2.282  73.611  1.00  0.00    -0.119 C  
HETATM   15  C   UNL     1      -8.658   4.070  73.582  1.00  0.00    -0.091 C  
BRANCH  13  16
HETATM   16  C   UNL     1     -11.059   4.717  73.391  1.00  0.00    -0.337 C  
BRANCH  16  17
HETATM   17  C   UNL     1     -10.788   6.071  72.725  1.00  0.00    -0.249 C  
BRANCH  17  18
HETATM   18  O   UNL     1     -11.670   6.301  71.630  1.00  0.00    -0.305 OA 
BRANCH  18  19
HETATM   19  C   UNL     1     -12.100   7.608  71.559  1.00  0.00    -0.310 A  
HETATM   20  C   UNL     1     -13.473   7.804  71.699  1.00  0.00    -0.401 A  
HETATM   21  C   UNL     1     -14.011   9.089  71.593  1.00  0.00    -0.386 A  
HETATM   22  C   UNL     1     -13.179  10.184  71.361  1.00  0.00    -0.474 A  
HETATM   23  C   UNL     1     -11.803   9.997  71.255  1.00  0.00    -0.471 A  
HETATM   24  C   UNL     1     -11.266   8.716  71.363  1.00  0.00    -0.345 A  
ENDBRANCH  18  19
ENDBRANCH  17  18
ENDBRANCH  16  17
ENDBRANCH  13  16
ENDBRANCH  12  13
ENDBRANCH  11  12
ENDBRANCH  10  11
ENDBRANCH   9  10
ENDBRANCH   8   9
ENDBRANCH   7   8
ENDBRANCH   6   7
ENDBRANCH   5   6
ENDBRANCH   4   5
ENDBRANCH   3   4
ENDBRANCH   2   3
TORSDOF 15
ENDMDL
MODEL      248
REMARK 921   NORMALIZED FREE ENERGY PREDICTED BY IDOCK:   -3.54 KCAL/MOL
REMARK 922        TOTAL FREE ENERGY PREDICTED BY IDOCK:   -7.77 KCAL/MOL
REMARK 923 INTER-LIGAND FREE ENERGY PREDICTED BY IDOCK:   -6.78 KCAL/MOL
REMARK 924 INTRA-LIGAND FREE ENERGY PREDICTED BY IDOCK:   -0.99 KCAL/MOL
REMARK 927      BINDING AFFINITY PREDICTED BY RF-SCORE:    0.00 PKD
ROOT
HETATM    1  C   UNL     1     -10.972   6.484  68.396  1.00  0.00    -0.358 C  
HETATM    2  C   UNL     1     -11.468   6.262  69.813  1.00  0.00    -0.449 C  
ENDROOT
BRANCH   2   3
HETATM    3  C   UNL     1     -11.261   7.508  70.668  1.00  0.00    -0.286 C  
BRANCH   3   4
HETATM    4  C   UNL     1     -12.365   7.640  71.711  1.00  0.00    -0.349 C  
BRANCH   4   5
HETATM    5  C   UNL     1     -13.304   8.791  71.369  1.00  0.00    -0.289 C  
BRANCH   5   6
HETATM    6  C   UNL     1     -12.857  10.064  72.075  1.00  0.00    -0.484 C  
BRANCH   6   7
HETATM    7  C   UNL     1     -13.130  11.283  71.207  1.00  0.00    -0.317 C  
BRANCH   7   8
HETATM    8  C   UNL     1     -13.230  12.541  72.063  1.00  0.00    -0.524 C  
BRANCH   8   9
HETATM    9  C   UNL     1     -12.539  13.693  71.352  1.00  0.00    -0.415 C  
BRANCH   9  10
HETATM   10  C   UNL     1     -12.445  13.459  69.848  1.00  0.00    -0.155 C  
BRANCH  10  11
HETATM   11  C   UNL     1     -11.216  14.153  69.236  1.00  0.00    -0.308 C  
BRANCH  11  12
HETATM   12  C   UNL     1     -11.549  14.751  67.869  1.00  0.00    -0.351 C  
BRANCH  12  13
HETATM   13  N   UNL     1     -11.070  13.916  66.671  1.00  0.00    -0.302 N  
HETATM   14  C   UNL     1     -12.221  13.158  66.020  1.00  0.00    -0.414 C  
HETATM   15  C   UNL     1     -10.416  14.822  65.623  1.00  0.00    -0.349 C  
BRANCH  13  16
HETATM   16  C   UNL     1      -9.966  12.905  67.152  1.00  0.00    -0.240 C  
BRANCH  16  17
HETATM   17  C   UNL     1      -9.594  11.876  66.078  1.00  0.00    -0.235 C  
BRANCH  17  18
HETATM   18  O   UNL     1      -8.251  11.425  66.228  1.00  0.00    -0.160 OA 
BRANCH  18  19
HETATM   19  C   UNL     1      -7.918  10.436  65.329  1.00  0.00    -0.143 A  
HETATM   20  C   UNL     1      -8.944  10.011  64.487  1.00  0.00    -0.261 A  
HETATM   21  C   UNL     1      -8.717   8.978  63.573  1.00  0.00    -0.097 A  
HETATM   22  C   UNL     1      -7.461   8.377  63.488  1.00  0.00    -0.117 A  
HETATM   23  C   UNL     1      -6.423   8.823  64.302  1.00  0.00    -0.071 A  
HETATM   24  C   UNL     1      -6.649   9.855  65.212  1.00  0.00    -0.105 A  
ENDBRANCH  18  19
ENDBRANCH  17  18
ENDBRANCH  16  17
ENDBRANCH  13  16
ENDBRANCH  12  13
ENDBRANCH  11  12
ENDBRANCH  10  11
ENDBRANCH   9  10
ENDBRANCH   8   9
ENDBRANCH   7   8
ENDBRANCH   6   7
ENDBRANCH   5   6
ENDBRANCH   4   5
ENDBRANCH   3   4
ENDBRANCH   2   3
TORSDOF 15
ENDMDL
MODEL      249
REMARK 921   NORMALIZED FREE ENERGY PREDICTED BY IDOCK:   -3.54 KCAL/MOL
REMARK 922        TOTAL FREE ENERGY PREDICTED BY IDOCK:   -7.76 KCAL/MOL
REMARK 923 INTER-LIGAND FREE ENERGY PREDICTED BY IDOCK:   -5.58 KCAL/MOL
REMARK 924 INTRA-LIGAND FREE ENERGY PREDICTED BY IDOCK:   -2.18 KCAL/MOL
REMARK 927      BINDING AFFINITY PREDICTED BY RF-SCORE:    0.00 PKD
ROOT
HETATM    1  C   UNL     1     -10.011  17.420  66.229  1.00  0.00    -0.306 C  
HETATM    2  C   UNL     1      -9.536  15.984  66.108  1.00  0.00    -0.371 C  
ENDROOT
BRANCH   2   3
HETATM    3  C   UNL     1      -8.707  15.575  67.321  1.00  0.00    -0.214 C  
BRANCH   3   4
HETATM    4  C   UNL     1      -9.120  16.371  68.553  1.00  0.00    -0.223 C  
BRANCH   4   5
HETATM    5  C   UNL     1      -9.682  15.453  69.632  1.00  0.00    -0.251 C  
BRANCH   5   6
HETATM    6  C   UNL     1     -11.039  15.960  70.103  1.00  0.00    -0.369 C  
BRANCH   6   7
HETATM    7  C   UNL     1     -12.051  14.826  70.144  1.00  0.00    -0.382 C  
BRANCH   7   8
HETATM    8  C   UNL     1     -11.989  14.003  68.862  1.00  0.00    -0.387 C  
BRANCH   8   9
HETATM    9  C   UNL     1     -11.877  12.528  69.213  1.00  0.00    -0.360 C  
BRANCH   9  10
HETATM   10  C   UNL     1     -11.521  11.679  67.996  1.00  0.00    -0.385 C  
BRANCH  10  11
HETATM   11  C   UNL     1     -11.115  10.250  68.395  1.00  0.00    -0.302 C  
BRANCH  11  12
HETATM   12  C   UNL     1     -10.847  10.157  69.898  1.00  0.00    -0.299 C  
BRANCH  12  13
HETATM   13  N   UNL     1     -10.331   8.789  70.372  1.00  0.00    -0.192 N  
HETATM   14  C   UNL     1      -9.439   8.923  71.601  1.00  0.00    -0.281 C  
HETATM   15  C   UNL     1     -11.509   7.870  70.711  1.00  0.00    -0.263 C  
BRANCH  13  16
HETATM   16  C   UNL     1      -9.537   8.101  69.204  1.00  0.00    -0.157 C  
BRANCH  16  17
HETATM   17  C   UNL     1      -8.029   8.372  69.269  1.00  0.00    -0.113 C  
BRANCH  17  18
HETATM   18  O   UNL     1      -7.605   9.224  68.209  1.00  0.00    -0.082 OA 
BRANCH  18  19
HETATM   19  C   UNL     1      -7.185  10.459  68.653  1.00  0.00    -0.082 A  
HETATM   20  C   UNL     1      -6.298  10.448  69.727  1.00  0.00    -0.079 A  
HETATM   21  C   UNL     1      -5.853  11.651  70.281  1.00  0.00    -0.161 A  
HETATM   22  C   UNL     1      -6.283  12.869  69.753  1.00  0.00    -0.105 A  
HETATM   23  C   UNL     1      -7.142  12.885  68.658  1.00  0.00    -0.103 A  
HETATM   24  C   UNL     1      -7.583  11.684  68.105  1.00  0.00    -0.115 A  
ENDBRANCH  18  19
ENDBRANCH  17  18
ENDBRANCH  16  17
ENDBRANCH  13  16
ENDBRANCH  12  13
ENDBRANCH  11  12
ENDBRANCH  10  11
ENDBRANCH   9  10
ENDBRANCH   8   9
ENDBRANCH   7   8
ENDBRANCH   6   7
ENDBRANCH   5   6
ENDBRANCH   4   5
ENDBRANCH   3   4
ENDBRANCH   2   3
TORSDOF 15
ENDMDL
MODEL      250
REMARK 921   NORMALIZED FREE ENERGY PREDICTED BY IDOCK:   -3.53 KCAL/MOL
REMARK 922        TOTAL FREE ENERGY PREDICTED BY IDOCK:   -7.75 KCAL/MOL
REMARK 923 INTER-LIGAND FREE ENERGY PREDICTED BY IDOCK:   -6.55 KCAL/MOL
REMARK 924 INTRA-LIGAND FREE ENERGY PREDICTED BY IDOCK:   -1.20 KCAL/MOL
REMARK 927      BINDING AFFINITY PREDICTED BY RF-SCORE:    0.00 PKD
ROOT
HETATM    1  C   UNL     1      -9.915  17.921  68.725  1.00  0.00    -0.377 C  
HETATM    2  C   UNL     1     -10.319  16.461  68.826  1.00  0.00    -0.275 C  
ENDROOT
BRANCH   2   3
HETATM    3  C   UNL     1     -11.151  16.037  67.619  1.00  0.00    -0.243 C  
BRANCH   3   4
HETATM    4  C   UNL     1     -11.332  14.524  67.590  1.00  0.00    -0.354 C  
BRANCH   4   5
HETATM    5  C   UNL     1     -10.539  13.901  66.447  1.00  0.00    -0.280 C  
BRANCH   5   6
HETATM    6  C   UNL     1     -10.880  14.590  65.132  1.00  0.00    -0.407 C  
BRANCH   6   7
HETATM    7  C   UNL     1     -12.230  14.122  64.614  1.00  0.00    -0.465 C  
BRANCH   7   8
HETATM    8  C   UNL     1     -12.238  12.609  64.423  1.00  0.00    -0.518 C  
BRANCH   8   9
HETATM    9  C   UNL     1     -11.174  12.222  63.409  1.00  0.00    -0.497 C  
BRANCH   9  10
HETATM   10  C   UNL     1     -10.384  10.995  63.854  1.00  0.00    -0.436 C  
BRANCH  10  11
HETATM   11  C   UNL     1      -9.486  10.453  62.728  1.00  0.00    -0.351 C  
BRANCH  11  12
HETATM   12  C   UNL     1      -8.829   9.135  63.139  1.00  0.00    -0.082 C  
BRANCH  12  13
HETATM   13  N   UNL     1      -7.332   9.243  63.471  1.00  0.00    -0.096 N  
HETATM   14  C   UNL     1      -6.587   7.961  63.119  1.00  0.00    -0.079 C  
HETATM   15  C   UNL     1      -6.704  10.409  62.701  1.00  0.00    -0.132 C  
BRANCH  13  16
HETATM   16  C   UNL     1      -7.161   9.561  65.001  1.00  0.00    -0.109 C  
BRANCH  16  17
HETATM   17  C   UNL     1      -7.824   8.514  65.903  1.00  0.00    -0.099 C  
BRANCH  17  18
HETATM   18  O   UNL     1      -8.718   9.116  66.834  1.00  0.00    -0.121 OA 
BRANCH  18  19
HETATM   19  C   UNL     1      -9.472   8.191  67.523  1.00  0.00    -0.152 A  
HETATM   20  C   UNL     1      -9.442   8.297  68.912  1.00  0.00    -0.151 A  
HETATM   21  C   UNL     1     -10.135   7.375  69.700  1.00  0.00    -0.186 A  
HETATM   22  C   UNL     1     -10.872   6.352  69.102  1.00  0.00    -0.382 A  
HETATM   23  C   UNL     1     -10.934   6.264  67.714  1.00  0.00    -0.427 A  
HETATM   24  C   UNL     1     -10.244   7.185  66.928  1.00  0.00    -0.330 A  
ENDBRANCH  18  19
ENDBRANCH  17  18
ENDBRANCH  16  17
ENDBRANCH  13  16
ENDBRANCH  12  13
ENDBRANCH  11  12
ENDBRANCH  10  11
ENDBRANCH   9  10
ENDBRANCH   8   9
ENDBRANCH   7   8
ENDBRANCH   6   7
ENDBRANCH   5   6
ENDBRANCH   4   5
ENDBRANCH   3   4
ENDBRANCH   2   3
TORSDOF 15
ENDMDL
MODEL      251
REMARK 921   NORMALIZED FREE ENERGY PREDICTED BY IDOCK:   -3.49 KCAL/MOL
REMARK 922        TOTAL FREE ENERGY PREDICTED BY IDOCK:   -7.67 KCAL/MOL
REMARK 923 INTER-LIGAND FREE ENERGY PREDICTED BY IDOCK:   -6.13 KCAL/MOL
REMARK 924 INTRA-LIGAND FREE ENERGY PREDICTED BY IDOCK:   -1.54 KCAL/MOL
REMARK 927      BINDING AFFINITY PREDICTED BY RF-SCORE:    0.00 PKD
ROOT
HETATM    1  C   UNL     1      -7.689  11.514  68.581  1.00  0.00    -0.139 C  
HETATM    2  C   UNL     1      -7.329  10.056  68.803  1.00  0.00    -0.078 C  
ENDROOT
BRANCH   2   3
HETATM    3  C   UNL     1      -7.245   9.732  70.291  1.00  0.00    -0.154 C  
BRANCH   3   4
HETATM    4  C   UNL     1      -7.611   8.275  70.550  1.00  0.00    -0.076 C  
BRANCH   4   5
HETATM    5  C   UNL     1      -9.109   8.123  70.789  1.00  0.00    -0.159 C  
BRANCH   5   6
HETATM    6  C   UNL     1      -9.814   7.740  69.494  1.00  0.00    -0.179 C  
BRANCH   6   7
HETATM    7  C   UNL     1     -10.851   8.786  69.118  1.00  0.00    -0.074 C  
BRANCH   7   8
HETATM    8  C   UNL     1     -11.243   9.617  70.335  1.00  0.00    -0.342 C  
BRANCH   8   9
HETATM    9  C   UNL     1     -11.493  11.055  69.908  1.00  0.00    -0.400 C  
BRANCH   9  10
HETATM   10  C   UNL     1     -11.632  11.183  68.395  1.00  0.00    -0.376 C  
BRANCH  10  11
HETATM   11  C   UNL     1     -11.668  12.654  67.946  1.00  0.00    -0.412 C  
BRANCH  11  12
HETATM   12  C   UNL     1     -10.570  13.463  68.638  1.00  0.00    -0.241 C  
BRANCH  12  13
HETATM   13  N   UNL     1     -10.985  14.886  69.044  1.00  0.00    -0.235 N  
HETATM   14  C   UNL     1     -11.560  15.660  67.864  1.00  0.00    -0.190 C  
HETATM   15  C   UNL     1     -12.032  14.832  70.161  1.00  0.00    -0.312 C  
BRANCH  13  16
HETATM   16  C   UNL     1      -9.736  15.644  69.626  1.00  0.00    -0.276 C  
BRANCH  16  17
HETATM   17  C   UNL     1      -9.350  16.875  68.797  1.00  0.00    -0.260 C  
BRANCH  17  18
HETATM   18  O   UNL     1      -8.009  17.281  69.057  1.00  0.00    -0.224 OA 
BRANCH  18  19
HETATM   19  C   UNL     1      -7.700  18.495  68.484  1.00  0.00    -0.308 A  
HETATM   20  C   UNL     1      -8.710  19.084  67.727  1.00  0.00    -0.328 A  
HETATM   21  C   UNL     1      -8.477  20.292  67.066  1.00  0.00    -0.388 A  
HETATM   22  C   UNL     1      -7.237  20.924  67.172  1.00  0.00    -0.395 A  
HETATM   23  C   UNL     1      -6.236  20.357  67.956  1.00  0.00    -0.304 A  
HETATM   24  C   UNL     1      -6.470  19.152  68.617  1.00  0.00    -0.284 A  
ENDBRANCH  18  19
ENDBRANCH  17  18
ENDBRANCH  16  17
ENDBRANCH  13  16
ENDBRANCH  12  13
ENDBRANCH  11  12
ENDBRANCH  10  11
ENDBRANCH   9  10
ENDBRANCH   8   9
ENDBRANCH   7   8
ENDBRANCH   6   7
ENDBRANCH   5   6
ENDBRANCH   4   5
ENDBRANCH   3   4
ENDBRANCH   2   3
TORSDOF 15
ENDMDL
MODEL      252
REMARK 921   NORMALIZED FREE ENERGY PREDICTED BY IDOCK:   -3.49 KCAL/MOL
REMARK 922        TOTAL FREE ENERGY PREDICTED BY IDOCK:   -7.66 KCAL/MOL
REMARK 923 INTER-LIGAND FREE ENERGY PREDICTED BY IDOCK:   -6.72 KCAL/MOL
REMARK 924 INTRA-LIGAND FREE ENERGY PREDICTED BY IDOCK:   -0.95 KCAL/MOL
REMARK 927      BINDING AFFINITY PREDICTED BY RF-SCORE:    0.00 PKD
ROOT
HETATM    1  C   UNL     1     -10.238   4.697  72.810  1.00  0.00    -0.232 C  
HETATM    2  C   UNL     1      -8.797   4.412  73.190  1.00  0.00    -0.107 C  
ENDROOT
BRANCH   2   3
HETATM    3  C   UNL     1      -8.032   5.705  73.453  1.00  0.00    -0.110 C  
BRANCH   3   4
HETATM    4  C   UNL     1      -8.305   6.729  72.358  1.00  0.00    -0.109 C  
BRANCH   4   5
HETATM    5  C   UNL     1      -8.873   8.016  72.944  1.00  0.00    -0.287 C  
BRANCH   5   6
HETATM    6  C   UNL     1      -9.553   8.837  71.855  1.00  0.00    -0.372 C  
BRANCH   6   7
HETATM    7  C   UNL     1     -10.580   7.997  71.112  1.00  0.00    -0.235 C  
BRANCH   7   8
HETATM    8  C   UNL     1     -11.250   8.814  70.014  1.00  0.00    -0.113 C  
BRANCH   8   9
HETATM    9  C   UNL     1     -10.190   9.563  69.221  1.00  0.00    -0.212 C  
BRANCH   9  10
HETATM   10  C   UNL     1     -10.513   9.596  67.731  1.00  0.00    -0.309 C  
BRANCH  10  11
HETATM   11  C   UNL     1     -11.277  10.873  67.340  1.00  0.00    -0.345 C  
BRANCH  11  12
HETATM   12  C   UNL     1     -10.310  11.987  66.937  1.00  0.00    -0.213 C  
BRANCH  12  13
HETATM   13  N   UNL     1     -10.433  13.272  67.770  1.00  0.00    -0.235 N  
HETATM   14  C   UNL     1     -11.368  13.082  68.959  1.00  0.00    -0.289 C  
HETATM   15  C   UNL     1      -9.055  13.701  68.286  1.00  0.00    -0.193 C  
BRANCH  13  16
HETATM   16  C   UNL     1     -10.959  14.437  66.855  1.00  0.00    -0.308 C  
BRANCH  16  17
HETATM   17  C   UNL     1     -10.546  15.824  67.361  1.00  0.00    -0.313 C  
BRANCH  17  18
HETATM   18  O   UNL     1     -10.526  16.781  66.306  1.00  0.00    -0.307 OA 
BRANCH  18  19
HETATM   19  C   UNL     1      -9.850  17.932  66.645  1.00  0.00    -0.342 A  
HETATM   20  C   UNL     1     -10.636  18.980  67.121  1.00  0.00    -0.545 A  
HETATM   21  C   UNL     1     -10.048  20.205  67.445  1.00  0.00    -0.556 A  
HETATM   22  C   UNL     1      -8.672  20.383  67.309  1.00  0.00    -0.429 A  
HETATM   23  C   UNL     1      -7.877  19.329  66.867  1.00  0.00    -0.273 A  
HETATM   24  C   UNL     1      -8.464  18.105  66.546  1.00  0.00    -0.283 A  
ENDBRANCH  18  19
ENDBRANCH  17  18
ENDBRANCH  16  17
ENDBRANCH  13  16
ENDBRANCH  12  13
ENDBRANCH  11  12
ENDBRANCH  10  11
ENDBRANCH   9  10
ENDBRANCH   8   9
ENDBRANCH   7   8
ENDBRANCH   6   7
ENDBRANCH   5   6
ENDBRANCH   4   5
ENDBRANCH   3   4
ENDBRANCH   2   3
TORSDOF 15
ENDMDL
MODEL      253
REMARK 921   NORMALIZED FREE ENERGY PREDICTED BY IDOCK:   -3.47 KCAL/MOL
REMARK 922        TOTAL FREE ENERGY PREDICTED BY IDOCK:   -7.64 KCAL/MOL
REMARK 923 INTER-LIGAND FREE ENERGY PREDICTED BY IDOCK:   -6.06 KCAL/MOL
REMARK 924 INTRA-LIGAND FREE ENERGY PREDICTED BY IDOCK:   -1.58 KCAL/MOL
REMARK 927      BINDING AFFINITY PREDICTED BY RF-SCORE:    0.00 PKD
ROOT
HETATM    1  C   UNL     1     -12.505  12.194  63.436  1.00  0.00    -0.625 C  
HETATM    2  C   UNL     1     -11.456  11.859  64.482  1.00  0.00    -0.363 C  
ENDROOT
BRANCH   2   3
HETATM    3  C   UNL     1     -10.322  11.036  63.878  1.00  0.00    -0.436 C  
BRANCH   3   4
HETATM    4  C   UNL     1      -9.749  10.067  64.905  1.00  0.00    -0.377 C  
BRANCH   4   5
HETATM    5  C   UNL     1     -10.202  10.434  66.314  1.00  0.00    -0.286 C  
BRANCH   5   6
HETATM    6  C   UNL     1     -10.310   9.183  67.176  1.00  0.00    -0.337 C  
BRANCH   6   7
HETATM    7  C   UNL     1      -8.953   8.809  67.752  1.00  0.00    -0.140 C  
BRANCH   7   8
HETATM    8  C   UNL     1      -8.443   9.904  68.683  1.00  0.00    -0.114 C  
BRANCH   8   9
HETATM    9  C   UNL     1      -6.998   9.618  69.057  1.00  0.00    -0.058 C  
BRANCH   9  10
HETATM   10  C   UNL     1      -6.555   8.232  68.599  1.00  0.00    -0.054 C  
BRANCH  10  11
HETATM   11  C   UNL     1      -6.030   7.384  69.770  1.00  0.00    -0.024 C  
BRANCH  11  12
HETATM   12  C   UNL     1      -6.302   8.071  71.109  1.00  0.00    -0.034 C  
BRANCH  12  13
HETATM   13  N   UNL     1      -6.907   7.156  72.186  1.00  0.00    -0.056 N  
HETATM   14  C   UNL     1      -6.289   5.763  72.148  1.00  0.00    -0.048 C  
HETATM   15  C   UNL     1      -6.684   7.759  73.576  1.00  0.00    -0.087 C  
BRANCH  13  16
HETATM   16  C   UNL     1      -8.461   7.060  71.973  1.00  0.00    -0.112 C  
BRANCH  16  17
HETATM   17  C   UNL     1      -9.236   8.112  72.776  1.00  0.00    -0.271 C  
BRANCH  17  18
HETATM   18  O   UNL     1     -10.631   7.820  72.811  1.00  0.00    -0.281 OA 
BRANCH  18  19
HETATM   19  C   UNL     1     -11.382   8.726  72.095  1.00  0.00    -0.341 A  
HETATM   20  C   UNL     1     -12.755   8.694  72.327  1.00  0.00    -0.450 A  
HETATM   21  C   UNL     1     -13.607   9.541  71.613  1.00  0.00    -0.426 A  
HETATM   22  C   UNL     1     -13.087  10.433  70.675  1.00  0.00    -0.293 A  
HETATM   23  C   UNL     1     -11.712  10.494  70.465  1.00  0.00    -0.443 A  
HETATM   24  C   UNL     1     -10.863   9.650  71.179  1.00  0.00    -0.404 A  
ENDBRANCH  18  19
ENDBRANCH  17  18
ENDBRANCH  16  17
ENDBRANCH  13  16
ENDBRANCH  12  13
ENDBRANCH  11  12
ENDBRANCH  10  11
ENDBRANCH   9  10
ENDBRANCH   8   9
ENDBRANCH   7   8
ENDBRANCH   6   7
ENDBRANCH   5   6
ENDBRANCH   4   5
ENDBRANCH   3   4
ENDBRANCH   2   3
TORSDOF 15
ENDMDL
MODEL      254
REMARK 921   NORMALIZED FREE ENERGY PREDICTED BY IDOCK:   -3.46 KCAL/MOL
REMARK 922        TOTAL FREE ENERGY PREDICTED BY IDOCK:   -7.62 KCAL/MOL
REMARK 923 INTER-LIGAND FREE ENERGY PREDICTED BY IDOCK:   -6.84 KCAL/MOL
REMARK 924 INTRA-LIGAND FREE ENERGY PREDICTED BY IDOCK:   -0.77 KCAL/MOL
REMARK 927      BINDING AFFINITY PREDICTED BY RF-SCORE:    0.00 PKD
ROOT
HETATM    1  C   UNL     1      -6.234  20.111  70.045  1.00  0.00    -0.384 C  
HETATM    2  C   UNL     1      -5.429  20.406  68.792  1.00  0.00    -0.302 C  
ENDROOT
BRANCH   2   3
HETATM    3  C   UNL     1      -6.154  19.913  67.545  1.00  0.00    -0.212 C  
BRANCH   3   4
HETATM    4  C   UNL     1      -7.486  20.633  67.371  1.00  0.00    -0.384 C  
BRANCH   4   5
HETATM    5  C   UNL     1      -8.603  19.646  67.053  1.00  0.00    -0.358 C  
BRANCH   5   6
HETATM    6  C   UNL     1      -8.138  18.220  67.318  1.00  0.00    -0.233 C  
BRANCH   6   7
HETATM    7  C   UNL     1      -8.090  17.423  66.025  1.00  0.00    -0.180 C  
BRANCH   7   8
HETATM    8  C   UNL     1      -8.714  16.045  66.218  1.00  0.00    -0.372 C  
BRANCH   8   9
HETATM    9  C   UNL     1     -10.221  16.143  66.041  1.00  0.00    -0.374 C  
BRANCH   9  10
HETATM   10  C   UNL     1     -10.932  14.876  66.504  1.00  0.00    -0.327 C  
BRANCH  10  11
HETATM   11  C   UNL     1      -9.961  13.690  66.634  1.00  0.00    -0.283 C  
BRANCH  11  12
HETATM   12  C   UNL     1      -9.860  13.223  68.087  1.00  0.00    -0.231 C  
BRANCH  12  13
HETATM   13  N   UNL     1     -10.865  12.127  68.477  1.00  0.00    -0.226 N  
HETATM   14  C   UNL     1     -12.004  12.687  69.321  1.00  0.00    -0.246 C  
HETATM   15  C   UNL     1     -11.451  11.476  67.221  1.00  0.00    -0.263 C  
BRANCH  13  16
HETATM   16  C   UNL     1     -10.115  10.995  69.271  1.00  0.00    -0.095 C  
BRANCH  16  17
HETATM   17  C   UNL     1     -10.953   9.720  69.419  1.00  0.00    -0.212 C  
BRANCH  17  18
HETATM   18  O   UNL     1     -11.526   9.619  70.720  1.00  0.00    -0.279 OA 
BRANCH  18  19
HETATM   19  C   UNL     1     -11.310   8.390  71.303  1.00  0.00    -0.266 A  
HETATM   20  C   UNL     1     -10.497   8.390  72.435  1.00  0.00    -0.402 A  
HETATM   21  C   UNL     1     -10.179   7.187  73.069  1.00  0.00    -0.290 A  
HETATM   22  C   UNL     1     -10.683   5.980  72.583  1.00  0.00    -0.266 A  
HETATM   23  C   UNL     1     -11.525   5.979  71.473  1.00  0.00    -0.280 A  
HETATM   24  C   UNL     1     -11.844   7.180  70.842  1.00  0.00    -0.379 A  
ENDBRANCH  18  19
ENDBRANCH  17  18
ENDBRANCH  16  17
ENDBRANCH  13  16
ENDBRANCH  12  13
ENDBRANCH  11  12
ENDBRANCH  10  11
ENDBRANCH   9  10
ENDBRANCH   8   9
ENDBRANCH   7   8
ENDBRANCH   6   7
ENDBRANCH   5   6
ENDBRANCH   4   5
ENDBRANCH   3   4
ENDBRANCH   2   3
TORSDOF 15
ENDMDL
MODEL      255
REMARK 921   NORMALIZED FREE ENERGY PREDICTED BY IDOCK:   -3.44 KCAL/MOL
REMARK 922        TOTAL FREE ENERGY PREDICTED BY IDOCK:   -7.57 KCAL/MOL
REMARK 923 INTER-LIGAND FREE ENERGY PREDICTED BY IDOCK:   -6.61 KCAL/MOL
REMARK 924 INTRA-LIGAND FREE ENERGY PREDICTED BY IDOCK:   -0.96 KCAL/MOL
REMARK 927      BINDING AFFINITY PREDICTED BY RF-SCORE:    0.00 PKD
ROOT
HETATM    1  C   UNL     1     -10.079   7.603  67.309  1.00  0.00    -0.306 C  
HETATM    2  C   UNL     1      -9.772   8.292  68.626  1.00  0.00    -0.162 C  
ENDROOT
BRANCH   2   3
HETATM    3  C   UNL     1      -9.600   9.795  68.432  1.00  0.00    -0.157 C  
BRANCH   3   4
HETATM    4  C   UNL     1      -8.136  10.149  68.200  1.00  0.00    -0.105 C  
BRANCH   4   5
HETATM    5  C   UNL     1      -7.774  11.458  68.892  1.00  0.00    -0.108 C  
BRANCH   5   6
HETATM    6  C   UNL     1      -6.768  12.237  68.055  1.00  0.00    -0.081 C  
BRANCH   6   7
HETATM    7  C   UNL     1      -6.470  13.585  68.691  1.00  0.00    -0.094 C  
BRANCH   7   8
HETATM    8  C   UNL     1      -5.315  14.275  67.974  1.00  0.00    -0.109 C  
BRANCH   8   9
HETATM    9  C   UNL     1      -5.664  15.737  67.742  1.00  0.00    -0.164 C  
BRANCH   9  10
HETATM   10  C   UNL     1      -7.108  16.045  68.125  1.00  0.00    -0.128 C  
BRANCH  10  11
HETATM   11  C   UNL     1      -7.997  16.244  66.885  1.00  0.00    -0.278 C  
BRANCH  11  12
HETATM   12  C   UNL     1      -8.347  17.721  66.695  1.00  0.00    -0.259 C  
BRANCH  12  13
HETATM   13  N   UNL     1      -9.682  18.148  67.327  1.00  0.00    -0.289 N  
HETATM   14  C   UNL     1      -9.474  18.782  68.698  1.00  0.00    -0.368 C  
HETATM   15  C   UNL     1     -10.399  19.152  66.419  1.00  0.00    -0.455 C  
BRANCH  13  16
HETATM   16  C   UNL     1     -10.621  16.894  67.453  1.00  0.00    -0.294 C  
BRANCH  16  17
HETATM   17  C   UNL     1     -11.333  16.819  68.809  1.00  0.00    -0.038 C  
BRANCH  17  18
HETATM   18  O   UNL     1     -11.963  15.555  69.000  1.00  0.00    -0.354 OA 
BRANCH  18  19
HETATM   19  C   UNL     1     -12.190  15.269  70.328  1.00  0.00    -0.363 A  
HETATM   20  C   UNL     1     -12.897  14.096  70.584  1.00  0.00    -0.356 A  
HETATM   21  C   UNL     1     -13.219  13.744  71.897  1.00  0.00    -0.486 A  
HETATM   22  C   UNL     1     -12.823  14.557  72.960  1.00  0.00    -0.550 A  
HETATM   23  C   UNL     1     -12.085  15.711  72.712  1.00  0.00    -0.572 A  
HETATM   24  C   UNL     1     -11.762  16.060  71.401  1.00  0.00    -0.536 A  
ENDBRANCH  18  19
ENDBRANCH  17  18
ENDBRANCH  16  17
ENDBRANCH  13  16
ENDBRANCH  12  13
ENDBRANCH  11  12
ENDBRANCH  10  11
ENDBRANCH   9  10
ENDBRANCH   8   9
ENDBRANCH   7   8
ENDBRANCH   6   7
ENDBRANCH   5   6
ENDBRANCH   4   5
ENDBRANCH   3   4
ENDBRANCH   2   3
TORSDOF 15
ENDMDL
MODEL      256
REMARK 921   NORMALIZED FREE ENERGY PREDICTED BY IDOCK:   -3.43 KCAL/MOL
REMARK 922        TOTAL FREE ENERGY PREDICTED BY IDOCK:   -7.57 KCAL/MOL
REMARK 923 INTER-LIGAND FREE ENERGY PREDICTED BY IDOCK:   -6.57 KCAL/MOL
REMARK 924 INTRA-LIGAND FREE ENERGY PREDICTED BY IDOCK:   -1.00 KCAL/MOL
REMARK 927      BINDING AFFINITY PREDICTED BY RF-SCORE:    0.00 PKD
ROOT
HETATM    1  C   UNL     1      -8.304  16.081  68.809  1.00  0.00    -0.216 C  
HETATM    2  C   UNL     1      -8.934  15.519  67.547  1.00  0.00    -0.196 C  
ENDROOT
BRANCH   2   3
HETATM    3  C   UNL     1     -10.380  15.980  67.404  1.00  0.00    -0.294 C  
BRANCH   3   4
HETATM    4  C   UNL     1     -11.106  15.166  66.338  1.00  0.00    -0.312 C  
BRANCH   4   5
HETATM    5  C   UNL     1     -11.845  13.988  66.961  1.00  0.00    -0.458 C  
BRANCH   5   6
HETATM    6  C   UNL     1     -12.128  12.926  65.907  1.00  0.00    -0.503 C  
BRANCH   6   7
HETATM    7  C   UNL     1     -11.995  13.508  64.509  1.00  0.00    -0.451 C  
BRANCH   7   8
HETATM    8  C   UNL     1     -10.892  12.797  63.733  1.00  0.00    -0.416 C  
BRANCH   8   9
HETATM    9  C   UNL     1     -10.859  11.330  64.129  1.00  0.00    -0.407 C  
BRANCH   9  10
HETATM   10  C   UNL     1      -9.438  10.776  64.143  1.00  0.00    -0.309 C  
BRANCH  10  11
HETATM   11  C   UNL     1      -9.257   9.693  65.220  1.00  0.00    -0.295 C  
BRANCH  11  12
HETATM   12  C   UNL     1     -10.184   9.945  66.410  1.00  0.00    -0.222 C  
BRANCH  12  13
HETATM   13  N   UNL     1      -9.499   9.864  67.783  1.00  0.00    -0.140 N  
HETATM   14  C   UNL     1      -8.343   8.870  67.775  1.00  0.00    -0.110 C  
HETATM   15  C   UNL     1      -8.967  11.242  68.190  1.00  0.00    -0.166 C  
BRANCH  13  16
HETATM   16  C   UNL     1     -10.558   9.446  68.868  1.00  0.00    -0.208 C  
BRANCH  16  17
HETATM   17  C   UNL     1     -10.393   7.994  69.331  1.00  0.00    -0.217 C  
BRANCH  17  18
HETATM   18  O   UNL     1     -11.176   7.722  70.490  1.00  0.00    -0.265 OA 
BRANCH  18  19
HETATM   19  C   UNL     1     -10.424   7.688  71.643  1.00  0.00    -0.197 A  
HETATM   20  C   UNL     1      -9.050   7.854  71.478  1.00  0.00    -0.169 A  
HETATM   21  C   UNL     1      -8.199   7.787  72.584  1.00  0.00    -0.171 A  
HETATM   22  C   UNL     1      -8.718   7.569  73.860  1.00  0.00    -0.280 A  
HETATM   23  C   UNL     1     -10.094   7.439  74.035  1.00  0.00    -0.128 A  
HETATM   24  C   UNL     1     -10.943   7.508  72.932  1.00  0.00    -0.434 A  
ENDBRANCH  18  19
ENDBRANCH  17  18
ENDBRANCH  16  17
ENDBRANCH  13  16
ENDBRANCH  12  13
ENDBRANCH  11  12
ENDBRANCH  10  11
ENDBRANCH   9  10
ENDBRANCH   8   9
ENDBRANCH   7   8
ENDBRANCH   6   7
ENDBRANCH   5   6
ENDBRANCH   4   5
ENDBRANCH   3   4
ENDBRANCH   2   3
TORSDOF 15
ENDMDL
MODEL      257
REMARK 921   NORMALIZED FREE ENERGY PREDICTED BY IDOCK:   -3.43 KCAL/MOL
REMARK 922        TOTAL FREE ENERGY PREDICTED BY IDOCK:   -7.56 KCAL/MOL
REMARK 923 INTER-LIGAND FREE ENERGY PREDICTED BY IDOCK:   -6.49 KCAL/MOL
REMARK 924 INTRA-LIGAND FREE ENERGY PREDICTED BY IDOCK:   -1.08 KCAL/MOL
REMARK 927      BINDING AFFINITY PREDICTED BY RF-SCORE:    0.00 PKD
ROOT
HETATM    1  C   UNL     1     -12.243  14.320  65.054  1.00  0.00    -0.438 C  
HETATM    2  C   UNL     1     -10.842  14.902  65.095  1.00  0.00    -0.428 C  
ENDROOT
BRANCH   2   3
HETATM    3  C   UNL     1     -10.641  15.761  66.339  1.00  0.00    -0.307 C  
BRANCH   3   4
HETATM    4  C   UNL     1     -11.465  15.229  67.505  1.00  0.00    -0.271 C  
BRANCH   4   5
HETATM    5  C   UNL     1     -11.587  16.273  68.609  1.00  0.00    -0.216 C  
BRANCH   5   6
HETATM    6  C   UNL     1     -11.713  15.593  69.966  1.00  0.00    -0.369 C  
BRANCH   6   7
HETATM    7  C   UNL     1     -11.723  14.081  69.811  1.00  0.00    -0.375 C  
BRANCH   7   8
HETATM    8  C   UNL     1     -12.483  13.427  70.960  1.00  0.00    -0.437 C  
BRANCH   8   9
HETATM    9  C   UNL     1     -12.317  11.917  70.882  1.00  0.00    -0.400 C  
BRANCH   9  10
HETATM   10  C   UNL     1     -11.887  11.463  69.491  1.00  0.00    -0.426 C  
BRANCH  10  11
HETATM   11  C   UNL     1     -11.131  10.124  69.535  1.00  0.00    -0.295 C  
BRANCH  11  12
HETATM   12  C   UNL     1      -9.691  10.293  69.049  1.00  0.00    -0.205 C  
BRANCH  12  13
HETATM   13  N   UNL     1      -8.669   9.381  69.747  1.00  0.00    -0.164 N  
HETATM   14  C   UNL     1      -8.235   8.233  68.842  1.00  0.00    -0.116 C  
HETATM   15  C   UNL     1      -7.433  10.188  70.154  1.00  0.00    -0.133 C  
BRANCH  13  16
HETATM   16  C   UNL     1      -9.300   8.812  71.070  1.00  0.00    -0.222 C  
BRANCH  16  17
HETATM   17  C   UNL     1      -9.019   7.318  71.267  1.00  0.00    -0.139 C  
BRANCH  17  18
HETATM   18  O   UNL     1     -10.202   6.539  71.116  1.00  0.00    -0.190 OA 
BRANCH  18  19
HETATM   19  C   UNL     1      -9.951   5.284  70.606  1.00  0.00    -0.218 A  
HETATM   20  C   UNL     1      -9.869   4.255  71.542  1.00  0.00    -0.260 A  
HETATM   21  C   UNL     1      -9.570   2.954  71.128  1.00  0.00    -0.226 A  
HETATM   22  C   UNL     1      -9.366   2.675  69.776  1.00  0.00    -0.185 A  
HETATM   23  C   UNL     1      -9.483   3.694  68.834  1.00  0.00    -0.218 A  
HETATM   24  C   UNL     1      -9.783   4.991  69.247  1.00  0.00    -0.249 A  
ENDBRANCH  18  19
ENDBRANCH  17  18
ENDBRANCH  16  17
ENDBRANCH  13  16
ENDBRANCH  12  13
ENDBRANCH  11  12
ENDBRANCH  10  11
ENDBRANCH   9  10
ENDBRANCH   8   9
ENDBRANCH   7   8
ENDBRANCH   6   7
ENDBRANCH   5   6
ENDBRANCH   4   5
ENDBRANCH   3   4
ENDBRANCH   2   3
TORSDOF 15
ENDMDL
MODEL      258
REMARK 921   NORMALIZED FREE ENERGY PREDICTED BY IDOCK:   -3.43 KCAL/MOL
REMARK 922        TOTAL FREE ENERGY PREDICTED BY IDOCK:   -7.56 KCAL/MOL
REMARK 923 INTER-LIGAND FREE ENERGY PREDICTED BY IDOCK:   -6.65 KCAL/MOL
REMARK 924 INTRA-LIGAND FREE ENERGY PREDICTED BY IDOCK:   -0.91 KCAL/MOL
REMARK 927      BINDING AFFINITY PREDICTED BY RF-SCORE:    0.00 PKD
ROOT
HETATM    1  C   UNL     1     -11.414  12.621  63.499  1.00  0.00    -0.557 C  
HETATM    2  C   UNL     1     -10.798  11.280  63.855  1.00  0.00    -0.427 C  
ENDROOT
BRANCH   2   3
HETATM    3  C   UNL     1      -9.642  10.941  62.920  1.00  0.00    -0.371 C  
BRANCH   3   4
HETATM    4  C   UNL     1      -8.955   9.651  63.352  1.00  0.00    -0.246 C  
BRANCH   4   5
HETATM    5  C   UNL     1      -9.201   9.371  64.830  1.00  0.00    -0.246 C  
BRANCH   5   6
HETATM    6  C   UNL     1      -8.052   8.557  65.412  1.00  0.00    -0.127 C  
BRANCH   6   7
HETATM    7  C   UNL     1      -6.720   9.239  65.140  1.00  0.00    -0.077 C  
BRANCH   7   8
HETATM    8  C   UNL     1      -6.771  10.704  65.560  1.00  0.00    -0.050 C  
BRANCH   8   9
HETATM    9  C   UNL     1      -6.308  10.834  67.002  1.00  0.00    -0.078 C  
BRANCH   9  10
HETATM   10  C   UNL     1      -7.463  10.678  67.986  1.00  0.00    -0.090 C  
BRANCH  10  11
HETATM   11  C   UNL     1      -7.919  12.034  68.552  1.00  0.00    -0.132 C  
BRANCH  11  12
HETATM   12  C   UNL     1      -8.116  13.055  67.430  1.00  0.00    -0.180 C  
BRANCH  12  13
HETATM   13  N   UNL     1      -9.513  13.696  67.386  1.00  0.00    -0.217 N  
HETATM   14  C   UNL     1     -10.613  12.646  67.492  1.00  0.00    -0.221 C  
HETATM   15  C   UNL     1      -9.670  14.698  68.534  1.00  0.00    -0.225 C  
BRANCH  13  16
HETATM   16  C   UNL     1      -9.670  14.506  66.048  1.00  0.00    -0.303 C  
BRANCH  16  17
HETATM   17  C   UNL     1     -10.640  15.686  66.179  1.00  0.00    -0.320 C  
BRANCH  17  18
HETATM   18  O   UNL     1     -10.159  16.837  65.490  1.00  0.00    -0.566 OA 
BRANCH  18  19
HETATM   19  C   UNL     1      -9.734  17.830  66.345  1.00  0.00    -0.308 A  
HETATM   20  C   UNL     1     -10.731  18.463  67.083  1.00  0.00    -0.366 A  
HETATM   21  C   UNL     1     -10.405  19.516  67.942  1.00  0.00    -0.567 A  
HETATM   22  C   UNL     1      -9.080  19.930  68.076  1.00  0.00    -0.382 A  
HETATM   23  C   UNL     1      -8.075  19.277  67.367  1.00  0.00    -0.306 A  
HETATM   24  C   UNL     1      -8.401  18.225  66.512  1.00  0.00    -0.287 A  
ENDBRANCH  18  19
ENDBRANCH  17  18
ENDBRANCH  16  17
ENDBRANCH  13  16
ENDBRANCH  12  13
ENDBRANCH  11  12
ENDBRANCH  10  11
ENDBRANCH   9  10
ENDBRANCH   8   9
ENDBRANCH   7   8
ENDBRANCH   6   7
ENDBRANCH   5   6
ENDBRANCH   4   5
ENDBRANCH   3   4
ENDBRANCH   2   3
TORSDOF 15
ENDMDL
MODEL      259
REMARK 921   NORMALIZED FREE ENERGY PREDICTED BY IDOCK:   -3.43 KCAL/MOL
REMARK 922        TOTAL FREE ENERGY PREDICTED BY IDOCK:   -7.55 KCAL/MOL
REMARK 923 INTER-LIGAND FREE ENERGY PREDICTED BY IDOCK:   -6.62 KCAL/MOL
REMARK 924 INTRA-LIGAND FREE ENERGY PREDICTED BY IDOCK:   -0.94 KCAL/MOL
REMARK 927      BINDING AFFINITY PREDICTED BY RF-SCORE:    0.00 PKD
ROOT
HETATM    1  C   UNL     1      -5.712  20.927  68.636  1.00  0.00    -0.387 C  
HETATM    2  C   UNL     1      -6.483  19.999  67.714  1.00  0.00    -0.268 C  
ENDROOT
BRANCH   2   3
HETATM    3  C   UNL     1      -7.902  19.773  68.226  1.00  0.00    -0.335 C  
BRANCH   3   4
HETATM    4  C   UNL     1      -8.143  18.297  68.523  1.00  0.00    -0.330 C  
BRANCH   4   5
HETATM    5  C   UNL     1      -9.485  17.840  67.963  1.00  0.00    -0.281 C  
BRANCH   5   6
HETATM    6  C   UNL     1      -9.431  17.785  66.442  1.00  0.00    -0.277 C  
BRANCH   6   7
HETATM    7  C   UNL     1      -8.548  16.639  65.977  1.00  0.00    -0.229 C  
BRANCH   7   8
HETATM    8  C   UNL     1      -8.967  15.333  66.643  1.00  0.00    -0.324 C  
BRANCH   8   9
HETATM    9  C   UNL     1      -9.717  14.470  65.639  1.00  0.00    -0.282 C  
BRANCH   9  10
HETATM   10  C   UNL     1     -11.202  14.815  65.590  1.00  0.00    -0.343 C  
BRANCH  10  11
HETATM   11  C   UNL     1     -11.996  14.083  66.685  1.00  0.00    -0.473 C  
BRANCH  11  12
HETATM   12  C   UNL     1     -11.936  14.848  68.008  1.00  0.00    -0.185 C  
BRANCH  12  13
HETATM   13  N   UNL     1     -11.673  13.971  69.243  1.00  0.00    -0.303 N  
HETATM   14  C   UNL     1     -10.223  14.071  69.703  1.00  0.00     0.456 C  
HETATM   15  C   UNL     1     -12.591  14.393  70.395  1.00  0.00    -0.345 C  
BRANCH  13  16
HETATM   16  C   UNL     1     -12.026  12.477  68.902  1.00  0.00    -0.236 C  
BRANCH  16  17
HETATM   17  C   UNL     1     -10.887  11.507  69.237  1.00  0.00    -0.167 C  
BRANCH  17  18
HETATM   18  O   UNL     1     -11.344  10.158  69.280  1.00  0.00    -0.217 OA 
BRANCH  18  19
HETATM   19  C   UNL     1     -10.941   9.496  70.419  1.00  0.00    -0.278 A  
HETATM   20  C   UNL     1     -11.953   8.883  71.155  1.00  0.00    -0.344 A  
HETATM   21  C   UNL     1     -11.651   8.227  72.351  1.00  0.00    -0.464 A  
HETATM   22  C   UNL     1     -10.334   8.170  72.809  1.00  0.00    -0.384 A  
HETATM   23  C   UNL     1      -9.315   8.751  72.059  1.00  0.00    -0.322 A  
HETATM   24  C   UNL     1      -9.617   9.403  70.864  1.00  0.00    -0.301 A  
ENDBRANCH  18  19
ENDBRANCH  17  18
ENDBRANCH  16  17
ENDBRANCH  13  16
ENDBRANCH  12  13
ENDBRANCH  11  12
ENDBRANCH  10  11
ENDBRANCH   9  10
ENDBRANCH   8   9
ENDBRANCH   7   8
ENDBRANCH   6   7
ENDBRANCH   5   6
ENDBRANCH   4   5
ENDBRANCH   3   4
ENDBRANCH   2   3
TORSDOF 15
ENDMDL
MODEL      260
REMARK 921   NORMALIZED FREE ENERGY PREDICTED BY IDOCK:   -3.42 KCAL/MOL
REMARK 922        TOTAL FREE ENERGY PREDICTED BY IDOCK:   -7.55 KCAL/MOL
REMARK 923 INTER-LIGAND FREE ENERGY PREDICTED BY IDOCK:   -5.58 KCAL/MOL
REMARK 924 INTRA-LIGAND FREE ENERGY PREDICTED BY IDOCK:   -1.97 KCAL/MOL
REMARK 927      BINDING AFFINITY PREDICTED BY RF-SCORE:    0.00 PKD
ROOT
HETATM    1  C   UNL     1      -9.739   8.699  67.593  1.00  0.00    -0.201 C  
HETATM    2  C   UNL     1      -9.112   7.844  66.507  1.00  0.00    -0.209 C  
ENDROOT
BRANCH   2   3
HETATM    3  C   UNL     1      -8.740   8.686  65.291  1.00  0.00    -0.200 C  
BRANCH   3   4
HETATM    4  C   UNL     1      -9.652   9.902  65.174  1.00  0.00    -0.367 C  
BRANCH   4   5
HETATM    5  C   UNL     1      -9.631  10.465  63.758  1.00  0.00    -0.366 C  
BRANCH   5   6
HETATM    6  C   UNL     1     -10.719  11.518  63.593  1.00  0.00    -0.491 C  
BRANCH   6   7
HETATM    7  C   UNL     1     -11.334  11.870  64.939  1.00  0.00    -0.337 C  
BRANCH   7   8
HETATM    8  C   UNL     1     -12.589  12.715  64.752  1.00  0.00    -0.530 C  
BRANCH   8   9
HETATM    9  C   UNL     1     -12.234  13.993  64.008  1.00  0.00    -0.395 C  
BRANCH   9  10
HETATM   10  C   UNL     1     -11.348  14.910  64.845  1.00  0.00    -0.415 C  
BRANCH  10  11
HETATM   11  C   UNL     1     -11.725  14.865  66.336  1.00  0.00    -0.193 C  
BRANCH  11  12
HETATM   12  C   UNL     1     -10.818  15.783  67.156  1.00  0.00    -0.289 C  
BRANCH  12  13
HETATM   13  N   UNL     1      -9.826  15.050  68.073  1.00  0.00    -0.216 N  
HETATM   14  C   UNL     1      -8.976  16.028  68.876  1.00  0.00    -0.239 C  
HETATM   15  C   UNL     1     -10.581  14.135  69.043  1.00  0.00    -0.213 C  
BRANCH  13  16
HETATM   16  C   UNL     1      -8.900  14.125  67.201  1.00  0.00    -0.229 C  
BRANCH  16  17
HETATM   17  C   UNL     1      -8.544  12.810  67.904  1.00  0.00    -0.181 C  
BRANCH  17  18
HETATM   18  O   UNL     1      -7.184  12.449  67.680  1.00  0.00    -0.106 OA 
BRANCH  18  19
HETATM   19  C   UNL     1      -6.871  11.210  68.194  1.00  0.00    -0.067 A  
HETATM   20  C   UNL     1      -6.166  10.360  67.343  1.00  0.00    -0.057 A  
HETATM   21  C   UNL     1      -5.845   9.064  67.756  1.00  0.00    -0.039 A  
HETATM   22  C   UNL     1      -6.214   8.618  69.025  1.00  0.00    -0.044 A  
HETATM   23  C   UNL     1      -6.887   9.475  69.892  1.00  0.00    -0.067 A  
HETATM   24  C   UNL     1      -7.206  10.769  69.480  1.00  0.00    -0.132 A  
ENDBRANCH  18  19
ENDBRANCH  17  18
ENDBRANCH  16  17
ENDBRANCH  13  16
ENDBRANCH  12  13
ENDBRANCH  11  12
ENDBRANCH  10  11
ENDBRANCH   9  10
ENDBRANCH   8   9
ENDBRANCH   7   8
ENDBRANCH   6   7
ENDBRANCH   5   6
ENDBRANCH   4   5
ENDBRANCH   3   4
ENDBRANCH   2   3
TORSDOF 15
ENDMDL
MODEL      261
REMARK 921   NORMALIZED FREE ENERGY PREDICTED BY IDOCK:   -3.42 KCAL/MOL
REMARK 922        TOTAL FREE ENERGY PREDICTED BY IDOCK:   -7.55 KCAL/MOL
REMARK 923 INTER-LIGAND FREE ENERGY PREDICTED BY IDOCK:   -6.74 KCAL/MOL
REMARK 924 INTRA-LIGAND FREE ENERGY PREDICTED BY IDOCK:   -0.81 KCAL/MOL
REMARK 927      BINDING AFFINITY PREDICTED BY RF-SCORE:    0.00 PKD
ROOT
HETATM    1  C   UNL     1     -13.918  13.465  72.166  1.00  0.00    -0.531 C  
HETATM    2  C   UNL     1     -13.409  14.869  72.436  1.00  0.00    -0.502 C  
ENDROOT
BRANCH   2   3
HETATM    3  C   UNL     1     -12.745  15.461  71.197  1.00  0.00    -0.503 C  
BRANCH   3   4
HETATM    4  C   UNL     1     -12.610  14.410  70.101  1.00  0.00    -0.340 C  
BRANCH   4   5
HETATM    5  C   UNL     1     -11.682  14.894  68.993  1.00  0.00    -0.347 C  
BRANCH   5   6
HETATM    6  C   UNL     1     -10.624  15.830  69.562  1.00  0.00    -0.272 C  
BRANCH   6   7
HETATM    7  C   UNL     1      -9.892  16.556  68.444  1.00  0.00    -0.237 C  
BRANCH   7   8
HETATM    8  C   UNL     1     -10.876  17.045  67.387  1.00  0.00    -0.165 C  
BRANCH   8   9
HETATM    9  C   UNL     1     -10.363  16.669  66.006  1.00  0.00    -0.352 C  
BRANCH   9  10
HETATM   10  C   UNL     1      -9.488  15.421  66.045  1.00  0.00    -0.381 C  
BRANCH  10  11
HETATM   11  C   UNL     1     -10.230  14.185  65.509  1.00  0.00    -0.371 C  
BRANCH  11  12
HETATM   12  C   UNL     1     -10.811  13.356  66.657  1.00  0.00    -0.282 C  
BRANCH  12  13
HETATM   13  N   UNL     1     -10.039  12.064  66.966  1.00  0.00    -0.202 N  
HETATM   14  C   UNL     1     -10.099  11.083  65.801  1.00  0.00    -0.252 C  
HETATM   15  C   UNL     1      -8.572  12.385  67.271  1.00  0.00    -0.185 C  
BRANCH  13  16
HETATM   16  C   UNL     1     -10.638  11.399  68.259  1.00  0.00    -0.195 C  
BRANCH  16  17
HETATM   17  C   UNL     1      -9.570  10.727  69.130  1.00  0.00    -0.151 C  
BRANCH  17  18
HETATM   18  O   UNL     1      -9.641   9.306  69.041  1.00  0.00    -0.155 OA 
BRANCH  18  19
HETATM   19  C   UNL     1      -9.509   8.690  70.266  1.00  0.00    -0.167 A  
HETATM   20  C   UNL     1     -10.638   8.710  71.082  1.00  0.00    -0.291 A  
HETATM   21  C   UNL     1     -10.588   8.153  72.362  1.00  0.00    -0.393 A  
HETATM   22  C   UNL     1      -9.413   7.561  72.826  1.00  0.00    -0.223 A  
HETATM   23  C   UNL     1      -8.293   7.506  72.001  1.00  0.00    -0.121 A  
HETATM   24  C   UNL     1      -8.344   8.060  70.723  1.00  0.00    -0.115 A  
ENDBRANCH  18  19
ENDBRANCH  17  18
ENDBRANCH  16  17
ENDBRANCH  13  16
ENDBRANCH  12  13
ENDBRANCH  11  12
ENDBRANCH  10  11
ENDBRANCH   9  10
ENDBRANCH   8   9
ENDBRANCH   7   8
ENDBRANCH   6   7
ENDBRANCH   5   6
ENDBRANCH   4   5
ENDBRANCH   3   4
ENDBRANCH   2   3
TORSDOF 15
ENDMDL
MODEL      262
REMARK 921   NORMALIZED FREE ENERGY PREDICTED BY IDOCK:   -3.41 KCAL/MOL
REMARK 922        TOTAL FREE ENERGY PREDICTED BY IDOCK:   -7.52 KCAL/MOL
REMARK 923 INTER-LIGAND FREE ENERGY PREDICTED BY IDOCK:   -6.59 KCAL/MOL
REMARK 924 INTRA-LIGAND FREE ENERGY PREDICTED BY IDOCK:   -0.94 KCAL/MOL
REMARK 927      BINDING AFFINITY PREDICTED BY RF-SCORE:    0.00 PKD
ROOT
HETATM    1  C   UNL     1      -5.359  20.099  71.755  1.00  0.00    -0.427 C  
HETATM    2  C   UNL     1      -5.130  20.073  70.254  1.00  0.00    -0.237 C  
ENDROOT
BRANCH   2   3
HETATM    3  C   UNL     1      -5.675  18.788  69.638  1.00  0.00    -0.251 C  
BRANCH   3   4
HETATM    4  C   UNL     1      -6.325  19.068  68.288  1.00  0.00    -0.242 C  
BRANCH   4   5
HETATM    5  C   UNL     1      -6.183  20.537  67.908  1.00  0.00    -0.317 C  
BRANCH   5   6
HETATM    6  C   UNL     1      -7.093  20.869  66.732  1.00  0.00    -0.284 C  
BRANCH   6   7
HETATM    7  C   UNL     1      -8.146  19.788  66.547  1.00  0.00    -0.351 C  
BRANCH   7   8
HETATM    8  C   UNL     1      -9.439  20.169  67.259  1.00  0.00    -0.532 C  
BRANCH   8   9
HETATM    9  C   UNL     1     -10.309  18.933  67.427  1.00  0.00    -0.496 C  
BRANCH   9  10
HETATM   10  C   UNL     1     -10.599  18.256  66.091  1.00  0.00    -0.326 C  
BRANCH  10  11
HETATM   11  C   UNL     1     -10.122  16.793  66.076  1.00  0.00    -0.350 C  
BRANCH  11  12
HETATM   12  C   UNL     1     -10.209  16.176  67.472  1.00  0.00    -0.267 C  
BRANCH  12  13
HETATM   13  N   UNL     1     -11.045  14.888  67.551  1.00  0.00    -0.307 N  
HETATM   14  C   UNL     1     -12.068  14.953  68.680  1.00  0.00    -0.170 C  
HETATM   15  C   UNL     1     -11.781  14.655  66.228  1.00  0.00    -0.320 C  
BRANCH  13  16
HETATM   16  C   UNL     1     -10.088  13.660  67.764  1.00  0.00    -0.242 C  
BRANCH  16  17
HETATM   17  C   UNL     1     -10.806  12.444  68.361  1.00  0.00    -0.238 C  
BRANCH  17  18
HETATM   18  O   UNL     1      -9.890  11.402  68.686  1.00  0.00    -0.200 OA 
BRANCH  18  19
HETATM   19  C   UNL     1     -10.088  10.265  67.935  1.00  0.00    -0.170 A  
HETATM   20  C   UNL     1     -10.506   9.138  68.639  1.00  0.00    -0.235 A  
HETATM   21  C   UNL     1     -10.688   7.923  67.973  1.00  0.00    -0.119 A  
HETATM   22  C   UNL     1     -10.467   7.835  66.598  1.00  0.00    -0.196 A  
HETATM   23  C   UNL     1     -10.085   8.968  65.884  1.00  0.00    -0.041 A  
HETATM   24  C   UNL     1      -9.905  10.180  66.549  1.00  0.00    -0.268 A  
ENDBRANCH  18  19
ENDBRANCH  17  18
ENDBRANCH  16  17
ENDBRANCH  13  16
ENDBRANCH  12  13
ENDBRANCH  11  12
ENDBRANCH  10  11
ENDBRANCH   9  10
ENDBRANCH   8   9
ENDBRANCH   7   8
ENDBRANCH   6   7
ENDBRANCH   5   6
ENDBRANCH   4   5
ENDBRANCH   3   4
ENDBRANCH   2   3
TORSDOF 15
ENDMDL
MODEL      263
REMARK 921   NORMALIZED FREE ENERGY PREDICTED BY IDOCK:   -3.41 KCAL/MOL
REMARK 922        TOTAL FREE ENERGY PREDICTED BY IDOCK:   -7.51 KCAL/MOL
REMARK 923 INTER-LIGAND FREE ENERGY PREDICTED BY IDOCK:   -5.73 KCAL/MOL
REMARK 924 INTRA-LIGAND FREE ENERGY PREDICTED BY IDOCK:   -1.78 KCAL/MOL
REMARK 927      BINDING AFFINITY PREDICTED BY RF-SCORE:    0.00 PKD
ROOT
HETATM    1  C   UNL     1      -5.706   7.635  73.159  1.00  0.00    -0.044 C  
HETATM    2  C   UNL     1      -6.718   8.085  72.121  1.00  0.00    -0.069 C  
ENDROOT
BRANCH   2   3
HETATM    3  C   UNL     1      -7.748   6.993  71.849  1.00  0.00    -0.093 C  
BRANCH   3   4
HETATM    4  C   UNL     1      -7.295   6.092  70.707  1.00  0.00    -0.085 C  
BRANCH   4   5
HETATM    5  C   UNL     1      -7.122   6.888  69.419  1.00  0.00    -0.079 C  
BRANCH   5   6
HETATM    6  C   UNL     1      -6.867   5.949  68.248  1.00  0.00    -0.067 C  
BRANCH   6   7
HETATM    7  C   UNL     1      -7.798   6.270  67.089  1.00  0.00    -0.105 C  
BRANCH   7   8
HETATM    8  C   UNL     1      -9.027   5.368  67.122  1.00  0.00    -0.112 C  
BRANCH   8   9
HETATM    9  C   UNL     1     -10.257   6.199  67.450  1.00  0.00    -0.226 C  
BRANCH   9  10
HETATM   10  C   UNL     1     -10.804   5.883  68.838  1.00  0.00    -0.373 C  
BRANCH  10  11
HETATM   11  C   UNL     1     -10.824   7.127  69.742  1.00  0.00    -0.261 C  
BRANCH  11  12
HETATM   12  C   UNL     1     -10.574   8.398  68.928  1.00  0.00    -0.140 C  
BRANCH  12  13
HETATM   13  N   UNL     1     -10.456   9.681  69.766  1.00  0.00    -0.221 N  
HETATM   14  C   UNL     1     -10.676   9.404  71.249  1.00  0.00    -0.350 C  
HETATM   15  C   UNL     1      -9.071  10.309  69.579  1.00  0.00    -0.167 C  
BRANCH  13  16
HETATM   16  C   UNL     1     -11.506  10.733  69.255  1.00  0.00    -0.298 C  
BRANCH  16  17
HETATM   17  C   UNL     1     -10.856  11.922  68.538  1.00  0.00    -0.221 C  
BRANCH  17  18
HETATM   18  O   UNL     1     -11.761  12.544  67.630  1.00  0.00    -0.340 OA 
BRANCH  18  19
HETATM   19  C   UNL     1     -11.391  12.377  66.313  1.00  0.00    -0.340 A  
HETATM   20  C   UNL     1     -12.289  12.864  65.365  1.00  0.00    -0.538 A  
HETATM   21  C   UNL     1     -12.026  12.700  64.003  1.00  0.00    -0.530 A  
HETATM   22  C   UNL     1     -10.859  12.060  63.583  1.00  0.00    -0.510 A  
HETATM   23  C   UNL     1      -9.943  11.604  64.527  1.00  0.00    -0.290 A  
HETATM   24  C   UNL     1     -10.204  11.770  65.886  1.00  0.00    -0.272 A  
ENDBRANCH  18  19
ENDBRANCH  17  18
ENDBRANCH  16  17
ENDBRANCH  13  16
ENDBRANCH  12  13
ENDBRANCH  11  12
ENDBRANCH  10  11
ENDBRANCH   9  10
ENDBRANCH   8   9
ENDBRANCH   7   8
ENDBRANCH   6   7
ENDBRANCH   5   6
ENDBRANCH   4   5
ENDBRANCH   3   4
ENDBRANCH   2   3
TORSDOF 15
ENDMDL
MODEL      264
REMARK 921   NORMALIZED FREE ENERGY PREDICTED BY IDOCK:   -3.39 KCAL/MOL
REMARK 922        TOTAL FREE ENERGY PREDICTED BY IDOCK:   -7.49 KCAL/MOL
REMARK 923 INTER-LIGAND FREE ENERGY PREDICTED BY IDOCK:   -5.62 KCAL/MOL
REMARK 924 INTRA-LIGAND FREE ENERGY PREDICTED BY IDOCK:   -1.87 KCAL/MOL
REMARK 927      BINDING AFFINITY PREDICTED BY RF-SCORE:    0.00 PKD
ROOT
HETATM    1  C   UNL     1      -9.896  17.862  68.533  1.00  0.00    -0.367 C  
HETATM    2  C   UNL     1     -10.399  16.436  68.668  1.00  0.00    -0.273 C  
ENDROOT
BRANCH   2   3
HETATM    3  C   UNL     1     -11.250  16.038  67.466  1.00  0.00    -0.138 C  
BRANCH   3   4
HETATM    4  C   UNL     1     -11.755  14.607  67.610  1.00  0.00    -0.389 C  
BRANCH   4   5
HETATM    5  C   UNL     1     -10.996  13.665  66.682  1.00  0.00    -0.295 C  
BRANCH   5   6
HETATM    6  C   UNL     1     -10.822  14.302  65.310  1.00  0.00    -0.363 C  
BRANCH   6   7
HETATM    7  C   UNL     1     -12.050  14.060  64.446  1.00  0.00    -0.486 C  
BRANCH   7   8
HETATM    8  C   UNL     1     -12.269  12.567  64.229  1.00  0.00    -0.535 C  
BRANCH   8   9
HETATM    9  C   UNL     1     -11.134  12.006  63.388  1.00  0.00    -0.476 C  
BRANCH   9  10
HETATM   10  C   UNL     1     -10.344  10.938  64.138  1.00  0.00    -0.432 C  
BRANCH  10  11
HETATM   11  C   UNL     1      -9.199  10.367  63.283  1.00  0.00    -0.312 C  
BRANCH  11  12
HETATM   12  C   UNL     1      -8.337   9.403  64.099  1.00  0.00    -0.168 C  
BRANCH  12  13
HETATM   13  N   UNL     1      -6.822   9.619  63.953  1.00  0.00    -0.107 N  
HETATM   14  C   UNL     1      -6.061   8.299  63.996  1.00  0.00    -0.067 C  
HETATM   15  C   UNL     1      -6.515  10.327  62.629  1.00  0.00    -0.134 C  
BRANCH  13  16
HETATM   16  C   UNL     1      -6.321  10.566  65.103  1.00  0.00    -0.064 C  
BRANCH  16  17
HETATM   17  C   UNL     1      -7.200  10.495  66.357  1.00  0.00    -0.129 C  
BRANCH  17  18
HETATM   18  O   UNL     1      -7.976  11.679  66.519  1.00  0.00    -0.141 OA 
BRANCH  18  19
HETATM   19  C   UNL     1      -7.482  12.509  67.501  1.00  0.00    -0.151 A  
HETATM   20  C   UNL     1      -6.867  11.875  68.579  1.00  0.00    -0.076 A  
HETATM   21  C   UNL     1      -6.377  12.630  69.648  1.00  0.00    -0.095 A  
HETATM   22  C   UNL     1      -6.487  14.020  69.637  1.00  0.00    -0.122 A  
HETATM   23  C   UNL     1      -7.069  14.660  68.546  1.00  0.00    -0.112 A  
HETATM   24  C   UNL     1      -7.555  13.908  67.478  1.00  0.00    -0.190 A  
ENDBRANCH  18  19
ENDBRANCH  17  18
ENDBRANCH  16  17
ENDBRANCH  13  16
ENDBRANCH  12  13
ENDBRANCH  11  12
ENDBRANCH  10  11
ENDBRANCH   9  10
ENDBRANCH   8   9
ENDBRANCH   7   8
ENDBRANCH   6   7
ENDBRANCH   5   6
ENDBRANCH   4   5
ENDBRANCH   3   4
ENDBRANCH   2   3
TORSDOF 15
ENDMDL
MODEL      265
REMARK 921   NORMALIZED FREE ENERGY PREDICTED BY IDOCK:   -3.39 KCAL/MOL
REMARK 922        TOTAL FREE ENERGY PREDICTED BY IDOCK:   -7.49 KCAL/MOL
REMARK 923 INTER-LIGAND FREE ENERGY PREDICTED BY IDOCK:   -6.47 KCAL/MOL
REMARK 924 INTRA-LIGAND FREE ENERGY PREDICTED BY IDOCK:   -1.01 KCAL/MOL
REMARK 927      BINDING AFFINITY PREDICTED BY RF-SCORE:    0.00 PKD
ROOT
HETATM    1  C   UNL     1      -9.470  18.849  68.451  1.00  0.00    -0.405 C  
HETATM    2  C   UNL     1      -9.046  17.624  67.662  1.00  0.00    -0.241 C  
ENDROOT
BRANCH   2   3
HETATM    3  C   UNL     1     -10.236  16.713  67.380  1.00  0.00    -0.286 C  
BRANCH   3   4
HETATM    4  C   UNL     1     -10.331  16.389  65.894  1.00  0.00    -0.378 C  
BRANCH   4   5
HETATM    5  C   UNL     1     -11.067  15.074  65.668  1.00  0.00    -0.349 C  
BRANCH   5   6
HETATM    6  C   UNL     1     -11.808  14.660  66.933  1.00  0.00    -0.345 C  
BRANCH   6   7
HETATM    7  C   UNL     1     -11.859  13.145  67.054  1.00  0.00    -0.435 C  
BRANCH   7   8
HETATM    8  C   UNL     1     -10.502  12.534  66.721  1.00  0.00    -0.243 C  
BRANCH   8   9
HETATM    9  C   UNL     1     -10.701  11.134  66.162  1.00  0.00    -0.285 C  
BRANCH   9  10
HETATM   10  C   UNL     1      -9.419  10.578  65.551  1.00  0.00    -0.265 C  
BRANCH  10  11
HETATM   11  C   UNL     1      -9.360   9.043  65.643  1.00  0.00    -0.289 C  
BRANCH  11  12
HETATM   12  C   UNL     1      -9.333   8.585  67.102  1.00  0.00    -0.152 C  
BRANCH  12  13
HETATM   13  N   UNL     1      -8.466   7.343  67.366  1.00  0.00    -0.119 N  
HETATM   14  C   UNL     1      -7.615   6.987  66.152  1.00  0.00    -0.095 C  
HETATM   15  C   UNL     1      -7.544   7.587  68.565  1.00  0.00    -0.114 C  
BRANCH  13  16
HETATM   16  C   UNL     1      -9.395   6.132  67.744  1.00  0.00    -0.109 C  
BRANCH  16  17
HETATM   17  C   UNL     1      -9.136   5.604  69.159  1.00  0.00    -0.112 C  
BRANCH  17  18
HETATM   18  O   UNL     1     -10.349   5.236  69.810  1.00  0.00    -0.270 OA 
BRANCH  18  19
HETATM   19  C   UNL     1     -10.779   6.185  70.711  1.00  0.00    -0.266 A  
HETATM   20  C   UNL     1      -9.917   6.447  71.774  1.00  0.00    -0.195 A  
HETATM   21  C   UNL     1     -10.286   7.360  72.766  1.00  0.00    -0.306 A  
HETATM   22  C   UNL     1     -11.511   8.023  72.692  1.00  0.00    -0.465 A  
HETATM   23  C   UNL     1     -12.360   7.790  71.612  1.00  0.00    -0.348 A  
HETATM   24  C   UNL     1     -11.990   6.882  70.622  1.00  0.00    -0.400 A  
ENDBRANCH  18  19
ENDBRANCH  17  18
ENDBRANCH  16  17
ENDBRANCH  13  16
ENDBRANCH  12  13
ENDBRANCH  11  12
ENDBRANCH  10  11
ENDBRANCH   9  10
ENDBRANCH   8   9
ENDBRANCH   7   8
ENDBRANCH   6   7
ENDBRANCH   5   6
ENDBRANCH   4   5
ENDBRANCH   3   4
ENDBRANCH   2   3
TORSDOF 15
ENDMDL
MODEL      266
REMARK 921   NORMALIZED FREE ENERGY PREDICTED BY IDOCK:   -3.39 KCAL/MOL
REMARK 922        TOTAL FREE ENERGY PREDICTED BY IDOCK:   -7.48 KCAL/MOL
REMARK 923 INTER-LIGAND FREE ENERGY PREDICTED BY IDOCK:   -6.60 KCAL/MOL
REMARK 924 INTRA-LIGAND FREE ENERGY PREDICTED BY IDOCK:   -0.89 KCAL/MOL
REMARK 927      BINDING AFFINITY PREDICTED BY RF-SCORE:    0.00 PKD
ROOT
HETATM    1  C   UNL     1      -5.711  20.135  71.646  1.00  0.00    -0.406 C  
HETATM    2  C   UNL     1      -5.635  19.766  70.175  1.00  0.00    -0.291 C  
ENDROOT
BRANCH   2   3
HETATM    3  C   UNL     1      -5.996  18.301  69.957  1.00  0.00    -0.168 C  
BRANCH   3   4
HETATM    4  C   UNL     1      -6.838  18.132  68.697  1.00  0.00    -0.253 C  
BRANCH   4   5
HETATM    5  C   UNL     1      -7.173  19.484  68.079  1.00  0.00    -0.313 C  
BRANCH   5   6
HETATM    6  C   UNL     1      -8.456  19.388  67.263  1.00  0.00    -0.325 C  
BRANCH   6   7
HETATM    7  C   UNL     1      -9.083  18.011  67.408  1.00  0.00    -0.250 C  
BRANCH   7   8
HETATM    8  C   UNL     1     -10.577  18.127  67.690  1.00  0.00    -0.424 C  
BRANCH   8   9
HETATM    9  C   UNL     1     -11.075  16.836  68.319  1.00  0.00    -0.259 C  
BRANCH   9  10
HETATM   10  C   UNL     1     -10.748  15.620  67.458  1.00  0.00    -0.303 C  
BRANCH  10  11
HETATM   11  C   UNL     1     -10.235  14.442  68.304  1.00  0.00    -0.241 C  
BRANCH  11  12
HETATM   12  C   UNL     1     -11.301  13.351  68.425  1.00  0.00    -0.294 C  
BRANCH  12  13
HETATM   13  N   UNL     1     -10.753  11.916  68.402  1.00  0.00    -0.211 N  
HETATM   14  C   UNL     1     -11.326  11.116  67.238  1.00  0.00    -0.226 C  
HETATM   15  C   UNL     1      -9.225  11.936  68.287  1.00  0.00    -0.187 C  
BRANCH  13  16
HETATM   16  C   UNL     1     -11.098  11.207  69.762  1.00  0.00    -0.202 C  
BRANCH  16  17
HETATM   17  C   UNL     1     -11.043   9.677  69.665  1.00  0.00    -0.193 C  
BRANCH  17  18
HETATM   18  O   UNL     1     -11.791   9.060  70.709  1.00  0.00    -0.274 OA 
BRANCH  18  19
HETATM   19  C   UNL     1     -10.997   8.361  71.591  1.00  0.00    -0.278 A  
HETATM   20  C   UNL     1     -11.553   7.196  72.116  1.00  0.00    -0.317 A  
HETATM   21  C   UNL     1     -10.844   6.444  73.056  1.00  0.00    -0.287 A  
HETATM   22  C   UNL     1      -9.572   6.846  73.464  1.00  0.00    -0.222 A  
HETATM   23  C   UNL     1      -8.998   7.990  72.916  1.00  0.00    -0.304 A  
HETATM   24  C   UNL     1      -9.705   8.739  71.977  1.00  0.00    -0.370 A  
ENDBRANCH  18  19
ENDBRANCH  17  18
ENDBRANCH  16  17
ENDBRANCH  13  16
ENDBRANCH  12  13
ENDBRANCH  11  12
ENDBRANCH  10  11
ENDBRANCH   9  10
ENDBRANCH   8   9
ENDBRANCH   7   8
ENDBRANCH   6   7
ENDBRANCH   5   6
ENDBRANCH   4   5
ENDBRANCH   3   4
ENDBRANCH   2   3
TORSDOF 15
ENDMDL
MODEL      267
REMARK 921   NORMALIZED FREE ENERGY PREDICTED BY IDOCK:   -3.38 KCAL/MOL
REMARK 922        TOTAL FREE ENERGY PREDICTED BY IDOCK:   -7.47 KCAL/MOL
REMARK 923 INTER-LIGAND FREE ENERGY PREDICTED BY IDOCK:   -6.22 KCAL/MOL
REMARK 924 INTRA-LIGAND FREE ENERGY PREDICTED BY IDOCK:   -1.25 KCAL/MOL
REMARK 927      BINDING AFFINITY PREDICTED BY RF-SCORE:    0.00 PKD
ROOT
HETATM    1  C   UNL     1     -10.892  11.558  63.622  1.00  0.00    -0.488 C  
HETATM    2  C   UNL     1     -12.233  12.261  63.514  1.00  0.00    -0.669 C  
ENDROOT
BRANCH   2   3
HETATM    3  C   UNL     1     -12.735  12.700  64.886  1.00  0.00    -0.450 C  
BRANCH   3   4
HETATM    4  C   UNL     1     -12.420  14.170  65.134  1.00  0.00    -0.453 C  
BRANCH   4   5
HETATM    5  C   UNL     1     -11.224  14.322  66.067  1.00  0.00    -0.324 C  
BRANCH   5   6
HETATM    6  C   UNL     1     -11.691  14.698  67.467  1.00  0.00    -0.403 C  
BRANCH   6   7
HETATM    7  C   UNL     1     -11.149  16.061  67.866  1.00  0.00    -0.307 C  
BRANCH   7   8
HETATM    8  C   UNL     1      -9.628  16.084  67.773  1.00  0.00    -0.219 C  
BRANCH   8   9
HETATM    9  C   UNL     1      -9.040  15.214  68.872  1.00  0.00    -0.206 C  
BRANCH   9  10
HETATM   10  C   UNL     1      -7.529  15.059  68.729  1.00  0.00    -0.133 C  
BRANCH  10  11
HETATM   11  C   UNL     1      -7.141  13.642  68.273  1.00  0.00    -0.110 C  
BRANCH  11  12
HETATM   12  C   UNL     1      -8.187  13.071  67.314  1.00  0.00    -0.172 C  
BRANCH  12  13
HETATM   13  N   UNL     1      -8.465  11.570  67.492  1.00  0.00    -0.139 N  
HETATM   14  C   UNL     1      -9.883  11.319  67.992  1.00  0.00    -0.178 C  
HETATM   15  C   UNL     1      -8.270  10.835  66.162  1.00  0.00    -0.163 C  
BRANCH  13  16
HETATM   16  C   UNL     1      -7.425  10.966  68.504  1.00  0.00    -0.103 C  
BRANCH  16  17
HETATM   17  C   UNL     1      -8.039   9.906  69.426  1.00  0.00    -0.139 C  
BRANCH  17  18
HETATM   18  O   UNL     1      -7.810   8.588  68.935  1.00  0.00    -0.105 OA 
BRANCH  18  19
HETATM   19  C   UNL     1      -8.939   7.801  68.979  1.00  0.00    -0.145 A  
HETATM   20  C   UNL     1      -9.424   7.365  67.747  1.00  0.00    -0.154 A  
HETATM   21  C   UNL     1     -10.592   6.600  67.685  1.00  0.00    -0.325 A  
HETATM   22  C   UNL     1     -11.272   6.258  68.854  1.00  0.00    -0.387 A  
HETATM   23  C   UNL     1     -10.772   6.661  70.089  1.00  0.00    -0.287 A  
HETATM   24  C   UNL     1      -9.605   7.421  70.151  1.00  0.00    -0.165 A  
ENDBRANCH  18  19
ENDBRANCH  17  18
ENDBRANCH  16  17
ENDBRANCH  13  16
ENDBRANCH  12  13
ENDBRANCH  11  12
ENDBRANCH  10  11
ENDBRANCH   9  10
ENDBRANCH   8   9
ENDBRANCH   7   8
ENDBRANCH   6   7
ENDBRANCH   5   6
ENDBRANCH   4   5
ENDBRANCH   3   4
ENDBRANCH   2   3
TORSDOF 15
ENDMDL
MODEL      268
REMARK 921   NORMALIZED FREE ENERGY PREDICTED BY IDOCK:   -3.38 KCAL/MOL
REMARK 922        TOTAL FREE ENERGY PREDICTED BY IDOCK:   -7.47 KCAL/MOL
REMARK 923 INTER-LIGAND FREE ENERGY PREDICTED BY IDOCK:   -6.27 KCAL/MOL
REMARK 924 INTRA-LIGAND FREE ENERGY PREDICTED BY IDOCK:   -1.20 KCAL/MOL
REMARK 927      BINDING AFFINITY PREDICTED BY RF-SCORE:    0.00 PKD
ROOT
HETATM    1  C   UNL     1     -11.907  11.472  63.088  1.00  0.00     0.033 C  
HETATM    2  C   UNL     1     -12.640  12.662  63.680  1.00  0.00    -0.437 C  
ENDROOT
BRANCH   2   3
HETATM    3  C   UNL     1     -11.714  13.495  64.560  1.00  0.00    -0.431 C  
BRANCH   3   4
HETATM    4  C   UNL     1     -10.313  12.896  64.592  1.00  0.00    -0.366 C  
BRANCH   4   5
HETATM    5  C   UNL     1     -10.162  11.922  65.753  1.00  0.00    -0.276 C  
BRANCH   5   6
HETATM    6  C   UNL     1     -10.168  12.674  67.078  1.00  0.00    -0.233 C  
BRANCH   6   7
HETATM    7  C   UNL     1      -8.870  13.443  67.265  1.00  0.00    -0.220 C  
BRANCH   7   8
HETATM    8  C   UNL     1      -7.672  12.501  67.191  1.00  0.00    -0.109 C  
BRANCH   8   9
HETATM    9  C   UNL     1      -7.390  11.932  68.572  1.00  0.00    -0.111 C  
BRANCH   9  10
HETATM   10  C   UNL     1      -7.413  10.407  68.574  1.00  0.00    -0.089 C  
BRANCH  10  11
HETATM   11  C   UNL     1      -8.067   9.846  69.848  1.00  0.00    -0.200 C  
BRANCH  11  12
HETATM   12  C   UNL     1      -9.031   8.707  69.512  1.00  0.00    -0.145 C  
BRANCH  12  13
HETATM   13  N   UNL     1     -10.496   9.139  69.340  1.00  0.00    -0.216 N  
HETATM   14  C   UNL     1     -10.876   9.252  67.868  1.00  0.00    -0.118 C  
HETATM   15  C   UNL     1     -11.428   8.129  70.017  1.00  0.00     0.083 C  
BRANCH  13  16
HETATM   16  C   UNL     1     -10.719  10.519  70.059  1.00  0.00    -0.224 C  
BRANCH  16  17
HETATM   17  C   UNL     1     -12.131  11.077  69.849  1.00  0.00    -0.361 C  
BRANCH  17  18
HETATM   18  O   UNL     1     -12.765  11.377  71.090  1.00  0.00    -0.392 OA 
BRANCH  18  19
HETATM   19  C   UNL     1     -12.870  12.731  71.320  1.00  0.00    -0.262 A  
HETATM   20  C   UNL     1     -12.618  13.554  70.224  1.00  0.00    -0.221 A  
HETATM   21  C   UNL     1     -12.653  14.944  70.368  1.00  0.00    -0.394 A  
HETATM   22  C   UNL     1     -12.953  15.515  71.605  1.00  0.00    -0.540 A  
HETATM   23  C   UNL     1     -13.240  14.697  72.694  1.00  0.00    -0.556 A  
HETATM   24  C   UNL     1     -13.208  13.311  72.549  1.00  0.00    -0.484 A  
ENDBRANCH  18  19
ENDBRANCH  17  18
ENDBRANCH  16  17
ENDBRANCH  13  16
ENDBRANCH  12  13
ENDBRANCH  11  12
ENDBRANCH  10  11
ENDBRANCH   9  10
ENDBRANCH   8   9
ENDBRANCH   7   8
ENDBRANCH   6   7
ENDBRANCH   5   6
ENDBRANCH   4   5
ENDBRANCH   3   4
ENDBRANCH   2   3
TORSDOF 15
ENDMDL
MODEL      269
REMARK 921   NORMALIZED FREE ENERGY PREDICTED BY IDOCK:   -3.38 KCAL/MOL
REMARK 922        TOTAL FREE ENERGY PREDICTED BY IDOCK:   -7.46 KCAL/MOL
REMARK 923 INTER-LIGAND FREE ENERGY PREDICTED BY IDOCK:   -5.53 KCAL/MOL
REMARK 924 INTRA-LIGAND FREE ENERGY PREDICTED BY IDOCK:   -1.93 KCAL/MOL
REMARK 927      BINDING AFFINITY PREDICTED BY RF-SCORE:    0.00 PKD
ROOT
HETATM    1  C   UNL     1     -10.550  17.680  67.798  1.00  0.00    -0.380 C  
HETATM    2  C   UNL     1      -9.646  16.829  66.924  1.00  0.00    -0.253 C  
ENDROOT
BRANCH   2   3
HETATM    3  C   UNL     1      -8.887  15.800  67.756  1.00  0.00    -0.173 C  
BRANCH   3   4
HETATM    4  C   UNL     1      -7.408  15.790  67.389  1.00  0.00    -0.229 C  
BRANCH   4   5
HETATM    5  C   UNL     1      -6.778  14.438  67.701  1.00  0.00    -0.188 C  
BRANCH   5   6
HETATM    6  C   UNL     1      -7.720  13.311  67.298  1.00  0.00    -0.100 C  
BRANCH   6   7
HETATM    7  C   UNL     1      -6.988  11.978  67.283  1.00  0.00    -0.146 C  
BRANCH   7   8
HETATM    8  C   UNL     1      -6.359  11.695  68.643  1.00  0.00    -0.055 C  
BRANCH   8   9
HETATM    9  C   UNL     1      -5.702  10.324  68.621  1.00  0.00    -0.037 C  
BRANCH   9  10
HETATM   10  C   UNL     1      -6.280   9.400  69.689  1.00  0.00    -0.039 C  
BRANCH  10  11
HETATM   11  C   UNL     1      -7.639   9.902  70.206  1.00  0.00    -0.172 C  
BRANCH  11  12
HETATM   12  C   UNL     1      -8.663   8.767  70.241  1.00  0.00    -0.161 C  
BRANCH  12  13
HETATM   13  N   UNL     1      -9.842   8.939  69.270  1.00  0.00    -0.172 N  
HETATM   14  C   UNL     1      -9.378   8.914  67.818  1.00  0.00    -0.141 C  
HETATM   15  C   UNL     1     -10.869   7.823  69.483  1.00  0.00    -0.153 C  
BRANCH  13  16
HETATM   16  C   UNL     1     -10.573  10.297  69.576  1.00  0.00    -0.245 C  
BRANCH  16  17
HETATM   17  C   UNL     1     -10.440  11.313  68.436  1.00  0.00    -0.197 C  
BRANCH  17  18
HETATM   18  O   UNL     1     -11.691  11.543  67.792  1.00  0.00    -0.514 OA 
BRANCH  18  19
HETATM   19  C   UNL     1     -11.583  12.382  66.705  1.00  0.00    -0.385 A  
HETATM   20  C   UNL     1     -12.404  13.507  66.722  1.00  0.00    -0.326 A  
HETATM   21  C   UNL     1     -12.402  14.393  65.641  1.00  0.00    -0.347 A  
HETATM   22  C   UNL     1     -11.569  14.164  64.546  1.00  0.00    -0.400 A  
HETATM   23  C   UNL     1     -10.720  13.060  64.540  1.00  0.00    -0.404 A  
HETATM   24  C   UNL     1     -10.721  12.178  65.620  1.00  0.00    -0.312 A  
ENDBRANCH  18  19
ENDBRANCH  17  18
ENDBRANCH  16  17
ENDBRANCH  13  16
ENDBRANCH  12  13
ENDBRANCH  11  12
ENDBRANCH  10  11
ENDBRANCH   9  10
ENDBRANCH   8   9
ENDBRANCH   7   8
ENDBRANCH   6   7
ENDBRANCH   5   6
ENDBRANCH   4   5
ENDBRANCH   3   4
ENDBRANCH   2   3
TORSDOF 15
ENDMDL
MODEL      270
REMARK 921   NORMALIZED FREE ENERGY PREDICTED BY IDOCK:   -3.37 KCAL/MOL
REMARK 922        TOTAL FREE ENERGY PREDICTED BY IDOCK:   -7.45 KCAL/MOL
REMARK 923 INTER-LIGAND FREE ENERGY PREDICTED BY IDOCK:   -6.44 KCAL/MOL
REMARK 924 INTRA-LIGAND FREE ENERGY PREDICTED BY IDOCK:   -1.01 KCAL/MOL
REMARK 927      BINDING AFFINITY PREDICTED BY RF-SCORE:    0.00 PKD
ROOT
HETATM    1  C   UNL     1     -12.331  15.347  74.501  1.00  0.00    -0.700 C  
HETATM    2  C   UNL     1     -13.120  16.083  73.432  1.00  0.00    -0.677 C  
ENDROOT
BRANCH   2   3
HETATM    3  C   UNL     1     -12.444  15.962  72.070  1.00  0.00    -0.534 C  
BRANCH   3   4
HETATM    4  C   UNL     1     -13.370  15.290  71.063  1.00  0.00    -0.537 C  
BRANCH   4   5
HETATM    5  C   UNL     1     -12.623  14.241  70.249  1.00  0.00    -0.378 C  
BRANCH   5   6
HETATM    6  C   UNL     1     -11.299  14.805  69.750  1.00  0.00    -0.319 C  
BRANCH   6   7
HETATM    7  C   UNL     1     -11.218  14.721  68.234  1.00  0.00    -0.299 C  
BRANCH   7   8
HETATM    8  C   UNL     1      -9.781  14.477  67.785  1.00  0.00    -0.216 C  
BRANCH   8   9
HETATM    9  C   UNL     1      -9.774  13.502  66.618  1.00  0.00    -0.281 C  
BRANCH   9  10
HETATM   10  C   UNL     1     -11.125  12.816  66.442  1.00  0.00    -0.320 C  
BRANCH  10  11
HETATM   11  C   UNL     1     -10.999  11.284  66.494  1.00  0.00    -0.303 C  
BRANCH  11  12
HETATM   12  C   UNL     1      -9.545  10.862  66.708  1.00  0.00    -0.183 C  
BRANCH  12  13
HETATM   13  N   UNL     1      -9.338   9.821  67.820  1.00  0.00    -0.134 N  
HETATM   14  C   UNL     1      -9.167  10.484  69.182  1.00  0.00    -0.171 C  
HETATM   15  C   UNL     1     -10.534   8.866  67.879  1.00  0.00    -0.223 C  
BRANCH  13  16
HETATM   16  C   UNL     1      -8.073   8.949  67.485  1.00  0.00    -0.109 C  
BRANCH  16  17
HETATM   17  C   UNL     1      -8.421   7.674  66.708  1.00  0.00    -0.127 C  
BRANCH  17  18
HETATM   18  O   UNL     1      -8.100   6.503  67.454  1.00  0.00    -0.118 OA 
BRANCH  18  19
HETATM   19  C   UNL     1      -8.484   5.344  66.816  1.00  0.00    -0.107 A  
HETATM   20  C   UNL     1      -8.895   5.487  65.493  1.00  0.00    -0.147 A  
HETATM   21  C   UNL     1      -9.349   4.377  64.776  1.00  0.00    -0.160 A  
HETATM   22  C   UNL     1      -9.381   3.117  65.375  1.00  0.00    -0.127 A  
HETATM   23  C   UNL     1      -8.938   2.963  66.686  1.00  0.00    -0.168 A  
HETATM   24  C   UNL     1      -8.483   4.071  67.400  1.00  0.00    -0.102 A  
ENDBRANCH  18  19
ENDBRANCH  17  18
ENDBRANCH  16  17
ENDBRANCH  13  16
ENDBRANCH  12  13
ENDBRANCH  11  12
ENDBRANCH  10  11
ENDBRANCH   9  10
ENDBRANCH   8   9
ENDBRANCH   7   8
ENDBRANCH   6   7
ENDBRANCH   5   6
ENDBRANCH   4   5
ENDBRANCH   3   4
ENDBRANCH   2   3
TORSDOF 15
ENDMDL
MODEL      271
REMARK 921   NORMALIZED FREE ENERGY PREDICTED BY IDOCK:   -3.37 KCAL/MOL
REMARK 922        TOTAL FREE ENERGY PREDICTED BY IDOCK:   -7.44 KCAL/MOL
REMARK 923 INTER-LIGAND FREE ENERGY PREDICTED BY IDOCK:   -5.66 KCAL/MOL
REMARK 924 INTRA-LIGAND FREE ENERGY PREDICTED BY IDOCK:   -1.78 KCAL/MOL
REMARK 927      BINDING AFFINITY PREDICTED BY RF-SCORE:    0.00 PKD
ROOT
HETATM    1  C   UNL     1      -8.793   4.942  62.763  1.00  0.00    -0.099 C  
HETATM    2  C   UNL     1      -8.588   3.802  63.745  1.00  0.00    -0.093 C  
ENDROOT
BRANCH   2   3
HETATM    3  C   UNL     1      -9.415   4.010  65.009  1.00  0.00    -0.172 C  
BRANCH   3   4
HETATM    4  C   UNL     1      -9.058   2.974  66.068  1.00  0.00    -0.142 C  
BRANCH   4   5
HETATM    5  C   UNL     1      -9.325   3.510  67.469  1.00  0.00    -0.249 C  
BRANCH   5   6
HETATM    6  C   UNL     1      -9.339   5.033  67.457  1.00  0.00    -0.138 C  
BRANCH   6   7
HETATM    7  C   UNL     1     -10.429   5.567  68.374  1.00  0.00    -0.227 C  
BRANCH   7   8
HETATM    8  C   UNL     1     -10.989   6.879  67.836  1.00  0.00    -0.260 C  
BRANCH   8   9
HETATM    9  C   UNL     1     -10.004   7.483  66.848  1.00  0.00    -0.318 C  
BRANCH   9  10
HETATM   10  C   UNL     1     -10.100   9.005  66.807  1.00  0.00    -0.344 C  
BRANCH  10  11
HETATM   11  C   UNL     1      -8.740   9.671  67.080  1.00  0.00    -0.135 C  
BRANCH  11  12
HETATM   12  C   UNL     1      -8.604  10.050  68.555  1.00  0.00    -0.119 C  
BRANCH  12  13
HETATM   13  N   UNL     1      -7.557   9.235  69.331  1.00  0.00    -0.077 N  
HETATM   14  C   UNL     1      -6.516   8.628  68.397  1.00  0.00    -0.056 C  
HETATM   15  C   UNL     1      -6.847  10.125  70.356  1.00  0.00    -0.124 C  
BRANCH  13  16
HETATM   16  C   UNL     1      -8.281   8.097  70.139  1.00  0.00    -0.119 C  
BRANCH  16  17
HETATM   17  C   UNL     1      -9.276   8.642  71.170  1.00  0.00    -0.213 C  
BRANCH  17  18
HETATM   18  O   UNL     1     -10.120   7.612  71.678  1.00  0.00    -0.179 OA 
BRANCH  18  19
HETATM   19  C   UNL     1     -11.456   7.943  71.623  1.00  0.00    -0.263 A  
HETATM   20  C   UNL     1     -11.749   9.302  71.717  1.00  0.00    -0.456 A  
HETATM   21  C   UNL     1     -13.078   9.734  71.719  1.00  0.00    -0.528 A  
HETATM   22  C   UNL     1     -14.118   8.810  71.614  1.00  0.00    -0.437 A  
HETATM   23  C   UNL     1     -13.829   7.454  71.485  1.00  0.00    -0.483 A  
HETATM   24  C   UNL     1     -12.503   7.024  71.480  1.00  0.00    -0.426 A  
ENDBRANCH  18  19
ENDBRANCH  17  18
ENDBRANCH  16  17
ENDBRANCH  13  16
ENDBRANCH  12  13
ENDBRANCH  11  12
ENDBRANCH  10  11
ENDBRANCH   9  10
ENDBRANCH   8   9
ENDBRANCH   7   8
ENDBRANCH   6   7
ENDBRANCH   5   6
ENDBRANCH   4   5
ENDBRANCH   3   4
ENDBRANCH   2   3
TORSDOF 15
ENDMDL
MODEL      272
REMARK 921   NORMALIZED FREE ENERGY PREDICTED BY IDOCK:   -3.36 KCAL/MOL
REMARK 922        TOTAL FREE ENERGY PREDICTED BY IDOCK:   -7.43 KCAL/MOL
REMARK 923 INTER-LIGAND FREE ENERGY PREDICTED BY IDOCK:   -6.35 KCAL/MOL
REMARK 924 INTRA-LIGAND FREE ENERGY PREDICTED BY IDOCK:   -1.08 KCAL/MOL
REMARK 927      BINDING AFFINITY PREDICTED BY RF-SCORE:    0.00 PKD
ROOT
HETATM    1  C   UNL     1      -9.841   9.217  66.013  1.00  0.00    -0.342 C  
HETATM    2  C   UNL     1      -8.762   9.477  64.977  1.00  0.00    -0.205 C  
ENDROOT
BRANCH   2   3
HETATM    3  C   UNL     1      -7.667  10.378  65.539  1.00  0.00    -0.147 C  
BRANCH   3   4
HETATM    4  C   UNL     1      -8.237  11.346  66.570  1.00  0.00    -0.152 C  
BRANCH   4   5
HETATM    5  C   UNL     1      -7.217  12.417  66.935  1.00  0.00     0.087 C  
BRANCH   5   6
HETATM    6  C   UNL     1      -7.870  13.502  67.782  1.00  0.00    -0.167 C  
BRANCH   6   7
HETATM    7  C   UNL     1      -9.358  13.234  67.942  1.00  0.00    -0.214 C  
BRANCH   7   8
HETATM    8  C   UNL     1     -10.177  14.386  67.371  1.00  0.00    -0.247 C  
BRANCH   8   9
HETATM    9  C   UNL     1      -9.787  15.679  68.070  1.00  0.00    -0.209 C  
BRANCH   9  10
HETATM   10  C   UNL     1     -10.169  15.665  69.546  1.00  0.00    -0.277 C  
BRANCH  10  11
HETATM   11  C   UNL     1     -11.692  15.574  69.742  1.00  0.00    -0.362 C  
BRANCH  11  12
HETATM   12  C   UNL     1     -12.071  15.817  71.204  1.00  0.00    -0.427 C  
BRANCH  12  13
HETATM   13  N   UNL     1     -12.873  14.678  71.854  1.00  0.00    -0.315 N  
HETATM   14  C   UNL     1     -12.630  14.610  73.357  1.00  0.00    -0.377 C  
HETATM   15  C   UNL     1     -14.371  14.876  71.601  1.00  0.00    -0.570 C  
BRANCH  13  16
HETATM   16  C   UNL     1     -12.474  13.314  71.183  1.00  0.00    -0.308 C  
BRANCH  16  17
HETATM   17  C   UNL     1     -13.534  12.223  71.379  1.00  0.00     0.265 C  
BRANCH  17  18
HETATM   18  O   UNL     1     -13.056  11.173  72.214  1.00  0.00    -0.370 OA 
BRANCH  18  19
HETATM   19  C   UNL     1     -12.421  10.177  71.506  1.00  0.00    -0.427 A  
HETATM   20  C   UNL     1     -12.687   8.873  71.920  1.00  0.00    -0.436 A  
HETATM   21  C   UNL     1     -12.053   7.796  71.295  1.00  0.00    -0.328 A  
HETATM   22  C   UNL     1     -11.162   8.018  70.244  1.00  0.00    -0.192 A  
HETATM   23  C   UNL     1     -10.920   9.316  69.804  1.00  0.00    -0.213 A  
HETATM   24  C   UNL     1     -11.554  10.390  70.426  1.00  0.00    -0.423 A  
ENDBRANCH  18  19
ENDBRANCH  17  18
ENDBRANCH  16  17
ENDBRANCH  13  16
ENDBRANCH  12  13
ENDBRANCH  11  12
ENDBRANCH  10  11
ENDBRANCH   9  10
ENDBRANCH   8   9
ENDBRANCH   7   8
ENDBRANCH   6   7
ENDBRANCH   5   6
ENDBRANCH   4   5
ENDBRANCH   3   4
ENDBRANCH   2   3
TORSDOF 15
ENDMDL
MODEL      273
REMARK 921   NORMALIZED FREE ENERGY PREDICTED BY IDOCK:   -3.36 KCAL/MOL
REMARK 922        TOTAL FREE ENERGY PREDICTED BY IDOCK:   -7.43 KCAL/MOL
REMARK 923 INTER-LIGAND FREE ENERGY PREDICTED BY IDOCK:   -6.08 KCAL/MOL
REMARK 924 INTRA-LIGAND FREE ENERGY PREDICTED BY IDOCK:   -1.35 KCAL/MOL
REMARK 927      BINDING AFFINITY PREDICTED BY RF-SCORE:    0.00 PKD
ROOT
HETATM    1  C   UNL     1     -10.542  11.392  68.638  1.00  0.00    -0.229 C  
HETATM    2  C   UNL     1     -11.750  12.285  68.855  1.00  0.00    -0.380 C  
ENDROOT
BRANCH   2   3
HETATM    3  C   UNL     1     -11.447  13.725  68.456  1.00  0.00    -0.342 C  
BRANCH   3   4
HETATM    4  C   UNL     1     -11.083  13.814  66.978  1.00  0.00    -0.313 C  
BRANCH   4   5
HETATM    5  C   UNL     1     -12.327  14.011  66.121  1.00  0.00    -0.491 C  
BRANCH   5   6
HETATM    6  C   UNL     1     -12.252  13.140  64.873  1.00  0.00    -0.477 C  
BRANCH   6   7
HETATM    7  C   UNL     1     -11.174  12.078  65.024  1.00  0.00    -0.374 C  
BRANCH   7   8
HETATM    8  C   UNL     1     -10.543  11.757  63.674  1.00  0.00    -0.496 C  
BRANCH   8   9
HETATM    9  C   UNL     1      -9.583  10.588  63.829  1.00  0.00    -0.363 C  
BRANCH   9  10
HETATM   10  C   UNL     1      -9.284  10.288  65.295  1.00  0.00    -0.244 C  
BRANCH  10  11
HETATM   11  C   UNL     1      -9.698   8.858  65.682  1.00  0.00    -0.107 C  
BRANCH  11  12
HETATM   12  C   UNL     1      -9.215   8.512  67.091  1.00  0.00    -0.142 C  
BRANCH  12  13
HETATM   13  N   UNL     1      -8.328   7.259  67.173  1.00  0.00    -0.117 N  
HETATM   14  C   UNL     1      -8.078   6.659  65.794  1.00  0.00    -0.122 C  
HETATM   15  C   UNL     1      -6.981   7.607  67.815  1.00  0.00    -0.077 C  
BRANCH  13  16
HETATM   16  C   UNL     1      -9.017   6.196  68.104  1.00  0.00    -0.114 C  
BRANCH  16  17
HETATM   17  C   UNL     1      -9.035   6.619  69.577  1.00  0.00    -0.138 C  
BRANCH  17  18
HETATM   18  O   UNL     1     -10.290   6.333  70.188  1.00  0.00    -0.186 OA 
BRANCH  18  19
HETATM   19  C   UNL     1     -10.166   5.954  71.506  1.00  0.00    -0.205 A  
HETATM   20  C   UNL     1      -9.703   4.659  71.724  1.00  0.00    -0.230 A  
HETATM   21  C   UNL     1      -9.589   4.165  73.027  1.00  0.00    -0.158 A  
HETATM   22  C   UNL     1      -9.924   4.970  74.116  1.00  0.00    -0.215 A  
HETATM   23  C   UNL     1     -10.354   6.277  73.904  1.00  0.00    -0.318 A  
HETATM   24  C   UNL     1     -10.465   6.770  72.605  1.00  0.00    -0.240 A  
ENDBRANCH  18  19
ENDBRANCH  17  18
ENDBRANCH  16  17
ENDBRANCH  13  16
ENDBRANCH  12  13
ENDBRANCH  11  12
ENDBRANCH  10  11
ENDBRANCH   9  10
ENDBRANCH   8   9
ENDBRANCH   7   8
ENDBRANCH   6   7
ENDBRANCH   5   6
ENDBRANCH   4   5
ENDBRANCH   3   4
ENDBRANCH   2   3
TORSDOF 15
ENDMDL
MODEL      274
REMARK 921   NORMALIZED FREE ENERGY PREDICTED BY IDOCK:   -3.36 KCAL/MOL
REMARK 922        TOTAL FREE ENERGY PREDICTED BY IDOCK:   -7.42 KCAL/MOL
REMARK 923 INTER-LIGAND FREE ENERGY PREDICTED BY IDOCK:   -5.66 KCAL/MOL
REMARK 924 INTRA-LIGAND FREE ENERGY PREDICTED BY IDOCK:   -1.77 KCAL/MOL
REMARK 927      BINDING AFFINITY PREDICTED BY RF-SCORE:    0.00 PKD
ROOT
HETATM    1  C   UNL     1     -10.269   5.977  70.462  1.00  0.00    -0.262 C  
HETATM    2  C   UNL     1      -9.507   7.197  69.977  1.00  0.00    -0.164 C  
ENDROOT
BRANCH   2   3
HETATM    3  C   UNL     1     -10.401   8.106  69.140  1.00  0.00    -0.228 C  
BRANCH   3   4
HETATM    4  C   UNL     1     -10.839   9.325  69.944  1.00  0.00    -0.252 C  
BRANCH   4   5
HETATM    5  C   UNL     1     -10.254  10.604  69.357  1.00  0.00    -0.218 C  
BRANCH   5   6
HETATM    6  C   UNL     1     -10.712  10.781  67.915  1.00  0.00    -0.282 C  
BRANCH   6   7
HETATM    7  C   UNL     1      -9.525  11.053  67.005  1.00  0.00    -0.191 C  
BRANCH   7   8
HETATM    8  C   UNL     1      -8.227  11.068  67.804  1.00  0.00    -0.117 C  
BRANCH   8   9
HETATM    9  C   UNL     1      -7.411  12.293  67.422  1.00  0.00    -0.160 C  
BRANCH   9  10
HETATM   10  C   UNL     1      -8.279  13.542  67.312  1.00  0.00    -0.164 C  
BRANCH  10  11
HETATM   11  C   UNL     1      -8.535  14.184  68.687  1.00  0.00    -0.120 C  
BRANCH  11  12
HETATM   12  C   UNL     1      -8.814  15.681  68.547  1.00  0.00    -0.187 C  
BRANCH  12  13
HETATM   13  N   UNL     1     -10.246  16.102  68.917  1.00  0.00    -0.231 N  
HETATM   14  C   UNL     1     -10.413  16.252  70.425  1.00  0.00     0.157 C  
HETATM   15  C   UNL     1     -10.596  17.432  68.243  1.00  0.00    -0.366 C  
BRANCH  13  16
HETATM   16  C   UNL     1     -11.259  15.032  68.369  1.00  0.00    -0.293 C  
BRANCH  16  17
HETATM   17  C   UNL     1     -11.715  15.326  66.935  1.00  0.00     0.014 C  
BRANCH  17  18
HETATM   18  O   UNL     1     -10.787  14.825  65.978  1.00  0.00    -0.303 OA 
BRANCH  18  19
HETATM   19  C   UNL     1     -11.332  13.854  65.166  1.00  0.00    -0.318 A  
HETATM   20  C   UNL     1     -10.444  13.216  64.302  1.00  0.00    -0.410 A  
HETATM   21  C   UNL     1     -10.910  12.251  63.406  1.00  0.00    -0.457 A  
HETATM   22  C   UNL     1     -12.262  11.910  63.380  1.00  0.00    -0.561 A  
HETATM   23  C   UNL     1     -13.147  12.519  64.266  1.00  0.00    -0.093 A  
HETATM   24  C   UNL     1     -12.681  13.480  65.161  1.00  0.00    -0.453 A  
ENDBRANCH  18  19
ENDBRANCH  17  18
ENDBRANCH  16  17
ENDBRANCH  13  16
ENDBRANCH  12  13
ENDBRANCH  11  12
ENDBRANCH  10  11
ENDBRANCH   9  10
ENDBRANCH   8   9
ENDBRANCH   7   8
ENDBRANCH   6   7
ENDBRANCH   5   6
ENDBRANCH   4   5
ENDBRANCH   3   4
ENDBRANCH   2   3
TORSDOF 15
ENDMDL
MODEL      275
REMARK 921   NORMALIZED FREE ENERGY PREDICTED BY IDOCK:   -3.34 KCAL/MOL
REMARK 922        TOTAL FREE ENERGY PREDICTED BY IDOCK:   -7.40 KCAL/MOL
REMARK 923 INTER-LIGAND FREE ENERGY PREDICTED BY IDOCK:   -5.80 KCAL/MOL
REMARK 924 INTRA-LIGAND FREE ENERGY PREDICTED BY IDOCK:   -1.60 KCAL/MOL
REMARK 927      BINDING AFFINITY PREDICTED BY RF-SCORE:    0.00 PKD
ROOT
HETATM    1  C   UNL     1     -10.099  11.601  63.196  1.00  0.00    -0.409 C  
HETATM    2  C   UNL     1     -11.523  12.045  63.484  1.00  0.00    -0.536 C  
ENDROOT
BRANCH   2   3
HETATM    3  C   UNL     1     -11.543  13.283  64.375  1.00  0.00    -0.423 C  
BRANCH   3   4
HETATM    4  C   UNL     1     -12.374  13.036  65.628  1.00  0.00    -0.504 C  
BRANCH   4   5
HETATM    5  C   UNL     1     -12.269  14.210  66.593  1.00  0.00    -0.450 C  
BRANCH   5   6
HETATM    6  C   UNL     1     -12.145  13.707  68.026  1.00  0.00    -0.309 C  
BRANCH   6   7
HETATM    7  C   UNL     1     -11.364  14.697  68.876  1.00  0.00    -0.305 C  
BRANCH   7   8
HETATM    8  C   UNL     1     -10.371  15.475  68.021  1.00  0.00    -0.247 C  
BRANCH   8   9
HETATM    9  C   UNL     1      -8.970  14.928  68.246  1.00  0.00    -0.177 C  
BRANCH   9  10
HETATM   10  C   UNL     1      -8.591  13.887  67.198  1.00  0.00    -0.217 C  
BRANCH  10  11
HETATM   11  C   UNL     1      -8.506  12.474  67.800  1.00  0.00    -0.171 C  
BRANCH  11  12
HETATM   12  C   UNL     1      -9.185  11.450  66.888  1.00  0.00    -0.176 C  
BRANCH  12  13
HETATM   13  N   UNL     1      -9.393  10.066  67.524  1.00  0.00    -0.143 N  
HETATM   14  C   UNL     1      -8.345   9.778  68.594  1.00  0.00    -0.111 C  
HETATM   15  C   UNL     1     -10.785   9.980  68.157  1.00  0.00    -0.239 C  
BRANCH  13  16
HETATM   16  C   UNL     1      -9.332   8.966  66.404  1.00  0.00    -0.204 C  
BRANCH  16  17
HETATM   17  C   UNL     1      -8.464   7.765  66.797  1.00  0.00    -0.126 C  
BRANCH  17  18
HETATM   18  O   UNL     1      -9.248   6.589  66.978  1.00  0.00    -0.127 OA 
BRANCH  18  19
HETATM   19  C   UNL     1      -9.179   5.733  65.901  1.00  0.00    -0.113 A  
HETATM   20  C   UNL     1     -10.116   4.701  65.884  1.00  0.00    -0.280 A  
HETATM   21  C   UNL     1     -10.096   3.753  64.859  1.00  0.00    -0.147 A  
HETATM   22  C   UNL     1      -9.148   3.840  63.838  1.00  0.00    -0.123 A  
HETATM   23  C   UNL     1      -8.233   4.889  63.832  1.00  0.00    -0.122 A  
HETATM   24  C   UNL     1      -8.255   5.836  64.854  1.00  0.00    -0.137 A  
ENDBRANCH  18  19
ENDBRANCH  17  18
ENDBRANCH  16  17
ENDBRANCH  13  16
ENDBRANCH  12  13
ENDBRANCH  11  12
ENDBRANCH  10  11
ENDBRANCH   9  10
ENDBRANCH   8   9
ENDBRANCH   7   8
ENDBRANCH   6   7
ENDBRANCH   5   6
ENDBRANCH   4   5
ENDBRANCH   3   4
ENDBRANCH   2   3
TORSDOF 15
ENDMDL
MODEL      276
REMARK 921   NORMALIZED FREE ENERGY PREDICTED BY IDOCK:   -3.32 KCAL/MOL
REMARK 922        TOTAL FREE ENERGY PREDICTED BY IDOCK:   -7.36 KCAL/MOL
REMARK 923 INTER-LIGAND FREE ENERGY PREDICTED BY IDOCK:   -6.32 KCAL/MOL
REMARK 924 INTRA-LIGAND FREE ENERGY PREDICTED BY IDOCK:   -1.04 KCAL/MOL
REMARK 927      BINDING AFFINITY PREDICTED BY RF-SCORE:    0.00 PKD
ROOT
HETATM    1  C   UNL     1      -9.356  17.753  68.099  1.00  0.00    -0.281 C  
HETATM    2  C   UNL     1      -9.398  17.285  66.655  1.00  0.00    -0.276 C  
ENDROOT
BRANCH   2   3
HETATM    3  C   UNL     1     -10.240  16.022  66.512  1.00  0.00    -0.301 C  
BRANCH   3   4
HETATM    4  C   UNL     1     -10.891  15.957  65.135  1.00  0.00    -0.438 C  
BRANCH   4   5
HETATM    5  C   UNL     1     -11.430  14.560  64.851  1.00  0.00    -0.396 C  
BRANCH   5   6
HETATM    6  C   UNL     1     -12.270  14.071  66.024  1.00  0.00    -0.484 C  
BRANCH   6   7
HETATM    7  C   UNL     1     -12.156  12.562  66.173  1.00  0.00    -0.357 C  
BRANCH   7   8
HETATM    8  C   UNL     1     -11.841  12.186  67.617  1.00  0.00    -0.316 C  
BRANCH   8   9
HETATM    9  C   UNL     1     -10.818  11.062  67.635  1.00  0.00    -0.306 C  
BRANCH   9  10
HETATM   10  C   UNL     1      -9.847  11.196  68.804  1.00  0.00    -0.201 C  
BRANCH  10  11
HETATM   11  C   UNL     1     -10.376  10.499  70.070  1.00  0.00    -0.087 C  
BRANCH  11  12
HETATM   12  C   UNL     1     -11.167   9.240  69.710  1.00  0.00    -0.085 C  
BRANCH  12  13
HETATM   13  N   UNL     1     -11.018   8.083  70.711  1.00  0.00    -0.244 N  
HETATM   14  C   UNL     1     -12.165   8.060  71.714  1.00  0.00    -0.316 C  
HETATM   15  C   UNL     1     -10.981   6.744  69.968  1.00  0.00    -0.295 C  
BRANCH  13  16
HETATM   16  C   UNL     1      -9.647   8.224  71.466  1.00  0.00    -0.188 C  
BRANCH  16  17
HETATM   17  C   UNL     1      -9.785   8.057  72.984  1.00  0.00    -0.278 C  
BRANCH  17  18
HETATM   18  O   UNL     1      -8.908   7.049  73.481  1.00  0.00    -0.129 OA 
BRANCH  18  19
HETATM   19  C   UNL     1      -9.356   5.775  73.212  1.00  0.00    -0.135 A  
HETATM   20  C   UNL     1     -10.611   5.451  73.723  1.00  0.00    -0.325 A  
HETATM   21  C   UNL     1     -11.130   4.166  73.544  1.00  0.00    -0.359 A  
HETATM   22  C   UNL     1     -10.404   3.205  72.841  1.00  0.00    -0.248 A  
HETATM   23  C   UNL     1      -9.165   3.535  72.298  1.00  0.00    -0.158 A  
HETATM   24  C   UNL     1      -8.648   4.817  72.475  1.00  0.00    -0.116 A  
ENDBRANCH  18  19
ENDBRANCH  17  18
ENDBRANCH  16  17
ENDBRANCH  13  16
ENDBRANCH  12  13
ENDBRANCH  11  12
ENDBRANCH  10  11
ENDBRANCH   9  10
ENDBRANCH   8   9
ENDBRANCH   7   8
ENDBRANCH   6   7
ENDBRANCH   5   6
ENDBRANCH   4   5
ENDBRANCH   3   4
ENDBRANCH   2   3
TORSDOF 15
ENDMDL
MODEL      277
REMARK 921   NORMALIZED FREE ENERGY PREDICTED BY IDOCK:   -3.31 KCAL/MOL
REMARK 922        TOTAL FREE ENERGY PREDICTED BY IDOCK:   -7.34 KCAL/MOL
REMARK 923 INTER-LIGAND FREE ENERGY PREDICTED BY IDOCK:   -5.81 KCAL/MOL
REMARK 924 INTRA-LIGAND FREE ENERGY PREDICTED BY IDOCK:   -1.54 KCAL/MOL
REMARK 927      BINDING AFFINITY PREDICTED BY RF-SCORE:    0.00 PKD
ROOT
HETATM    1  C   UNL     1      -6.902   7.766  68.380  1.00  0.00    -0.067 C  
HETATM    2  C   UNL     1      -7.856   7.422  67.250  1.00  0.00    -0.114 C  
ENDROOT
BRANCH   2   3
HETATM    3  C   UNL     1      -8.609   8.659  66.772  1.00  0.00    -0.126 C  
BRANCH   3   4
HETATM    4  C   UNL     1      -7.650   9.674  66.158  1.00  0.00    -0.102 C  
BRANCH   4   5
HETATM    5  C   UNL     1      -7.689  10.992  66.920  1.00  0.00    -0.140 C  
BRANCH   5   6
HETATM    6  C   UNL     1      -6.303  11.623  66.956  1.00  0.00    -0.149 C  
BRANCH   6   7
HETATM    7  C   UNL     1      -5.661  11.432  68.321  1.00  0.00    -0.045 C  
BRANCH   7   8
HETATM    8  C   UNL     1      -6.301  12.358  69.350  1.00  0.00    -0.119 C  
BRANCH   8   9
HETATM    9  C   UNL     1      -6.506  13.734  68.734  1.00  0.00    -0.096 C  
BRANCH   9  10
HETATM   10  C   UNL     1      -6.592  14.825  69.796  1.00  0.00    -0.169 C  
BRANCH  10  11
HETATM   11  C   UNL     1      -7.168  16.133  69.227  1.00  0.00    -0.225 C  
BRANCH  11  12
HETATM   12  C   UNL     1      -8.574  15.913  68.668  1.00  0.00    -0.198 C  
BRANCH  12  13
HETATM   13  N   UNL     1      -9.203  17.154  68.014  1.00  0.00    -0.244 N  
HETATM   14  C   UNL     1     -10.641  17.362  68.476  1.00  0.00    -0.340 C  
HETATM   15  C   UNL     1      -8.386  18.403  68.357  1.00  0.00    -0.308 C  
BRANCH  13  16
HETATM   16  C   UNL     1      -9.160  16.995  66.451  1.00  0.00    -0.270 C  
BRANCH  16  17
HETATM   17  C   UNL     1      -9.421  15.555  65.993  1.00  0.00    -0.352 C  
BRANCH  17  18
HETATM   18  O   UNL     1     -10.723  15.412  65.433  1.00  0.00    -0.347 OA 
BRANCH  18  19
HETATM   19  C   UNL     1     -10.923  14.174  64.862  1.00  0.00    -0.397 A  
HETATM   20  C   UNL     1     -12.003  14.078  63.987  1.00  0.00    -0.388 A  
HETATM   21  C   UNL     1     -12.317  12.852  63.394  1.00  0.00    -0.498 A  
HETATM   22  C   UNL     1     -11.545  11.722  63.663  1.00  0.00    -0.521 A  
HETATM   23  C   UNL     1     -10.443  11.822  64.509  1.00  0.00    -0.352 A  
HETATM   24  C   UNL     1     -10.129  13.045  65.098  1.00  0.00    -0.238 A  
ENDBRANCH  18  19
ENDBRANCH  17  18
ENDBRANCH  16  17
ENDBRANCH  13  16
ENDBRANCH  12  13
ENDBRANCH  11  12
ENDBRANCH  10  11
ENDBRANCH   9  10
ENDBRANCH   8   9
ENDBRANCH   7   8
ENDBRANCH   6   7
ENDBRANCH   5   6
ENDBRANCH   4   5
ENDBRANCH   3   4
ENDBRANCH   2   3
TORSDOF 15
ENDMDL
MODEL      278
REMARK 921   NORMALIZED FREE ENERGY PREDICTED BY IDOCK:   -3.30 KCAL/MOL
REMARK 922        TOTAL FREE ENERGY PREDICTED BY IDOCK:   -7.32 KCAL/MOL
REMARK 923 INTER-LIGAND FREE ENERGY PREDICTED BY IDOCK:   -6.29 KCAL/MOL
REMARK 924 INTRA-LIGAND FREE ENERGY PREDICTED BY IDOCK:   -1.04 KCAL/MOL
REMARK 927      BINDING AFFINITY PREDICTED BY RF-SCORE:    0.00 PKD
ROOT
HETATM    1  C   UNL     1     -11.362  14.577  66.110  1.00  0.00    -0.348 C  
HETATM    2  C   UNL     1     -10.043  15.107  66.644  1.00  0.00    -0.271 C  
ENDROOT
BRANCH   2   3
HETATM    3  C   UNL     1     -10.095  15.283  68.158  1.00  0.00    -0.229 C  
BRANCH   3   4
HETATM    4  C   UNL     1     -11.391  14.715  68.726  1.00  0.00    -0.302 C  
BRANCH   4   5
HETATM    5  C   UNL     1     -12.072  15.723  69.644  1.00  0.00    -0.282 C  
BRANCH   5   6
HETATM    6  C   UNL     1     -12.975  15.005  70.638  1.00  0.00    -0.394 C  
BRANCH   6   7
HETATM    7  C   UNL     1     -12.422  13.627  70.968  1.00  0.00    -0.456 C  
BRANCH   7   8
HETATM    8  C   UNL     1     -13.386  12.861  71.867  1.00  0.00    -0.530 C  
BRANCH   8   9
HETATM    9  C   UNL     1     -13.120  11.370  71.741  1.00  0.00    -0.523 C  
BRANCH   9  10
HETATM   10  C   UNL     1     -12.147  11.059  70.608  1.00  0.00    -0.471 C  
BRANCH  10  11
HETATM   11  C   UNL     1     -11.725   9.580  70.605  1.00  0.00    -0.330 C  
BRANCH  11  12
HETATM   12  C   UNL     1     -10.455   9.373  71.431  1.00  0.00    -0.288 C  
BRANCH  12  13
HETATM   13  N   UNL     1     -10.131   7.904  71.748  1.00  0.00    -0.178 N  
HETATM   14  C   UNL     1      -8.659   7.590  71.507  1.00  0.00    -0.116 C  
HETATM   15  C   UNL     1     -10.472   7.592  73.209  1.00  0.00    -0.371 C  
BRANCH  13  16
HETATM   16  C   UNL     1     -11.031   6.970  70.860  1.00  0.00    -0.253 C  
BRANCH  16  17
HETATM   17  C   UNL     1     -10.460   5.555  70.717  1.00  0.00    -0.260 C  
BRANCH  17  18
HETATM   18  O   UNL     1     -10.376   5.160  69.351  1.00  0.00    -0.234 OA 
BRANCH  18  19
HETATM   19  C   UNL     1      -9.080   4.941  68.939  1.00  0.00    -0.112 A  
HETATM   20  C   UNL     1      -8.588   5.831  67.986  1.00  0.00    -0.105 A  
HETATM   21  C   UNL     1      -7.300   5.664  67.469  1.00  0.00    -0.077 A  
HETATM   22  C   UNL     1      -6.495   4.615  67.914  1.00  0.00    -0.041 A  
HETATM   23  C   UNL     1      -6.969   3.744  68.892  1.00  0.00    -0.046 A  
HETATM   24  C   UNL     1      -8.253   3.913  69.408  1.00  0.00    -0.069 A  
ENDBRANCH  18  19
ENDBRANCH  17  18
ENDBRANCH  16  17
ENDBRANCH  13  16
ENDBRANCH  12  13
ENDBRANCH  11  12
ENDBRANCH  10  11
ENDBRANCH   9  10
ENDBRANCH   8   9
ENDBRANCH   7   8
ENDBRANCH   6   7
ENDBRANCH   5   6
ENDBRANCH   4   5
ENDBRANCH   3   4
ENDBRANCH   2   3
TORSDOF 15
ENDMDL
MODEL      279
REMARK 921   NORMALIZED FREE ENERGY PREDICTED BY IDOCK:   -3.30 KCAL/MOL
REMARK 922        TOTAL FREE ENERGY PREDICTED BY IDOCK:   -7.32 KCAL/MOL
REMARK 923 INTER-LIGAND FREE ENERGY PREDICTED BY IDOCK:   -6.18 KCAL/MOL
REMARK 924 INTRA-LIGAND FREE ENERGY PREDICTED BY IDOCK:   -1.14 KCAL/MOL
REMARK 927      BINDING AFFINITY PREDICTED BY RF-SCORE:    0.00 PKD
ROOT
HETATM    1  C   UNL     1     -10.369   2.201  72.830  1.00  0.00    -0.233 C  
HETATM    2  C   UNL     1     -10.773   3.320  73.773  1.00  0.00    -0.298 C  
ENDROOT
BRANCH   2   3
HETATM    3  C   UNL     1      -9.564   4.151  74.190  1.00  0.00    -0.130 C  
BRANCH   3   4
HETATM    4  C   UNL     1      -8.815   4.669  72.968  1.00  0.00    -0.112 C  
BRANCH   4   5
HETATM    5  C   UNL     1      -9.613   5.756  72.258  1.00  0.00    -0.164 C  
BRANCH   5   6
HETATM    6  C   UNL     1      -9.015   6.039  70.886  1.00  0.00    -0.146 C  
BRANCH   6   7
HETATM    7  C   UNL     1      -9.578   5.082  69.847  1.00  0.00    -0.246 C  
BRANCH   7   8
HETATM    8  C   UNL     1     -10.889   5.614  69.280  1.00  0.00    -0.309 C  
BRANCH   8   9
HETATM    9  C   UNL     1     -10.726   7.081  68.917  1.00  0.00    -0.227 C  
BRANCH   9  10
HETATM   10  C   UNL     1     -10.588   7.283  67.412  1.00  0.00    -0.370 C  
BRANCH  10  11
HETATM   11  C   UNL     1     -10.660   8.770  67.025  1.00  0.00    -0.283 C  
BRANCH  11  12
HETATM   12  C   UNL     1     -10.489   9.664  68.254  1.00  0.00    -0.219 C  
BRANCH  12  13
HETATM   13  N   UNL     1      -9.113  10.339  68.368  1.00  0.00    -0.132 N  
HETATM   14  C   UNL     1      -8.477  10.088  69.731  1.00  0.00    -0.172 C  
HETATM   15  C   UNL     1      -8.175   9.812  67.278  1.00  0.00    -0.117 C  
BRANCH  13  16
HETATM   16  C   UNL     1      -9.271  11.884  68.126  1.00  0.00    -0.187 C  
BRANCH  16  17
HETATM   17  C   UNL     1     -10.736  12.338  68.125  1.00  0.00    -0.216 C  
BRANCH  17  18
HETATM   18  O   UNL     1     -10.891  13.601  67.483  1.00  0.00    -0.260 OA 
BRANCH  18  19
HETATM   19  C   UNL     1     -11.321  13.486  66.180  1.00  0.00    -0.308 A  
HETATM   20  C   UNL     1     -11.509  14.685  65.495  1.00  0.00    -0.341 A  
HETATM   21  C   UNL     1     -11.990  14.674  64.183  1.00  0.00    -0.316 A  
HETATM   22  C   UNL     1     -12.270  13.464  63.546  1.00  0.00    -0.468 A  
HETATM   23  C   UNL     1     -12.050  12.263  64.214  1.00  0.00    -0.499 A  
HETATM   24  C   UNL     1     -11.569  12.274  65.522  1.00  0.00    -0.422 A  
ENDBRANCH  18  19
ENDBRANCH  17  18
ENDBRANCH  16  17
ENDBRANCH  13  16
ENDBRANCH  12  13
ENDBRANCH  11  12
ENDBRANCH  10  11
ENDBRANCH   9  10
ENDBRANCH   8   9
ENDBRANCH   7   8
ENDBRANCH   6   7
ENDBRANCH   5   6
ENDBRANCH   4   5
ENDBRANCH   3   4
ENDBRANCH   2   3
TORSDOF 15
ENDMDL
MODEL      280
REMARK 921   NORMALIZED FREE ENERGY PREDICTED BY IDOCK:   -3.30 KCAL/MOL
REMARK 922        TOTAL FREE ENERGY PREDICTED BY IDOCK:   -7.31 KCAL/MOL
REMARK 923 INTER-LIGAND FREE ENERGY PREDICTED BY IDOCK:   -6.25 KCAL/MOL
REMARK 924 INTRA-LIGAND FREE ENERGY PREDICTED BY IDOCK:   -1.06 KCAL/MOL
REMARK 927      BINDING AFFINITY PREDICTED BY RF-SCORE:    0.00 PKD
ROOT
HETATM    1  C   UNL     1     -10.436  17.329  66.298  1.00  0.00    -0.268 C  
HETATM    2  C   UNL     1      -9.652  16.045  66.095  1.00  0.00    -0.366 C  
ENDROOT
BRANCH   2   3
HETATM    3  C   UNL     1      -8.764  15.748  67.298  1.00  0.00    -0.210 C  
BRANCH   3   4
HETATM    4  C   UNL     1      -9.346  16.360  68.567  1.00  0.00    -0.225 C  
BRANCH   4   5
HETATM    5  C   UNL     1     -10.071  15.308  69.397  1.00  0.00    -0.266 C  
BRANCH   5   6
HETATM    6  C   UNL     1     -11.399  15.858  69.902  1.00  0.00    -0.348 C  
BRANCH   6   7
HETATM    7  C   UNL     1     -12.315  14.727  70.344  1.00  0.00    -0.402 C  
BRANCH   7   8
HETATM    8  C   UNL     1     -12.267  13.575  69.346  1.00  0.00    -0.278 C  
BRANCH   8   9
HETATM    9  C   UNL     1     -11.903  12.290  70.073  1.00  0.00    -0.372 C  
BRANCH   9  10
HETATM   10  C   UNL     1     -11.685  11.131  69.106  1.00  0.00    -0.408 C  
BRANCH  10  11
HETATM   11  C   UNL     1     -10.930   9.967  69.769  1.00  0.00    -0.304 C  
BRANCH  11  12
HETATM   12  C   UNL     1      -9.702   9.573  68.948  1.00  0.00    -0.164 C  
BRANCH  12  13
HETATM   13  N   UNL     1      -8.638   8.783  69.727  1.00  0.00    -0.127 N  
HETATM   14  C   UNL     1      -7.866   7.835  68.816  1.00  0.00    -0.123 C  
HETATM   15  C   UNL     1      -7.650   9.745  70.394  1.00  0.00    -0.148 C  
BRANCH  13  16
HETATM   16  C   UNL     1      -9.334   7.972  70.879  1.00  0.00    -0.153 C  
BRANCH  16  17
HETATM   17  C   UNL     1      -9.083   6.463  70.779  1.00  0.00    -0.151 C  
BRANCH  17  18
HETATM   18  O   UNL     1     -10.263   5.760  70.397  1.00  0.00    -0.194 OA 
BRANCH  18  19
HETATM   19  C   UNL     1     -10.298   5.472  69.050  1.00  0.00    -0.233 A  
HETATM   20  C   UNL     1      -9.607   4.328  68.656  1.00  0.00    -0.210 A  
HETATM   21  C   UNL     1      -9.544   3.979  67.304  1.00  0.00    -0.229 A  
HETATM   22  C   UNL     1     -10.183   4.764  66.344  1.00  0.00    -0.308 A  
HETATM   23  C   UNL     1     -10.904   5.888  66.738  1.00  0.00    -0.347 A  
HETATM   24  C   UNL     1     -10.969   6.235  68.086  1.00  0.00    -0.412 A  
ENDBRANCH  18  19
ENDBRANCH  17  18
ENDBRANCH  16  17
ENDBRANCH  13  16
ENDBRANCH  12  13
ENDBRANCH  11  12
ENDBRANCH  10  11
ENDBRANCH   9  10
ENDBRANCH   8   9
ENDBRANCH   7   8
ENDBRANCH   6   7
ENDBRANCH   5   6
ENDBRANCH   4   5
ENDBRANCH   3   4
ENDBRANCH   2   3
TORSDOF 15
ENDMDL
MODEL      281
REMARK 921   NORMALIZED FREE ENERGY PREDICTED BY IDOCK:   -3.29 KCAL/MOL
REMARK 922        TOTAL FREE ENERGY PREDICTED BY IDOCK:   -7.29 KCAL/MOL
REMARK 923 INTER-LIGAND FREE ENERGY PREDICTED BY IDOCK:   -6.12 KCAL/MOL
REMARK 924 INTRA-LIGAND FREE ENERGY PREDICTED BY IDOCK:   -1.17 KCAL/MOL
REMARK 927      BINDING AFFINITY PREDICTED BY RF-SCORE:    0.00 PKD
ROOT
HETATM    1  C   UNL     1      -7.676   8.170  72.220  1.00  0.00    -0.155 C  
HETATM    2  C   UNL     1      -8.602   7.110  71.649  1.00  0.00    -0.114 C  
ENDROOT
BRANCH   2   3
HETATM    3  C   UNL     1      -9.072   7.488  70.248  1.00  0.00    -0.154 C  
BRANCH   3   4
HETATM    4  C   UNL     1      -9.398   8.975  70.169  1.00  0.00    -0.213 C  
BRANCH   4   5
HETATM    5  C   UNL     1      -9.366   9.464  68.726  1.00  0.00    -0.146 C  
BRANCH   5   6
HETATM    6  C   UNL     1     -10.325   8.647  67.870  1.00  0.00    -0.286 C  
BRANCH   6   7
HETATM    7  C   UNL     1     -10.128   8.959  66.395  1.00  0.00    -0.333 C  
BRANCH   7   8
HETATM    8  C   UNL     1      -8.755   9.578  66.156  1.00  0.00    -0.162 C  
BRANCH   8   9
HETATM    9  C   UNL     1      -8.871  10.681  65.116  1.00  0.00    -0.207 C  
BRANCH   9  10
HETATM   10  C   UNL     1     -10.324  11.064  64.854  1.00  0.00    -0.378 C  
BRANCH  10  11
HETATM   11  C   UNL     1     -10.434  12.347  64.012  1.00  0.00    -0.443 C  
BRANCH  11  12
HETATM   12  C   UNL     1     -10.196  13.588  64.873  1.00  0.00    -0.329 C  
BRANCH  12  13
HETATM   13  N   UNL     1     -11.467  14.383  65.215  1.00  0.00    -0.338 N  
HETATM   14  C   UNL     1     -11.407  15.801  64.660  1.00  0.00    -0.337 C  
HETATM   15  C   UNL     1     -12.700  13.677  64.644  1.00  0.00    -0.149 C  
BRANCH  13  16
HETATM   16  C   UNL     1     -11.648  14.425  66.776  1.00  0.00    -0.385 C  
BRANCH  16  17
HETATM   17  C   UNL     1     -11.008  15.663  67.415  1.00  0.00    -0.293 C  
BRANCH  17  18
HETATM   18  O   UNL     1      -9.809  15.334  68.110  1.00  0.00    -0.214 OA 
BRANCH  18  19
HETATM   19  C   UNL     1      -8.743  16.121  67.736  1.00  0.00    -0.172 A  
HETATM   20  C   UNL     1      -7.875  16.495  68.760  1.00  0.00    -0.235 A  
HETATM   21  C   UNL     1      -6.791  17.333  68.488  1.00  0.00    -0.197 A  
HETATM   22  C   UNL     1      -6.563  17.790  67.190  1.00  0.00    -0.191 A  
HETATM   23  C   UNL     1      -7.407  17.391  66.157  1.00  0.00    -0.331 A  
HETATM   24  C   UNL     1      -8.487  16.553  66.428  1.00  0.00    -0.357 A  
ENDBRANCH  18  19
ENDBRANCH  17  18
ENDBRANCH  16  17
ENDBRANCH  13  16
ENDBRANCH  12  13
ENDBRANCH  11  12
ENDBRANCH  10  11
ENDBRANCH   9  10
ENDBRANCH   8   9
ENDBRANCH   7   8
ENDBRANCH   6   7
ENDBRANCH   5   6
ENDBRANCH   4   5
ENDBRANCH   3   4
ENDBRANCH   2   3
TORSDOF 15
ENDMDL
MODEL      282
REMARK 921   NORMALIZED FREE ENERGY PREDICTED BY IDOCK:   -3.28 KCAL/MOL
REMARK 922        TOTAL FREE ENERGY PREDICTED BY IDOCK:   -7.28 KCAL/MOL
REMARK 923 INTER-LIGAND FREE ENERGY PREDICTED BY IDOCK:   -5.11 KCAL/MOL
REMARK 924 INTRA-LIGAND FREE ENERGY PREDICTED BY IDOCK:   -2.17 KCAL/MOL
REMARK 927      BINDING AFFINITY PREDICTED BY RF-SCORE:    0.00 PKD
ROOT
HETATM    1  C   UNL     1     -12.744  12.988  71.173  1.00  0.00    -0.372 C  
HETATM    2  C   UNL     1     -13.215  11.723  71.866  1.00  0.00    -0.468 C  
ENDROOT
BRANCH   2   3
HETATM    3  C   UNL     1     -13.013  10.501  70.976  1.00  0.00    -0.475 C  
BRANCH   3   4
HETATM    4  C   UNL     1     -11.768   9.726  71.394  1.00  0.00    -0.475 C  
BRANCH   4   5
HETATM    5  C   UNL     1     -10.649   9.901  70.375  1.00  0.00    -0.364 C  
BRANCH   5   6
HETATM    6  C   UNL     1      -9.323   9.436  70.963  1.00  0.00    -0.210 C  
BRANCH   6   7
HETATM    7  C   UNL     1      -8.308   9.179  69.860  1.00  0.00    -0.146 C  
BRANCH   7   8
HETATM    8  C   UNL     1      -7.457  10.420  69.612  1.00  0.00    -0.160 C  
BRANCH   8   9
HETATM    9  C   UNL     1      -7.594  10.844  68.158  1.00  0.00    -0.094 C  
BRANCH   9  10
HETATM   10  C   UNL     1      -6.258  11.279  67.565  1.00  0.00    -0.064 C  
BRANCH  10  11
HETATM   11  C   UNL     1      -5.990  10.608  66.206  1.00  0.00    -0.106 C  
BRANCH  11  12
HETATM   12  C   UNL     1      -6.649   9.230  66.138  1.00  0.00    -0.070 C  
BRANCH  12  13
HETATM   13  N   UNL     1      -7.373   8.932  64.815  1.00  0.00    -0.095 N  
HETATM   14  C   UNL     1      -7.787  10.214  64.102  1.00  0.00    -0.145 C  
HETATM   15  C   UNL     1      -6.464   8.119  63.887  1.00  0.00    -0.067 C  
BRANCH  13  16
HETATM   16  C   UNL     1      -8.639   8.046  65.104  1.00  0.00    -0.051 C  
BRANCH  16  17
HETATM   17  C   UNL     1      -8.681   7.522  66.544  1.00  0.00    -0.140 C  
BRANCH  17  18
HETATM   18  O   UNL     1      -9.965   7.000  66.874  1.00  0.00    -0.189 OA 
BRANCH  18  19
HETATM   19  C   UNL     1     -10.025   6.504  68.157  1.00  0.00    -0.139 A  
HETATM   20  C   UNL     1     -11.254   6.631  68.800  1.00  0.00    -0.256 A  
HETATM   21  C   UNL     1     -11.401   6.201  70.122  1.00  0.00    -0.433 A  
HETATM   22  C   UNL     1     -10.323   5.632  70.800  1.00  0.00    -0.310 A  
HETATM   23  C   UNL     1      -9.103   5.471  70.150  1.00  0.00    -0.162 A  
HETATM   24  C   UNL     1      -8.957   5.897  68.831  1.00  0.00    -0.118 A  
ENDBRANCH  18  19
ENDBRANCH  17  18
ENDBRANCH  16  17
ENDBRANCH  13  16
ENDBRANCH  12  13
ENDBRANCH  11  12
ENDBRANCH  10  11
ENDBRANCH   9  10
ENDBRANCH   8   9
ENDBRANCH   7   8
ENDBRANCH   6   7
ENDBRANCH   5   6
ENDBRANCH   4   5
ENDBRANCH   3   4
ENDBRANCH   2   3
TORSDOF 15
ENDMDL
MODEL      283
REMARK 921   NORMALIZED FREE ENERGY PREDICTED BY IDOCK:   -3.28 KCAL/MOL
REMARK 922        TOTAL FREE ENERGY PREDICTED BY IDOCK:   -7.28 KCAL/MOL
REMARK 923 INTER-LIGAND FREE ENERGY PREDICTED BY IDOCK:   -6.03 KCAL/MOL
REMARK 924 INTRA-LIGAND FREE ENERGY PREDICTED BY IDOCK:   -1.25 KCAL/MOL
REMARK 927      BINDING AFFINITY PREDICTED BY RF-SCORE:    0.00 PKD
ROOT
HETATM    1  C   UNL     1     -10.411   5.618  69.157  1.00  0.00    -0.328 C  
HETATM    2  C   UNL     1      -9.284   6.635  69.125  1.00  0.00    -0.136 C  
ENDROOT
BRANCH   2   3
HETATM    3  C   UNL     1      -9.830   8.058  69.063  1.00  0.00    -0.178 C  
BRANCH   3   4
HETATM    4  C   UNL     1      -9.271   8.903  70.202  1.00  0.00    -0.195 C  
BRANCH   4   5
HETATM    5  C   UNL     1      -8.459  10.075  69.664  1.00  0.00    -0.193 C  
BRANCH   5   6
HETATM    6  C   UNL     1      -9.172  10.711  68.478  1.00  0.00    -0.170 C  
BRANCH   6   7
HETATM    7  C   UNL     1      -8.173  11.380  67.547  1.00  0.00    -0.130 C  
BRANCH   7   8
HETATM    8  C   UNL     1      -6.858  11.647  68.271  1.00  0.00    -0.067 C  
BRANCH   8   9
HETATM    9  C   UNL     1      -6.194  12.879  67.677  1.00  0.00    -0.157 C  
BRANCH   9  10
HETATM   10  C   UNL     1      -7.191  14.012  67.456  1.00  0.00    -0.183 C  
BRANCH  10  11
HETATM   11  C   UNL     1      -6.559  15.389  67.721  1.00  0.00    -0.178 C  
BRANCH  11  12
HETATM   12  C   UNL     1      -7.072  16.427  66.720  1.00  0.00    -0.198 C  
BRANCH  12  13
HETATM   13  N   UNL     1      -7.904  17.559  67.343  1.00  0.00    -0.200 N  
HETATM   14  C   UNL     1      -7.294  18.046  68.653  1.00  0.00    -0.282 C  
HETATM   15  C   UNL     1      -8.001  18.739  66.371  1.00  0.00    -0.282 C  
BRANCH  13  16
HETATM   16  C   UNL     1      -9.370  17.050  67.591  1.00  0.00    -0.241 C  
BRANCH  16  17
HETATM   17  C   UNL     1     -10.234  17.087  66.324  1.00  0.00    -0.329 C  
BRANCH  17  18
HETATM   18  O   UNL     1      -9.838  16.085  65.392  1.00  0.00    -0.440 OA 
BRANCH  18  19
HETATM   19  C   UNL     1     -10.637  14.964  65.444  1.00  0.00    -0.373 A  
HETATM   20  C   UNL     1     -11.693  14.929  64.535  1.00  0.00    -0.388 A  
HETATM   21  C   UNL     1     -12.588  13.856  64.543  1.00  0.00    -0.246 A  
HETATM   22  C   UNL     1     -12.423  12.808  65.449  1.00  0.00    -0.478 A  
HETATM   23  C   UNL     1     -11.349  12.822  66.336  1.00  0.00    -0.369 A  
HETATM   24  C   UNL     1     -10.455  13.892  66.326  1.00  0.00    -0.287 A  
ENDBRANCH  18  19
ENDBRANCH  17  18
ENDBRANCH  16  17
ENDBRANCH  13  16
ENDBRANCH  12  13
ENDBRANCH  11  12
ENDBRANCH  10  11
ENDBRANCH   9  10
ENDBRANCH   8   9
ENDBRANCH   7   8
ENDBRANCH   6   7
ENDBRANCH   5   6
ENDBRANCH   4   5
ENDBRANCH   3   4
ENDBRANCH   2   3
TORSDOF 15
ENDMDL
MODEL      284
REMARK 921   NORMALIZED FREE ENERGY PREDICTED BY IDOCK:   -3.25 KCAL/MOL
REMARK 922        TOTAL FREE ENERGY PREDICTED BY IDOCK:   -7.23 KCAL/MOL
REMARK 923 INTER-LIGAND FREE ENERGY PREDICTED BY IDOCK:   -6.04 KCAL/MOL
REMARK 924 INTRA-LIGAND FREE ENERGY PREDICTED BY IDOCK:   -1.18 KCAL/MOL
REMARK 927      BINDING AFFINITY PREDICTED BY RF-SCORE:    0.00 PKD
ROOT
HETATM    1  C   UNL     1      -5.332   5.313  69.113  1.00  0.00    -0.004 C  
HETATM    2  C   UNL     1      -6.580   4.896  69.870  1.00  0.00    -0.036 C  
ENDROOT
BRANCH   2   3
HETATM    3  C   UNL     1      -7.779   4.788  68.934  1.00  0.00    -0.072 C  
BRANCH   3   4
HETATM    4  C   UNL     1      -8.212   6.166  68.446  1.00  0.00    -0.115 C  
BRANCH   4   5
HETATM    5  C   UNL     1      -8.996   6.906  69.523  1.00  0.00    -0.143 C  
BRANCH   5   6
HETATM    6  C   UNL     1      -8.340   8.246  69.827  1.00  0.00    -0.123 C  
BRANCH   6   7
HETATM    7  C   UNL     1      -7.333   8.608  68.747  1.00  0.00    -0.083 C  
BRANCH   7   8
HETATM    8  C   UNL     1      -7.783   9.850  67.985  1.00  0.00    -0.086 C  
BRANCH   8   9
HETATM    9  C   UNL     1      -8.863  10.567  68.779  1.00  0.00    -0.158 C  
BRANCH   9  10
HETATM   10  C   UNL     1     -10.074  10.904  67.916  1.00  0.00    -0.199 C  
BRANCH  10  11
HETATM   11  C   UNL     1      -9.711  11.865  66.771  1.00  0.00    -0.218 C  
BRANCH  11  12
HETATM   12  C   UNL     1     -10.624  13.092  66.777  1.00  0.00    -0.263 C  
BRANCH  12  13
HETATM   13  N   UNL     1     -11.342  13.361  65.444  1.00  0.00    -0.290 N  
HETATM   14  C   UNL     1     -11.477  12.090  64.614  1.00  0.00    -0.308 C  
HETATM   15  C   UNL     1     -12.738  13.936  65.703  1.00  0.00    -0.495 C  
BRANCH  13  16
HETATM   16  C   UNL     1     -10.544  14.448  64.635  1.00  0.00    -0.306 C  
BRANCH  16  17
HETATM   17  C   UNL     1     -10.665  15.849  65.244  1.00  0.00    -0.424 C  
BRANCH  17  18
HETATM   18  O   UNL     1      -9.496  16.204  65.978  1.00  0.00    -0.304 OA 
BRANCH  18  19
HETATM   19  C   UNL     1      -9.512  17.514  66.403  1.00  0.00    -0.259 A  
HETATM   20  C   UNL     1      -8.540  17.861  67.339  1.00  0.00    -0.239 A  
HETATM   21  C   UNL     1      -8.505  19.154  67.867  1.00  0.00    -0.335 A  
HETATM   22  C   UNL     1      -9.433  20.109  67.451  1.00  0.00    -0.531 A  
HETATM   23  C   UNL     1     -10.384  19.778  66.489  1.00  0.00    -0.621 A  
HETATM   24  C   UNL     1     -10.417  18.488  65.961  1.00  0.00    -0.433 A  
ENDBRANCH  18  19
ENDBRANCH  17  18
ENDBRANCH  16  17
ENDBRANCH  13  16
ENDBRANCH  12  13
ENDBRANCH  11  12
ENDBRANCH  10  11
ENDBRANCH   9  10
ENDBRANCH   8   9
ENDBRANCH   7   8
ENDBRANCH   6   7
ENDBRANCH   5   6
ENDBRANCH   4   5
ENDBRANCH   3   4
ENDBRANCH   2   3
TORSDOF 15
ENDMDL
MODEL      285
REMARK 921   NORMALIZED FREE ENERGY PREDICTED BY IDOCK:   -3.23 KCAL/MOL
REMARK 922        TOTAL FREE ENERGY PREDICTED BY IDOCK:   -7.18 KCAL/MOL
REMARK 923 INTER-LIGAND FREE ENERGY PREDICTED BY IDOCK:   -6.06 KCAL/MOL
REMARK 924 INTRA-LIGAND FREE ENERGY PREDICTED BY IDOCK:   -1.12 KCAL/MOL
REMARK 927      BINDING AFFINITY PREDICTED BY RF-SCORE:    0.00 PKD
ROOT
HETATM    1  C   UNL     1     -10.340   3.179  73.519  1.00  0.00    -0.224 C  
HETATM    2  C   UNL     1     -11.264   4.364  73.735  1.00  0.00    -0.272 C  
ENDROOT
BRANCH   2   3
HETATM    3  C   UNL     1     -10.483   5.597  74.177  1.00  0.00    -0.281 C  
BRANCH   3   4
HETATM    4  C   UNL     1      -9.692   6.184  73.014  1.00  0.00    -0.160 C  
BRANCH   4   5
HETATM    5  C   UNL     1     -10.615   6.554  71.858  1.00  0.00    -0.239 C  
BRANCH   5   6
HETATM    6  C   UNL     1      -9.798   6.893  70.618  1.00  0.00    -0.191 C  
BRANCH   6   7
HETATM    7  C   UNL     1      -9.598   5.658  69.754  1.00  0.00    -0.206 C  
BRANCH   7   8
HETATM    8  C   UNL     1     -10.741   5.510  68.755  1.00  0.00    -0.195 C  
BRANCH   8   9
HETATM    9  C   UNL     1     -10.267   5.942  67.376  1.00  0.00    -0.237 C  
BRANCH   9  10
HETATM   10  C   UNL     1      -9.072   5.122  66.903  1.00  0.00    -0.116 C  
BRANCH  10  11
HETATM   11  C   UNL     1      -8.039   5.991  66.163  1.00  0.00    -0.110 C  
BRANCH  11  12
HETATM   12  C   UNL     1      -8.658   7.318  65.722  1.00  0.00    -0.131 C  
BRANCH  12  13
HETATM   13  N   UNL     1      -7.813   8.558  66.054  1.00  0.00    -0.096 N  
HETATM   14  C   UNL     1      -7.863   8.888  67.542  1.00  0.00    -0.101 C  
HETATM   15  C   UNL     1      -6.354   8.329  65.646  1.00  0.00    -0.049 C  
BRANCH  13  16
HETATM   16  C   UNL     1      -8.335   9.781  65.215  1.00  0.00    -0.142 C  
BRANCH  16  17
HETATM   17  C   UNL     1      -9.857   9.946  65.289  1.00  0.00    -0.303 C  
BRANCH  17  18
HETATM   18  O   UNL     1     -10.370  10.594  64.129  1.00  0.00    -0.351 OA 
BRANCH  18  19
HETATM   19  C   UNL     1     -11.098  11.724  64.429  1.00  0.00    -0.334 A  
HETATM   20  C   UNL     1     -11.302  11.973  65.784  1.00  0.00    -0.384 A  
HETATM   21  C   UNL     1     -12.070  13.069  66.188  1.00  0.00    -0.473 A  
HETATM   22  C   UNL     1     -12.624  13.928  65.239  1.00  0.00    -0.508 A  
HETATM   23  C   UNL     1     -12.393  13.703  63.884  1.00  0.00    -0.375 A  
HETATM   24  C   UNL     1     -11.626  12.611  63.482  1.00  0.00    -0.584 A  
ENDBRANCH  18  19
ENDBRANCH  17  18
ENDBRANCH  16  17
ENDBRANCH  13  16
ENDBRANCH  12  13
ENDBRANCH  11  12
ENDBRANCH  10  11
ENDBRANCH   9  10
ENDBRANCH   8   9
ENDBRANCH   7   8
ENDBRANCH   6   7
ENDBRANCH   5   6
ENDBRANCH   4   5
ENDBRANCH   3   4
ENDBRANCH   2   3
TORSDOF 15
ENDMDL
MODEL      286
REMARK 921   NORMALIZED FREE ENERGY PREDICTED BY IDOCK:   -3.23 KCAL/MOL
REMARK 922        TOTAL FREE ENERGY PREDICTED BY IDOCK:   -7.18 KCAL/MOL
REMARK 923 INTER-LIGAND FREE ENERGY PREDICTED BY IDOCK:   -5.61 KCAL/MOL
REMARK 924 INTRA-LIGAND FREE ENERGY PREDICTED BY IDOCK:   -1.57 KCAL/MOL
REMARK 927      BINDING AFFINITY PREDICTED BY RF-SCORE:    0.00 PKD
ROOT
HETATM    1  C   UNL     1     -10.741   8.708  67.886  1.00  0.00    -0.158 C  
HETATM    2  C   UNL     1     -10.274   7.486  67.115  1.00  0.00    -0.350 C  
ENDROOT
BRANCH   2   3
HETATM    3  C   UNL     1     -10.119   6.281  68.037  1.00  0.00    -0.174 C  
BRANCH   3   4
HETATM    4  C   UNL     1     -11.253   6.227  69.055  1.00  0.00    -0.415 C  
BRANCH   4   5
HETATM    5  C   UNL     1     -10.767   5.658  70.382  1.00  0.00    -0.352 C  
BRANCH   5   6
HETATM    6  C   UNL     1      -9.310   6.033  70.617  1.00  0.00    -0.176 C  
BRANCH   6   7
HETATM    7  C   UNL     1      -9.189   7.030  71.758  1.00  0.00    -0.145 C  
BRANCH   7   8
HETATM    8  C   UNL     1      -9.404   8.453  71.254  1.00  0.00    -0.239 C  
BRANCH   8   9
HETATM    9  C   UNL     1      -8.057   9.129  71.055  1.00  0.00    -0.179 C  
BRANCH   9  10
HETATM   10  C   UNL     1      -7.626   9.119  69.592  1.00  0.00    -0.080 C  
BRANCH  10  11
HETATM   11  C   UNL     1      -7.259  10.527  69.094  1.00  0.00    -0.099 C  
BRANCH  11  12
HETATM   12  C   UNL     1      -8.504  11.283  68.627  1.00  0.00    -0.143 C  
BRANCH  12  13
HETATM   13  N   UNL     1      -8.310  12.102  67.341  1.00  0.00    -0.165 N  
HETATM   14  C   UNL     1      -6.840  12.192  66.951  1.00  0.00     0.007 C  
HETATM   15  C   UNL     1      -9.092  11.466  66.187  1.00  0.00    -0.207 C  
BRANCH  13  16
HETATM   16  C   UNL     1      -8.899  13.545  67.550  1.00  0.00    -0.209 C  
BRANCH  16  17
HETATM   17  C   UNL     1      -9.745  14.019  66.363  1.00  0.00    -0.296 C  
BRANCH  17  18
HETATM   18  O   UNL     1     -10.784  14.900  66.779  1.00  0.00    -0.299 OA 
BRANCH  18  19
HETATM   19  C   UNL     1     -10.335  16.183  67.005  1.00  0.00    -0.290 A  
HETATM   20  C   UNL     1     -10.646  16.724  68.251  1.00  0.00    -0.352 A  
HETATM   21  C   UNL     1     -10.276  18.036  68.557  1.00  0.00    -0.392 A  
HETATM   22  C   UNL     1      -9.582  18.807  67.624  1.00  0.00    -0.340 A  
HETATM   23  C   UNL     1      -9.239  18.259  66.391  1.00  0.00    -0.272 A  
HETATM   24  C   UNL     1      -9.606  16.949  66.087  1.00  0.00    -0.280 A  
ENDBRANCH  18  19
ENDBRANCH  17  18
ENDBRANCH  16  17
ENDBRANCH  13  16
ENDBRANCH  12  13
ENDBRANCH  11  12
ENDBRANCH  10  11
ENDBRANCH   9  10
ENDBRANCH   8   9
ENDBRANCH   7   8
ENDBRANCH   6   7
ENDBRANCH   5   6
ENDBRANCH   4   5
ENDBRANCH   3   4
ENDBRANCH   2   3
TORSDOF 15
ENDMDL
MODEL      287
REMARK 921   NORMALIZED FREE ENERGY PREDICTED BY IDOCK:   -3.22 KCAL/MOL
REMARK 922        TOTAL FREE ENERGY PREDICTED BY IDOCK:   -7.16 KCAL/MOL
REMARK 923 INTER-LIGAND FREE ENERGY PREDICTED BY IDOCK:   -4.98 KCAL/MOL
REMARK 924 INTRA-LIGAND FREE ENERGY PREDICTED BY IDOCK:   -2.18 KCAL/MOL
REMARK 927      BINDING AFFINITY PREDICTED BY RF-SCORE:    0.00 PKD
ROOT
HETATM    1  C   UNL     1     -10.306  16.026  68.509  1.00  0.00    -0.241 C  
HETATM    2  C   UNL     1     -11.573  15.199  68.642  1.00  0.00    -0.358 C  
ENDROOT
BRANCH   2   3
HETATM    3  C   UNL     1     -11.933  14.529  67.320  1.00  0.00    -0.375 C  
BRANCH   3   4
HETATM    4  C   UNL     1     -11.338  15.295  66.144  1.00  0.00    -0.160 C  
BRANCH   4   5
HETATM    5  C   UNL     1     -11.400  14.467  64.866  1.00  0.00    -0.394 C  
BRANCH   5   6
HETATM    6  C   UNL     1     -12.186  13.185  65.106  1.00  0.00    -0.497 C  
BRANCH   6   7
HETATM    7  C   UNL     1     -11.351  11.968  64.741  1.00  0.00    -0.369 C  
BRANCH   7   8
HETATM    8  C   UNL     1      -9.966  12.057  65.371  1.00  0.00    -0.279 C  
BRANCH   8   9
HETATM    9  C   UNL     1      -9.323  10.679  65.379  1.00  0.00    -0.250 C  
BRANCH   9  10
HETATM   10  C   UNL     1     -10.131   9.680  66.201  1.00  0.00    -0.328 C  
BRANCH  10  11
HETATM   11  C   UNL     1     -10.004   9.946  67.711  1.00  0.00    -0.201 C  
BRANCH  11  12
HETATM   12  C   UNL     1     -10.405   8.710  68.519  1.00  0.00    -0.196 C  
BRANCH  12  13
HETATM   13  N   UNL     1      -9.573   8.481  69.791  1.00  0.00    -0.169 N  
HETATM   14  C   UNL     1     -10.197   9.170  70.999  1.00  0.00    -0.302 C  
HETATM   15  C   UNL     1      -9.454   6.982  70.081  1.00  0.00    -0.162 C  
BRANCH  13  16
HETATM   16  C   UNL     1      -8.114   9.019  69.561  1.00  0.00    -0.105 C  
BRANCH  16  17
HETATM   17  C   UNL     1      -7.123   7.909  69.192  1.00  0.00    -0.069 C  
BRANCH  17  18
HETATM   18  O   UNL     1      -6.221   8.331  68.173  1.00  0.00    -0.048 OA 
BRANCH  18  19
HETATM   19  C   UNL     1      -6.641   7.976  66.910  1.00  0.00    -0.057 A  
HETATM   20  C   UNL     1      -6.085   8.702  65.859  1.00  0.00    -0.048 A  
HETATM   21  C   UNL     1      -6.485   8.448  64.544  1.00  0.00    -0.066 A  
HETATM   22  C   UNL     1      -7.431   7.459  64.274  1.00  0.00    -0.098 A  
HETATM   23  C   UNL     1      -7.963   6.707  65.318  1.00  0.00    -0.123 A  
HETATM   24  C   UNL     1      -7.563   6.959  66.629  1.00  0.00    -0.089 A  
ENDBRANCH  18  19
ENDBRANCH  17  18
ENDBRANCH  16  17
ENDBRANCH  13  16
ENDBRANCH  12  13
ENDBRANCH  11  12
ENDBRANCH  10  11
ENDBRANCH   9  10
ENDBRANCH   8   9
ENDBRANCH   7   8
ENDBRANCH   6   7
ENDBRANCH   5   6
ENDBRANCH   4   5
ENDBRANCH   3   4
ENDBRANCH   2   3
TORSDOF 15
ENDMDL
MODEL      288
REMARK 921   NORMALIZED FREE ENERGY PREDICTED BY IDOCK:   -3.20 KCAL/MOL
REMARK 922        TOTAL FREE ENERGY PREDICTED BY IDOCK:   -7.12 KCAL/MOL
REMARK 923 INTER-LIGAND FREE ENERGY PREDICTED BY IDOCK:   -5.51 KCAL/MOL
REMARK 924 INTRA-LIGAND FREE ENERGY PREDICTED BY IDOCK:   -1.62 KCAL/MOL
REMARK 927      BINDING AFFINITY PREDICTED BY RF-SCORE:    0.00 PKD
ROOT
HETATM    1  C   UNL     1     -11.004  12.882  64.103  1.00  0.00    -0.442 C  
HETATM    2  C   UNL     1     -12.406  13.268  64.540  1.00  0.00    -0.428 C  
ENDROOT
BRANCH   2   3
HETATM    3  C   UNL     1     -12.502  14.766  64.811  1.00  0.00    -0.222 C  
BRANCH   3   4
HETATM    4  C   UNL     1     -11.301  15.502  64.228  1.00  0.00    -0.165 C  
BRANCH   4   5
HETATM    5  C   UNL     1     -10.288  15.840  65.316  1.00  0.00    -0.387 C  
BRANCH   5   6
HETATM    6  C   UNL     1     -10.900  16.803  66.325  1.00  0.00     0.005 C  
BRANCH   6   7
HETATM    7  C   UNL     1     -10.463  18.230  66.039  1.00  0.00    -0.380 C  
BRANCH   7   8
HETATM    8  C   UNL     1      -9.206  18.577  66.829  1.00  0.00    -0.297 C  
BRANCH   8   9
HETATM    9  C   UNL     1      -9.430  18.265  68.300  1.00  0.00    -0.320 C  
BRANCH   9  10
HETATM   10  C   UNL     1      -8.408  17.266  68.832  1.00  0.00    -0.174 C  
BRANCH  10  11
HETATM   11  C   UNL     1      -9.032  15.880  69.069  1.00  0.00    -0.245 C  
BRANCH  11  12
HETATM   12  C   UNL     1      -7.962  14.856  69.450  1.00  0.00    -0.123 C  
BRANCH  12  13
HETATM   13  N   UNL     1      -7.651  13.819  68.359  1.00  0.00    -0.127 N  
HETATM   14  C   UNL     1      -6.493  14.267  67.475  1.00  0.00    -0.041 C  
HETATM   15  C   UNL     1      -7.298  12.472  68.996  1.00  0.00     0.043 C  
BRANCH  13  16
HETATM   16  C   UNL     1      -8.936  13.587  67.483  1.00  0.00    -0.210 C  
BRANCH  16  17
HETATM   17  C   UNL     1      -9.873  12.526  68.073  1.00  0.00    -0.214 C  
BRANCH  17  18
HETATM   18  O   UNL     1     -11.239  12.825  67.800  1.00  0.00    -0.247 OA 
BRANCH  18  19
HETATM   19  C   UNL     1     -11.883  13.397  68.875  1.00  0.00    -0.334 A  
HETATM   20  C   UNL     1     -12.079  12.568  69.977  1.00  0.00    -0.337 A  
HETATM   21  C   UNL     1     -12.766  13.042  71.098  1.00  0.00    -0.372 A  
HETATM   22  C   UNL     1     -13.246  14.351  71.127  1.00  0.00    -0.414 A  
HETATM   23  C   UNL     1     -13.022  15.195  70.042  1.00  0.00    -0.030 A  
HETATM   24  C   UNL     1     -12.335  14.722  68.925  1.00  0.00    -0.049 A  
ENDBRANCH  18  19
ENDBRANCH  17  18
ENDBRANCH  16  17
ENDBRANCH  13  16
ENDBRANCH  12  13
ENDBRANCH  11  12
ENDBRANCH  10  11
ENDBRANCH   9  10
ENDBRANCH   8   9
ENDBRANCH   7   8
ENDBRANCH   6   7
ENDBRANCH   5   6
ENDBRANCH   4   5
ENDBRANCH   3   4
ENDBRANCH   2   3
TORSDOF 15
ENDMDL
MODEL      289
REMARK 921   NORMALIZED FREE ENERGY PREDICTED BY IDOCK:   -3.19 KCAL/MOL
REMARK 922        TOTAL FREE ENERGY PREDICTED BY IDOCK:   -7.12 KCAL/MOL
REMARK 923 INTER-LIGAND FREE ENERGY PREDICTED BY IDOCK:   -5.68 KCAL/MOL
REMARK 924 INTRA-LIGAND FREE ENERGY PREDICTED BY IDOCK:   -1.44 KCAL/MOL
REMARK 927      BINDING AFFINITY PREDICTED BY RF-SCORE:    0.00 PKD
ROOT
HETATM    1  C   UNL     1      -8.800  16.458  68.491  1.00  0.00    -0.224 C  
HETATM    2  C   UNL     1      -9.738  15.845  67.467  1.00  0.00    -0.223 C  
ENDROOT
BRANCH   2   3
HETATM    3  C   UNL     1     -11.188  15.922  67.935  1.00  0.00    -0.297 C  
BRANCH   3   4
HETATM    4  C   UNL     1     -11.938  14.641  67.590  1.00  0.00    -0.307 C  
BRANCH   4   5
HETATM    5  C   UNL     1     -11.822  13.621  68.716  1.00  0.00    -0.395 C  
BRANCH   5   6
HETATM    6  C   UNL     1     -10.868  12.502  68.318  1.00  0.00    -0.258 C  
BRANCH   6   7
HETATM    7  C   UNL     1     -10.696  12.455  66.808  1.00  0.00    -0.263 C  
BRANCH   7   8
HETATM    8  C   UNL     1      -9.221  12.357  66.438  1.00  0.00    -0.192 C  
BRANCH   8   9
HETATM    9  C   UNL     1      -8.766  10.911  66.546  1.00  0.00    -0.165 C  
BRANCH   9  10
HETATM   10  C   UNL     1      -7.740  10.718  67.659  1.00  0.00    -0.104 C  
BRANCH  10  11
HETATM   11  C   UNL     1      -7.338   9.242  67.817  1.00  0.00    -0.084 C  
BRANCH  11  12
HETATM   12  C   UNL     1      -8.477   8.428  68.433  1.00  0.00    -0.135 C  
BRANCH  12  13
HETATM   13  N   UNL     1      -8.087   7.630  69.687  1.00  0.00    -0.124 N  
HETATM   14  C   UNL     1      -8.229   6.129  69.463  1.00  0.00    -0.116 C  
HETATM   15  C   UNL     1      -6.639   7.939  70.080  1.00  0.00    -0.037 C  
BRANCH  13  16
HETATM   16  C   UNL     1      -8.993   8.081  70.891  1.00  0.00    -0.140 C  
BRANCH  16  17
HETATM   17  C   UNL     1     -10.194   7.154  71.110  1.00  0.00    -0.191 C  
BRANCH  17  18
HETATM   18  O   UNL     1     -11.313   7.553  70.323  1.00  0.00    -0.268 OA 
BRANCH  18  19
HETATM   19  C   UNL     1     -11.985   8.628  70.860  1.00  0.00    -0.191 A  
HETATM   20  C   UNL     1     -12.810   8.348  71.947  1.00  0.00    -0.384 A  
HETATM   21  C   UNL     1     -13.571   9.364  72.530  1.00  0.00    -0.441 A  
HETATM   22  C   UNL     1     -13.498  10.668  72.038  1.00  0.00    -0.310 A  
HETATM   23  C   UNL     1     -12.647  10.960  70.975  1.00  0.00    -0.517 A  
HETATM   24  C   UNL     1     -11.887   9.946  70.395  1.00  0.00    -0.310 A  
ENDBRANCH  18  19
ENDBRANCH  17  18
ENDBRANCH  16  17
ENDBRANCH  13  16
ENDBRANCH  12  13
ENDBRANCH  11  12
ENDBRANCH  10  11
ENDBRANCH   9  10
ENDBRANCH   8   9
ENDBRANCH   7   8
ENDBRANCH   6   7
ENDBRANCH   5   6
ENDBRANCH   4   5
ENDBRANCH   3   4
ENDBRANCH   2   3
TORSDOF 15
ENDMDL
MODEL      290
REMARK 921   NORMALIZED FREE ENERGY PREDICTED BY IDOCK:   -3.19 KCAL/MOL
REMARK 922        TOTAL FREE ENERGY PREDICTED BY IDOCK:   -7.12 KCAL/MOL
REMARK 923 INTER-LIGAND FREE ENERGY PREDICTED BY IDOCK:   -5.71 KCAL/MOL
REMARK 924 INTRA-LIGAND FREE ENERGY PREDICTED BY IDOCK:   -1.41 KCAL/MOL
REMARK 927      BINDING AFFINITY PREDICTED BY RF-SCORE:    0.00 PKD
ROOT
HETATM    1  C   UNL     1      -9.545  17.506  67.920  1.00  0.00    -0.277 C  
HETATM    2  C   UNL     1      -9.477  16.950  66.509  1.00  0.00    -0.296 C  
ENDROOT
BRANCH   2   3
HETATM    3  C   UNL     1     -10.334  15.695  66.372  1.00  0.00    -0.303 C  
BRANCH   3   4
HETATM    4  C   UNL     1     -10.865  15.554  64.950  1.00  0.00    -0.447 C  
BRANCH   4   5
HETATM    5  C   UNL     1     -11.351  14.133  64.688  1.00  0.00    -0.374 C  
BRANCH   5   6
HETATM    6  C   UNL     1     -12.196  13.641  65.856  1.00  0.00    -0.502 C  
BRANCH   6   7
HETATM    7  C   UNL     1     -11.872  12.191  66.179  1.00  0.00    -0.327 C  
BRANCH   7   8
HETATM    8  C   UNL     1     -11.338  12.063  67.601  1.00  0.00    -0.375 C  
BRANCH   8   9
HETATM    9  C   UNL     1     -10.454  10.829  67.701  1.00  0.00    -0.252 C  
BRANCH   9  10
HETATM   10  C   UNL     1      -9.640  10.815  68.990  1.00  0.00    -0.193 C  
BRANCH  10  11
HETATM   11  C   UNL     1     -10.255   9.880  70.045  1.00  0.00    -0.319 C  
BRANCH  11  12
HETATM   12  C   UNL     1     -10.893   8.657  69.385  1.00  0.00    -0.095 C  
BRANCH  12  13
HETATM   13  N   UNL     1     -10.726   7.346  70.171  1.00  0.00    -0.238 N  
HETATM   14  C   UNL     1     -11.544   7.357  71.458  1.00  0.00    -0.275 C  
HETATM   15  C   UNL     1     -11.166   6.156  69.313  1.00  0.00    -0.367 C  
BRANCH  13  16
HETATM   16  C   UNL     1      -9.205   7.131  70.504  1.00  0.00    -0.158 C  
BRANCH  16  17
HETATM   17  C   UNL     1      -8.538   6.096  69.590  1.00  0.00    -0.128 C  
BRANCH  17  18
HETATM   18  O   UNL     1      -7.376   6.627  68.960  1.00  0.00    -0.088 OA 
BRANCH  18  19
HETATM   19  C   UNL     1      -7.642   7.169  67.722  1.00  0.00    -0.111 A  
HETATM   20  C   UNL     1      -7.992   6.261  66.724  1.00  0.00    -0.108 A  
HETATM   21  C   UNL     1      -8.234   6.708  65.423  1.00  0.00    -0.138 A  
HETATM   22  C   UNL     1      -8.142   8.066  65.117  1.00  0.00    -0.143 A  
HETATM   23  C   UNL     1      -7.827   8.981  66.119  1.00  0.00    -0.102 A  
HETATM   24  C   UNL     1      -7.588   8.535  67.417  1.00  0.00    -0.097 A  
ENDBRANCH  18  19
ENDBRANCH  17  18
ENDBRANCH  16  17
ENDBRANCH  13  16
ENDBRANCH  12  13
ENDBRANCH  11  12
ENDBRANCH  10  11
ENDBRANCH   9  10
ENDBRANCH   8   9
ENDBRANCH   7   8
ENDBRANCH   6   7
ENDBRANCH   5   6
ENDBRANCH   4   5
ENDBRANCH   3   4
ENDBRANCH   2   3
TORSDOF 15
ENDMDL
MODEL      291
REMARK 921   NORMALIZED FREE ENERGY PREDICTED BY IDOCK:   -3.19 KCAL/MOL
REMARK 922        TOTAL FREE ENERGY PREDICTED BY IDOCK:   -7.12 KCAL/MOL
REMARK 923 INTER-LIGAND FREE ENERGY PREDICTED BY IDOCK:   -5.85 KCAL/MOL
REMARK 924 INTRA-LIGAND FREE ENERGY PREDICTED BY IDOCK:   -1.27 KCAL/MOL
REMARK 927      BINDING AFFINITY PREDICTED BY RF-SCORE:    0.00 PKD
ROOT
HETATM    1  C   UNL     1      -9.878   5.226  69.315  1.00  0.00    -0.256 C  
HETATM    2  C   UNL     1      -8.758   4.962  68.324  1.00  0.00    -0.109 C  
ENDROOT
BRANCH   2   3
HETATM    3  C   UNL     1      -9.239   5.152  66.889  1.00  0.00    -0.118 C  
BRANCH   3   4
HETATM    4  C   UNL     1     -10.436   6.094  66.838  1.00  0.00    -0.340 C  
BRANCH   4   5
HETATM    5  C   UNL     1      -9.997   7.517  66.511  1.00  0.00    -0.209 C  
BRANCH   5   6
HETATM    6  C   UNL     1      -8.752   7.496  65.633  1.00  0.00    -0.105 C  
BRANCH   6   7
HETATM    7  C   UNL     1      -7.731   8.508  66.126  1.00  0.00    -0.093 C  
BRANCH   7   8
HETATM    8  C   UNL     1      -8.147   9.078  67.477  1.00  0.00    -0.108 C  
BRANCH   8   9
HETATM    9  C   UNL     1      -7.078  10.039  67.973  1.00  0.00    -0.081 C  
BRANCH   9  10
HETATM   10  C   UNL     1      -7.661  11.403  68.330  1.00  0.00    -0.123 C  
BRANCH  10  11
HETATM   11  C   UNL     1      -9.199  11.385  68.333  1.00  0.00    -0.183 C  
BRANCH  11  12
HETATM   12  C   UNL     1      -9.762  12.799  68.186  1.00  0.00    -0.223 C  
BRANCH  12  13
HETATM   13  N   UNL     1     -10.916  12.926  67.178  1.00  0.00    -0.256 N  
HETATM   14  C   UNL     1     -11.409  11.559  66.717  1.00  0.00    -0.238 C  
HETATM   15  C   UNL     1     -12.085  13.690  67.807  1.00  0.00    -0.290 C  
BRANCH  13  16
HETATM   16  C   UNL     1     -10.434  13.768  65.941  1.00  0.00    -0.297 C  
BRANCH  16  17
HETATM   17  C   UNL     1     -11.014  15.187  65.926  1.00  0.00    -0.339 C  
BRANCH  17  18
HETATM   18  O   UNL     1     -10.107  16.117  65.340  1.00  0.00    -0.485 OA 
BRANCH  18  19
HETATM   19  C   UNL     1     -10.062  17.315  66.018  1.00  0.00    -0.262 A  
HETATM   20  C   UNL     1      -9.285  17.330  67.175  1.00  0.00    -0.240 A  
HETATM   21  C   UNL     1      -9.215  18.485  67.957  1.00  0.00    -0.315 A  
HETATM   22  C   UNL     1      -9.910  19.634  67.579  1.00  0.00    -0.498 A  
HETATM   23  C   UNL     1     -10.660  19.635  66.406  1.00  0.00    -0.592 A  
HETATM   24  C   UNL     1     -10.727  18.483  65.624  1.00  0.00    -0.089 A  
ENDBRANCH  18  19
ENDBRANCH  17  18
ENDBRANCH  16  17
ENDBRANCH  13  16
ENDBRANCH  12  13
ENDBRANCH  11  12
ENDBRANCH  10  11
ENDBRANCH   9  10
ENDBRANCH   8   9
ENDBRANCH   7   8
ENDBRANCH   6   7
ENDBRANCH   5   6
ENDBRANCH   4   5
ENDBRANCH   3   4
ENDBRANCH   2   3
TORSDOF 15
ENDMDL
MODEL      292
REMARK 921   NORMALIZED FREE ENERGY PREDICTED BY IDOCK:   -3.19 KCAL/MOL
REMARK 922        TOTAL FREE ENERGY PREDICTED BY IDOCK:   -7.12 KCAL/MOL
REMARK 923 INTER-LIGAND FREE ENERGY PREDICTED BY IDOCK:   -4.49 KCAL/MOL
REMARK 924 INTRA-LIGAND FREE ENERGY PREDICTED BY IDOCK:   -2.63 KCAL/MOL
REMARK 927      BINDING AFFINITY PREDICTED BY RF-SCORE:    0.00 PKD
ROOT
HETATM    1  C   UNL     1      -7.427  12.220  68.091  1.00  0.00    -0.112 C  
HETATM    2  C   UNL     1      -8.242  11.650  66.944  1.00  0.00    -0.169 C  
ENDROOT
BRANCH   2   3
HETATM    3  C   UNL     1      -7.906  10.182  66.707  1.00  0.00    -0.108 C  
BRANCH   3   4
HETATM    4  C   UNL     1      -6.576  10.041  65.976  1.00  0.00    -0.095 C  
BRANCH   4   5
HETATM    5  C   UNL     1      -5.788   8.847  66.501  1.00  0.00    -0.055 C  
BRANCH   5   6
HETATM    6  C   UNL     1      -5.894   8.771  68.018  1.00  0.00    -0.046 C  
BRANCH   6   7
HETATM    7  C   UNL     1      -6.321   7.379  68.457  1.00  0.00    -0.036 C  
BRANCH   7   8
HETATM    8  C   UNL     1      -7.307   7.460  69.617  1.00  0.00    -0.091 C  
BRANCH   8   9
HETATM    9  C   UNL     1      -7.263   8.854  70.223  1.00  0.00    -0.054 C  
BRANCH   9  10
HETATM   10  C   UNL     1      -8.657   9.452  70.377  1.00  0.00    -0.266 C  
BRANCH  10  11
HETATM   11  C   UNL     1      -9.420   8.828  71.558  1.00  0.00    -0.341 C  
BRANCH  11  12
HETATM   12  C   UNL     1     -10.885   8.583  71.193  1.00  0.00    -0.243 C  
BRANCH  12  13
HETATM   13  N   UNL     1     -11.373   7.146  71.439  1.00  0.00    -0.251 N  
HETATM   14  C   UNL     1     -10.861   6.600  72.767  1.00  0.00    -0.251 C  
HETATM   15  C   UNL     1     -12.905   7.102  71.441  1.00  0.00    -0.384 C  
BRANCH  13  16
HETATM   16  C   UNL     1     -10.892   6.226  70.259  1.00  0.00    -0.304 C  
BRANCH  16  17
HETATM   17  C   UNL     1     -10.891   6.947  68.906  1.00  0.00    -0.207 C  
BRANCH  17  18
HETATM   18  O   UNL     1     -11.348   6.096  67.859  1.00  0.00    -0.208 OA 
BRANCH  18  19
HETATM   19  C   UNL     1     -10.413   5.931  66.861  1.00  0.00    -0.286 A  
HETATM   20  C   UNL     1     -10.504   4.745  66.134  1.00  0.00    -0.332 A  
HETATM   21  C   UNL     1      -9.570   4.464  65.133  1.00  0.00    -0.183 A  
HETATM   22  C   UNL     1      -8.552   5.373  64.845  1.00  0.00    -0.131 A  
HETATM   23  C   UNL     1      -8.478   6.575  65.545  1.00  0.00    -0.139 A  
HETATM   24  C   UNL     1      -9.411   6.856  66.542  1.00  0.00    -0.199 A  
ENDBRANCH  18  19
ENDBRANCH  17  18
ENDBRANCH  16  17
ENDBRANCH  13  16
ENDBRANCH  12  13
ENDBRANCH  11  12
ENDBRANCH  10  11
ENDBRANCH   9  10
ENDBRANCH   8   9
ENDBRANCH   7   8
ENDBRANCH   6   7
ENDBRANCH   5   6
ENDBRANCH   4   5
ENDBRANCH   3   4
ENDBRANCH   2   3
TORSDOF 15
ENDMDL
MODEL      293
REMARK 921   NORMALIZED FREE ENERGY PREDICTED BY IDOCK:   -3.17 KCAL/MOL
REMARK 922        TOTAL FREE ENERGY PREDICTED BY IDOCK:   -7.07 KCAL/MOL
REMARK 923 INTER-LIGAND FREE ENERGY PREDICTED BY IDOCK:   -5.23 KCAL/MOL
REMARK 924 INTRA-LIGAND FREE ENERGY PREDICTED BY IDOCK:   -1.84 KCAL/MOL
REMARK 927      BINDING AFFINITY PREDICTED BY RF-SCORE:    0.00 PKD
ROOT
HETATM    1  C   UNL     1      -6.882  10.094  63.287  1.00  0.00    -0.128 C  
HETATM    2  C   UNL     1      -5.672   9.217  63.557  1.00  0.00    -0.082 C  
ENDROOT
BRANCH   2   3
HETATM    3  C   UNL     1      -6.062   7.743  63.605  1.00  0.00    -0.058 C  
BRANCH   3   4
HETATM    4  C   UNL     1      -6.807   7.422  64.895  1.00  0.00    -0.050 C  
BRANCH   4   5
HETATM    5  C   UNL     1      -5.968   7.784  66.115  1.00  0.00    -0.038 C  
BRANCH   5   6
HETATM    6  C   UNL     1      -6.776   8.650  67.072  1.00  0.00    -0.062 C  
BRANCH   6   7
HETATM    7  C   UNL     1      -8.258   8.580  66.740  1.00  0.00    -0.105 C  
BRANCH   7   8
HETATM    8  C   UNL     1      -9.043   7.990  67.906  1.00  0.00    -0.134 C  
BRANCH   8   9
HETATM    9  C   UNL     1      -9.230   6.497  67.687  1.00  0.00    -0.113 C  
BRANCH   9  10
HETATM   10  C   UNL     1     -10.279   5.911  68.627  1.00  0.00    -0.243 C  
BRANCH  10  11
HETATM   11  C   UNL     1     -11.010   7.006  69.422  1.00  0.00    -0.232 C  
BRANCH  11  12
HETATM   12  C   UNL     1     -11.356   6.520  70.831  1.00  0.00    -0.337 C  
BRANCH  12  13
HETATM   13  N   UNL     1     -11.082   7.543  71.945  1.00  0.00    -0.234 N  
HETATM   14  C   UNL     1     -10.853   6.859  73.288  1.00  0.00    -0.290 C  
HETATM   15  C   UNL     1      -9.850   8.384  71.599  1.00  0.00    -0.221 C  
BRANCH  13  16
HETATM   16  C   UNL     1     -12.297   8.535  72.048  1.00  0.00    -0.365 C  
BRANCH  16  17
HETATM   17  C   UNL     1     -11.971   9.931  71.505  1.00  0.00    -0.390 C  
BRANCH  17  18
HETATM   18  O   UNL     1     -12.682  10.204  70.301  1.00  0.00    -0.186 OA 
BRANCH  18  19
HETATM   19  C   UNL     1     -12.025  11.100  69.487  1.00  0.00    -0.355 A  
HETATM   20  C   UNL     1     -11.926  12.402  69.973  1.00  0.00    -0.372 A  
HETATM   21  C   UNL     1     -11.320  13.395  69.199  1.00  0.00    -0.333 A  
HETATM   22  C   UNL     1     -10.799  13.087  67.942  1.00  0.00    -0.260 A  
HETATM   23  C   UNL     1     -10.864  11.780  67.467  1.00  0.00    -0.286 A  
HETATM   24  C   UNL     1     -11.467  10.789  68.241  1.00  0.00    -0.353 A  
ENDBRANCH  18  19
ENDBRANCH  17  18
ENDBRANCH  16  17
ENDBRANCH  13  16
ENDBRANCH  12  13
ENDBRANCH  11  12
ENDBRANCH  10  11
ENDBRANCH   9  10
ENDBRANCH   8   9
ENDBRANCH   7   8
ENDBRANCH   6   7
ENDBRANCH   5   6
ENDBRANCH   4   5
ENDBRANCH   3   4
ENDBRANCH   2   3
TORSDOF 15
ENDMDL
MODEL      294
REMARK 921   NORMALIZED FREE ENERGY PREDICTED BY IDOCK:   -3.17 KCAL/MOL
REMARK 922        TOTAL FREE ENERGY PREDICTED BY IDOCK:   -7.07 KCAL/MOL
REMARK 923 INTER-LIGAND FREE ENERGY PREDICTED BY IDOCK:   -5.07 KCAL/MOL
REMARK 924 INTRA-LIGAND FREE ENERGY PREDICTED BY IDOCK:   -2.00 KCAL/MOL
REMARK 927      BINDING AFFINITY PREDICTED BY RF-SCORE:    0.00 PKD
ROOT
HETATM    1  C   UNL     1     -12.850  13.098  64.888  1.00  0.00    -0.349 C  
HETATM    2  C   UNL     1     -12.228  14.324  64.245  1.00  0.00    -0.451 C  
ENDROOT
BRANCH   2   3
HETATM    3  C   UNL     1     -11.026  14.814  65.047  1.00  0.00    -0.426 C  
BRANCH   3   4
HETATM    4  C   UNL     1     -11.399  15.023  66.510  1.00  0.00    -0.280 C  
BRANCH   4   5
HETATM    5  C   UNL     1     -10.416  14.310  67.431  1.00  0.00    -0.264 C  
BRANCH   5   6
HETATM    6  C   UNL     1      -9.745  13.157  66.696  1.00  0.00    -0.261 C  
BRANCH   6   7
HETATM    7  C   UNL     1     -10.167  11.823  67.291  1.00  0.00    -0.226 C  
BRANCH   7   8
HETATM    8  C   UNL     1      -9.185  11.382  68.370  1.00  0.00    -0.183 C  
BRANCH   8   9
HETATM    9  C   UNL     1      -9.543   9.980  68.838  1.00  0.00    -0.181 C  
BRANCH   9  10
HETATM   10  C   UNL     1     -10.041   9.107  67.690  1.00  0.00    -0.273 C  
BRANCH  10  11
HETATM   11  C   UNL     1      -9.324   7.747  67.654  1.00  0.00    -0.160 C  
BRANCH  11  12
HETATM   12  C   UNL     1      -7.900   7.864  68.201  1.00  0.00    -0.127 C  
BRANCH  12  13
HETATM   13  N   UNL     1      -6.979   6.686  67.845  1.00  0.00    -0.080 N  
HETATM   14  C   UNL     1      -6.582   6.709  66.374  1.00  0.00    -0.044 C  
HETATM   15  C   UNL     1      -5.711   6.729  68.703  1.00  0.00    -0.018 C  
BRANCH  13  16
HETATM   16  C   UNL     1      -7.711   5.336  68.182  1.00  0.00    -0.084 C  
BRANCH  16  17
HETATM   17  C   UNL     1      -7.618   4.964  69.666  1.00  0.00    -0.056 C  
BRANCH  17  18
HETATM   18  O   UNL     1      -8.866   4.493  70.167  1.00  0.00    -0.082 OA 
BRANCH  18  19
HETATM   19  C   UNL     1      -9.745   5.515  70.450  1.00  0.00    -0.183 A  
HETATM   20  C   UNL     1      -9.291   6.475  71.351  1.00  0.00    -0.154 A  
HETATM   21  C   UNL     1     -10.127   7.525  71.739  1.00  0.00    -0.205 A  
HETATM   22  C   UNL     1     -11.417   7.627  71.215  1.00  0.00    -0.293 A  
HETATM   23  C   UNL     1     -11.863   6.690  70.287  1.00  0.00    -0.378 A  
HETATM   24  C   UNL     1     -11.027   5.644  69.900  1.00  0.00    -0.309 A  
ENDBRANCH  18  19
ENDBRANCH  17  18
ENDBRANCH  16  17
ENDBRANCH  13  16
ENDBRANCH  12  13
ENDBRANCH  11  12
ENDBRANCH  10  11
ENDBRANCH   9  10
ENDBRANCH   8   9
ENDBRANCH   7   8
ENDBRANCH   6   7
ENDBRANCH   5   6
ENDBRANCH   4   5
ENDBRANCH   3   4
ENDBRANCH   2   3
TORSDOF 15
ENDMDL
MODEL      295
REMARK 921   NORMALIZED FREE ENERGY PREDICTED BY IDOCK:   -3.15 KCAL/MOL
REMARK 922        TOTAL FREE ENERGY PREDICTED BY IDOCK:   -7.04 KCAL/MOL
REMARK 923 INTER-LIGAND FREE ENERGY PREDICTED BY IDOCK:   -5.93 KCAL/MOL
REMARK 924 INTRA-LIGAND FREE ENERGY PREDICTED BY IDOCK:   -1.11 KCAL/MOL
REMARK 927      BINDING AFFINITY PREDICTED BY RF-SCORE:    0.00 PKD
ROOT
HETATM    1  C   UNL     1      -7.070  19.988  66.364  1.00  0.00    -0.269 C  
HETATM    2  C   UNL     1      -8.038  19.981  67.534  1.00  0.00    -0.351 C  
ENDROOT
BRANCH   2   3
HETATM    3  C   UNL     1      -9.367  20.622  67.150  1.00  0.00    -0.464 C  
BRANCH   3   4
HETATM    4  C   UNL     1     -10.450  19.563  66.976  1.00  0.00    -0.587 C  
BRANCH   4   5
HETATM    5  C   UNL     1     -10.481  18.613  68.168  1.00  0.00    -0.361 C  
BRANCH   5   6
HETATM    6  C   UNL     1     -10.551  17.169  67.690  1.00  0.00    -0.343 C  
BRANCH   6   7
HETATM    7  C   UNL     1     -10.277  17.083  66.197  1.00  0.00    -0.346 C  
BRANCH   7   8
HETATM    8  C   UNL     1      -9.518  15.804  65.861  1.00  0.00    -0.377 C  
BRANCH   8   9
HETATM    9  C   UNL     1      -9.943  14.698  66.814  1.00  0.00    -0.265 C  
BRANCH   9  10
HETATM   10  C   UNL     1      -8.749  13.899  67.327  1.00  0.00    -0.225 C  
BRANCH  10  11
HETATM   11  C   UNL     1      -8.912  12.393  67.059  1.00  0.00    -0.209 C  
BRANCH  11  12
HETATM   12  C   UNL     1      -9.165  11.630  68.360  1.00  0.00    -0.182 C  
BRANCH  12  13
HETATM   13  N   UNL     1     -10.375  10.683  68.321  1.00  0.00    -0.169 N  
HETATM   14  C   UNL     1     -11.582  11.344  67.666  1.00  0.00    -0.238 C  
HETATM   15  C   UNL     1     -10.024   9.410  67.546  1.00  0.00    -0.199 C  
BRANCH  13  16
HETATM   16  C   UNL     1     -10.735  10.241  69.786  1.00  0.00    -0.285 C  
BRANCH  16  17
HETATM   17  C   UNL     1      -9.502   9.845  70.607  1.00  0.00     0.174 C  
BRANCH  17  18
HETATM   18  O   UNL     1      -9.550   8.476  70.996  1.00  0.00    -0.168 OA 
BRANCH  18  19
HETATM   19  C   UNL     1      -8.636   8.170  71.981  1.00  0.00    -0.162 A  
HETATM   20  C   UNL     1      -9.169   7.883  73.236  1.00  0.00    -0.346 A  
HETATM   21  C   UNL     1      -8.320   7.609  74.312  1.00  0.00    -0.278 A  
HETATM   22  C   UNL     1      -6.937   7.606  74.133  1.00  0.00    -0.123 A  
HETATM   23  C   UNL     1      -6.401   7.856  72.873  1.00  0.00    -0.070 A  
HETATM   24  C   UNL     1      -7.248   8.128  71.799  1.00  0.00    -0.089 A  
ENDBRANCH  18  19
ENDBRANCH  17  18
ENDBRANCH  16  17
ENDBRANCH  13  16
ENDBRANCH  12  13
ENDBRANCH  11  12
ENDBRANCH  10  11
ENDBRANCH   9  10
ENDBRANCH   8   9
ENDBRANCH   7   8
ENDBRANCH   6   7
ENDBRANCH   5   6
ENDBRANCH   4   5
ENDBRANCH   3   4
ENDBRANCH   2   3
TORSDOF 15
ENDMDL
MODEL      296
REMARK 921   NORMALIZED FREE ENERGY PREDICTED BY IDOCK:   -3.15 KCAL/MOL
REMARK 922        TOTAL FREE ENERGY PREDICTED BY IDOCK:   -7.03 KCAL/MOL
REMARK 923 INTER-LIGAND FREE ENERGY PREDICTED BY IDOCK:   -5.97 KCAL/MOL
REMARK 924 INTRA-LIGAND FREE ENERGY PREDICTED BY IDOCK:   -1.07 KCAL/MOL
REMARK 927      BINDING AFFINITY PREDICTED BY RF-SCORE:    0.00 PKD
ROOT
HETATM    1  C   UNL     1     -10.766   3.463  73.602  1.00  0.00    -0.302 C  
HETATM    2  C   UNL     1      -9.296   3.713  73.890  1.00  0.00    -0.107 C  
ENDROOT
BRANCH   2   3
HETATM    3  C   UNL     1      -9.088   5.079  74.535  1.00  0.00    -0.114 C  
BRANCH   3   4
HETATM    4  C   UNL     1      -8.562   6.085  73.517  1.00  0.00    -0.119 C  
BRANCH   4   5
HETATM    5  C   UNL     1      -9.392   7.363  73.535  1.00  0.00    -0.287 C  
BRANCH   5   6
HETATM    6  C   UNL     1      -8.934   8.305  72.429  1.00  0.00    -0.297 C  
BRANCH   6   7
HETATM    7  C   UNL     1      -8.389   7.519  71.247  1.00  0.00    -0.111 C  
BRANCH   7   8
HETATM    8  C   UNL     1      -8.768   8.193  69.933  1.00  0.00    -0.138 C  
BRANCH   8   9
HETATM    9  C   UNL     1      -8.778   9.702  70.121  1.00  0.00    -0.263 C  
BRANCH   9  10
HETATM   10  C   UNL     1      -7.696  10.386  69.292  1.00  0.00    -0.140 C  
BRANCH  10  11
HETATM   11  C   UNL     1      -7.870  10.114  67.788  1.00  0.00    -0.098 C  
BRANCH  11  12
HETATM   12  C   UNL     1      -8.636  11.252  67.112  1.00  0.00    -0.147 C  
BRANCH  12  13
HETATM   13  N   UNL     1     -10.030  10.865  66.592  1.00  0.00    -0.201 N  
HETATM   14  C   UNL     1     -10.152   9.360  66.387  1.00  0.00    -0.262 C  
HETATM   15  C   UNL     1     -11.108  11.321  67.581  1.00  0.00    -0.277 C  
BRANCH  13  16
HETATM   16  C   UNL     1     -10.306  11.615  65.239  1.00  0.00    -0.269 C  
BRANCH  16  17
HETATM   17  C   UNL     1     -11.683  12.289  65.203  1.00  0.00    -0.361 C  
BRANCH  17  18
HETATM   18  O   UNL     1     -11.604  13.612  64.679  1.00  0.00    -0.343 OA 
BRANCH  18  19
HETATM   19  C   UNL     1     -11.234  14.539  65.628  1.00  0.00    -0.335 A  
HETATM   20  C   UNL     1     -10.294  15.483  65.221  1.00  0.00    -0.416 A  
HETATM   21  C   UNL     1      -9.820  16.436  66.126  1.00  0.00    -0.362 A  
HETATM   22  C   UNL     1     -10.293  16.456  67.438  1.00  0.00    -0.295 A  
HETATM   23  C   UNL     1     -11.259  15.537  67.841  1.00  0.00    -0.325 A  
HETATM   24  C   UNL     1     -11.733  14.588  66.936  1.00  0.00    -0.399 A  
ENDBRANCH  18  19
ENDBRANCH  17  18
ENDBRANCH  16  17
ENDBRANCH  13  16
ENDBRANCH  12  13
ENDBRANCH  11  12
ENDBRANCH  10  11
ENDBRANCH   9  10
ENDBRANCH   8   9
ENDBRANCH   7   8
ENDBRANCH   6   7
ENDBRANCH   5   6
ENDBRANCH   4   5
ENDBRANCH   3   4
ENDBRANCH   2   3
TORSDOF 15
ENDMDL
MODEL      297
REMARK 921   NORMALIZED FREE ENERGY PREDICTED BY IDOCK:   -3.13 KCAL/MOL
REMARK 922        TOTAL FREE ENERGY PREDICTED BY IDOCK:   -7.00 KCAL/MOL
REMARK 923 INTER-LIGAND FREE ENERGY PREDICTED BY IDOCK:   -5.90 KCAL/MOL
REMARK 924 INTRA-LIGAND FREE ENERGY PREDICTED BY IDOCK:   -1.10 KCAL/MOL
REMARK 927      BINDING AFFINITY PREDICTED BY RF-SCORE:    0.00 PKD
ROOT
HETATM    1  C   UNL     1     -10.327  19.936  66.539  1.00  0.00    -0.608 C  
HETATM    2  C   UNL     1     -10.420  18.481  66.114  1.00  0.00    -0.447 C  
ENDROOT
BRANCH   2   3
HETATM    3  C   UNL     1      -9.200  17.694  66.580  1.00  0.00    -0.284 C  
BRANCH   3   4
HETATM    4  C   UNL     1      -8.037  18.629  66.889  1.00  0.00    -0.256 C  
BRANCH   4   5
HETATM    5  C   UNL     1      -7.429  18.313  68.250  1.00  0.00    -0.288 C  
BRANCH   5   6
HETATM    6  C   UNL     1      -7.921  16.960  68.747  1.00  0.00    -0.254 C  
BRANCH   6   7
HETATM    7  C   UNL     1      -6.750  16.073  69.138  1.00  0.00    -0.174 C  
BRANCH   7   8
HETATM    8  C   UNL     1      -6.626  14.892  68.182  1.00  0.00    -0.136 C  
BRANCH   8   9
HETATM    9  C   UNL     1      -8.012  14.453  67.738  1.00  0.00    -0.166 C  
BRANCH   9  10
HETATM   10  C   UNL     1      -8.044  12.979  67.347  1.00  0.00    -0.180 C  
BRANCH  10  11
HETATM   11  C   UNL     1      -8.803  12.129  68.380  1.00  0.00    -0.143 C  
BRANCH  11  12
HETATM   12  C   UNL     1      -9.097  10.733  67.830  1.00  0.00    -0.151 C  
BRANCH  12  13
HETATM   13  N   UNL     1      -8.176   9.626  68.368  1.00  0.00    -0.105 N  
HETATM   14  C   UNL     1      -7.201   9.141  67.301  1.00  0.00    -0.083 C  
HETATM   15  C   UNL     1      -7.380  10.141  69.572  1.00  0.00    -0.123 C  
BRANCH  13  16
HETATM   16  C   UNL     1      -9.053   8.426  68.880  1.00  0.00    -0.147 C  
BRANCH  16  17
HETATM   17  C   UNL     1     -10.556   8.725  68.832  1.00  0.00    -0.155 C  
BRANCH  17  18
HETATM   18  O   UNL     1     -11.038   9.180  70.093  1.00  0.00    -0.241 OA 
BRANCH  18  19
HETATM   19  C   UNL     1     -11.048   8.188  71.049  1.00  0.00    -0.253 A  
HETATM   20  C   UNL     1     -10.624   8.566  72.321  1.00  0.00    -0.408 A  
HETATM   21  C   UNL     1     -10.553   7.620  73.346  1.00  0.00    -0.353 A  
HETATM   22  C   UNL     1     -10.920   6.295  73.107  1.00  0.00    -0.251 A  
HETATM   23  C   UNL     1     -11.378   5.920  71.847  1.00  0.00    -0.307 A  
HETATM   24  C   UNL     1     -11.451   6.866  70.825  1.00  0.00    -0.381 A  
ENDBRANCH  18  19
ENDBRANCH  17  18
ENDBRANCH  16  17
ENDBRANCH  13  16
ENDBRANCH  12  13
ENDBRANCH  11  12
ENDBRANCH  10  11
ENDBRANCH   9  10
ENDBRANCH   8   9
ENDBRANCH   7   8
ENDBRANCH   6   7
ENDBRANCH   5   6
ENDBRANCH   4   5
ENDBRANCH   3   4
ENDBRANCH   2   3
TORSDOF 15
ENDMDL
MODEL      298
REMARK 921   NORMALIZED FREE ENERGY PREDICTED BY IDOCK:   -3.13 KCAL/MOL
REMARK 922        TOTAL FREE ENERGY PREDICTED BY IDOCK:   -7.00 KCAL/MOL
REMARK 923 INTER-LIGAND FREE ENERGY PREDICTED BY IDOCK:   -6.01 KCAL/MOL
REMARK 924 INTRA-LIGAND FREE ENERGY PREDICTED BY IDOCK:   -0.98 KCAL/MOL
REMARK 927      BINDING AFFINITY PREDICTED BY RF-SCORE:    0.00 PKD
ROOT
HETATM    1  C   UNL     1     -10.489   8.395  66.807  1.00  0.00    -0.315 C  
HETATM    2  C   UNL     1      -9.557   7.197  66.832  1.00  0.00    -0.216 C  
ENDROOT
BRANCH   2   3
HETATM    3  C   UNL     1      -9.716   6.404  68.125  1.00  0.00    -0.122 C  
BRANCH   3   4
HETATM    4  C   UNL     1     -11.168   6.413  68.591  1.00  0.00    -0.338 C  
BRANCH   4   5
HETATM    5  C   UNL     1     -11.260   6.712  70.083  1.00  0.00    -0.416 C  
BRANCH   5   6
HETATM    6  C   UNL     1      -9.963   7.340  70.576  1.00  0.00    -0.191 C  
BRANCH   6   7
HETATM    7  C   UNL     1     -10.236   8.679  71.244  1.00  0.00    -0.308 C  
BRANCH   7   8
HETATM    8  C   UNL     1     -10.282   9.797  70.208  1.00  0.00    -0.346 C  
BRANCH   8   9
HETATM    9  C   UNL     1      -8.864  10.217  69.852  1.00  0.00    -0.089 C  
BRANCH   9  10
HETATM   10  C   UNL     1      -8.728  10.566  68.374  1.00  0.00    -0.137 C  
BRANCH  10  11
HETATM   11  C   UNL     1      -8.393  12.053  68.166  1.00  0.00    -0.165 C  
BRANCH  11  12
HETATM   12  C   UNL     1      -9.660  12.865  67.893  1.00  0.00    -0.215 C  
BRANCH  12  13
HETATM   13  N   UNL     1      -9.932  13.144  66.406  1.00  0.00    -0.276 N  
HETATM   14  C   UNL     1      -9.373  12.039  65.517  1.00  0.00    -0.031 C  
HETATM   15  C   UNL     1     -11.439  13.265  66.159  1.00  0.00    -0.328 C  
BRANCH  13  16
HETATM   16  C   UNL     1      -9.292  14.525  66.011  1.00  0.00    -0.160 C  
BRANCH  16  17
HETATM   17  C   UNL     1     -10.219  15.712  66.297  1.00  0.00    -0.299 C  
BRANCH  17  18
HETATM   18  O   UNL     1      -9.876  16.362  67.517  1.00  0.00    -0.234 OA 
BRANCH  18  19
HETATM   19  C   UNL     1      -9.312  17.603  67.319  1.00  0.00    -0.249 A  
HETATM   20  C   UNL     1      -8.417  17.700  66.256  1.00  0.00    -0.237 A  
HETATM   21  C   UNL     1      -7.756  18.905  66.004  1.00  0.00    -0.239 A  
HETATM   22  C   UNL     1      -7.999  20.021  66.805  1.00  0.00    -0.349 A  
HETATM   23  C   UNL     1      -8.919  19.939  67.847  1.00  0.00    -0.381 A  
HETATM   24  C   UNL     1      -9.580  18.737  68.096  1.00  0.00    -0.373 A  
ENDBRANCH  18  19
ENDBRANCH  17  18
ENDBRANCH  16  17
ENDBRANCH  13  16
ENDBRANCH  12  13
ENDBRANCH  11  12
ENDBRANCH  10  11
ENDBRANCH   9  10
ENDBRANCH   8   9
ENDBRANCH   7   8
ENDBRANCH   6   7
ENDBRANCH   5   6
ENDBRANCH   4   5
ENDBRANCH   3   4
ENDBRANCH   2   3
TORSDOF 15
ENDMDL
MODEL      299
REMARK 921   NORMALIZED FREE ENERGY PREDICTED BY IDOCK:   -3.12 KCAL/MOL
REMARK 922        TOTAL FREE ENERGY PREDICTED BY IDOCK:   -6.99 KCAL/MOL
REMARK 923 INTER-LIGAND FREE ENERGY PREDICTED BY IDOCK:   -5.49 KCAL/MOL
REMARK 924 INTRA-LIGAND FREE ENERGY PREDICTED BY IDOCK:   -1.50 KCAL/MOL
REMARK 927      BINDING AFFINITY PREDICTED BY RF-SCORE:    0.00 PKD
ROOT
HETATM    1  C   UNL     1      -9.499  14.134  67.236  1.00  0.00    -0.229 C  
HETATM    2  C   UNL     1     -10.975  14.194  67.583  1.00  0.00    -0.278 C  
ENDROOT
BRANCH   2   3
HETATM    3  C   UNL     1     -11.801  13.345  66.622  1.00  0.00    -0.443 C  
BRANCH   3   4
HETATM    4  C   UNL     1     -12.166  14.140  65.374  1.00  0.00    -0.441 C  
BRANCH   4   5
HETATM    5  C   UNL     1     -11.826  13.359  64.110  1.00  0.00    -0.492 C  
BRANCH   5   6
HETATM    6  C   UNL     1     -10.349  12.984  64.103  1.00  0.00    -0.345 C  
BRANCH   6   7
HETATM    7  C   UNL     1     -10.142  11.631  63.443  1.00  0.00    -0.468 C  
BRANCH   7   8
HETATM    8  C   UNL     1     -10.198  10.513  64.478  1.00  0.00    -0.355 C  
BRANCH   8   9
HETATM    9  C   UNL     1      -9.180  10.786  65.574  1.00  0.00    -0.230 C  
BRANCH   9  10
HETATM   10  C   UNL     1      -9.761  10.541  66.963  1.00  0.00    -0.212 C  
BRANCH  10  11
HETATM   11  C   UNL     1      -9.052   9.380  67.682  1.00  0.00    -0.131 C  
BRANCH  11  12
HETATM   12  C   UNL     1      -9.977   8.168  67.806  1.00  0.00    -0.181 C  
BRANCH  12  13
HETATM   13  N   UNL     1      -9.897   7.437  69.155  1.00  0.00    -0.165 N  
HETATM   14  C   UNL     1      -9.872   8.417  70.322  1.00  0.00    -0.181 C  
HETATM   15  C   UNL     1     -11.096   6.498  69.320  1.00  0.00    -0.334 C  
BRANCH  13  16
HETATM   16  C   UNL     1      -8.607   6.538  69.182  1.00  0.00    -0.129 C  
BRANCH  16  17
HETATM   17  C   UNL     1      -8.736   5.288  68.305  1.00  0.00    -0.101 C  
BRANCH  17  18
HETATM   18  O   UNL     1      -7.845   5.334  67.194  1.00  0.00    -0.099 OA 
BRANCH  18  19
HETATM   19  C   UNL     1      -8.141   4.391  66.235  1.00  0.00    -0.102 A  
HETATM   20  C   UNL     1      -8.992   4.810  65.214  1.00  0.00    -0.151 A  
HETATM   21  C   UNL     1      -9.390   3.912  64.220  1.00  0.00    -0.152 A  
HETATM   22  C   UNL     1      -8.928   2.596  64.236  1.00  0.00    -0.111 A  
HETATM   23  C   UNL     1      -8.049   2.182  65.233  1.00  0.00    -0.080 A  
HETATM   24  C   UNL     1      -7.651   3.079  66.223  1.00  0.00    -0.077 A  
ENDBRANCH  18  19
ENDBRANCH  17  18
ENDBRANCH  16  17
ENDBRANCH  13  16
ENDBRANCH  12  13
ENDBRANCH  11  12
ENDBRANCH  10  11
ENDBRANCH   9  10
ENDBRANCH   8   9
ENDBRANCH   7   8
ENDBRANCH   6   7
ENDBRANCH   5   6
ENDBRANCH   4   5
ENDBRANCH   3   4
ENDBRANCH   2   3
TORSDOF 15
ENDMDL
MODEL      300
REMARK 921   NORMALIZED FREE ENERGY PREDICTED BY IDOCK:   -3.12 KCAL/MOL
REMARK 922        TOTAL FREE ENERGY PREDICTED BY IDOCK:   -6.99 KCAL/MOL
REMARK 923 INTER-LIGAND FREE ENERGY PREDICTED BY IDOCK:   -5.74 KCAL/MOL
REMARK 924 INTRA-LIGAND FREE ENERGY PREDICTED BY IDOCK:   -1.25 KCAL/MOL
REMARK 927      BINDING AFFINITY PREDICTED BY RF-SCORE:    0.00 PKD
ROOT
HETATM    1  C   UNL     1     -12.070  15.523  72.846  1.00  0.00    -0.557 C  
HETATM    2  C   UNL     1     -12.435  15.664  71.379  1.00  0.00    -0.500 C  
ENDROOT
BRANCH   2   3
HETATM    3  C   UNL     1     -11.242  15.346  70.483  1.00  0.00    -0.358 C  
BRANCH   3   4
HETATM    4  C   UNL     1     -11.604  15.528  69.014  1.00  0.00    -0.377 C  
BRANCH   4   5
HETATM    5  C   UNL     1     -12.270  14.275  68.457  1.00  0.00    -0.194 C  
BRANCH   5   6
HETATM    6  C   UNL     1     -11.267  13.131  68.388  1.00  0.00    -0.305 C  
BRANCH   6   7
HETATM    7  C   UNL     1     -10.236  13.386  67.300  1.00  0.00    -0.241 C  
BRANCH   7   8
HETATM    8  C   UNL     1      -8.834  13.458  67.894  1.00  0.00    -0.194 C  
BRANCH   8   9
HETATM    9  C   UNL     1      -7.985  12.332  67.325  1.00  0.00    -0.177 C  
BRANCH   9  10
HETATM   10  C   UNL     1      -7.034  11.753  68.367  1.00  0.00    -0.080 C  
BRANCH  10  11
HETATM   11  C   UNL     1      -6.070  10.724  67.754  1.00  0.00    -0.047 C  
BRANCH  11  12
HETATM   12  C   UNL     1      -6.027   9.446  68.594  1.00  0.00    -0.044 C  
BRANCH  12  13
HETATM   13  N   UNL     1      -6.553   8.192  67.878  1.00  0.00    -0.059 N  
HETATM   14  C   UNL     1      -7.356   8.553  66.633  1.00  0.00    -0.081 C  
HETATM   15  C   UNL     1      -5.386   7.288  67.471  1.00  0.00    -0.021 C  
BRANCH  13  16
HETATM   16  C   UNL     1      -7.447   7.364  68.871  1.00  0.00    -0.101 C  
BRANCH  16  17
HETATM   17  C   UNL     1      -8.634   8.169  69.414  1.00  0.00    -0.135 C  
BRANCH  17  18
HETATM   18  O   UNL     1      -9.794   7.355  69.564  1.00  0.00    -0.163 OA 
BRANCH  18  19
HETATM   19  C   UNL     1     -10.806   7.991  70.247  1.00  0.00    -0.241 A  
HETATM   20  C   UNL     1     -11.633   7.170  71.011  1.00  0.00    -0.345 A  
HETATM   21  C   UNL     1     -12.718   7.716  71.702  1.00  0.00    -0.368 A  
HETATM   22  C   UNL     1     -12.971   9.087  71.643  1.00  0.00    -0.418 A  
HETATM   23  C   UNL     1     -12.127   9.916  70.910  1.00  0.00    -0.431 A  
HETATM   24  C   UNL     1     -11.044   9.371  70.222  1.00  0.00    -0.299 A  
ENDBRANCH  18  19
ENDBRANCH  17  18
ENDBRANCH  16  17
ENDBRANCH  13  16
ENDBRANCH  12  13
ENDBRANCH  11  12
ENDBRANCH  10  11
ENDBRANCH   9  10
ENDBRANCH   8   9
ENDBRANCH   7   8
ENDBRANCH   6   7
ENDBRANCH   5   6
ENDBRANCH   4   5
ENDBRANCH   3   4
ENDBRANCH   2   3
TORSDOF 15
ENDMDL
MODEL      301
REMARK 921   NORMALIZED FREE ENERGY PREDICTED BY IDOCK:   -3.10 KCAL/MOL
REMARK 922        TOTAL FREE ENERGY PREDICTED BY IDOCK:   -6.94 KCAL/MOL
REMARK 923 INTER-LIGAND FREE ENERGY PREDICTED BY IDOCK:   -4.72 KCAL/MOL
REMARK 924 INTRA-LIGAND FREE ENERGY PREDICTED BY IDOCK:   -2.22 KCAL/MOL
REMARK 927      BINDING AFFINITY PREDICTED BY RF-SCORE:    0.00 PKD
ROOT
HETATM    1  C   UNL     1      -9.194   6.414  71.496  1.00  0.00    -0.145 C  
HETATM    2  C   UNL     1      -8.565   7.547  70.705  1.00  0.00    -0.135 C  
ENDROOT
BRANCH   2   3
HETATM    3  C   UNL     1      -7.486   7.024  69.762  1.00  0.00    -0.098 C  
BRANCH   3   4
HETATM    4  C   UNL     1      -8.109   6.390  68.524  1.00  0.00    -0.110 C  
BRANCH   4   5
HETATM    5  C   UNL     1      -8.997   7.387  67.788  1.00  0.00    -0.127 C  
BRANCH   5   6
HETATM    6  C   UNL     1      -8.437   7.667  66.400  1.00  0.00    -0.137 C  
BRANCH   6   7
HETATM    7  C   UNL     1      -9.034   8.943  65.828  1.00  0.00    -0.249 C  
BRANCH   7   8
HETATM    8  C   UNL     1     -10.098   9.506  66.764  1.00  0.00    -0.312 C  
BRANCH   8   9
HETATM    9  C   UNL     1     -10.906  10.567  66.033  1.00  0.00    -0.006 C  
BRANCH   9  10
HETATM   10  C   UNL     1     -10.360  10.833  64.634  1.00  0.00    -0.394 C  
BRANCH  10  11
HETATM   11  C   UNL     1     -10.832  12.190  64.085  1.00  0.00    -0.410 C  
BRANCH  11  12
HETATM   12  C   UNL     1     -10.059  13.341  64.730  1.00  0.00    -0.227 C  
BRANCH  12  13
HETATM   13  N   UNL     1     -10.939  14.396  65.420  1.00  0.00    -0.322 N  
HETATM   14  C   UNL     1     -10.199  15.718  65.589  1.00  0.00    -0.380 C  
HETATM   15  C   UNL     1     -12.211  14.639  64.602  1.00  0.00    -0.434 C  
BRANCH  13  16
HETATM   16  C   UNL     1     -11.395  13.853  66.823  1.00  0.00    -0.333 C  
BRANCH  16  17
HETATM   17  C   UNL     1     -10.286  13.929  67.879  1.00  0.00    -0.240 C  
BRANCH  17  18
HETATM   18  O   UNL     1     -10.072  12.667  68.505  1.00  0.00    -0.222 OA 
BRANCH  18  19
HETATM   19  C   UNL     1      -8.765  12.244  68.414  1.00  0.00    -0.139 A  
HETATM   20  C   UNL     1      -7.997  12.852  67.423  1.00  0.00    -0.178 A  
HETATM   21  C   UNL     1      -6.672  12.455  67.222  1.00  0.00    -0.133 A  
HETATM   22  C   UNL     1      -6.106  11.460  68.019  1.00  0.00    -0.046 A  
HETATM   23  C   UNL     1      -6.859  10.875  69.034  1.00  0.00    -0.080 A  
HETATM   24  C   UNL     1      -8.180  11.272  69.236  1.00  0.00     0.138 A  
ENDBRANCH  18  19
ENDBRANCH  17  18
ENDBRANCH  16  17
ENDBRANCH  13  16
ENDBRANCH  12  13
ENDBRANCH  11  12
ENDBRANCH  10  11
ENDBRANCH   9  10
ENDBRANCH   8   9
ENDBRANCH   7   8
ENDBRANCH   6   7
ENDBRANCH   5   6
ENDBRANCH   4   5
ENDBRANCH   3   4
ENDBRANCH   2   3
TORSDOF 15
ENDMDL
MODEL      302
REMARK 921   NORMALIZED FREE ENERGY PREDICTED BY IDOCK:   -3.09 KCAL/MOL
REMARK 922        TOTAL FREE ENERGY PREDICTED BY IDOCK:   -6.93 KCAL/MOL
REMARK 923 INTER-LIGAND FREE ENERGY PREDICTED BY IDOCK:   -5.13 KCAL/MOL
REMARK 924 INTRA-LIGAND FREE ENERGY PREDICTED BY IDOCK:   -1.80 KCAL/MOL
REMARK 927      BINDING AFFINITY PREDICTED BY RF-SCORE:    0.00 PKD
ROOT
HETATM    1  C   UNL     1     -10.533  14.152  66.832  1.00  0.00    -0.272 C  
HETATM    2  C   UNL     1     -12.050  14.187  66.781  1.00  0.00    -0.474 C  
ENDROOT
BRANCH   2   3
HETATM    3  C   UNL     1     -12.577  13.387  65.594  1.00  0.00    -0.496 C  
BRANCH   3   4
HETATM    4  C   UNL     1     -11.867  13.794  64.308  1.00  0.00    -0.451 C  
BRANCH   4   5
HETATM    5  C   UNL     1     -11.505  12.570  63.475  1.00  0.00    -0.570 C  
BRANCH   5   6
HETATM    6  C   UNL     1     -10.104  12.087  63.828  1.00  0.00    -0.419 C  
BRANCH   6   7
HETATM    7  C   UNL     1     -10.081  10.574  63.978  1.00  0.00    -0.321 C  
BRANCH   7   8
HETATM    8  C   UNL     1      -9.441  10.174  65.304  1.00  0.00    -0.306 C  
BRANCH   8   9
HETATM    9  C   UNL     1      -9.964  11.077  66.410  1.00  0.00    -0.264 C  
BRANCH   9  10
HETATM   10  C   UNL     1     -10.227  10.304  67.698  1.00  0.00    -0.247 C  
BRANCH  10  11
HETATM   11  C   UNL     1     -10.014   8.792  67.512  1.00  0.00    -0.254 C  
BRANCH  11  12
HETATM   12  C   UNL     1      -9.607   8.131  68.829  1.00  0.00    -0.149 C  
BRANCH  12  13
HETATM   13  N   UNL     1      -8.112   7.792  68.940  1.00  0.00    -0.124 N  
HETATM   14  C   UNL     1      -7.279   9.030  69.251  1.00  0.00    -0.065 C  
HETATM   15  C   UNL     1      -7.886   6.751  70.041  1.00  0.00    -0.111 C  
BRANCH  13  16
HETATM   16  C   UNL     1      -7.626   7.143  67.593  1.00  0.00    -0.110 C  
BRANCH  16  17
HETATM   17  C   UNL     1      -6.245   7.645  67.156  1.00  0.00    -0.053 C  
BRANCH  17  18
HETATM   18  O   UNL     1      -5.793   6.979  65.980  1.00  0.00    -0.033 OA 
BRANCH  18  19
HETATM   19  C   UNL     1      -6.006   7.716  64.836  1.00  0.00    -0.038 A  
HETATM   20  C   UNL     1      -5.360   8.949  64.779  1.00  0.00    -0.042 A  
HETATM   21  C   UNL     1      -5.552   9.790  63.681  1.00  0.00    -0.094 A  
HETATM   22  C   UNL     1      -6.380   9.396  62.629  1.00  0.00    -0.097 A  
HETATM   23  C   UNL     1      -6.999   8.150  62.665  1.00  0.00    -0.087 A  
HETATM   24  C   UNL     1      -6.805   7.310  63.760  1.00  0.00    -0.053 A  
ENDBRANCH  18  19
ENDBRANCH  17  18
ENDBRANCH  16  17
ENDBRANCH  13  16
ENDBRANCH  12  13
ENDBRANCH  11  12
ENDBRANCH  10  11
ENDBRANCH   9  10
ENDBRANCH   8   9
ENDBRANCH   7   8
ENDBRANCH   6   7
ENDBRANCH   5   6
ENDBRANCH   4   5
ENDBRANCH   3   4
ENDBRANCH   2   3
TORSDOF 15
ENDMDL
MODEL      303
REMARK 921   NORMALIZED FREE ENERGY PREDICTED BY IDOCK:   -3.09 KCAL/MOL
REMARK 922        TOTAL FREE ENERGY PREDICTED BY IDOCK:   -6.93 KCAL/MOL
REMARK 923 INTER-LIGAND FREE ENERGY PREDICTED BY IDOCK:   -5.90 KCAL/MOL
REMARK 924 INTRA-LIGAND FREE ENERGY PREDICTED BY IDOCK:   -1.02 KCAL/MOL
REMARK 927      BINDING AFFINITY PREDICTED BY RF-SCORE:    0.00 PKD
ROOT
HETATM    1  C   UNL     1      -7.660  17.412  68.442  1.00  0.00    -0.255 C  
HETATM    2  C   UNL     1      -7.926  16.624  67.172  1.00  0.00    -0.212 C  
ENDROOT
BRANCH   2   3
HETATM    3  C   UNL     1      -8.885  15.468  67.434  1.00  0.00    -0.203 C  
BRANCH   3   4
HETATM    4  C   UNL     1      -9.565  15.025  66.143  1.00  0.00    -0.345 C  
BRANCH   4   5
HETATM    5  C   UNL     1     -10.681  14.027  66.429  1.00  0.00    -0.278 C  
BRANCH   5   6
HETATM    6  C   UNL     1     -11.781  14.686  67.251  1.00  0.00    -0.406 C  
BRANCH   6   7
HETATM    7  C   UNL     1     -12.094  13.861  68.489  1.00  0.00    -0.331 C  
BRANCH   7   8
HETATM    8  C   UNL     1     -11.119  12.696  68.619  1.00  0.00    -0.305 C  
BRANCH   8   9
HETATM    9  C   UNL     1     -11.896  11.390  68.683  1.00  0.00    -0.377 C  
BRANCH   9  10
HETATM   10  C   UNL     1     -11.004  10.183  68.410  1.00  0.00    -0.293 C  
BRANCH  10  11
HETATM   11  C   UNL     1     -10.435   9.587  69.709  1.00  0.00    -0.253 C  
BRANCH  11  12
HETATM   12  C   UNL     1     -11.546   9.341  70.730  1.00  0.00    -0.285 C  
BRANCH  12  13
HETATM   13  N   UNL     1     -11.532   7.942  71.367  1.00  0.00    -0.255 N  
HETATM   14  C   UNL     1     -10.968   7.977  72.783  1.00  0.00    -0.382 C  
HETATM   15  C   UNL     1     -12.951   7.368  71.411  1.00  0.00    -0.356 C  
BRANCH  13  16
HETATM   16  C   UNL     1     -10.675   6.974  70.472  1.00  0.00    -0.238 C  
BRANCH  16  17
HETATM   17  C   UNL     1     -10.237   5.708  71.218  1.00  0.00    -0.220 C  
BRANCH  17  18
HETATM   18  O   UNL     1      -8.860   5.420  70.994  1.00  0.00    -0.134 OA 
BRANCH  18  19
HETATM   19  C   UNL     1      -8.656   4.618  69.894  1.00  0.00    -0.073 A  
HETATM   20  C   UNL     1      -9.405   3.444  69.851  1.00  0.00    -0.238 A  
HETATM   21  C   UNL     1      -9.234   2.541  68.798  1.00  0.00    -0.227 A  
HETATM   22  C   UNL     1      -8.323   2.815  67.777  1.00  0.00    -0.094 A  
HETATM   23  C   UNL     1      -7.598   4.004  67.797  1.00  0.00    -0.068 A  
HETATM   24  C   UNL     1      -7.771   4.905  68.847  1.00  0.00    -0.073 A  
ENDBRANCH  18  19
ENDBRANCH  17  18
ENDBRANCH  16  17
ENDBRANCH  13  16
ENDBRANCH  12  13
ENDBRANCH  11  12
ENDBRANCH  10  11
ENDBRANCH   9  10
ENDBRANCH   8   9
ENDBRANCH   7   8
ENDBRANCH   6   7
ENDBRANCH   5   6
ENDBRANCH   4   5
ENDBRANCH   3   4
ENDBRANCH   2   3
TORSDOF 15
ENDMDL
MODEL      304
REMARK 921   NORMALIZED FREE ENERGY PREDICTED BY IDOCK:   -3.08 KCAL/MOL
REMARK 922        TOTAL FREE ENERGY PREDICTED BY IDOCK:   -6.91 KCAL/MOL
REMARK 923 INTER-LIGAND FREE ENERGY PREDICTED BY IDOCK:   -5.10 KCAL/MOL
REMARK 924 INTRA-LIGAND FREE ENERGY PREDICTED BY IDOCK:   -1.81 KCAL/MOL
REMARK 927      BINDING AFFINITY PREDICTED BY RF-SCORE:    0.00 PKD
ROOT
HETATM    1  C   UNL     1     -12.647  10.147  71.508  1.00  0.00    -0.537 C  
HETATM    2  C   UNL     1     -12.394   8.710  71.928  1.00  0.00    -0.414 C  
ENDROOT
BRANCH   2   3
HETATM    3  C   UNL     1     -10.970   8.530  72.442  1.00  0.00    -0.390 C  
BRANCH   3   4
HETATM    4  C   UNL     1     -10.833   7.224  73.215  1.00  0.00    -0.404 C  
BRANCH   4   5
HETATM    5  C   UNL     1     -11.542   6.085  72.492  1.00  0.00    -0.315 C  
BRANCH   5   6
HETATM    6  C   UNL     1     -10.738   4.797  72.618  1.00  0.00    -0.263 C  
BRANCH   6   7
HETATM    7  C   UNL     1      -9.289   5.101  72.964  1.00  0.00    -0.142 C  
BRANCH   7   8
HETATM    8  C   UNL     1      -8.394   4.912  71.744  1.00  0.00    -0.118 C  
BRANCH   8   9
HETATM    9  C   UNL     1      -7.349   6.016  71.707  1.00  0.00    -0.093 C  
BRANCH   9  10
HETATM   10  C   UNL     1      -6.452   5.909  70.478  1.00  0.00    -0.036 C  
BRANCH  10  11
HETATM   11  C   UNL     1      -6.893   4.768  69.545  1.00  0.00    -0.049 C  
BRANCH  11  12
HETATM   12  C   UNL     1      -6.983   5.251  68.097  1.00  0.00    -0.061 C  
BRANCH  12  13
HETATM   13  N   UNL     1      -8.157   4.663  67.299  1.00  0.00    -0.101 N  
HETATM   14  C   UNL     1      -7.909   4.742  65.797  1.00  0.00    -0.095 C  
HETATM   15  C   UNL     1      -8.380   3.198  67.688  1.00  0.00    -0.082 C  
BRANCH  13  16
HETATM   16  C   UNL     1      -9.474   5.438  67.667  1.00  0.00    -0.122 C  
BRANCH  16  17
HETATM   17  C   UNL     1     -10.040   6.241  66.490  1.00  0.00    -0.108 C  
BRANCH  17  18
HETATM   18  O   UNL     1     -11.016   7.185  66.921  1.00  0.00    -0.363 OA 
BRANCH  18  19
HETATM   19  C   UNL     1     -10.463   8.391  67.291  1.00  0.00    -0.303 A  
HETATM   20  C   UNL     1      -9.831   9.106  66.275  1.00  0.00    -0.359 A  
HETATM   21  C   UNL     1      -9.198  10.318  66.561  1.00  0.00    -0.179 A  
HETATM   22  C   UNL     1      -9.207  10.827  67.860  1.00  0.00    -0.151 A  
HETATM   23  C   UNL     1      -9.867  10.134  68.871  1.00  0.00    -0.194 A  
HETATM   24  C   UNL     1     -10.500   8.925  68.585  1.00  0.00    -0.223 A  
ENDBRANCH  18  19
ENDBRANCH  17  18
ENDBRANCH  16  17
ENDBRANCH  13  16
ENDBRANCH  12  13
ENDBRANCH  11  12
ENDBRANCH  10  11
ENDBRANCH   9  10
ENDBRANCH   8   9
ENDBRANCH   7   8
ENDBRANCH   6   7
ENDBRANCH   5   6
ENDBRANCH   4   5
ENDBRANCH   3   4
ENDBRANCH   2   3
TORSDOF 15
ENDMDL
MODEL      305
REMARK 921   NORMALIZED FREE ENERGY PREDICTED BY IDOCK:   -3.08 KCAL/MOL
REMARK 922        TOTAL FREE ENERGY PREDICTED BY IDOCK:   -6.90 KCAL/MOL
REMARK 923 INTER-LIGAND FREE ENERGY PREDICTED BY IDOCK:   -4.65 KCAL/MOL
REMARK 924 INTRA-LIGAND FREE ENERGY PREDICTED BY IDOCK:   -2.25 KCAL/MOL
REMARK 927      BINDING AFFINITY PREDICTED BY RF-SCORE:    0.00 PKD
ROOT
HETATM    1  C   UNL     1      -7.331  10.178  63.271  1.00  0.00    -0.135 C  
HETATM    2  C   UNL     1      -6.360   9.012  63.331  1.00  0.00    -0.089 C  
ENDROOT
BRANCH   2   3
HETATM    3  C   UNL     1      -6.978   7.752  62.733  1.00  0.00    -0.081 C  
BRANCH   3   4
HETATM    4  C   UNL     1      -7.986   7.133  63.695  1.00  0.00    -0.070 C  
BRANCH   4   5
HETATM    5  C   UNL     1      -7.293   6.606  64.946  1.00  0.00    -0.080 C  
BRANCH   5   6
HETATM    6  C   UNL     1      -7.882   7.257  66.190  1.00  0.00    -0.108 C  
BRANCH   6   7
HETATM    7  C   UNL     1      -9.219   6.625  66.545  1.00  0.00    -0.183 C  
BRANCH   7   8
HETATM    8  C   UNL     1      -9.311   6.369  68.045  1.00  0.00    -0.115 C  
BRANCH   8   9
HETATM    9  C   UNL     1      -9.462   4.877  68.296  1.00  0.00    -0.182 C  
BRANCH   9  10
HETATM   10  C   UNL     1     -10.159   4.591  69.623  1.00  0.00    -0.161 C  
BRANCH  10  11
HETATM   11  C   UNL     1     -10.837   5.847  70.195  1.00  0.00    -0.402 C  
BRANCH  11  12
HETATM   12  C   UNL     1     -10.775   5.854  71.723  1.00  0.00    -0.245 C  
BRANCH  12  13
HETATM   13  N   UNL     1     -10.255   7.164  72.336  1.00  0.00    -0.185 N  
HETATM   14  C   UNL     1     -10.061   7.040  73.843  1.00  0.00    -0.348 C  
HETATM   15  C   UNL     1      -8.919   7.554  71.694  1.00  0.00    -0.123 C  
BRANCH  13  16
HETATM   16  C   UNL     1     -11.268   8.323  72.019  1.00  0.00    -0.323 C  
BRANCH  16  17
HETATM   17  C   UNL     1     -10.670   9.405  71.111  1.00  0.00    -0.347 C  
BRANCH  17  18
HETATM   18  O   UNL     1     -11.203   9.334  69.792  1.00  0.00    -0.196 OA 
BRANCH  18  19
HETATM   19  C   UNL     1     -10.374   9.906  68.852  1.00  0.00    -0.205 A  
HETATM   20  C   UNL     1     -10.856   9.918  67.545  1.00  0.00    -0.307 A  
HETATM   21  C   UNL     1     -10.068  10.432  66.512  1.00  0.00    -0.285 A  
HETATM   22  C   UNL     1      -8.801  10.950  66.785  1.00  0.00    -0.149 A  
HETATM   23  C   UNL     1      -8.330  10.973  68.095  1.00  0.00    -0.130 A  
HETATM   24  C   UNL     1      -9.118  10.462  69.125  1.00  0.00    -0.197 A  
ENDBRANCH  18  19
ENDBRANCH  17  18
ENDBRANCH  16  17
ENDBRANCH  13  16
ENDBRANCH  12  13
ENDBRANCH  11  12
ENDBRANCH  10  11
ENDBRANCH   9  10
ENDBRANCH   8   9
ENDBRANCH   7   8
ENDBRANCH   6   7
ENDBRANCH   5   6
ENDBRANCH   4   5
ENDBRANCH   3   4
ENDBRANCH   2   3
TORSDOF 15
ENDMDL
MODEL      306
REMARK 921   NORMALIZED FREE ENERGY PREDICTED BY IDOCK:   -3.07 KCAL/MOL
REMARK 922        TOTAL FREE ENERGY PREDICTED BY IDOCK:   -6.89 KCAL/MOL
REMARK 923 INTER-LIGAND FREE ENERGY PREDICTED BY IDOCK:   -5.43 KCAL/MOL
REMARK 924 INTRA-LIGAND FREE ENERGY PREDICTED BY IDOCK:   -1.46 KCAL/MOL
REMARK 927      BINDING AFFINITY PREDICTED BY RF-SCORE:    0.00 PKD
ROOT
HETATM    1  C   UNL     1     -10.982  12.210  68.410  1.00  0.00    -0.271 C  
HETATM    2  C   UNL     1     -11.998  13.334  68.501  1.00  0.00    -0.340 C  
ENDROOT
BRANCH   2   3
HETATM    3  C   UNL     1     -11.561  14.538  67.672  1.00  0.00    -0.402 C  
BRANCH   3   4
HETATM    4  C   UNL     1     -11.287  14.132  66.228  1.00  0.00    -0.340 C  
BRANCH   4   5
HETATM    5  C   UNL     1     -12.589  13.906  65.469  1.00  0.00    -0.560 C  
BRANCH   5   6
HETATM    6  C   UNL     1     -12.457  12.706  64.541  1.00  0.00    -0.525 C  
BRANCH   6   7
HETATM    7  C   UNL     1     -11.346  11.782  65.013  1.00  0.00    -0.288 C  
BRANCH   7   8
HETATM    8  C   UNL     1     -10.503  11.308  63.834  1.00  0.00    -0.452 C  
BRANCH   8   9
HETATM    9  C   UNL     1      -9.782  10.023  64.210  1.00  0.00    -0.242 C  
BRANCH   9  10
HETATM   10  C   UNL     1      -9.547   9.923  65.714  1.00  0.00    -0.312 C  
BRANCH  10  11
HETATM   11  C   UNL     1      -8.224   9.207  66.039  1.00  0.00    -0.115 C  
BRANCH  11  12
HETATM   12  C   UNL     1      -8.039   9.062  67.550  1.00  0.00    -0.108 C  
BRANCH  12  13
HETATM   13  N   UNL     1      -6.889   9.896  68.136  1.00  0.00    -0.064 N  
HETATM   14  C   UNL     1      -6.071  10.571  67.040  1.00  0.00    -0.058 C  
HETATM   15  C   UNL     1      -7.443  10.971  69.076  1.00  0.00    -0.129 C  
BRANCH  13  16
HETATM   16  C   UNL     1      -5.962   8.967  69.002  1.00  0.00    -0.043 C  
BRANCH  16  17
HETATM   17  C   UNL     1      -6.642   7.651  69.396  1.00  0.00    -0.039 C  
BRANCH  17  18
HETATM   18  O   UNL     1      -7.103   7.683  70.744  1.00  0.00    -0.053 OA 
BRANCH  18  19
HETATM   19  C   UNL     1      -8.117   6.781  70.981  1.00  0.00    -0.115 A  
HETATM   20  C   UNL     1      -7.861   5.824  71.961  1.00  0.00    -0.107 A  
HETATM   21  C   UNL     1      -8.808   4.836  72.240  1.00  0.00    -0.133 A  
HETATM   22  C   UNL     1     -10.021   4.810  71.551  1.00  0.00    -0.263 A  
HETATM   23  C   UNL     1     -10.296   5.785  70.596  1.00  0.00    -0.310 A  
HETATM   24  C   UNL     1      -9.351   6.772  70.320  1.00  0.00    -0.159 A  
ENDBRANCH  18  19
ENDBRANCH  17  18
ENDBRANCH  16  17
ENDBRANCH  13  16
ENDBRANCH  12  13
ENDBRANCH  11  12
ENDBRANCH  10  11
ENDBRANCH   9  10
ENDBRANCH   8   9
ENDBRANCH   7   8
ENDBRANCH   6   7
ENDBRANCH   5   6
ENDBRANCH   4   5
ENDBRANCH   3   4
ENDBRANCH   2   3
TORSDOF 15
ENDMDL
MODEL      307
REMARK 921   NORMALIZED FREE ENERGY PREDICTED BY IDOCK:   -3.06 KCAL/MOL
REMARK 922        TOTAL FREE ENERGY PREDICTED BY IDOCK:   -6.88 KCAL/MOL
REMARK 923 INTER-LIGAND FREE ENERGY PREDICTED BY IDOCK:   -5.22 KCAL/MOL
REMARK 924 INTRA-LIGAND FREE ENERGY PREDICTED BY IDOCK:   -1.65 KCAL/MOL
REMARK 927      BINDING AFFINITY PREDICTED BY RF-SCORE:    0.00 PKD
ROOT
HETATM    1  C   UNL     1     -12.740  13.111  70.846  1.00  0.00    -0.313 C  
HETATM    2  C   UNL     1     -13.052  12.108  71.942  1.00  0.00    -0.475 C  
ENDROOT
BRANCH   2   3
HETATM    3  C   UNL     1     -13.217  10.704  71.371  1.00  0.00    -0.420 C  
BRANCH   3   4
HETATM    4  C   UNL     1     -11.928   9.904  71.515  1.00  0.00    -0.473 C  
BRANCH   4   5
HETATM    5  C   UNL     1     -11.169   9.849  70.194  1.00  0.00    -0.347 C  
BRANCH   5   6
HETATM    6  C   UNL     1      -9.668   9.804  70.449  1.00  0.00    -0.244 C  
BRANCH   6   7
HETATM    7  C   UNL     1      -9.002   8.774  69.551  1.00  0.00    -0.145 C  
BRANCH   7   8
HETATM    8  C   UNL     1      -7.937   9.430  68.678  1.00  0.00    -0.092 C  
BRANCH   8   9
HETATM    9  C   UNL     1      -7.759   8.621  67.404  1.00  0.00    -0.098 C  
BRANCH   9  10
HETATM   10  C   UNL     1      -6.351   8.761  66.833  1.00  0.00    -0.060 C  
BRANCH  10  11
HETATM   11  C   UNL     1      -6.001   7.604  65.882  1.00  0.00    -0.038 C  
BRANCH  11  12
HETATM   12  C   UNL     1      -6.545   6.277  66.413  1.00  0.00    -0.048 C  
BRANCH  12  13
HETATM   13  N   UNL     1      -7.198   5.382  65.348  1.00  0.00    -0.066 N  
HETATM   14  C   UNL     1      -7.606   6.182  64.116  1.00  0.00    -0.096 C  
HETATM   15  C   UNL     1      -6.229   4.274  64.922  1.00  0.00    -0.030 C  
BRANCH  13  16
HETATM   16  C   UNL     1      -8.457   4.672  65.967  1.00  0.00    -0.115 C  
BRANCH  16  17
HETATM   17  C   UNL     1      -8.677   5.033  67.441  1.00  0.00    -0.103 C  
BRANCH  17  18
HETATM   18  O   UNL     1     -10.060   5.015  67.784  1.00  0.00    -0.159 OA 
BRANCH  18  19
HETATM   19  C   UNL     1     -10.275   5.151  69.137  1.00  0.00    -0.189 A  
HETATM   20  C   UNL     1     -11.227   6.099  69.508  1.00  0.00    -0.482 A  
HETATM   21  C   UNL     1     -11.480   6.345  70.860  1.00  0.00    -0.406 A  
HETATM   22  C   UNL     1     -10.794   5.634  71.845  1.00  0.00    -0.302 A  
HETATM   23  C   UNL     1      -9.867   4.662  71.479  1.00  0.00    -0.259 A  
HETATM   24  C   UNL     1      -9.616   4.415  70.130  1.00  0.00    -0.263 A  
ENDBRANCH  18  19
ENDBRANCH  17  18
ENDBRANCH  16  17
ENDBRANCH  13  16
ENDBRANCH  12  13
ENDBRANCH  11  12
ENDBRANCH  10  11
ENDBRANCH   9  10
ENDBRANCH   8   9
ENDBRANCH   7   8
ENDBRANCH   6   7
ENDBRANCH   5   6
ENDBRANCH   4   5
ENDBRANCH   3   4
ENDBRANCH   2   3
TORSDOF 15
ENDMDL
MODEL      308
REMARK 921   NORMALIZED FREE ENERGY PREDICTED BY IDOCK:   -3.06 KCAL/MOL
REMARK 922        TOTAL FREE ENERGY PREDICTED BY IDOCK:   -6.88 KCAL/MOL
REMARK 923 INTER-LIGAND FREE ENERGY PREDICTED BY IDOCK:   -5.85 KCAL/MOL
REMARK 924 INTRA-LIGAND FREE ENERGY PREDICTED BY IDOCK:   -1.02 KCAL/MOL
REMARK 927      BINDING AFFINITY PREDICTED BY RF-SCORE:    0.00 PKD
ROOT
HETATM    1  C   UNL     1      -6.681  20.944  67.104  1.00  0.00    -0.410 C  
HETATM    2  C   UNL     1      -7.914  20.273  67.684  1.00  0.00    -0.311 C  
ENDROOT
BRANCH   2   3
HETATM    3  C   UNL     1      -8.875  19.843  66.580  1.00  0.00    -0.429 C  
BRANCH   3   4
HETATM    4  C   UNL     1      -8.732  18.354  66.287  1.00  0.00    -0.209 C  
BRANCH   4   5
HETATM    5  C   UNL     1      -9.443  17.519  67.346  1.00  0.00    -0.255 C  
BRANCH   5   6
HETATM    6  C   UNL     1      -8.444  16.629  68.075  1.00  0.00    -0.192 C  
BRANCH   6   7
HETATM    7  C   UNL     1      -7.144  16.530  67.293  1.00  0.00    -0.205 C  
BRANCH   7   8
HETATM    8  C   UNL     1      -6.335  15.319  67.746  1.00  0.00    -0.181 C  
BRANCH   8   9
HETATM    9  C   UNL     1      -7.262  14.310  68.407  1.00  0.00    -0.113 C  
BRANCH   9  10
HETATM   10  C   UNL     1      -7.552  13.123  67.495  1.00  0.00    -0.166 C  
BRANCH  10  11
HETATM   11  C   UNL     1      -9.002  12.629  67.644  1.00  0.00    -0.186 C  
BRANCH  11  12
HETATM   12  C   UNL     1      -9.042  11.234  68.269  1.00  0.00    -0.173 C  
BRANCH  12  13
HETATM   13  N   UNL     1     -10.074  10.282  67.643  1.00  0.00    -0.182 N  
HETATM   14  C   UNL     1     -11.488  10.599  68.117  1.00  0.00    -0.228 C  
HETATM   15  C   UNL     1     -10.028  10.384  66.115  1.00  0.00    -0.231 C  
BRANCH  13  16
HETATM   16  C   UNL     1      -9.704   8.799  68.013  1.00  0.00    -0.157 C  
BRANCH  16  17
HETATM   17  C   UNL     1      -9.986   7.815  66.873  1.00  0.00    -0.261 C  
BRANCH  17  18
HETATM   18  O   UNL     1     -10.998   6.877  67.229  1.00  0.00    -0.335 OA 
BRANCH  18  19
HETATM   19  C   UNL     1     -10.554   5.929  68.124  1.00  0.00    -0.244 A  
HETATM   20  C   UNL     1      -9.753   4.921  67.593  1.00  0.00    -0.197 A  
HETATM   21  C   UNL     1      -9.294   3.886  68.412  1.00  0.00    -0.222 A  
HETATM   22  C   UNL     1      -9.622   3.864  69.768  1.00  0.00    -0.271 A  
HETATM   23  C   UNL     1     -10.392   4.889  70.310  1.00  0.00    -0.252 A  
HETATM   24  C   UNL     1     -10.849   5.921  69.493  1.00  0.00    -0.442 A  
ENDBRANCH  18  19
ENDBRANCH  17  18
ENDBRANCH  16  17
ENDBRANCH  13  16
ENDBRANCH  12  13
ENDBRANCH  11  12
ENDBRANCH  10  11
ENDBRANCH   9  10
ENDBRANCH   8   9
ENDBRANCH   7   8
ENDBRANCH   6   7
ENDBRANCH   5   6
ENDBRANCH   4   5
ENDBRANCH   3   4
ENDBRANCH   2   3
TORSDOF 15
ENDMDL
MODEL      309
REMARK 921   NORMALIZED FREE ENERGY PREDICTED BY IDOCK:   -3.04 KCAL/MOL
REMARK 922        TOTAL FREE ENERGY PREDICTED BY IDOCK:   -6.84 KCAL/MOL
REMARK 923 INTER-LIGAND FREE ENERGY PREDICTED BY IDOCK:   -4.41 KCAL/MOL
REMARK 924 INTRA-LIGAND FREE ENERGY PREDICTED BY IDOCK:   -2.43 KCAL/MOL
REMARK 927      BINDING AFFINITY PREDICTED BY RF-SCORE:    0.00 PKD
ROOT
HETATM    1  C   UNL     1     -12.143   9.502  71.215  1.00  0.00    -0.443 C  
HETATM    2  C   UNL     1     -12.121   8.334  72.184  1.00  0.00    -0.425 C  
ENDROOT
BRANCH   2   3
HETATM    3  C   UNL     1     -10.720   8.111  72.744  1.00  0.00    -0.391 C  
BRANCH   3   4
HETATM    4  C   UNL     1     -10.651   6.807  73.531  1.00  0.00    -0.358 C  
BRANCH   4   5
HETATM    5  C   UNL     1     -11.421   5.700  72.821  1.00  0.00    -0.328 C  
BRANCH   5   6
HETATM    6  C   UNL     1     -10.487   4.551  72.467  1.00  0.00    -0.251 C  
BRANCH   6   7
HETATM    7  C   UNL     1      -9.049   5.038  72.372  1.00  0.00    -0.146 C  
BRANCH   7   8
HETATM    8  C   UNL     1      -8.657   5.278  70.919  1.00  0.00    -0.133 C  
BRANCH   8   9
HETATM    9  C   UNL     1      -7.281   5.923  70.865  1.00  0.00    -0.077 C  
BRANCH   9  10
HETATM   10  C   UNL     1      -6.776   6.069  69.433  1.00  0.00    -0.060 C  
BRANCH  10  11
HETATM   11  C   UNL     1      -7.813   5.576  68.409  1.00  0.00    -0.088 C  
BRANCH  11  12
HETATM   12  C   UNL     1      -7.311   5.789  66.979  1.00  0.00    -0.080 C  
BRANCH  12  13
HETATM   13  N   UNL     1      -8.415   5.798  65.909  1.00  0.00    -0.133 N  
HETATM   14  C   UNL     1      -7.877   6.243  64.554  1.00  0.00    -0.115 C  
HETATM   15  C   UNL     1      -9.025   4.400  65.768  1.00  0.00    -0.129 C  
BRANCH  13  16
HETATM   16  C   UNL     1      -9.573   6.758  66.367  1.00  0.00    -0.095 C  
BRANCH  16  17
HETATM   17  C   UNL     1      -9.212   8.240  66.217  1.00  0.00    -0.203 C  
BRANCH  17  18
HETATM   18  O   UNL     1      -9.739   9.018  67.287  1.00  0.00    -0.160 OA 
BRANCH  18  19
HETATM   19  C   UNL     1      -8.786   9.347  68.226  1.00  0.00    -0.128 A  
HETATM   20  C   UNL     1      -9.066   8.961  69.535  1.00  0.00    -0.146 A  
HETATM   21  C   UNL     1      -8.183   9.292  70.567  1.00  0.00    -0.219 A  
HETATM   22  C   UNL     1      -7.011   9.996  70.291  1.00  0.00    -0.153 A  
HETATM   23  C   UNL     1      -6.710  10.352  68.979  1.00  0.00    -0.061 A  
HETATM   24  C   UNL     1      -7.590  10.021  67.950  1.00  0.00    -0.089 A  
ENDBRANCH  18  19
ENDBRANCH  17  18
ENDBRANCH  16  17
ENDBRANCH  13  16
ENDBRANCH  12  13
ENDBRANCH  11  12
ENDBRANCH  10  11
ENDBRANCH   9  10
ENDBRANCH   8   9
ENDBRANCH   7   8
ENDBRANCH   6   7
ENDBRANCH   5   6
ENDBRANCH   4   5
ENDBRANCH   3   4
ENDBRANCH   2   3
TORSDOF 15
ENDMDL
MODEL      310
REMARK 921   NORMALIZED FREE ENERGY PREDICTED BY IDOCK:   -3.03 KCAL/MOL
REMARK 922        TOTAL FREE ENERGY PREDICTED BY IDOCK:   -6.82 KCAL/MOL
REMARK 923 INTER-LIGAND FREE ENERGY PREDICTED BY IDOCK:   -5.56 KCAL/MOL
REMARK 924 INTRA-LIGAND FREE ENERGY PREDICTED BY IDOCK:   -1.26 KCAL/MOL
REMARK 927      BINDING AFFINITY PREDICTED BY RF-SCORE:    0.00 PKD
ROOT
HETATM    1  C   UNL     1     -12.575  12.998  71.071  1.00  0.00    -0.386 C  
HETATM    2  C   UNL     1     -12.852  11.692  71.794  1.00  0.00    -0.418 C  
ENDROOT
BRANCH   2   3
HETATM    3  C   UNL     1     -12.710  10.502  70.851  1.00  0.00    -0.495 C  
BRANCH   3   4
HETATM    4  C   UNL     1     -11.326   9.875  70.974  1.00  0.00    -0.460 C  
BRANCH   4   5
HETATM    5  C   UNL     1     -10.659   9.752  69.609  1.00  0.00    -0.260 C  
BRANCH   5   6
HETATM    6  C   UNL     1      -9.222   9.273  69.765  1.00  0.00    -0.191 C  
BRANCH   6   7
HETATM    7  C   UNL     1      -8.807   8.423  68.575  1.00  0.00    -0.136 C  
BRANCH   7   8
HETATM    8  C   UNL     1      -7.835   9.186  67.682  1.00  0.00    -0.096 C  
BRANCH   8   9
HETATM    9  C   UNL     1      -8.465   9.400  66.314  1.00  0.00    -0.133 C  
BRANCH   9  10
HETATM   10  C   UNL     1      -9.958   9.092  66.322  1.00  0.00    -0.352 C  
BRANCH  10  11
HETATM   11  C   UNL     1     -10.774  10.198  65.629  1.00  0.00     0.172 C  
BRANCH  11  12
HETATM   12  C   UNL     1     -10.391  11.578  66.168  1.00  0.00    -0.245 C  
BRANCH  12  13
HETATM   13  N   UNL     1     -10.668  12.740  65.201  1.00  0.00    -0.287 N  
HETATM   14  C   UNL     1     -10.138  12.444  63.803  1.00  0.00    -0.308 C  
HETATM   15  C   UNL     1     -12.173  13.010  65.116  1.00  0.00    -0.459 C  
BRANCH  13  16
HETATM   16  C   UNL     1     -10.001  14.050  65.761  1.00  0.00    -0.298 C  
BRANCH  16  17
HETATM   17  C   UNL     1      -9.166  13.799  67.022  1.00  0.00    -0.251 C  
BRANCH  17  18
HETATM   18  O   UNL     1      -8.395  14.944  67.375  1.00  0.00    -0.166 OA 
BRANCH  18  19
HETATM   19  C   UNL     1      -7.316  14.633  68.173  1.00  0.00    -0.125 A  
HETATM   20  C   UNL     1      -7.303  15.224  69.434  1.00  0.00    -0.207 A  
HETATM   21  C   UNL     1      -6.226  15.009  70.298  1.00  0.00    -0.132 A  
HETATM   22  C   UNL     1      -5.166  14.190  69.910  1.00  0.00    -0.093 A  
HETATM   23  C   UNL     1      -5.191  13.568  68.664  1.00  0.00    -0.077 A  
HETATM   24  C   UNL     1      -6.267  13.782  67.804  1.00  0.00    -0.159 A  
ENDBRANCH  18  19
ENDBRANCH  17  18
ENDBRANCH  16  17
ENDBRANCH  13  16
ENDBRANCH  12  13
ENDBRANCH  11  12
ENDBRANCH  10  11
ENDBRANCH   9  10
ENDBRANCH   8   9
ENDBRANCH   7   8
ENDBRANCH   6   7
ENDBRANCH   5   6
ENDBRANCH   4   5
ENDBRANCH   3   4
ENDBRANCH   2   3
TORSDOF 15
ENDMDL
MODEL      311
REMARK 921   NORMALIZED FREE ENERGY PREDICTED BY IDOCK:   -3.03 KCAL/MOL
REMARK 922        TOTAL FREE ENERGY PREDICTED BY IDOCK:   -6.80 KCAL/MOL
REMARK 923 INTER-LIGAND FREE ENERGY PREDICTED BY IDOCK:   -6.46 KCAL/MOL
REMARK 924 INTRA-LIGAND FREE ENERGY PREDICTED BY IDOCK:   -0.34 KCAL/MOL
REMARK 927      BINDING AFFINITY PREDICTED BY RF-SCORE:    0.00 PKD
ROOT
HETATM    1  C   UNL     1     -14.037   7.259  71.486  1.00  0.00    -0.515 C  
HETATM    2  C   UNL     1     -14.373   8.674  71.924  1.00  0.00    -0.492 C  
ENDROOT
BRANCH   2   3
HETATM    3  C   UNL     1     -13.107   9.476  72.207  1.00  0.00    -0.492 C  
BRANCH   3   4
HETATM    4  C   UNL     1     -11.862   8.644  71.919  1.00  0.00    -0.420 C  
BRANCH   4   5
HETATM    5  C   UNL     1     -11.163   9.128  70.655  1.00  0.00    -0.322 C  
BRANCH   5   6
HETATM    6  C   UNL     1     -11.373  10.626  70.476  1.00  0.00    -0.355 C  
BRANCH   6   7
HETATM    7  C   UNL     1     -10.720  11.110  69.190  1.00  0.00    -0.262 C  
BRANCH   7   8
HETATM    8  C   UNL     1      -9.987   9.967  68.497  1.00  0.00    -0.175 C  
BRANCH   8   9
HETATM    9  C   UNL     1      -8.894  10.535  67.605  1.00  0.00    -0.131 C  
BRANCH   9  10
HETATM   10  C   UNL     1      -7.501  10.175  68.113  1.00  0.00    -0.083 C  
BRANCH  10  11
HETATM   11  C   UNL     1      -6.539  11.373  68.044  1.00  0.00    -0.058 C  
BRANCH  11  12
HETATM   12  C   UNL     1      -6.993  12.492  68.983  1.00  0.00    -0.066 C  
BRANCH  12  13
HETATM   13  N   UNL     1      -6.939  13.901  68.372  1.00  0.00    -0.091 N  
HETATM   14  C   UNL     1      -7.038  14.981  69.444  1.00  0.00    -0.186 C  
HETATM   15  C   UNL     1      -5.633  14.091  67.595  1.00  0.00     0.039 C  
BRANCH  13  16
HETATM   16  C   UNL     1      -8.113  14.063  67.338  1.00  0.00    -0.185 C  
BRANCH  16  17
HETATM   17  C   UNL     1      -9.076  15.197  67.706  1.00  0.00    -0.179 C  
BRANCH  17  18
HETATM   18  O   UNL     1      -9.701  15.748  66.550  1.00  0.00    -0.238 OA 
BRANCH  18  19
HETATM   19  C   UNL     1     -10.551  14.860  65.929  1.00  0.00    -0.325 A  
HETATM   20  C   UNL     1     -10.429  13.528  66.322  1.00  0.00    -0.290 A  
HETATM   21  C   UNL     1     -11.214  12.544  65.715  1.00  0.00    -0.356 A  
HETATM   22  C   UNL     1     -12.133  12.890  64.724  1.00  0.00    -0.474 A  
HETATM   23  C   UNL     1     -12.284  14.223  64.354  1.00  0.00    -0.471 A  
HETATM   24  C   UNL     1     -11.502  15.205  64.961  1.00  0.00    -0.339 A  
ENDBRANCH  18  19
ENDBRANCH  17  18
ENDBRANCH  16  17
ENDBRANCH  13  16
ENDBRANCH  12  13
ENDBRANCH  11  12
ENDBRANCH  10  11
ENDBRANCH   9  10
ENDBRANCH   8   9
ENDBRANCH   7   8
ENDBRANCH   6   7
ENDBRANCH   5   6
ENDBRANCH   4   5
ENDBRANCH   3   4
ENDBRANCH   2   3
TORSDOF 15
ENDMDL
MODEL      312
REMARK 921   NORMALIZED FREE ENERGY PREDICTED BY IDOCK:   -2.99 KCAL/MOL
REMARK 922        TOTAL FREE ENERGY PREDICTED BY IDOCK:   -6.73 KCAL/MOL
REMARK 923 INTER-LIGAND FREE ENERGY PREDICTED BY IDOCK:   -5.61 KCAL/MOL
REMARK 924 INTRA-LIGAND FREE ENERGY PREDICTED BY IDOCK:   -1.12 KCAL/MOL
REMARK 927      BINDING AFFINITY PREDICTED BY RF-SCORE:    0.00 PKD
ROOT
HETATM    1  C   UNL     1      -9.656  18.624  68.185  1.00  0.00    -0.364 C  
HETATM    2  C   UNL     1     -10.170  17.404  68.929  1.00  0.00    -0.352 C  
ENDROOT
BRANCH   2   3
HETATM    3  C   UNL     1     -11.029  16.529  68.022  1.00  0.00    -0.320 C  
BRANCH   3   4
HETATM    4  C   UNL     1     -11.595  15.342  68.792  1.00  0.00    -0.379 C  
BRANCH   4   5
HETATM    5  C   UNL     1     -10.754  14.091  68.562  1.00  0.00    -0.266 C  
BRANCH   5   6
HETATM    6  C   UNL     1     -10.393  13.962  67.088  1.00  0.00    -0.265 C  
BRANCH   6   7
HETATM    7  C   UNL     1     -11.576  13.436  66.290  1.00  0.00    -0.378 C  
BRANCH   7   8
HETATM    8  C   UNL     1     -11.900  12.001  66.691  1.00  0.00    -0.239 C  
BRANCH   8   9
HETATM    9  C   UNL     1     -10.728  11.099  66.336  1.00  0.00    -0.303 C  
BRANCH   9  10
HETATM   10  C   UNL     1     -10.811   9.752  67.046  1.00  0.00    -0.165 C  
BRANCH  10  11
HETATM   11  C   UNL     1      -9.825   9.665  68.223  1.00  0.00    -0.169 C  
BRANCH  11  12
HETATM   12  C   UNL     1      -9.420   8.214  68.491  1.00  0.00    -0.143 C  
BRANCH  12  13
HETATM   13  N   UNL     1      -9.985   7.622  69.792  1.00  0.00    -0.182 N  
HETATM   14  C   UNL     1      -8.873   7.137  70.715  1.00  0.00    -0.148 C  
HETATM   15  C   UNL     1     -10.821   8.673  70.531  1.00  0.00    -0.228 C  
BRANCH  13  16
HETATM   16  C   UNL     1     -10.951   6.432  69.445  1.00  0.00    -0.359 C  
BRANCH  16  17
HETATM   17  C   UNL     1     -10.674   5.826  68.064  1.00  0.00    -0.209 C  
BRANCH  17  18
HETATM   18  O   UNL     1      -9.933   4.613  68.165  1.00  0.00    -0.133 OA 
BRANCH  18  19
HETATM   19  C   UNL     1      -9.567   4.109  66.936  1.00  0.00    -0.209 A  
HETATM   20  C   UNL     1     -10.208   4.672  65.834  1.00  0.00    -0.303 A  
HETATM   21  C   UNL     1      -9.940   4.195  64.548  1.00  0.00    -0.170 A  
HETATM   22  C   UNL     1      -9.019   3.164  64.359  1.00  0.00    -0.111 A  
HETATM   23  C   UNL     1      -8.350   2.623  65.453  1.00  0.00    -0.096 A  
HETATM   24  C   UNL     1      -8.616   3.101  66.735  1.00  0.00    -0.121 A  
ENDBRANCH  18  19
ENDBRANCH  17  18
ENDBRANCH  16  17
ENDBRANCH  13  16
ENDBRANCH  12  13
ENDBRANCH  11  12
ENDBRANCH  10  11
ENDBRANCH   9  10
ENDBRANCH   8   9
ENDBRANCH   7   8
ENDBRANCH   6   7
ENDBRANCH   5   6
ENDBRANCH   4   5
ENDBRANCH   3   4
ENDBRANCH   2   3
TORSDOF 15
ENDMDL
MODEL      313
REMARK 921   NORMALIZED FREE ENERGY PREDICTED BY IDOCK:   -2.96 KCAL/MOL
REMARK 922        TOTAL FREE ENERGY PREDICTED BY IDOCK:   -6.68 KCAL/MOL
REMARK 923 INTER-LIGAND FREE ENERGY PREDICTED BY IDOCK:   -5.60 KCAL/MOL
REMARK 924 INTRA-LIGAND FREE ENERGY PREDICTED BY IDOCK:   -1.08 KCAL/MOL
REMARK 927      BINDING AFFINITY PREDICTED BY RF-SCORE:    0.00 PKD
ROOT
HETATM    1  C   UNL     1      -6.736  21.199  67.371  1.00  0.00    -0.429 C  
HETATM    2  C   UNL     1      -8.005  20.554  67.900  1.00  0.00    -0.116 C  
ENDROOT
BRANCH   2   3
HETATM    3  C   UNL     1      -8.934  20.153  66.759  1.00  0.00    -0.431 C  
BRANCH   3   4
HETATM    4  C   UNL     1      -8.750  18.682  66.401  1.00  0.00    -0.286 C  
BRANCH   4   5
HETATM    5  C   UNL     1      -9.385  17.781  67.454  1.00  0.00    -0.252 C  
BRANCH   5   6
HETATM    6  C   UNL     1      -8.315  16.959  68.159  1.00  0.00    -0.212 C  
BRANCH   6   7
HETATM    7  C   UNL     1      -7.015  16.979  67.370  1.00  0.00    -0.182 C  
BRANCH   7   8
HETATM    8  C   UNL     1      -6.077  15.876  67.849  1.00  0.00    -0.151 C  
BRANCH   8   9
HETATM    9  C   UNL     1      -6.888  14.777  68.517  1.00  0.00    -0.107 C  
BRANCH   9  10
HETATM   10  C   UNL     1      -6.857  13.480  67.714  1.00  0.00    -0.168 C  
BRANCH  10  11
HETATM   11  C   UNL     1      -8.258  12.859  67.578  1.00  0.00    -0.184 C  
BRANCH  11  12
HETATM   12  C   UNL     1      -8.455  11.727  68.587  1.00  0.00    -0.068 C  
BRANCH  12  13
HETATM   13  N   UNL     1      -9.207  10.504  68.039  1.00  0.00    -0.140 N  
HETATM   14  C   UNL     1     -10.628  10.863  67.620  1.00  0.00    -0.224 C  
HETATM   15  C   UNL     1      -8.464   9.926  66.830  1.00  0.00    -0.125 C  
BRANCH  13  16
HETATM   16  C   UNL     1      -9.239   9.379  69.136  1.00  0.00    -0.155 C  
BRANCH  16  17
HETATM   17  C   UNL     1     -10.430   8.427  68.976  1.00  0.00    -0.201 C  
BRANCH  17  18
HETATM   18  O   UNL     1     -11.392   8.615  70.010  1.00  0.00    -0.164 OA 
BRANCH  18  19
HETATM   19  C   UNL     1     -11.130   7.852  71.126  1.00  0.00    -0.255 A  
HETATM   20  C   UNL     1     -11.281   6.476  70.970  1.00  0.00    -0.362 A  
HETATM   21  C   UNL     1     -11.084   5.622  72.058  1.00  0.00    -0.291 A  
HETATM   22  C   UNL     1     -10.724   6.139  73.303  1.00  0.00    -0.282 A  
HETATM   23  C   UNL     1     -10.538   7.511  73.455  1.00  0.00    -0.409 A  
HETATM   24  C   UNL     1     -10.731   8.362  72.368  1.00  0.00    -0.405 A  
ENDBRANCH  18  19
ENDBRANCH  17  18
ENDBRANCH  16  17
ENDBRANCH  13  16
ENDBRANCH  12  13
ENDBRANCH  11  12
ENDBRANCH  10  11
ENDBRANCH   9  10
ENDBRANCH   8   9
ENDBRANCH   7   8
ENDBRANCH   6   7
ENDBRANCH   5   6
ENDBRANCH   4   5
ENDBRANCH   3   4
ENDBRANCH   2   3
TORSDOF 15
ENDMDL
MODEL      314
REMARK 921   NORMALIZED FREE ENERGY PREDICTED BY IDOCK:   -2.95 KCAL/MOL
REMARK 922        TOTAL FREE ENERGY PREDICTED BY IDOCK:   -6.66 KCAL/MOL
REMARK 923 INTER-LIGAND FREE ENERGY PREDICTED BY IDOCK:   -5.35 KCAL/MOL
REMARK 924 INTRA-LIGAND FREE ENERGY PREDICTED BY IDOCK:   -1.31 KCAL/MOL
REMARK 927      BINDING AFFINITY PREDICTED BY RF-SCORE:    0.00 PKD
ROOT
HETATM    1  C   UNL     1      -8.276   5.098  63.770  1.00  0.00    -0.126 C  
HETATM    2  C   UNL     1      -7.735   4.125  64.802  1.00  0.00    -0.078 C  
ENDROOT
BRANCH   2   3
HETATM    3  C   UNL     1      -8.009   4.618  66.219  1.00  0.00    -0.103 C  
BRANCH   3   4
HETATM    4  C   UNL     1      -9.127   3.811  66.868  1.00  0.00    -0.175 C  
BRANCH   4   5
HETATM    5  C   UNL     1     -10.108   4.723  67.596  1.00  0.00    -0.142 C  
BRANCH   5   6
HETATM    6  C   UNL     1     -10.740   5.705  66.618  1.00  0.00    -0.339 C  
BRANCH   6   7
HETATM    7  C   UNL     1     -10.813   7.097  67.226  1.00  0.00    -0.382 C  
BRANCH   7   8
HETATM    8  C   UNL     1      -9.461   7.502  67.803  1.00  0.00    -0.157 C  
BRANCH   8   9
HETATM    9  C   UNL     1      -8.911   8.685  67.022  1.00  0.00    -0.143 C  
BRANCH   9  10
HETATM   10  C   UNL     1      -9.335   8.646  65.558  1.00  0.00    -0.105 C  
BRANCH  10  11
HETATM   11  C   UNL     1      -9.831  10.018  65.069  1.00  0.00    -0.374 C  
BRANCH  11  12
HETATM   12  C   UNL     1      -9.150  11.151  65.839  1.00  0.00    -0.203 C  
BRANCH  12  13
HETATM   13  N   UNL     1     -10.117  12.124  66.532  1.00  0.00    -0.206 N  
HETATM   14  C   UNL     1     -11.561  11.869  66.118  1.00  0.00    -0.229 C  
HETATM   15  C   UNL     1     -10.005  11.985  68.054  1.00  0.00    -0.197 C  
BRANCH  13  16
HETATM   16  C   UNL     1      -9.710  13.600  66.177  1.00  0.00    -0.255 C  
BRANCH  16  17
HETATM   17  C   UNL     1     -10.856  14.397  65.543  1.00  0.00    -0.331 C  
BRANCH  17  18
HETATM   18  O   UNL     1     -10.893  15.736  66.027  1.00  0.00    -0.317 OA 
BRANCH  18  19
HETATM   19  C   UNL     1     -10.944  15.804  67.402  1.00  0.00    -0.279 A  
HETATM   20  C   UNL     1      -9.881  16.463  68.017  1.00  0.00    -0.238 A  
HETATM   21  C   UNL     1      -9.818  16.542  69.411  1.00  0.00    -0.155 A  
HETATM   22  C   UNL     1     -10.823  15.974  70.194  1.00  0.00    -0.349 A  
HETATM   23  C   UNL     1     -11.905  15.345  69.583  1.00  0.00    -0.368 A  
HETATM   24  C   UNL     1     -11.969  15.269  68.193  1.00  0.00    -0.099 A  
ENDBRANCH  18  19
ENDBRANCH  17  18
ENDBRANCH  16  17
ENDBRANCH  13  16
ENDBRANCH  12  13
ENDBRANCH  11  12
ENDBRANCH  10  11
ENDBRANCH   9  10
ENDBRANCH   8   9
ENDBRANCH   7   8
ENDBRANCH   6   7
ENDBRANCH   5   6
ENDBRANCH   4   5
ENDBRANCH   3   4
ENDBRANCH   2   3
TORSDOF 15
ENDMDL
MODEL      315
REMARK 921   NORMALIZED FREE ENERGY PREDICTED BY IDOCK:   -2.94 KCAL/MOL
REMARK 922        TOTAL FREE ENERGY PREDICTED BY IDOCK:   -6.65 KCAL/MOL
REMARK 923 INTER-LIGAND FREE ENERGY PREDICTED BY IDOCK:   -5.42 KCAL/MOL
REMARK 924 INTRA-LIGAND FREE ENERGY PREDICTED BY IDOCK:   -1.23 KCAL/MOL
REMARK 927      BINDING AFFINITY PREDICTED BY RF-SCORE:    0.00 PKD
ROOT
HETATM    1  C   UNL     1      -8.156   9.074  70.755  1.00  0.00    -0.194 C  
HETATM    2  C   UNL     1      -8.829   9.966  69.727  1.00  0.00    -0.229 C  
ENDROOT
BRANCH   2   3
HETATM    3  C   UNL     1     -10.287   9.567  69.525  1.00  0.00    -0.229 C  
BRANCH   3   4
HETATM    4  C   UNL     1     -10.587   9.341  68.047  1.00  0.00    -0.262 C  
BRANCH   4   5
HETATM    5  C   UNL     1      -9.887   8.088  67.534  1.00  0.00    -0.224 C  
BRANCH   5   6
HETATM    6  C   UNL     1      -9.258   8.355  66.172  1.00  0.00    -0.263 C  
BRANCH   6   7
HETATM    7  C   UNL     1      -9.335   9.834  65.826  1.00  0.00    -0.278 C  
BRANCH   7   8
HETATM    8  C   UNL     1      -8.384  10.169  64.683  1.00  0.00    -0.167 C  
BRANCH   8   9
HETATM    9  C   UNL     1      -9.180  10.352  63.400  1.00  0.00    -0.311 C  
BRANCH   9  10
HETATM   10  C   UNL     1     -10.606  10.815  63.677  1.00  0.00    -0.072 C  
BRANCH  10  11
HETATM   11  C   UNL     1     -10.691  12.342  63.840  1.00  0.00    -0.465 C  
BRANCH  11  12
HETATM   12  C   UNL     1     -11.183  12.716  65.239  1.00  0.00    -0.300 C  
BRANCH  12  13
HETATM   13  N   UNL     1     -11.466  14.213  65.439  1.00  0.00    -0.317 N  
HETATM   14  C   UNL     1     -12.591  14.697  64.531  1.00  0.00    -0.152 C  
HETATM   15  C   UNL     1     -11.849  14.489  66.896  1.00  0.00    -0.377 C  
BRANCH  13  16
HETATM   16  C   UNL     1     -10.155  15.032  65.150  1.00  0.00    -0.315 C  
BRANCH  16  17
HETATM   17  C   UNL     1      -9.081  14.833  66.226  1.00  0.00    -0.196 C  
BRANCH  17  18
HETATM   18  O   UNL     1      -8.501  16.073  66.621  1.00  0.00    -0.230 OA 
BRANCH  18  19
HETATM   19  C   UNL     1      -7.493  15.918  67.547  1.00  0.00    -0.168 A  
HETATM   20  C   UNL     1      -6.929  17.095  68.033  1.00  0.00    -0.175 A  
HETATM   21  C   UNL     1      -5.867  17.041  68.940  1.00  0.00    -0.150 A  
HETATM   22  C   UNL     1      -5.375  15.810  69.374  1.00  0.00    -0.108 A  
HETATM   23  C   UNL     1      -5.958  14.631  68.918  1.00  0.00    -0.085 A  
HETATM   24  C   UNL     1      -7.019  14.686  68.015  1.00  0.00    -0.147 A  
ENDBRANCH  18  19
ENDBRANCH  17  18
ENDBRANCH  16  17
ENDBRANCH  13  16
ENDBRANCH  12  13
ENDBRANCH  11  12
ENDBRANCH  10  11
ENDBRANCH   9  10
ENDBRANCH   8   9
ENDBRANCH   7   8
ENDBRANCH   6   7
ENDBRANCH   5   6
ENDBRANCH   4   5
ENDBRANCH   3   4
ENDBRANCH   2   3
TORSDOF 15
ENDMDL
MODEL      316
REMARK 921   NORMALIZED FREE ENERGY PREDICTED BY IDOCK:   -2.93 KCAL/MOL
REMARK 922        TOTAL FREE ENERGY PREDICTED BY IDOCK:   -6.62 KCAL/MOL
REMARK 923 INTER-LIGAND FREE ENERGY PREDICTED BY IDOCK:   -5.54 KCAL/MOL
REMARK 924 INTRA-LIGAND FREE ENERGY PREDICTED BY IDOCK:   -1.08 KCAL/MOL
REMARK 927      BINDING AFFINITY PREDICTED BY RF-SCORE:    0.00 PKD
ROOT
HETATM    1  C   UNL     1     -10.026   2.215  72.597  1.00  0.00    -0.199 C  
HETATM    2  C   UNL     1      -9.806   3.548  73.290  1.00  0.00    -0.172 C  
ENDROOT
BRANCH   2   3
HETATM    3  C   UNL     1      -8.318   3.850  73.438  1.00  0.00    -0.088 C  
BRANCH   3   4
HETATM    4  C   UNL     1      -7.650   3.967  72.073  1.00  0.00    -0.066 C  
BRANCH   4   5
HETATM    5  C   UNL     1      -8.122   5.217  71.340  1.00  0.00    -0.114 C  
BRANCH   5   6
HETATM    6  C   UNL     1      -7.967   5.036  69.836  1.00  0.00    -0.074 C  
BRANCH   6   7
HETATM    7  C   UNL     1      -9.231   4.445  69.233  1.00  0.00    -0.203 C  
BRANCH   7   8
HETATM    8  C   UNL     1     -10.337   5.493  69.169  1.00  0.00    -0.318 C  
BRANCH   8   9
HETATM    9  C   UNL     1      -9.789   6.770  68.551  1.00  0.00    -0.141 C  
BRANCH   9  10
HETATM   10  C   UNL     1     -10.456   7.088  67.217  1.00  0.00    -0.363 C  
BRANCH  10  11
HETATM   11  C   UNL     1     -10.626   8.602  67.009  1.00  0.00    -0.293 C  
BRANCH  11  12
HETATM   12  C   UNL     1      -9.405   9.365  67.523  1.00  0.00    -0.127 C  
BRANCH  12  13
HETATM   13  N   UNL     1      -8.934  10.508  66.610  1.00  0.00    -0.141 N  
HETATM   14  C   UNL     1      -7.499  10.296  66.141  1.00  0.00    -0.121 C  
HETATM   15  C   UNL     1      -9.846  10.615  65.384  1.00  0.00    -0.267 C  
BRANCH  13  16
HETATM   16  C   UNL     1      -9.048  11.872  67.384  1.00  0.00    -0.178 C  
BRANCH  16  17
HETATM   17  C   UNL     1     -10.124  11.846  68.476  1.00  0.00    -0.206 C  
BRANCH  17  18
HETATM   18  O   UNL     1     -11.139  12.817  68.234  1.00  0.00    -0.230 OA 
BRANCH  18  19
HETATM   19  C   UNL     1     -11.674  13.328  69.396  1.00  0.00    -0.325 A  
HETATM   20  C   UNL     1     -12.187  12.391  70.291  1.00  0.00    -0.345 A  
HETATM   21  C   UNL     1     -12.795  12.815  71.476  1.00  0.00    -0.369 A  
HETATM   22  C   UNL     1     -12.879  14.174  71.777  1.00  0.00    -0.428 A  
HETATM   23  C   UNL     1     -12.336  15.112  70.902  1.00  0.00    -0.412 A  
HETATM   24  C   UNL     1     -11.728  14.689  69.721  1.00  0.00    -0.361 A  
ENDBRANCH  18  19
ENDBRANCH  17  18
ENDBRANCH  16  17
ENDBRANCH  13  16
ENDBRANCH  12  13
ENDBRANCH  11  12
ENDBRANCH  10  11
ENDBRANCH   9  10
ENDBRANCH   8   9
ENDBRANCH   7   8
ENDBRANCH   6   7
ENDBRANCH   5   6
ENDBRANCH   4   5
ENDBRANCH   3   4
ENDBRANCH   2   3
TORSDOF 15
ENDMDL
MODEL      317
REMARK 921   NORMALIZED FREE ENERGY PREDICTED BY IDOCK:   -2.93 KCAL/MOL
REMARK 922        TOTAL FREE ENERGY PREDICTED BY IDOCK:   -6.62 KCAL/MOL
REMARK 923 INTER-LIGAND FREE ENERGY PREDICTED BY IDOCK:   -5.04 KCAL/MOL
REMARK 924 INTRA-LIGAND FREE ENERGY PREDICTED BY IDOCK:   -1.58 KCAL/MOL
REMARK 927      BINDING AFFINITY PREDICTED BY RF-SCORE:    0.00 PKD
ROOT
HETATM    1  C   UNL     1     -11.163  10.714  67.725  1.00  0.00    -0.383 C  
HETATM    2  C   UNL     1     -10.223  10.727  66.533  1.00  0.00    -0.287 C  
ENDROOT
BRANCH   2   3
HETATM    3  C   UNL     1      -9.839   9.310  66.121  1.00  0.00    -0.363 C  
BRANCH   3   4
HETATM    4  C   UNL     1     -10.514   8.282  67.021  1.00  0.00    -0.384 C  
BRANCH   4   5
HETATM    5  C   UNL     1      -9.644   7.041  67.180  1.00  0.00    -0.187 C  
BRANCH   5   6
HETATM    6  C   UNL     1      -8.438   7.351  68.056  1.00  0.00    -0.123 C  
BRANCH   6   7
HETATM    7  C   UNL     1      -8.750   7.073  69.518  1.00  0.00    -0.134 C  
BRANCH   7   8
HETATM    8  C   UNL     1      -9.386   8.293  70.174  1.00  0.00    -0.159 C  
BRANCH   8   9
HETATM    9  C   UNL     1      -8.367   8.974  71.073  1.00  0.00    -0.237 C  
BRANCH   9  10
HETATM   10  C   UNL     1      -7.011   9.119  70.389  1.00  0.00    -0.071 C  
BRANCH  10  11
HETATM   11  C   UNL     1      -6.713  10.581  70.014  1.00  0.00    -0.151 C  
BRANCH  11  12
HETATM   12  C   UNL     1      -7.009  10.838  68.535  1.00  0.00    -0.068 C  
BRANCH  12  13
HETATM   13  N   UNL     1      -6.353  12.104  67.962  1.00  0.00    -0.062 N  
HETATM   14  C   UNL     1      -5.702  12.942  69.057  1.00  0.00    -0.072 C  
HETATM   15  C   UNL     1      -5.288  11.725  66.928  1.00  0.00    -0.115 C  
BRANCH  13  16
HETATM   16  C   UNL     1      -7.438  12.955  67.209  1.00  0.00    -0.085 C  
BRANCH  16  17
HETATM   17  C   UNL     1      -7.324  14.456  67.501  1.00  0.00    -0.186 C  
BRANCH  17  18
HETATM   18  O   UNL     1      -8.461  15.170  67.023  1.00  0.00    -0.199 OA 
BRANCH  18  19
HETATM   19  C   UNL     1      -9.547  15.065  67.864  1.00  0.00    -0.203 A  
HETATM   20  C   UNL     1     -10.709  14.548  67.294  1.00  0.00    -0.287 A  
HETATM   21  C   UNL     1     -11.877  14.448  68.053  1.00  0.00    -0.361 A  
HETATM   22  C   UNL     1     -11.885  14.850  69.389  1.00  0.00    -0.356 A  
HETATM   23  C   UNL     1     -10.717  15.334  69.973  1.00  0.00    -0.297 A  
HETATM   24  C   UNL     1      -9.551  15.432  69.216  1.00  0.00    -0.268 A  
ENDBRANCH  18  19
ENDBRANCH  17  18
ENDBRANCH  16  17
ENDBRANCH  13  16
ENDBRANCH  12  13
ENDBRANCH  11  12
ENDBRANCH  10  11
ENDBRANCH   9  10
ENDBRANCH   8   9
ENDBRANCH   7   8
ENDBRANCH   6   7
ENDBRANCH   5   6
ENDBRANCH   4   5
ENDBRANCH   3   4
ENDBRANCH   2   3
TORSDOF 15
ENDMDL
MODEL      318
REMARK 921   NORMALIZED FREE ENERGY PREDICTED BY IDOCK:   -2.93 KCAL/MOL
REMARK 922        TOTAL FREE ENERGY PREDICTED BY IDOCK:   -6.62 KCAL/MOL
REMARK 923 INTER-LIGAND FREE ENERGY PREDICTED BY IDOCK:   -5.43 KCAL/MOL
REMARK 924 INTRA-LIGAND FREE ENERGY PREDICTED BY IDOCK:   -1.19 KCAL/MOL
REMARK 927      BINDING AFFINITY PREDICTED BY RF-SCORE:    0.00 PKD
ROOT
HETATM    1  C   UNL     1      -7.263   5.667  63.623  1.00  0.00    -0.054 C  
HETATM    2  C   UNL     1      -6.209   5.242  64.630  1.00  0.00    -0.026 C  
ENDROOT
BRANCH   2   3
HETATM    3  C   UNL     1      -6.085   6.261  65.758  1.00  0.00    -0.033 C  
BRANCH   3   4
HETATM    4  C   UNL     1      -6.924   5.843  66.960  1.00  0.00    -0.069 C  
BRANCH   4   5
HETATM    5  C   UNL     1      -7.937   6.923  67.321  1.00  0.00    -0.114 C  
BRANCH   5   6
HETATM    6  C   UNL     1      -9.065   6.952  66.298  1.00  0.00    -0.170 C  
BRANCH   6   7
HETATM    7  C   UNL     1      -9.491   8.382  66.009  1.00  0.00    -0.224 C  
BRANCH   7   8
HETATM    8  C   UNL     1      -8.316   9.339  66.184  1.00  0.00    -0.122 C  
BRANCH   8   9
HETATM    9  C   UNL     1      -8.610  10.640  65.453  1.00  0.00    -0.185 C  
BRANCH   9  10
HETATM   10  C   UNL     1     -10.019  10.660  64.871  1.00  0.00    -0.382 C  
BRANCH  10  11
HETATM   11  C   UNL     1     -10.855  11.821  65.436  1.00  0.00    -0.347 C  
BRANCH  11  12
HETATM   12  C   UNL     1      -9.961  12.850  66.130  1.00  0.00    -0.272 C  
BRANCH  12  13
HETATM   13  N   UNL     1     -10.110  12.899  67.659  1.00  0.00    -0.217 N  
HETATM   14  C   UNL     1     -11.172  11.922  68.149  1.00  0.00    -0.258 C  
HETATM   15  C   UNL     1      -8.776  12.561  68.330  1.00  0.00    -0.122 C  
BRANCH  13  16
HETATM   16  C   UNL     1     -10.483  14.362  68.097  1.00  0.00    -0.237 C  
BRANCH  16  17
HETATM   17  C   UNL     1      -9.253  15.252  68.305  1.00  0.00    -0.189 C  
BRANCH  17  18
HETATM   18  O   UNL     1      -9.589  16.462  68.978  1.00  0.00    -0.249 OA 
BRANCH  18  19
HETATM   19  C   UNL     1      -9.570  17.558  68.145  1.00  0.00    -0.294 A  
HETATM   20  C   UNL     1     -10.608  18.472  68.320  1.00  0.00    -0.223 A  
HETATM   21  C   UNL     1     -10.702  19.592  67.490  1.00  0.00    -0.565 A  
HETATM   22  C   UNL     1      -9.753  19.810  66.491  1.00  0.00    -0.529 A  
HETATM   23  C   UNL     1      -8.695  18.918  66.335  1.00  0.00    -0.308 A  
HETATM   24  C   UNL     1      -8.600  17.802  67.165  1.00  0.00    -0.242 A  
ENDBRANCH  18  19
ENDBRANCH  17  18
ENDBRANCH  16  17
ENDBRANCH  13  16
ENDBRANCH  12  13
ENDBRANCH  11  12
ENDBRANCH  10  11
ENDBRANCH   9  10
ENDBRANCH   8   9
ENDBRANCH   7   8
ENDBRANCH   6   7
ENDBRANCH   5   6
ENDBRANCH   4   5
ENDBRANCH   3   4
ENDBRANCH   2   3
TORSDOF 15
ENDMDL
MODEL      319
REMARK 921   NORMALIZED FREE ENERGY PREDICTED BY IDOCK:   -2.92 KCAL/MOL
REMARK 922        TOTAL FREE ENERGY PREDICTED BY IDOCK:   -6.61 KCAL/MOL
REMARK 923 INTER-LIGAND FREE ENERGY PREDICTED BY IDOCK:   -5.42 KCAL/MOL
REMARK 924 INTRA-LIGAND FREE ENERGY PREDICTED BY IDOCK:   -1.19 KCAL/MOL
REMARK 927      BINDING AFFINITY PREDICTED BY RF-SCORE:    0.00 PKD
ROOT
HETATM    1  C   UNL     1      -5.143  13.058  68.036  1.00  0.00    -0.096 C  
HETATM    2  C   UNL     1      -5.530  12.557  69.416  1.00  0.00    -0.075 C  
ENDROOT
BRANCH   2   3
HETATM    3  C   UNL     1      -5.145  11.093  69.597  1.00  0.00    -0.041 C  
BRANCH   3   4
HETATM    4  C   UNL     1      -6.275  10.313  70.258  1.00  0.00    -0.113 C  
BRANCH   4   5
HETATM    5  C   UNL     1      -6.798   9.221  69.333  1.00  0.00    -0.049 C  
BRANCH   5   6
HETATM    6  C   UNL     1      -6.234   9.403  67.930  1.00  0.00    -0.053 C  
BRANCH   6   7
HETATM    7  C   UNL     1      -7.326   9.233  66.886  1.00  0.00    -0.090 C  
BRANCH   7   8
HETATM    8  C   UNL     1      -8.581   9.998  67.291  1.00  0.00    -0.125 C  
BRANCH   8   9
HETATM    9  C   UNL     1      -8.364  11.485  67.059  1.00  0.00    -0.165 C  
BRANCH   9  10
HETATM   10  C   UNL     1      -9.564  12.136  66.378  1.00  0.00    -0.243 C  
BRANCH  10  11
HETATM   11  C   UNL     1     -10.576  12.681  67.400  1.00  0.00    -0.240 C  
BRANCH  11  12
HETATM   12  C   UNL     1      -9.864  13.435  68.525  1.00  0.00    -0.178 C  
BRANCH  12  13
HETATM   13  N   UNL     1     -10.345  14.880  68.730  1.00  0.00    -0.237 N  
HETATM   14  C   UNL     1     -11.544  15.202  67.846  1.00  0.00    -0.311 C  
HETATM   15  C   UNL     1     -10.733  15.105  70.195  1.00  0.00    -0.221 C  
BRANCH  13  16
HETATM   16  C   UNL     1      -9.165  15.869  68.414  1.00  0.00    -0.197 C  
BRANCH  16  17
HETATM   17  C   UNL     1      -8.551  15.638  67.028  1.00  0.00    -0.224 C  
BRANCH  17  18
HETATM   18  O   UNL     1      -9.199  16.422  66.031  1.00  0.00    -0.339 OA 
BRANCH  18  19
HETATM   19  C   UNL     1      -9.308  17.749  66.386  1.00  0.00    -0.249 A  
HETATM   20  C   UNL     1      -8.119  18.474  66.396  1.00  0.00    -0.295 A  
HETATM   21  C   UNL     1      -8.120  19.815  66.789  1.00  0.00    -0.333 A  
HETATM   22  C   UNL     1      -9.311  20.439  67.159  1.00  0.00    -0.537 A  
HETATM   23  C   UNL     1     -10.508  19.728  67.116  1.00  0.00    -0.592 A  
HETATM   24  C   UNL     1     -10.507  18.391  66.722  1.00  0.00    -0.415 A  
ENDBRANCH  18  19
ENDBRANCH  17  18
ENDBRANCH  16  17
ENDBRANCH  13  16
ENDBRANCH  12  13
ENDBRANCH  11  12
ENDBRANCH  10  11
ENDBRANCH   9  10
ENDBRANCH   8   9
ENDBRANCH   7   8
ENDBRANCH   6   7
ENDBRANCH   5   6
ENDBRANCH   4   5
ENDBRANCH   3   4
ENDBRANCH   2   3
TORSDOF 15
ENDMDL
MODEL      320
REMARK 921   NORMALIZED FREE ENERGY PREDICTED BY IDOCK:   -2.91 KCAL/MOL
REMARK 922        TOTAL FREE ENERGY PREDICTED BY IDOCK:   -6.59 KCAL/MOL
REMARK 923 INTER-LIGAND FREE ENERGY PREDICTED BY IDOCK:   -5.74 KCAL/MOL
REMARK 924 INTRA-LIGAND FREE ENERGY PREDICTED BY IDOCK:   -0.85 KCAL/MOL
REMARK 927      BINDING AFFINITY PREDICTED BY RF-SCORE:    0.00 PKD
ROOT
HETATM    1  C   UNL     1     -12.552  15.495  73.957  1.00  0.00    -0.766 C  
HETATM    2  C   UNL     1     -12.872  15.769  72.498  1.00  0.00    -0.545 C  
ENDROOT
BRANCH   2   3
HETATM    3  C   UNL     1     -11.600  15.819  71.657  1.00  0.00    -0.537 C  
BRANCH   3   4
HETATM    4  C   UNL     1     -11.930  15.762  70.170  1.00  0.00    -0.364 C  
BRANCH   4   5
HETATM    5  C   UNL     1     -12.730  14.508  69.837  1.00  0.00    -0.118 C  
BRANCH   5   6
HETATM    6  C   UNL     1     -11.845  13.492  69.125  1.00  0.00    -0.386 C  
BRANCH   6   7
HETATM    7  C   UNL     1     -12.253  13.356  67.666  1.00  0.00    -0.202 C  
BRANCH   7   8
HETATM    8  C   UNL     1     -11.033  13.450  66.756  1.00  0.00    -0.298 C  
BRANCH   8   9
HETATM    9  C   UNL     1     -10.655  12.060  66.271  1.00  0.00    -0.287 C  
BRANCH   9  10
HETATM   10  C   UNL     1      -9.380  11.551  66.937  1.00  0.00    -0.189 C  
BRANCH  10  11
HETATM   11  C   UNL     1      -9.430  10.034  67.184  1.00  0.00    -0.184 C  
BRANCH  11  12
HETATM   12  C   UNL     1      -8.777   9.675  68.519  1.00  0.00    -0.120 C  
BRANCH  12  13
HETATM   13  N   UNL     1      -9.700   8.945  69.507  1.00  0.00    -0.170 N  
HETATM   14  C   UNL     1     -10.858   9.832  69.951  1.00  0.00    -0.272 C  
HETATM   15  C   UNL     1     -10.265   7.676  68.862  1.00  0.00    -0.210 C  
BRANCH  13  16
HETATM   16  C   UNL     1      -8.865   8.488  70.758  1.00  0.00    -0.161 C  
BRANCH  16  17
HETATM   17  C   UNL     1      -8.893   6.970  70.969  1.00  0.00    -0.146 C  
BRANCH  17  18
HETATM   18  O   UNL     1      -8.433   6.614  72.270  1.00  0.00    -0.112 OA 
BRANCH  18  19
HETATM   19  C   UNL     1      -8.579   5.270  72.536  1.00  0.00    -0.121 A  
HETATM   20  C   UNL     1      -7.436   4.491  72.374  1.00  0.00    -0.082 A  
HETATM   21  C   UNL     1      -7.495   3.109  72.574  1.00  0.00    -0.052 A  
HETATM   22  C   UNL     1      -8.694   2.504  72.950  1.00  0.00    -0.075 A  
HETATM   23  C   UNL     1      -9.831   3.283  73.148  1.00  0.00    -0.175 A  
HETATM   24  C   UNL     1      -9.771   4.661  72.951  1.00  0.00    -0.168 A  
ENDBRANCH  18  19
ENDBRANCH  17  18
ENDBRANCH  16  17
ENDBRANCH  13  16
ENDBRANCH  12  13
ENDBRANCH  11  12
ENDBRANCH  10  11
ENDBRANCH   9  10
ENDBRANCH   8   9
ENDBRANCH   7   8
ENDBRANCH   6   7
ENDBRANCH   5   6
ENDBRANCH   4   5
ENDBRANCH   3   4
ENDBRANCH   2   3
TORSDOF 15
ENDMDL
MODEL      321
REMARK 921   NORMALIZED FREE ENERGY PREDICTED BY IDOCK:   -2.91 KCAL/MOL
REMARK 922        TOTAL FREE ENERGY PREDICTED BY IDOCK:   -6.58 KCAL/MOL
REMARK 923 INTER-LIGAND FREE ENERGY PREDICTED BY IDOCK:   -6.00 KCAL/MOL
REMARK 924 INTRA-LIGAND FREE ENERGY PREDICTED BY IDOCK:   -0.58 KCAL/MOL
REMARK 927      BINDING AFFINITY PREDICTED BY RF-SCORE:    0.00 PKD
ROOT
HETATM    1  C   UNL     1     -12.302  12.811  70.476  1.00  0.00    -0.355 C  
HETATM    2  C   UNL     1     -12.753  12.599  71.910  1.00  0.00    -0.186 C  
ENDROOT
BRANCH   2   3
HETATM    3  C   UNL     1     -13.441  11.248  72.076  1.00  0.00    -0.289 C  
BRANCH   3   4
HETATM    4  C   UNL     1     -12.416  10.122  72.138  1.00  0.00    -0.109 C  
BRANCH   4   5
HETATM    5  C   UNL     1     -12.039   9.650  70.739  1.00  0.00    -0.328 C  
BRANCH   5   6
HETATM    6  C   UNL     1     -10.891   8.651  70.810  1.00  0.00    -0.272 C  
BRANCH   6   7
HETATM    7  C   UNL     1     -10.455   8.234  69.415  1.00  0.00    -0.224 C  
BRANCH   7   8
HETATM    8  C   UNL     1      -8.934   8.171  69.323  1.00  0.00    -0.148 C  
BRANCH   8   9
HETATM    9  C   UNL     1      -8.513   8.205  67.863  1.00  0.00    -0.132 C  
BRANCH   9  10
HETATM   10  C   UNL     1      -8.392   6.803  67.273  1.00  0.00    -0.121 C  
BRANCH  10  11
HETATM   11  C   UNL     1      -7.657   6.813  65.921  1.00  0.00    -0.087 C  
BRANCH  11  12
HETATM   12  C   UNL     1      -8.230   7.887  64.995  1.00  0.00    -0.131 C  
BRANCH  12  13
HETATM   13  N   UNL     1      -7.195   8.887  64.458  1.00  0.00    -0.095 N  
HETATM   14  C   UNL     1      -5.980   8.982  65.374  1.00  0.00    -0.055 C  
HETATM   15  C   UNL     1      -6.731   8.468  63.060  1.00  0.00    -0.090 C  
BRANCH  13  16
HETATM   16  C   UNL     1      -7.867  10.301  64.311  1.00  0.00    -0.117 C  
BRANCH  16  17
HETATM   17  C   UNL     1      -9.326  10.220  63.849  1.00  0.00    -0.291 C  
BRANCH  17  18
HETATM   18  O   UNL     1     -10.228  10.280  64.951  1.00  0.00    -0.327 OA 
BRANCH  18  19
HETATM   19  C   UNL     1     -10.957  11.448  64.979  1.00  0.00    -0.204 A  
HETATM   20  C   UNL     1     -11.288  11.987  63.737  1.00  0.00    -0.526 A  
HETATM   21  C   UNL     1     -11.985  13.196  63.661  1.00  0.00    -0.580 A  
HETATM   22  C   UNL     1     -12.364  13.863  64.826  1.00  0.00    -0.429 A  
HETATM   23  C   UNL     1     -12.066  13.311  66.069  1.00  0.00    -0.491 A  
HETATM   24  C   UNL     1     -11.373  12.104  66.144  1.00  0.00    -0.414 A  
ENDBRANCH  18  19
ENDBRANCH  17  18
ENDBRANCH  16  17
ENDBRANCH  13  16
ENDBRANCH  12  13
ENDBRANCH  11  12
ENDBRANCH  10  11
ENDBRANCH   9  10
ENDBRANCH   8   9
ENDBRANCH   7   8
ENDBRANCH   6   7
ENDBRANCH   5   6
ENDBRANCH   4   5
ENDBRANCH   3   4
ENDBRANCH   2   3
TORSDOF 15
ENDMDL
MODEL      322
REMARK 921   NORMALIZED FREE ENERGY PREDICTED BY IDOCK:   -2.90 KCAL/MOL
REMARK 922        TOTAL FREE ENERGY PREDICTED BY IDOCK:   -6.56 KCAL/MOL
REMARK 923 INTER-LIGAND FREE ENERGY PREDICTED BY IDOCK:   -4.04 KCAL/MOL
REMARK 924 INTRA-LIGAND FREE ENERGY PREDICTED BY IDOCK:   -2.51 KCAL/MOL
REMARK 927      BINDING AFFINITY PREDICTED BY RF-SCORE:    0.00 PKD
ROOT
HETATM    1  C   UNL     1      -7.322   8.259  74.059  1.00  0.00    -0.211 C  
HETATM    2  C   UNL     1      -7.392   6.784  74.414  1.00  0.00    -0.100 C  
ENDROOT
BRANCH   2   3
HETATM    3  C   UNL     1      -6.420   5.969  73.568  1.00  0.00    -0.073 C  
BRANCH   3   4
HETATM    4  C   UNL     1      -5.903   6.791  72.393  1.00  0.00    -0.038 C  
BRANCH   4   5
HETATM    5  C   UNL     1      -6.265   6.135  71.066  1.00  0.00    -0.039 C  
BRANCH   5   6
HETATM    6  C   UNL     1      -7.659   6.564  70.628  1.00  0.00    -0.102 C  
BRANCH   6   7
HETATM    7  C   UNL     1      -8.344   5.451  69.851  1.00  0.00    -0.100 C  
BRANCH   7   8
HETATM    8  C   UNL     1      -7.313   4.516  69.229  1.00  0.00    -0.052 C  
BRANCH   8   9
HETATM    9  C   UNL     1      -7.412   4.590  67.713  1.00  0.00    -0.073 C  
BRANCH   9  10
HETATM   10  C   UNL     1      -8.459   5.601  67.260  1.00  0.00    -0.106 C  
BRANCH  10  11
HETATM   11  C   UNL     1      -7.883   6.607  66.249  1.00  0.00    -0.105 C  
BRANCH  11  12
HETATM   12  C   UNL     1      -7.520   7.925  66.935  1.00  0.00    -0.091 C  
BRANCH  12  13
HETATM   13  N   UNL     1      -8.307   9.146  66.432  1.00  0.00    -0.120 N  
HETATM   14  C   UNL     1      -7.505  10.432  66.587  1.00  0.00    -0.114 C  
HETATM   15  C   UNL     1      -8.676   8.965  64.956  1.00  0.00    -0.166 C  
BRANCH  13  16
HETATM   16  C   UNL     1      -9.658   9.256  67.229  1.00  0.00    -0.155 C  
BRANCH  16  17
HETATM   17  C   UNL     1      -9.471   9.088  68.741  1.00  0.00    -0.148 C  
BRANCH  17  18
HETATM   18  O   UNL     1     -10.695   9.280  69.444  1.00  0.00    -0.225 OA 
BRANCH  18  19
HETATM   19  C   UNL     1     -10.831   8.428  70.518  1.00  0.00    -0.232 A  
HETATM   20  C   UNL     1     -11.389   7.182  70.239  1.00  0.00    -0.305 A  
HETATM   21  C   UNL     1     -11.612   6.267  71.271  1.00  0.00    -0.336 A  
HETATM   22  C   UNL     1     -11.264   6.588  72.583  1.00  0.00    -0.284 A  
HETATM   23  C   UNL     1     -10.673   7.817  72.862  1.00  0.00    -0.446 A  
HETATM   24  C   UNL     1     -10.449   8.729  71.832  1.00  0.00    -0.423 A  
ENDBRANCH  18  19
ENDBRANCH  17  18
ENDBRANCH  16  17
ENDBRANCH  13  16
ENDBRANCH  12  13
ENDBRANCH  11  12
ENDBRANCH  10  11
ENDBRANCH   9  10
ENDBRANCH   8   9
ENDBRANCH   7   8
ENDBRANCH   6   7
ENDBRANCH   5   6
ENDBRANCH   4   5
ENDBRANCH   3   4
ENDBRANCH   2   3
TORSDOF 15
ENDMDL
MODEL      323
REMARK 921   NORMALIZED FREE ENERGY PREDICTED BY IDOCK:   -2.89 KCAL/MOL
REMARK 922        TOTAL FREE ENERGY PREDICTED BY IDOCK:   -6.55 KCAL/MOL
REMARK 923 INTER-LIGAND FREE ENERGY PREDICTED BY IDOCK:   -4.66 KCAL/MOL
REMARK 924 INTRA-LIGAND FREE ENERGY PREDICTED BY IDOCK:   -1.89 KCAL/MOL
REMARK 927      BINDING AFFINITY PREDICTED BY RF-SCORE:    0.00 PKD
ROOT
HETATM    1  C   UNL     1      -9.623   4.363  62.459  1.00  0.00    -0.111 C  
HETATM    2  C   UNL     1      -8.424   4.220  63.380  1.00  0.00    -0.104 C  
ENDROOT
BRANCH   2   3
HETATM    3  C   UNL     1      -8.582   5.086  64.625  1.00  0.00    -0.150 C  
BRANCH   3   4
HETATM    4  C   UNL     1      -8.152   6.522  64.346  1.00  0.00    -0.065 C  
BRANCH   4   5
HETATM    5  C   UNL     1      -7.436   7.121  65.550  1.00  0.00    -0.083 C  
BRANCH   5   6
HETATM    6  C   UNL     1      -6.911   6.015  66.457  1.00  0.00    -0.067 C  
BRANCH   6   7
HETATM    7  C   UNL     1      -7.377   6.228  67.888  1.00  0.00    -0.088 C  
BRANCH   7   8
HETATM    8  C   UNL     1      -8.747   6.897  67.914  1.00  0.00    -0.121 C  
BRANCH   8   9
HETATM    9  C   UNL     1      -9.816   5.850  68.185  1.00  0.00    -0.155 C  
BRANCH   9  10
HETATM   10  C   UNL     1      -9.211   4.484  68.488  1.00  0.00    -0.181 C  
BRANCH  10  11
HETATM   11  C   UNL     1      -9.741   3.904  69.811  1.00  0.00    -0.227 C  
BRANCH  11  12
HETATM   12  C   UNL     1     -10.361   5.000  70.679  1.00  0.00    -0.208 C  
BRANCH  12  13
HETATM   13  N   UNL     1     -10.067   4.869  72.182  1.00  0.00    -0.186 N  
HETATM   14  C   UNL     1     -11.184   5.473  73.025  1.00  0.00    -0.293 C  
HETATM   15  C   UNL     1      -9.902   3.394  72.560  1.00  0.00    -0.153 C  
BRANCH  13  16
HETATM   16  C   UNL     1      -8.704   5.579  72.509  1.00  0.00    -0.124 C  
BRANCH  16  17
HETATM   17  C   UNL     1      -8.445   6.804  71.623  1.00  0.00    -0.115 C  
BRANCH  17  18
HETATM   18  O   UNL     1      -8.812   8.013  72.281  1.00  0.00    -0.133 OA 
BRANCH  18  19
HETATM   19  C   UNL     1      -9.589   8.833  71.492  1.00  0.00    -0.284 A  
HETATM   20  C   UNL     1     -10.907   9.006  71.910  1.00  0.00    -0.413 A  
HETATM   21  C   UNL     1     -11.787   9.781  71.150  1.00  0.00    -0.466 A  
HETATM   22  C   UNL     1     -11.349  10.397  69.977  1.00  0.00    -0.384 A  
HETATM   23  C   UNL     1     -10.024  10.256  69.575  1.00  0.00    -0.252 A  
HETATM   24  C   UNL     1      -9.146   9.484  70.334  1.00  0.00    -0.296 A  
ENDBRANCH  18  19
ENDBRANCH  17  18
ENDBRANCH  16  17
ENDBRANCH  13  16
ENDBRANCH  12  13
ENDBRANCH  11  12
ENDBRANCH  10  11
ENDBRANCH   9  10
ENDBRANCH   8   9
ENDBRANCH   7   8
ENDBRANCH   6   7
ENDBRANCH   5   6
ENDBRANCH   4   5
ENDBRANCH   3   4
ENDBRANCH   2   3
TORSDOF 15
ENDMDL
MODEL      324
REMARK 921   NORMALIZED FREE ENERGY PREDICTED BY IDOCK:   -2.88 KCAL/MOL
REMARK 922        TOTAL FREE ENERGY PREDICTED BY IDOCK:   -6.53 KCAL/MOL
REMARK 923 INTER-LIGAND FREE ENERGY PREDICTED BY IDOCK:   -4.86 KCAL/MOL
REMARK 924 INTRA-LIGAND FREE ENERGY PREDICTED BY IDOCK:   -1.66 KCAL/MOL
REMARK 927      BINDING AFFINITY PREDICTED BY RF-SCORE:    0.00 PKD
ROOT
HETATM    1  C   UNL     1      -8.761   4.973  62.460  1.00  0.00    -0.115 C  
HETATM    2  C   UNL     1      -8.706   3.910  63.544  1.00  0.00    -0.102 C  
ENDROOT
BRANCH   2   3
HETATM    3  C   UNL     1      -9.582   4.292  64.732  1.00  0.00    -0.169 C  
BRANCH   3   4
HETATM    4  C   UNL     1      -9.279   3.408  65.936  1.00  0.00    -0.156 C  
BRANCH   4   5
HETATM    5  C   UNL     1      -9.366   4.203  67.233  1.00  0.00    -0.200 C  
BRANCH   5   6
HETATM    6  C   UNL     1      -9.159   5.686  66.958  1.00  0.00    -0.113 C  
BRANCH   6   7
HETATM    7  C   UNL     1     -10.167   6.522  67.730  1.00  0.00    -0.201 C  
BRANCH   7   8
HETATM    8  C   UNL     1      -9.457   7.524  68.633  1.00  0.00    -0.146 C  
BRANCH   8   9
HETATM    9  C   UNL     1      -7.953   7.323  68.527  1.00  0.00    -0.124 C  
BRANCH   9  10
HETATM   10  C   UNL     1      -7.255   7.538  69.866  1.00  0.00    -0.080 C  
BRANCH  10  11
HETATM   11  C   UNL     1      -6.760   6.213  70.472  1.00  0.00    -0.053 C  
BRANCH  11  12
HETATM   12  C   UNL     1      -7.637   5.790  71.651  1.00  0.00    -0.099 C  
BRANCH  12  13
HETATM   13  N   UNL     1      -8.329   4.428  71.477  1.00  0.00    -0.095 N  
HETATM   14  C   UNL     1      -7.683   3.611  70.364  1.00  0.00    -0.047 C  
HETATM   15  C   UNL     1      -8.260   3.630  72.783  1.00  0.00    -0.082 C  
BRANCH  13  16
HETATM   16  C   UNL     1      -9.852   4.656  71.161  1.00  0.00    -0.191 C  
BRANCH  16  17
HETATM   17  C   UNL     1     -10.428   5.886  71.872  1.00  0.00    -0.220 C  
BRANCH  17  18
HETATM   18  O   UNL     1     -11.847   5.943  71.750  1.00  0.00    -0.204 OA 
BRANCH  18  19
HETATM   19  C   UNL     1     -12.325   7.234  71.703  1.00  0.00    -0.352 A  
HETATM   20  C   UNL     1     -13.711   7.369  71.740  1.00  0.00    -0.417 A  
HETATM   21  C   UNL     1     -14.294   8.636  71.648  1.00  0.00    -0.451 A  
HETATM   22  C   UNL     1     -13.493   9.772  71.534  1.00  0.00    -0.417 A  
HETATM   23  C   UNL     1     -12.107   9.645  71.532  1.00  0.00    -0.482 A  
HETATM   24  C   UNL     1     -11.526   8.381  71.626  1.00  0.00    -0.349 A  
ENDBRANCH  18  19
ENDBRANCH  17  18
ENDBRANCH  16  17
ENDBRANCH  13  16
ENDBRANCH  12  13
ENDBRANCH  11  12
ENDBRANCH  10  11
ENDBRANCH   9  10
ENDBRANCH   8   9
ENDBRANCH   7   8
ENDBRANCH   6   7
ENDBRANCH   5   6
ENDBRANCH   4   5
ENDBRANCH   3   4
ENDBRANCH   2   3
TORSDOF 15
ENDMDL
MODEL      325
REMARK 921   NORMALIZED FREE ENERGY PREDICTED BY IDOCK:   -2.88 KCAL/MOL
REMARK 922        TOTAL FREE ENERGY PREDICTED BY IDOCK:   -6.52 KCAL/MOL
REMARK 923 INTER-LIGAND FREE ENERGY PREDICTED BY IDOCK:   -5.66 KCAL/MOL
REMARK 924 INTRA-LIGAND FREE ENERGY PREDICTED BY IDOCK:   -0.87 KCAL/MOL
REMARK 927      BINDING AFFINITY PREDICTED BY RF-SCORE:    0.00 PKD
ROOT
HETATM    1  C   UNL     1      -6.499  20.320  71.997  1.00  0.00     0.343 C  
HETATM    2  C   UNL     1      -5.226  19.731  71.415  1.00  0.00    -0.351 C  
ENDROOT
BRANCH   2   3
HETATM    3  C   UNL     1      -5.271  18.206  71.427  1.00  0.00    -0.136 C  
BRANCH   3   4
HETATM    4  C   UNL     1      -5.504  17.659  70.024  1.00  0.00    -0.239 C  
BRANCH   4   5
HETATM    5  C   UNL     1      -5.239  18.729  68.971  1.00  0.00    -0.192 C  
BRANCH   5   6
HETATM    6  C   UNL     1      -5.859  18.324  67.639  1.00  0.00    -0.157 C  
BRANCH   6   7
HETATM    7  C   UNL     1      -7.158  17.566  67.861  1.00  0.00    -0.186 C  
BRANCH   7   8
HETATM    8  C   UNL     1      -8.338  18.344  67.289  1.00  0.00    -0.251 C  
BRANCH   8   9
HETATM    9  C   UNL     1      -9.503  17.396  67.053  1.00  0.00    -0.268 C  
BRANCH   9  10
HETATM   10  C   UNL     1      -9.043  16.066  66.464  1.00  0.00    -0.319 C  
BRANCH  10  11
HETATM   11  C   UNL     1      -9.558  14.870  67.283  1.00  0.00    -0.216 C  
BRANCH  11  12
HETATM   12  C   UNL     1     -10.334  13.894  66.396  1.00  0.00    -0.289 C  
BRANCH  12  13
HETATM   13  N   UNL     1     -10.283  12.430  66.860  1.00  0.00    -0.223 N  
HETATM   14  C   UNL     1     -11.312  11.575  66.129  1.00  0.00    -0.131 C  
HETATM   15  C   UNL     1      -8.888  11.846  66.616  1.00  0.00    -0.191 C  
BRANCH  13  16
HETATM   16  C   UNL     1     -10.538  12.368  68.410  1.00  0.00    -0.236 C  
BRANCH  16  17
HETATM   17  C   UNL     1     -11.439  11.195  68.818  1.00  0.00    -0.299 C  
BRANCH  17  18
HETATM   18  O   UNL     1     -11.737  11.224  70.211  1.00  0.00    -0.316 OA 
BRANCH  18  19
HETATM   19  C   UNL     1     -11.395  10.054  70.852  1.00  0.00    -0.361 A  
HETATM   20  C   UNL     1     -10.065   9.659  70.725  1.00  0.00    -0.293 A  
HETATM   21  C   UNL     1      -9.632   8.461  71.300  1.00  0.00    -0.239 A  
HETATM   22  C   UNL     1     -10.524   7.661  72.015  1.00  0.00    -0.258 A  
HETATM   23  C   UNL     1     -11.846   8.070  72.175  1.00  0.00    -0.401 A  
HETATM   24  C   UNL     1     -12.276   9.266  71.603  1.00  0.00    -0.445 A  
ENDBRANCH  18  19
ENDBRANCH  17  18
ENDBRANCH  16  17
ENDBRANCH  13  16
ENDBRANCH  12  13
ENDBRANCH  11  12
ENDBRANCH  10  11
ENDBRANCH   9  10
ENDBRANCH   8   9
ENDBRANCH   7   8
ENDBRANCH   6   7
ENDBRANCH   5   6
ENDBRANCH   4   5
ENDBRANCH   3   4
ENDBRANCH   2   3
TORSDOF 15
ENDMDL
MODEL      326
REMARK 921   NORMALIZED FREE ENERGY PREDICTED BY IDOCK:   -2.83 KCAL/MOL
REMARK 922        TOTAL FREE ENERGY PREDICTED BY IDOCK:   -6.43 KCAL/MOL
REMARK 923 INTER-LIGAND FREE ENERGY PREDICTED BY IDOCK:   -5.39 KCAL/MOL
REMARK 924 INTRA-LIGAND FREE ENERGY PREDICTED BY IDOCK:   -1.04 KCAL/MOL
REMARK 927      BINDING AFFINITY PREDICTED BY RF-SCORE:    0.00 PKD
ROOT
HETATM    1  C   UNL     1     -10.493   2.317  72.772  1.00  0.00    -0.234 C  
HETATM    2  C   UNL     1     -11.259   3.351  73.577  1.00  0.00    -0.280 C  
ENDROOT
BRANCH   2   3
HETATM    3  C   UNL     1     -10.309   4.329  74.262  1.00  0.00    -0.287 C  
BRANCH   3   4
HETATM    4  C   UNL     1      -9.433   5.040  73.238  1.00  0.00    -0.143 C  
BRANCH   4   5
HETATM    5  C   UNL     1     -10.209   6.144  72.529  1.00  0.00    -0.206 C  
BRANCH   5   6
HETATM    6  C   UNL     1      -9.557   6.472  71.191  1.00  0.00    -0.181 C  
BRANCH   6   7
HETATM    7  C   UNL     1     -10.158   5.626  70.080  1.00  0.00    -0.295 C  
BRANCH   7   8
HETATM    8  C   UNL     1     -11.244   6.400  69.342  1.00  0.00    -0.459 C  
BRANCH   8   9
HETATM    9  C   UNL     1     -10.647   7.663  68.741  1.00  0.00    -0.169 C  
BRANCH   9  10
HETATM   10  C   UNL     1     -10.512   7.563  67.225  1.00  0.00    -0.391 C  
BRANCH  10  11
HETATM   11  C   UNL     1     -10.114   8.910  66.597  1.00  0.00    -0.357 C  
BRANCH  11  12
HETATM   12  C   UNL     1      -9.573   9.869  67.657  1.00  0.00    -0.148 C  
BRANCH  12  13
HETATM   13  N   UNL     1      -8.096  10.254  67.477  1.00  0.00    -0.110 N  
HETATM   14  C   UNL     1      -7.278   9.935  68.724  1.00  0.00    -0.076 C  
HETATM   15  C   UNL     1      -7.496   9.503  66.284  1.00  0.00    -0.097 C  
BRANCH  13  16
HETATM   16  C   UNL     1      -7.995  11.788  67.148  1.00  0.00    -0.166 C  
BRANCH  16  17
HETATM   17  C   UNL     1      -7.990  12.666  68.404  1.00  0.00    -0.134 C  
BRANCH  17  18
HETATM   18  O   UNL     1      -8.428  13.991  68.118  1.00  0.00    -0.155 OA 
BRANCH  18  19
HETATM   19  C   UNL     1      -9.741  14.206  68.476  1.00  0.00    -0.219 A  
HETATM   20  C   UNL     1     -10.190  15.521  68.374  1.00  0.00    -0.215 A  
HETATM   21  C   UNL     1     -11.493  15.849  68.759  1.00  0.00    -0.393 A  
HETATM   22  C   UNL     1     -12.355  14.860  69.235  1.00  0.00    -0.138 A  
HETATM   23  C   UNL     1     -11.922  13.539  69.305  1.00  0.00    -0.378 A  
HETATM   24  C   UNL     1     -10.623  13.213  68.918  1.00  0.00    -0.159 A  
ENDBRANCH  18  19
ENDBRANCH  17  18
ENDBRANCH  16  17
ENDBRANCH  13  16
ENDBRANCH  12  13
ENDBRANCH  11  12
ENDBRANCH  10  11
ENDBRANCH   9  10
ENDBRANCH   8   9
ENDBRANCH   7   8
ENDBRANCH   6   7
ENDBRANCH   5   6
ENDBRANCH   4   5
ENDBRANCH   3   4
ENDBRANCH   2   3
TORSDOF 15
ENDMDL
MODEL      327
REMARK 921   NORMALIZED FREE ENERGY PREDICTED BY IDOCK:   -2.83 KCAL/MOL
REMARK 922        TOTAL FREE ENERGY PREDICTED BY IDOCK:   -6.43 KCAL/MOL
REMARK 923 INTER-LIGAND FREE ENERGY PREDICTED BY IDOCK:   -4.38 KCAL/MOL
REMARK 924 INTRA-LIGAND FREE ENERGY PREDICTED BY IDOCK:   -2.05 KCAL/MOL
REMARK 927      BINDING AFFINITY PREDICTED BY RF-SCORE:    0.00 PKD
ROOT
HETATM    1  C   UNL     1      -9.342  12.935  67.474  1.00  0.00    -0.190 C  
HETATM    2  C   UNL     1     -10.696  12.358  67.101  1.00  0.00    -0.264 C  
ENDROOT
BRANCH   2   3
HETATM    3  C   UNL     1     -10.547  10.998  66.427  1.00  0.00    -0.308 C  
BRANCH   3   4
HETATM    4  C   UNL     1     -10.472  11.148  64.912  1.00  0.00    -0.372 C  
BRANCH   4   5
HETATM    5  C   UNL     1      -9.549  10.099  64.305  1.00  0.00    -0.354 C  
BRANCH   5   6
HETATM    6  C   UNL     1      -8.111  10.342  64.746  1.00  0.00    -0.151 C  
BRANCH   6   7
HETATM    7  C   UNL     1      -7.378   9.024  64.938  1.00  0.00    -0.100 C  
BRANCH   7   8
HETATM    8  C   UNL     1      -7.466   8.567  66.390  1.00  0.00    -0.087 C  
BRANCH   8   9
HETATM    9  C   UNL     1      -7.127   9.731  67.308  1.00  0.00    -0.085 C  
BRANCH   9  10
HETATM   10  C   UNL     1      -8.043   9.779  68.527  1.00  0.00    -0.104 C  
BRANCH  10  11
HETATM   11  C   UNL     1      -8.283   8.379  69.118  1.00  0.00    -0.120 C  
BRANCH  11  12
HETATM   12  C   UNL     1      -9.745   7.961  68.956  1.00  0.00    -0.162 C  
BRANCH  12  13
HETATM   13  N   UNL     1     -10.086   6.584  69.548  1.00  0.00    -0.172 N  
HETATM   14  C   UNL     1      -9.463   6.397  70.927  1.00  0.00    -0.175 C  
HETATM   15  C   UNL     1     -11.605   6.419  69.663  1.00  0.00    -0.282 C  
BRANCH  13  16
HETATM   16  C   UNL     1      -9.578   5.460  68.573  1.00  0.00    -0.129 C  
BRANCH  16  17
HETATM   17  C   UNL     1      -9.833   5.793  67.098  1.00  0.00    -0.146 C  
BRANCH  17  18
HETATM   18  O   UNL     1     -10.367   4.676  66.394  1.00  0.00    -0.262 OA 
BRANCH  18  19
HETATM   19  C   UNL     1      -9.890   4.581  65.106  1.00  0.00    -0.142 A  
HETATM   20  C   UNL     1      -8.749   5.330  64.824  1.00  0.00    -0.109 A  
HETATM   21  C   UNL     1      -8.217   5.338  63.532  1.00  0.00    -0.122 A  
HETATM   22  C   UNL     1      -8.816   4.587  62.520  1.00  0.00    -0.124 A  
HETATM   23  C   UNL     1      -9.936   3.809  62.805  1.00  0.00    -0.152 A  
HETATM   24  C   UNL     1     -10.464   3.800  64.095  1.00  0.00    -0.267 A  
ENDBRANCH  18  19
ENDBRANCH  17  18
ENDBRANCH  16  17
ENDBRANCH  13  16
ENDBRANCH  12  13
ENDBRANCH  11  12
ENDBRANCH  10  11
ENDBRANCH   9  10
ENDBRANCH   8   9
ENDBRANCH   7   8
ENDBRANCH   6   7
ENDBRANCH   5   6
ENDBRANCH   4   5
ENDBRANCH   3   4
ENDBRANCH   2   3
TORSDOF 15
ENDMDL
MODEL      328
REMARK 921   NORMALIZED FREE ENERGY PREDICTED BY IDOCK:   -2.81 KCAL/MOL
REMARK 922        TOTAL FREE ENERGY PREDICTED BY IDOCK:   -6.40 KCAL/MOL
REMARK 923 INTER-LIGAND FREE ENERGY PREDICTED BY IDOCK:   -5.45 KCAL/MOL
REMARK 924 INTRA-LIGAND FREE ENERGY PREDICTED BY IDOCK:   -0.95 KCAL/MOL
REMARK 927      BINDING AFFINITY PREDICTED BY RF-SCORE:    0.00 PKD
ROOT
HETATM    1  C   UNL     1      -5.686  17.508  69.853  1.00  0.00    -0.250 C  
HETATM    2  C   UNL     1      -7.029  17.140  69.247  1.00  0.00    -0.186 C  
ENDROOT
BRANCH   2   3
HETATM    3  C   UNL     1      -7.585  18.286  68.408  1.00  0.00    -0.302 C  
BRANCH   3   4
HETATM    4  C   UNL     1      -9.007  17.982  67.950  1.00  0.00    -0.265 C  
BRANCH   4   5
HETATM    5  C   UNL     1      -9.688  17.002  68.897  1.00  0.00    -0.259 C  
BRANCH   5   6
HETATM    6  C   UNL     1     -10.918  16.396  68.235  1.00  0.00    -0.355 C  
BRANCH   6   7
HETATM    7  C   UNL     1     -10.513  15.397  67.162  1.00  0.00    -0.290 C  
BRANCH   7   8
HETATM    8  C   UNL     1      -9.523  14.381  67.720  1.00  0.00    -0.211 C  
BRANCH   8   9
HETATM    9  C   UNL     1     -10.252  13.419  68.645  1.00  0.00    -0.187 C  
BRANCH   9  10
HETATM   10  C   UNL     1      -9.980  11.963  68.279  1.00  0.00    -0.202 C  
BRANCH  10  11
HETATM   11  C   UNL     1     -11.208  11.072  68.531  1.00  0.00    -0.329 C  
BRANCH  11  12
HETATM   12  C   UNL     1     -10.817   9.593  68.544  1.00  0.00    -0.161 C  
BRANCH  12  13
HETATM   13  N   UNL     1     -10.503   9.028  69.939  1.00  0.00    -0.208 N  
HETATM   14  C   UNL     1      -9.077   9.354  70.367  1.00  0.00    -0.256 C  
HETATM   15  C   UNL     1     -11.476   9.602  70.973  1.00  0.00    -0.371 C  
BRANCH  13  16
HETATM   16  C   UNL     1     -10.716   7.470  69.927  1.00  0.00    -0.246 C  
BRANCH  16  17
HETATM   17  C   UNL     1     -10.625   6.869  68.520  1.00  0.00    -0.212 C  
BRANCH  17  18
HETATM   18  O   UNL     1      -9.295   6.463  68.209  1.00  0.00    -0.113 OA 
BRANCH  18  19
HETATM   19  C   UNL     1      -9.198   5.858  66.975  1.00  0.00    -0.119 A  
HETATM   20  C   UNL     1     -10.187   4.923  66.678  1.00  0.00    -0.291 A  
HETATM   21  C   UNL     1     -10.148   4.221  65.470  1.00  0.00    -0.235 A  
HETATM   22  C   UNL     1      -9.127   4.461  64.550  1.00  0.00    -0.152 A  
HETATM   23  C   UNL     1      -8.157   5.420  64.827  1.00  0.00    -0.123 A  
HETATM   24  C   UNL     1      -8.198   6.122  66.031  1.00  0.00    -0.127 A  
ENDBRANCH  18  19
ENDBRANCH  17  18
ENDBRANCH  16  17
ENDBRANCH  13  16
ENDBRANCH  12  13
ENDBRANCH  11  12
ENDBRANCH  10  11
ENDBRANCH   9  10
ENDBRANCH   8   9
ENDBRANCH   7   8
ENDBRANCH   6   7
ENDBRANCH   5   6
ENDBRANCH   4   5
ENDBRANCH   3   4
ENDBRANCH   2   3
TORSDOF 15
ENDMDL
MODEL      329
REMARK 921   NORMALIZED FREE ENERGY PREDICTED BY IDOCK:   -2.80 KCAL/MOL
REMARK 922        TOTAL FREE ENERGY PREDICTED BY IDOCK:   -6.38 KCAL/MOL
REMARK 923 INTER-LIGAND FREE ENERGY PREDICTED BY IDOCK:   -5.29 KCAL/MOL
REMARK 924 INTRA-LIGAND FREE ENERGY PREDICTED BY IDOCK:   -1.09 KCAL/MOL
REMARK 927      BINDING AFFINITY PREDICTED BY RF-SCORE:    0.00 PKD
ROOT
HETATM    1  C   UNL     1      -9.652  18.346  68.505  1.00  0.00    -0.368 C  
HETATM    2  C   UNL     1     -10.437  17.135  68.977  1.00  0.00    -0.321 C  
ENDROOT
BRANCH   2   3
HETATM    3  C   UNL     1     -10.840  16.250  67.802  1.00  0.00    -0.315 C  
BRANCH   3   4
HETATM    4  C   UNL     1     -11.710  15.089  68.271  1.00  0.00    -0.338 C  
BRANCH   4   5
HETATM    5  C   UNL     1     -10.856  13.964  68.842  1.00  0.00    -0.278 C  
BRANCH   5   6
HETATM    6  C   UNL     1      -9.544  13.855  68.075  1.00  0.00    -0.219 C  
BRANCH   6   7
HETATM    7  C   UNL     1      -9.730  13.034  66.809  1.00  0.00    -0.248 C  
BRANCH   7   8
HETATM    8  C   UNL     1     -10.024  11.577  67.150  1.00  0.00    -0.222 C  
BRANCH   8   9
HETATM    9  C   UNL     1      -8.797  10.951  67.793  1.00  0.00    -0.135 C  
BRANCH   9  10
HETATM   10  C   UNL     1      -9.158   9.737  68.644  1.00  0.00    -0.130 C  
BRANCH  10  11
HETATM   11  C   UNL     1      -9.593  10.142  70.063  1.00  0.00    -0.113 C  
BRANCH  11  12
HETATM   12  C   UNL     1      -9.724   8.914  70.965  1.00  0.00    -0.252 C  
BRANCH  12  13
HETATM   13  N   UNL     1     -11.170   8.459  71.219  1.00  0.00    -0.250 N  
HETATM   14  C   UNL     1     -11.411   8.155  72.694  1.00  0.00    -0.381 C  
HETATM   15  C   UNL     1     -12.153   9.545  70.770  1.00  0.00    -0.232 C  
BRANCH  13  16
HETATM   16  C   UNL     1     -11.472   7.183  70.352  1.00  0.00    -0.278 C  
BRANCH  16  17
HETATM   17  C   UNL     1     -10.257   6.260  70.210  1.00  0.00    -0.196 C  
BRANCH  17  18
HETATM   18  O   UNL     1     -10.544   4.942  70.670  1.00  0.00    -0.162 OA 
BRANCH  18  19
HETATM   19  C   UNL     1      -9.722   3.991  70.106  1.00  0.00    -0.195 A  
HETATM   20  C   UNL     1      -9.239   3.015  70.974  1.00  0.00    -0.200 A  
HETATM   21  C   UNL     1      -8.359   2.035  70.506  1.00  0.00    -0.072 A  
HETATM   22  C   UNL     1      -7.972   2.019  69.166  1.00  0.00    -0.056 A  
HETATM   23  C   UNL     1      -8.481   2.971  68.287  1.00  0.00    -0.103 A  
HETATM   24  C   UNL     1      -9.360   3.947  68.754  1.00  0.00    -0.231 A  
ENDBRANCH  18  19
ENDBRANCH  17  18
ENDBRANCH  16  17
ENDBRANCH  13  16
ENDBRANCH  12  13
ENDBRANCH  11  12
ENDBRANCH  10  11
ENDBRANCH   9  10
ENDBRANCH   8   9
ENDBRANCH   7   8
ENDBRANCH   6   7
ENDBRANCH   5   6
ENDBRANCH   4   5
ENDBRANCH   3   4
ENDBRANCH   2   3
TORSDOF 15
ENDMDL
MODEL      330
REMARK 921   NORMALIZED FREE ENERGY PREDICTED BY IDOCK:   -2.77 KCAL/MOL
REMARK 922        TOTAL FREE ENERGY PREDICTED BY IDOCK:   -6.33 KCAL/MOL
REMARK 923 INTER-LIGAND FREE ENERGY PREDICTED BY IDOCK:   -5.08 KCAL/MOL
REMARK 924 INTRA-LIGAND FREE ENERGY PREDICTED BY IDOCK:   -1.25 KCAL/MOL
REMARK 927      BINDING AFFINITY PREDICTED BY RF-SCORE:    0.00 PKD
ROOT
HETATM    1  C   UNL     1      -6.868   8.218  73.435  1.00  0.00    -0.142 C  
HETATM    2  C   UNL     1      -6.903   6.823  74.033  1.00  0.00    -0.071 C  
ENDROOT
BRANCH   2   3
HETATM    3  C   UNL     1      -6.252   5.809  73.098  1.00  0.00    -0.061 C  
BRANCH   3   4
HETATM    4  C   UNL     1      -6.075   6.394  71.702  1.00  0.00    -0.041 C  
BRANCH   4   5
HETATM    5  C   UNL     1      -6.980   5.689  70.697  1.00  0.00    -0.057 C  
BRANCH   5   6
HETATM    6  C   UNL     1      -8.337   6.377  70.636  1.00  0.00    -0.133 C  
BRANCH   6   7
HETATM    7  C   UNL     1      -9.432   5.376  70.306  1.00  0.00    -0.214 C  
BRANCH   7   8
HETATM    8  C   UNL     1      -8.923   4.325  69.325  1.00  0.00    -0.154 C  
BRANCH   8   9
HETATM    9  C   UNL     1      -9.782   4.345  68.071  1.00  0.00    -0.182 C  
BRANCH   9  10
HETATM   10  C   UNL     1     -10.688   5.571  68.021  1.00  0.00    -0.165 C  
BRANCH  10  11
HETATM   11  C   UNL     1     -10.455   6.404  66.749  1.00  0.00    -0.304 C  
BRANCH  11  12
HETATM   12  C   UNL     1      -9.671   7.678  67.067  1.00  0.00    -0.195 C  
BRANCH  12  13
HETATM   13  N   UNL     1      -8.323   7.799  66.337  1.00  0.00    -0.124 N  
HETATM   14  C   UNL     1      -7.220   8.278  67.274  1.00  0.00    -0.084 C  
HETATM   15  C   UNL     1      -7.920   6.444  65.746  1.00  0.00    -0.117 C  
BRANCH  13  16
HETATM   16  C   UNL     1      -8.473   8.796  65.131  1.00  0.00    -0.174 C  
BRANCH  16  17
HETATM   17  C   UNL     1      -9.481   9.918  65.410  1.00  0.00    -0.257 C  
BRANCH  17  18
HETATM   18  O   UNL     1      -9.302  11.015  64.519  1.00  0.00    -0.209 OA 
BRANCH  18  19
HETATM   19  C   UNL     1     -10.310  11.948  64.614  1.00  0.00    -0.284 A  
HETATM   20  C   UNL     1     -11.305  11.869  63.642  1.00  0.00    -0.536 A  
HETATM   21  C   UNL     1     -12.345  12.802  63.626  1.00  0.00    -0.553 A  
HETATM   22  C   UNL     1     -12.402  13.809  64.591  1.00  0.00    -0.410 A  
HETATM   23  C   UNL     1     -11.429  13.870  65.585  1.00  0.00    -0.321 A  
HETATM   24  C   UNL     1     -10.393  12.938  65.602  1.00  0.00    -0.295 A  
ENDBRANCH  18  19
ENDBRANCH  17  18
ENDBRANCH  16  17
ENDBRANCH  13  16
ENDBRANCH  12  13
ENDBRANCH  11  12
ENDBRANCH  10  11
ENDBRANCH   9  10
ENDBRANCH   8   9
ENDBRANCH   7   8
ENDBRANCH   6   7
ENDBRANCH   5   6
ENDBRANCH   4   5
ENDBRANCH   3   4
ENDBRANCH   2   3
TORSDOF 15
ENDMDL
MODEL      331
REMARK 921   NORMALIZED FREE ENERGY PREDICTED BY IDOCK:   -2.77 KCAL/MOL
REMARK 922        TOTAL FREE ENERGY PREDICTED BY IDOCK:   -6.32 KCAL/MOL
REMARK 923 INTER-LIGAND FREE ENERGY PREDICTED BY IDOCK:   -5.11 KCAL/MOL
REMARK 924 INTRA-LIGAND FREE ENERGY PREDICTED BY IDOCK:   -1.21 KCAL/MOL
REMARK 927      BINDING AFFINITY PREDICTED BY RF-SCORE:    0.00 PKD
ROOT
HETATM    1  C   UNL     1      -9.535  20.441  66.453  1.00  0.00    -0.350 C  
HETATM    2  C   UNL     1     -10.718  19.507  66.266  1.00  0.00    -0.530 C  
ENDROOT
BRANCH   2   3
HETATM    3  C   UNL     1     -10.427  18.130  66.853  1.00  0.00    -0.372 C  
BRANCH   3   4
HETATM    4  C   UNL     1      -8.925  17.907  66.994  1.00  0.00    -0.254 C  
BRANCH   4   5
HETATM    5  C   UNL     1      -8.602  17.183  68.296  1.00  0.00    -0.241 C  
BRANCH   5   6
HETATM    6  C   UNL     1      -9.871  16.603  68.907  1.00  0.00    -0.261 C  
BRANCH   6   7
HETATM    7  C   UNL     1      -9.790  15.086  68.972  1.00  0.00    -0.236 C  
BRANCH   7   8
HETATM    8  C   UNL     1     -10.200  14.467  67.640  1.00  0.00    -0.225 C  
BRANCH   8   9
HETATM    9  C   UNL     1     -11.708  14.274  67.615  1.00  0.00    -0.421 C  
BRANCH   9  10
HETATM   10  C   UNL     1     -12.098  12.916  67.041  1.00  0.00    -0.296 C  
BRANCH  10  11
HETATM   11  C   UNL     1     -11.721  11.764  67.988  1.00  0.00    -0.363 C  
BRANCH  11  12
HETATM   12  C   UNL     1     -10.634  10.882  67.372  1.00  0.00    -0.243 C  
BRANCH  12  13
HETATM   13  N   UNL     1      -9.629  10.306  68.382  1.00  0.00    -0.146 N  
HETATM   14  C   UNL     1      -8.470  11.264  68.627  1.00  0.00    -0.143 C  
HETATM   15  C   UNL     1     -10.327  10.018  69.715  1.00  0.00    -0.255 C  
BRANCH  13  16
HETATM   16  C   UNL     1      -9.085   8.931  67.846  1.00  0.00    -0.139 C  
BRANCH  16  17
HETATM   17  C   UNL     1      -7.570   8.943  67.613  1.00  0.00    -0.093 C  
BRANCH  17  18
HETATM   18  O   UNL     1      -7.255   9.011  66.225  1.00  0.00    -0.088 OA 
BRANCH  18  19
HETATM   19  C   UNL     1      -7.165   7.769  65.638  1.00  0.00    -0.068 A  
HETATM   20  C   UNL     1      -7.842   7.618  64.429  1.00  0.00    -0.137 A  
HETATM   21  C   UNL     1      -7.850   6.380  63.780  1.00  0.00    -0.111 A  
HETATM   22  C   UNL     1      -7.170   5.293  64.330  1.00  0.00    -0.055 A  
HETATM   23  C   UNL     1      -6.463   5.449  65.519  1.00  0.00    -0.040 A  
HETATM   24  C   UNL     1      -6.453   6.684  66.165  1.00  0.00    -0.043 A  
ENDBRANCH  18  19
ENDBRANCH  17  18
ENDBRANCH  16  17
ENDBRANCH  13  16
ENDBRANCH  12  13
ENDBRANCH  11  12
ENDBRANCH  10  11
ENDBRANCH   9  10
ENDBRANCH   8   9
ENDBRANCH   7   8
ENDBRANCH   6   7
ENDBRANCH   5   6
ENDBRANCH   4   5
ENDBRANCH   3   4
ENDBRANCH   2   3
TORSDOF 15
ENDMDL
MODEL      332
REMARK 921   NORMALIZED FREE ENERGY PREDICTED BY IDOCK:   -2.73 KCAL/MOL
REMARK 922        TOTAL FREE ENERGY PREDICTED BY IDOCK:   -6.25 KCAL/MOL
REMARK 923 INTER-LIGAND FREE ENERGY PREDICTED BY IDOCK:   -5.13 KCAL/MOL
REMARK 924 INTRA-LIGAND FREE ENERGY PREDICTED BY IDOCK:   -1.12 KCAL/MOL
REMARK 927      BINDING AFFINITY PREDICTED BY RF-SCORE:    0.00 PKD
ROOT
HETATM    1  C   UNL     1      -8.851  20.475  67.275  1.00  0.00    -0.404 C  
HETATM    2  C   UNL     1     -10.154  19.697  67.221  1.00  0.00    -0.534 C  
ENDROOT
BRANCH   2   3
HETATM    3  C   UNL     1      -9.896  18.193  67.222  1.00  0.00    -0.316 C  
BRANCH   3   4
HETATM    4  C   UNL     1      -8.408  17.898  67.068  1.00  0.00    -0.248 C  
BRANCH   4   5
HETATM    5  C   UNL     1      -7.937  16.904  68.122  1.00  0.00    -0.195 C  
BRANCH   5   6
HETATM    6  C   UNL     1      -9.107  16.063  68.615  1.00  0.00    -0.213 C  
BRANCH   6   7
HETATM    7  C   UNL     1      -8.870  14.590  68.320  1.00  0.00    -0.179 C  
BRANCH   7   8
HETATM    8  C   UNL     1      -9.363  14.235  66.922  1.00  0.00    -0.268 C  
BRANCH   8   9
HETATM    9  C   UNL     1     -10.880  14.317  66.883  1.00  0.00    -0.298 C  
BRANCH   9  10
HETATM   10  C   UNL     1     -11.515  12.971  66.550  1.00  0.00    -0.385 C  
BRANCH  10  11
HETATM   11  C   UNL     1     -11.850  12.167  67.819  1.00  0.00    -0.327 C  
BRANCH  11  12
HETATM   12  C   UNL     1     -11.111  10.828  67.829  1.00  0.00    -0.318 C  
BRANCH  12  13
HETATM   13  N   UNL     1     -10.918  10.215  69.225  1.00  0.00    -0.231 N  
HETATM   14  C   UNL     1      -9.493  10.408  69.729  1.00  0.00    -0.003 C  
HETATM   15  C   UNL     1     -11.889  10.856  70.222  1.00  0.00    -0.361 C  
BRANCH  13  16
HETATM   16  C   UNL     1     -11.266   8.683  69.171  1.00  0.00     0.321 C  
BRANCH  16  17
HETATM   17  C   UNL     1     -10.168   7.803  69.779  1.00  0.00    -0.211 C  
BRANCH  17  18
HETATM   18  O   UNL     1     -10.398   7.562  71.165  1.00  0.00    -0.201 OA 
BRANCH  18  19
HETATM   19  C   UNL     1      -9.538   6.624  71.692  1.00  0.00    -0.162 A  
HETATM   20  C   UNL     1      -8.954   5.753  70.774  1.00  0.00    -0.156 A  
HETATM   21  C   UNL     1      -8.104   4.735  71.217  1.00  0.00    -0.101 A  
HETATM   22  C   UNL     1      -7.825   4.594  72.577  1.00  0.00    -0.088 A  
HETATM   23  C   UNL     1      -8.379   5.484  73.493  1.00  0.00    -0.113 A  
HETATM   24  C   UNL     1      -9.224   6.500  73.051  1.00  0.00    -0.141 A  
ENDBRANCH  18  19
ENDBRANCH  17  18
ENDBRANCH  16  17
ENDBRANCH  13  16
ENDBRANCH  12  13
ENDBRANCH  11  12
ENDBRANCH  10  11
ENDBRANCH   9  10
ENDBRANCH   8   9
ENDBRANCH   7   8
ENDBRANCH   6   7
ENDBRANCH   5   6
ENDBRANCH   4   5
ENDBRANCH   3   4
ENDBRANCH   2   3
TORSDOF 15
ENDMDL
MODEL      333
REMARK 921   NORMALIZED FREE ENERGY PREDICTED BY IDOCK:   -2.67 KCAL/MOL
REMARK 922        TOTAL FREE ENERGY PREDICTED BY IDOCK:   -6.14 KCAL/MOL
REMARK 923 INTER-LIGAND FREE ENERGY PREDICTED BY IDOCK:   -4.84 KCAL/MOL
REMARK 924 INTRA-LIGAND FREE ENERGY PREDICTED BY IDOCK:   -1.30 KCAL/MOL
REMARK 927      BINDING AFFINITY PREDICTED BY RF-SCORE:    0.00 PKD
ROOT
HETATM    1  C   UNL     1      -6.778   9.431  64.024  1.00  0.00    -0.096 C  
HETATM    2  C   UNL     1      -5.952   8.158  63.988  1.00  0.00    -0.065 C  
ENDROOT
BRANCH   2   3
HETATM    3  C   UNL     1      -6.825   6.945  63.682  1.00  0.00    -0.054 C  
BRANCH   3   4
HETATM    4  C   UNL     1      -7.737   6.622  64.860  1.00  0.00    -0.109 C  
BRANCH   4   5
HETATM    5  C   UNL     1      -7.005   5.787  65.904  1.00  0.00    -0.065 C  
BRANCH   5   6
HETATM    6  C   UNL     1      -7.470   6.167  67.304  1.00  0.00    -0.081 C  
BRANCH   6   7
HETATM    7  C   UNL     1      -7.567   7.677  67.447  1.00  0.00    -0.109 C  
BRANCH   7   8
HETATM    8  C   UNL     1      -8.764   8.061  68.309  1.00  0.00    -0.130 C  
BRANCH   8   9
HETATM    9  C   UNL     1      -9.327   9.390  67.832  1.00  0.00    -0.142 C  
BRANCH   9  10
HETATM   10  C   UNL     1     -10.440   9.897  68.743  1.00  0.00    -0.234 C  
BRANCH  10  11
HETATM   11  C   UNL     1     -10.225   9.465  70.203  1.00  0.00    -0.271 C  
BRANCH  11  12
HETATM   12  C   UNL     1     -11.532   9.539  70.994  1.00  0.00    -0.349 C  
BRANCH  12  13
HETATM   13  N   UNL     1     -11.986   8.204  71.606  1.00  0.00    -0.286 N  
HETATM   14  C   UNL     1     -13.460   8.237  71.991  1.00  0.00    -0.311 C  
HETATM   15  C   UNL     1     -11.757   7.062  70.612  1.00  0.00    -0.338 C  
BRANCH  13  16
HETATM   16  C   UNL     1     -11.108   7.889  72.872  1.00  0.00    -0.379 C  
BRANCH  16  17
HETATM   17  C   UNL     1     -10.230   6.646  72.691  1.00  0.00    -0.186 C  
BRANCH  17  18
HETATM   18  O   UNL     1     -10.624   5.595  73.569  1.00  0.00    -0.234 OA 
BRANCH  18  19
HETATM   19  C   UNL     1     -10.413   4.345  73.030  1.00  0.00    -0.183 A  
HETATM   20  C   UNL     1      -9.862   4.320  71.751  1.00  0.00    -0.250 A  
HETATM   21  C   UNL     1      -9.656   3.101  71.100  1.00  0.00    -0.230 A  
HETATM   22  C   UNL     1      -9.987   1.902  71.732  1.00  0.00    -0.219 A  
HETATM   23  C   UNL     1     -10.505   1.920  73.024  1.00  0.00    -0.223 A  
HETATM   24  C   UNL     1     -10.709   3.136  73.673  1.00  0.00    -0.297 A  
ENDBRANCH  18  19
ENDBRANCH  17  18
ENDBRANCH  16  17
ENDBRANCH  13  16
ENDBRANCH  12  13
ENDBRANCH  11  12
ENDBRANCH  10  11
ENDBRANCH   9  10
ENDBRANCH   8   9
ENDBRANCH   7   8
ENDBRANCH   6   7
ENDBRANCH   5   6
ENDBRANCH   4   5
ENDBRANCH   3   4
ENDBRANCH   2   3
TORSDOF 15
ENDMDL
MODEL      334
REMARK 921   NORMALIZED FREE ENERGY PREDICTED BY IDOCK:   -2.67 KCAL/MOL
REMARK 922        TOTAL FREE ENERGY PREDICTED BY IDOCK:   -6.14 KCAL/MOL
REMARK 923 INTER-LIGAND FREE ENERGY PREDICTED BY IDOCK:   -4.60 KCAL/MOL
REMARK 924 INTRA-LIGAND FREE ENERGY PREDICTED BY IDOCK:   -1.54 KCAL/MOL
REMARK 927      BINDING AFFINITY PREDICTED BY RF-SCORE:    0.00 PKD
ROOT
HETATM    1  C   UNL     1     -12.766  13.119  70.828  1.00  0.00    -0.260 C  
HETATM    2  C   UNL     1     -13.110  12.127  71.924  1.00  0.00    -0.475 C  
ENDROOT
BRANCH   2   3
HETATM    3  C   UNL     1     -13.280  10.721  71.359  1.00  0.00    -0.384 C  
BRANCH   3   4
HETATM    4  C   UNL     1     -12.002   9.908  71.534  1.00  0.00    -0.473 C  
BRANCH   4   5
HETATM    5  C   UNL     1     -11.218   9.837  70.229  1.00  0.00    -0.347 C  
BRANCH   5   6
HETATM    6  C   UNL     1      -9.722   9.812  70.514  1.00  0.00    -0.195 C  
BRANCH   6   7
HETATM    7  C   UNL     1      -9.122   8.472  70.117  1.00  0.00    -0.154 C  
BRANCH   7   8
HETATM    8  C   UNL     1      -8.026   8.661  69.075  1.00  0.00    -0.115 C  
BRANCH   8   9
HETATM    9  C   UNL     1      -7.878   7.387  68.258  1.00  0.00    -0.122 C  
BRANCH   9  10
HETATM   10  C   UNL     1      -6.480   7.251  67.664  1.00  0.00    -0.052 C  
BRANCH  10  11
HETATM   11  C   UNL     1      -6.161   5.796  67.281  1.00  0.00    -0.025 C  
BRANCH  11  12
HETATM   12  C   UNL     1      -6.668   4.825  68.349  1.00  0.00    -0.050 C  
BRANCH  12  13
HETATM   13  N   UNL     1      -7.377   3.579  67.796  1.00  0.00    -0.058 N  
HETATM   14  C   UNL     1      -7.875   3.804  66.373  1.00  0.00    -0.089 C  
HETATM   15  C   UNL     1      -6.422   2.381  67.805  1.00  0.00    -0.032 C  
BRANCH  13  16
HETATM   16  C   UNL     1      -8.582   3.208  68.735  1.00  0.00    -0.081 C  
BRANCH  16  17
HETATM   17  C   UNL     1      -8.689   4.129  69.956  1.00  0.00    -0.070 C  
BRANCH  17  18
HETATM   18  O   UNL     1     -10.043   4.298  70.367  1.00  0.00    -0.194 OA 
BRANCH  18  19
HETATM   19  C   UNL     1     -10.155   4.963  71.568  1.00  0.00    -0.197 A  
HETATM   20  C   UNL     1     -11.051   6.030  71.590  1.00  0.00    -0.333 A  
HETATM   21  C   UNL     1     -11.199   6.797  72.749  1.00  0.00    -0.267 A  
HETATM   22  C   UNL     1     -10.463   6.491  73.893  1.00  0.00    -0.329 A  
HETATM   23  C   UNL     1      -9.593   5.404  73.887  1.00  0.00    -0.142 A  
HETATM   24  C   UNL     1      -9.447   4.638  72.732  1.00  0.00    -0.156 A  
ENDBRANCH  18  19
ENDBRANCH  17  18
ENDBRANCH  16  17
ENDBRANCH  13  16
ENDBRANCH  12  13
ENDBRANCH  11  12
ENDBRANCH  10  11
ENDBRANCH   9  10
ENDBRANCH   8   9
ENDBRANCH   7   8
ENDBRANCH   6   7
ENDBRANCH   5   6
ENDBRANCH   4   5
ENDBRANCH   3   4
ENDBRANCH   2   3
TORSDOF 15
ENDMDL
MODEL      335
REMARK 921   NORMALIZED FREE ENERGY PREDICTED BY IDOCK:   -2.67 KCAL/MOL
REMARK 922        TOTAL FREE ENERGY PREDICTED BY IDOCK:   -6.14 KCAL/MOL
REMARK 923 INTER-LIGAND FREE ENERGY PREDICTED BY IDOCK:   -5.59 KCAL/MOL
REMARK 924 INTRA-LIGAND FREE ENERGY PREDICTED BY IDOCK:   -0.54 KCAL/MOL
REMARK 927      BINDING AFFINITY PREDICTED BY RF-SCORE:    0.00 PKD
ROOT
HETATM    1  C   UNL     1     -10.851  12.142  66.568  1.00  0.00    -0.307 C  
HETATM    2  C   UNL     1     -10.235  11.971  65.191  1.00  0.00    -0.308 C  
ENDROOT
BRANCH   2   3
HETATM    3  C   UNL     1     -11.310  11.734  64.135  1.00  0.00    -0.430 C  
BRANCH   3   4
HETATM    4  C   UNL     1     -12.143  12.992  63.917  1.00  0.00    -0.541 C  
BRANCH   4   5
HETATM    5  C   UNL     1     -11.269  14.239  63.959  1.00  0.00     0.178 C  
BRANCH   5   6
HETATM    6  C   UNL     1     -12.029  15.394  64.599  1.00  0.00    -0.176 C  
BRANCH   6   7
HETATM    7  C   UNL     1     -11.657  15.533  66.067  1.00  0.00     0.209 C  
BRANCH   7   8
HETATM    8  C   UNL     1     -10.176  15.863  66.218  1.00  0.00    -0.324 C  
BRANCH   8   9
HETATM    9  C   UNL     1     -10.025  17.210  66.906  1.00  0.00    -0.288 C  
BRANCH   9  10
HETATM   10  C   UNL     1     -10.587  17.192  68.324  1.00  0.00    -0.375 C  
BRANCH  10  11
HETATM   11  C   UNL     1     -10.874  15.760  68.807  1.00  0.00    -0.274 C  
BRANCH  11  12
HETATM   12  C   UNL     1     -12.238  15.677  69.493  1.00  0.00    -0.207 C  
BRANCH  12  13
HETATM   13  N   UNL     1     -12.222  14.991  70.868  1.00  0.00    -0.302 N  
HETATM   14  C   UNL     1     -10.805  14.618  71.291  1.00  0.00     0.702 C  
HETATM   15  C   UNL     1     -12.829  15.916  71.928  1.00  0.00    -0.393 C  
BRANCH  13  16
HETATM   16  C   UNL     1     -13.123  13.704  70.816  1.00  0.00    -0.052 C  
BRANCH  16  17
HETATM   17  C   UNL     1     -12.307  12.406  70.863  1.00  0.00    -0.262 C  
BRANCH  17  18
HETATM   18  O   UNL     1     -13.135  11.278  71.130  1.00  0.00    -0.310 OA 
BRANCH  18  19
HETATM   19  C   UNL     1     -12.422  10.101  71.207  1.00  0.00    -0.406 A  
HETATM   20  C   UNL     1     -11.306  10.013  70.377  1.00  0.00    -0.392 A  
HETATM   21  C   UNL     1     -10.547   8.840  70.347  1.00  0.00    -0.251 A  
HETATM   22  C   UNL     1     -10.892   7.758  71.157  1.00  0.00    -0.254 A  
HETATM   23  C   UNL     1     -11.985   7.855  72.014  1.00  0.00    -0.364 A  
HETATM   24  C   UNL     1     -12.741   9.025  72.045  1.00  0.00    -0.467 A  
ENDBRANCH  18  19
ENDBRANCH  17  18
ENDBRANCH  16  17
ENDBRANCH  13  16
ENDBRANCH  12  13
ENDBRANCH  11  12
ENDBRANCH  10  11
ENDBRANCH   9  10
ENDBRANCH   8   9
ENDBRANCH   7   8
ENDBRANCH   6   7
ENDBRANCH   5   6
ENDBRANCH   4   5
ENDBRANCH   3   4
ENDBRANCH   2   3
TORSDOF 15
ENDMDL
MODEL      336
REMARK 921   NORMALIZED FREE ENERGY PREDICTED BY IDOCK:   -2.62 KCAL/MOL
REMARK 922        TOTAL FREE ENERGY PREDICTED BY IDOCK:   -6.05 KCAL/MOL
REMARK 923 INTER-LIGAND FREE ENERGY PREDICTED BY IDOCK:   -5.04 KCAL/MOL
REMARK 924 INTRA-LIGAND FREE ENERGY PREDICTED BY IDOCK:   -1.01 KCAL/MOL
REMARK 927      BINDING AFFINITY PREDICTED BY RF-SCORE:    0.00 PKD
ROOT
HETATM    1  C   UNL     1      -9.355  17.895  68.155  1.00  0.00    -0.286 C  
HETATM    2  C   UNL     1      -9.554  17.622  66.675  1.00  0.00    -0.301 C  
ENDROOT
BRANCH   2   3
HETATM    3  C   UNL     1     -10.453  16.409  66.456  1.00  0.00    -0.282 C  
BRANCH   3   4
HETATM    4  C   UNL     1     -11.260  16.557  65.172  1.00  0.00    -0.029 C  
BRANCH   4   5
HETATM    5  C   UNL     1     -11.783  15.207  64.697  1.00  0.00    -0.348 C  
BRANCH   5   6
HETATM    6  C   UNL     1     -12.477  14.478  65.841  1.00  0.00    -0.203 C  
BRANCH   6   7
HETATM    7  C   UNL     1     -12.011  13.033  65.917  1.00  0.00    -0.491 C  
BRANCH   7   8
HETATM    8  C   UNL     1     -11.627  12.666  67.347  1.00  0.00    -0.421 C  
BRANCH   8   9
HETATM    9  C   UNL     1     -10.272  11.977  67.345  1.00  0.00    -0.216 C  
BRANCH   9  10
HETATM   10  C   UNL     1      -9.980  11.293  68.677  1.00  0.00    -0.210 C  
BRANCH  10  11
HETATM   11  C   UNL     1     -10.483   9.840  68.697  1.00  0.00    -0.233 C  
BRANCH  11  12
HETATM   12  C   UNL     1     -10.308   9.182  67.327  1.00  0.00    -0.270 C  
BRANCH  12  13
HETATM   13  N   UNL     1      -9.920   7.696  67.376  1.00  0.00    -0.173 N  
HETATM   14  C   UNL     1     -11.133   6.793  67.183  1.00  0.00    -0.333 C  
HETATM   15  C   UNL     1      -8.889   7.382  66.287  1.00  0.00    -0.159 C  
BRANCH  13  16
HETATM   16  C   UNL     1      -9.234   7.384  68.756  1.00  0.00    -0.144 C  
BRANCH  16  17
HETATM   17  C   UNL     1      -9.864   6.185  69.475  1.00  0.00    -0.159 C  
BRANCH  17  18
HETATM   18  O   UNL     1      -8.889   5.196  69.795  1.00  0.00    -0.103 OA 
BRANCH  18  19
HETATM   19  C   UNL     1      -8.469   4.486  68.692  1.00  0.00    -0.085 A  
HETATM   20  C   UNL     1      -9.475   3.890  67.935  1.00  0.00    -0.227 A  
HETATM   21  C   UNL     1      -9.146   3.108  66.824  1.00  0.00    -0.184 A  
HETATM   22  C   UNL     1      -7.811   2.932  66.459  1.00  0.00    -0.077 A  
HETATM   23  C   UNL     1      -6.804   3.555  67.191  1.00  0.00    -0.050 A  
HETATM   24  C   UNL     1      -7.133   4.337  68.298  1.00  0.00    -0.059 A  
ENDBRANCH  18  19
ENDBRANCH  17  18
ENDBRANCH  16  17
ENDBRANCH  13  16
ENDBRANCH  12  13
ENDBRANCH  11  12
ENDBRANCH  10  11
ENDBRANCH   9  10
ENDBRANCH   8   9
ENDBRANCH   7   8
ENDBRANCH   6   7
ENDBRANCH   5   6
ENDBRANCH   4   5
ENDBRANCH   3   4
ENDBRANCH   2   3
TORSDOF 15
ENDMDL
MODEL      337
REMARK 921   NORMALIZED FREE ENERGY PREDICTED BY IDOCK:   -2.62 KCAL/MOL
REMARK 922        TOTAL FREE ENERGY PREDICTED BY IDOCK:   -6.05 KCAL/MOL
REMARK 923 INTER-LIGAND FREE ENERGY PREDICTED BY IDOCK:   -4.81 KCAL/MOL
REMARK 924 INTRA-LIGAND FREE ENERGY PREDICTED BY IDOCK:   -1.23 KCAL/MOL
REMARK 927      BINDING AFFINITY PREDICTED BY RF-SCORE:    0.00 PKD
ROOT
HETATM    1  C   UNL     1      -5.126  18.270  70.576  1.00  0.00    -0.247 C  
HETATM    2  C   UNL     1      -6.301  17.456  70.066  1.00  0.00     0.081 C  
ENDROOT
BRANCH   2   3
HETATM    3  C   UNL     1      -6.776  17.968  68.709  1.00  0.00    -0.248 C  
BRANCH   3   4
HETATM    4  C   UNL     1      -7.513  16.874  67.945  1.00  0.00    -0.178 C  
BRANCH   4   5
HETATM    5  C   UNL     1      -8.383  16.045  68.883  1.00  0.00    -0.231 C  
BRANCH   5   6
HETATM    6  C   UNL     1      -8.952  14.840  68.146  1.00  0.00    -0.179 C  
BRANCH   6   7
HETATM    7  C   UNL     1      -7.842  14.047  67.474  1.00  0.00    -0.197 C  
BRANCH   7   8
HETATM    8  C   UNL     1      -6.662  13.864  68.423  1.00  0.00    -0.099 C  
BRANCH   8   9
HETATM    9  C   UNL     1      -6.824  12.558  69.185  1.00  0.00    -0.062 C  
BRANCH   9  10
HETATM   10  C   UNL     1      -6.385  11.356  68.354  1.00  0.00    -0.046 C  
BRANCH  10  11
HETATM   11  C   UNL     1      -7.566  10.720  67.600  1.00  0.00    -0.096 C  
BRANCH  11  12
HETATM   12  C   UNL     1      -8.816  10.677  68.480  1.00  0.00    -0.148 C  
BRANCH  12  13
HETATM   13  N   UNL     1      -9.511   9.307  68.536  1.00  0.00    -0.145 N  
HETATM   14  C   UNL     1      -9.189   8.465  67.307  1.00  0.00    -0.138 C  
HETATM   15  C   UNL     1      -9.073   8.543  69.790  1.00  0.00    -0.153 C  
BRANCH  13  16
HETATM   16  C   UNL     1     -11.065   9.518  68.651  1.00  0.00     0.012 C  
BRANCH  16  17
HETATM   17  C   UNL     1     -11.460  10.997  68.722  1.00  0.00    -0.305 C  
BRANCH  17  18
HETATM   18  O   UNL     1     -12.333  11.357  67.655  1.00  0.00    -0.226 OA 
BRANCH  18  19
HETATM   19  C   UNL     1     -11.754  12.238  66.768  1.00  0.00    -0.342 A  
HETATM   20  C   UNL     1     -11.044  11.662  65.717  1.00  0.00    -0.313 A  
HETATM   21  C   UNL     1     -10.381  12.473  64.792  1.00  0.00    -0.331 A  
HETATM   22  C   UNL     1     -10.437  13.862  64.907  1.00  0.00    -0.446 A  
HETATM   23  C   UNL     1     -11.175  14.443  65.935  1.00  0.00    -0.324 A  
HETATM   24  C   UNL     1     -11.838  13.633  66.856  1.00  0.00    -0.451 A  
ENDBRANCH  18  19
ENDBRANCH  17  18
ENDBRANCH  16  17
ENDBRANCH  13  16
ENDBRANCH  12  13
ENDBRANCH  11  12
ENDBRANCH  10  11
ENDBRANCH   9  10
ENDBRANCH   8   9
ENDBRANCH   7   8
ENDBRANCH   6   7
ENDBRANCH   5   6
ENDBRANCH   4   5
ENDBRANCH   3   4
ENDBRANCH   2   3
TORSDOF 15
ENDMDL
MODEL      338
REMARK 921   NORMALIZED FREE ENERGY PREDICTED BY IDOCK:   -2.58 KCAL/MOL
REMARK 922        TOTAL FREE ENERGY PREDICTED BY IDOCK:   -5.96 KCAL/MOL
REMARK 923 INTER-LIGAND FREE ENERGY PREDICTED BY IDOCK:   -4.48 KCAL/MOL
REMARK 924 INTRA-LIGAND FREE ENERGY PREDICTED BY IDOCK:   -1.48 KCAL/MOL
REMARK 927      BINDING AFFINITY PREDICTED BY RF-SCORE:    0.00 PKD
ROOT
HETATM    1  C   UNL     1     -11.052   9.225  71.398  1.00  0.00    -0.437 C  
HETATM    2  C   UNL     1     -11.406   8.346  72.584  1.00  0.00    -0.346 C  
ENDROOT
BRANCH   2   3
HETATM    3  C   UNL     1     -10.168   7.647  73.138  1.00  0.00    -0.401 C  
BRANCH   3   4
HETATM    4  C   UNL     1     -10.546   6.340  73.825  1.00  0.00    -0.261 C  
BRANCH   4   5
HETATM    5  C   UNL     1     -11.342   5.441  72.887  1.00  0.00    -0.365 C  
BRANCH   5   6
HETATM    6  C   UNL     1     -11.285   3.996  73.365  1.00  0.00    -0.313 C  
BRANCH   6   7
HETATM    7  C   UNL     1     -10.024   3.749  74.177  1.00  0.00    -0.181 C  
BRANCH   7   8
HETATM    8  C   UNL     1      -8.898   3.241  73.283  1.00  0.00    -0.083 C  
BRANCH   8   9
HETATM    9  C   UNL     1      -9.489   2.641  72.017  1.00  0.00    -0.190 C  
BRANCH   9  10
HETATM   10  C   UNL     1      -8.922   3.292  70.760  1.00  0.00    -0.165 C  
BRANCH  10  11
HETATM   11  C   UNL     1      -8.255   4.644  71.067  1.00  0.00    -0.091 C  
BRANCH  11  12
HETATM   12  C   UNL     1      -8.682   5.707  70.053  1.00  0.00    -0.130 C  
BRANCH  12  13
HETATM   13  N   UNL     1      -7.625   6.788  69.776  1.00  0.00    -0.102 N  
HETATM   14  C   UNL     1      -8.267   8.146  69.520  1.00  0.00    -0.121 C  
HETATM   15  C   UNL     1      -6.667   6.907  70.966  1.00  0.00    -0.054 C  
BRANCH  13  16
HETATM   16  C   UNL     1      -6.760   6.360  68.535  1.00  0.00    -0.068 C  
BRANCH  16  17
HETATM   17  C   UNL     1      -7.329   6.876  67.208  1.00  0.00    -0.091 C  
BRANCH  17  18
HETATM   18  O   UNL     1      -7.104   5.952  66.148  1.00  0.00    -0.067 OA 
BRANCH  18  19
HETATM   19  C   UNL     1      -8.267   5.366  65.697  1.00  0.00    -0.124 A  
HETATM   20  C   UNL     1      -9.416   5.655  66.430  1.00  0.00    -0.170 A  
HETATM   21  C   UNL     1     -10.635   5.069  66.081  1.00  0.00    -0.321 A  
HETATM   22  C   UNL     1     -10.713   4.205  64.989  1.00  0.00    -0.120 A  
HETATM   23  C   UNL     1      -9.575   3.941  64.232  1.00  0.00    -0.168 A  
HETATM   24  C   UNL     1      -8.359   4.527  64.579  1.00  0.00    -0.115 A  
ENDBRANCH  18  19
ENDBRANCH  17  18
ENDBRANCH  16  17
ENDBRANCH  13  16
ENDBRANCH  12  13
ENDBRANCH  11  12
ENDBRANCH  10  11
ENDBRANCH   9  10
ENDBRANCH   8   9
ENDBRANCH   7   8
ENDBRANCH   6   7
ENDBRANCH   5   6
ENDBRANCH   4   5
ENDBRANCH   3   4
ENDBRANCH   2   3
TORSDOF 15
ENDMDL
MODEL      339
REMARK 921   NORMALIZED FREE ENERGY PREDICTED BY IDOCK:   -2.57 KCAL/MOL
REMARK 922        TOTAL FREE ENERGY PREDICTED BY IDOCK:   -5.94 KCAL/MOL
REMARK 923 INTER-LIGAND FREE ENERGY PREDICTED BY IDOCK:   -5.34 KCAL/MOL
REMARK 924 INTRA-LIGAND FREE ENERGY PREDICTED BY IDOCK:   -0.60 KCAL/MOL
REMARK 927      BINDING AFFINITY PREDICTED BY RF-SCORE:    0.00 PKD
ROOT
HETATM    1  C   UNL     1      -9.822   4.539  69.217  1.00  0.00    -0.241 C  
HETATM    2  C   UNL     1      -9.035   5.808  69.491  1.00  0.00    -0.130 C  
ENDROOT
BRANCH   2   3
HETATM    3  C   UNL     1      -9.754   7.031  68.931  1.00  0.00    -0.144 C  
BRANCH   3   4
HETATM    4  C   UNL     1     -10.041   8.044  70.033  1.00  0.00    -0.196 C  
BRANCH   4   5
HETATM    5  C   UNL     1      -9.328   9.363  69.761  1.00  0.00    -0.217 C  
BRANCH   5   6
HETATM    6  C   UNL     1      -8.432   9.236  68.535  1.00  0.00    -0.123 C  
BRANCH   6   7
HETATM    7  C   UNL     1      -7.004   9.633  68.871  1.00  0.00    -0.059 C  
BRANCH   7   8
HETATM    8  C   UNL     1      -6.978  10.950  69.640  1.00  0.00    -0.128 C  
BRANCH   8   9
HETATM    9  C   UNL     1      -6.664  12.089  68.682  1.00  0.00    -0.080 C  
BRANCH   9  10
HETATM   10  C   UNL     1      -7.855  12.428  67.792  1.00  0.00    -0.154 C  
BRANCH  10  11
HETATM   11  C   UNL     1      -8.202  13.926  67.848  1.00  0.00    -0.164 C  
BRANCH  11  12
HETATM   12  C   UNL     1      -9.230  14.289  66.775  1.00  0.00    -0.264 C  
BRANCH  12  13
HETATM   13  N   UNL     1     -10.694  14.156  67.221  1.00  0.00    -0.277 N  
HETATM   14  C   UNL     1     -10.870  14.535  68.687  1.00  0.00    -0.251 C  
HETATM   15  C   UNL     1     -11.591  15.056  66.365  1.00  0.00    -0.172 C  
BRANCH  13  16
HETATM   16  C   UNL     1     -11.176  12.678  66.987  1.00  0.00    -0.300 C  
BRANCH  16  17
HETATM   17  C   UNL     1     -11.809  12.471  65.607  1.00  0.00    -0.438 C  
BRANCH  17  18
HETATM   18  O   UNL     1     -10.880  12.735  64.560  1.00  0.00    -0.308 OA 
BRANCH  18  19
HETATM   19  C   UNL     1     -10.147  11.624  64.205  1.00  0.00    -0.287 A  
HETATM   20  C   UNL     1      -9.833  11.509  62.853  1.00  0.00    -0.279 A  
HETATM   21  C   UNL     1      -9.134  10.393  62.388  1.00  0.00    -0.313 A  
HETATM   22  C   UNL     1      -8.734   9.393  63.275  1.00  0.00    -0.220 A  
HETATM   23  C   UNL     1      -9.015   9.520  64.633  1.00  0.00    -0.266 A  
HETATM   24  C   UNL     1      -9.710  10.636  65.097  1.00  0.00    -0.327 A  
ENDBRANCH  18  19
ENDBRANCH  17  18
ENDBRANCH  16  17
ENDBRANCH  13  16
ENDBRANCH  12  13
ENDBRANCH  11  12
ENDBRANCH  10  11
ENDBRANCH   9  10
ENDBRANCH   8   9
ENDBRANCH   7   8
ENDBRANCH   6   7
ENDBRANCH   5   6
ENDBRANCH   4   5
ENDBRANCH   3   4
ENDBRANCH   2   3
TORSDOF 15
ENDMDL
MODEL      340
REMARK 921   NORMALIZED FREE ENERGY PREDICTED BY IDOCK:   -2.56 KCAL/MOL
REMARK 922        TOTAL FREE ENERGY PREDICTED BY IDOCK:   -5.92 KCAL/MOL
REMARK 923 INTER-LIGAND FREE ENERGY PREDICTED BY IDOCK:   -4.46 KCAL/MOL
REMARK 924 INTRA-LIGAND FREE ENERGY PREDICTED BY IDOCK:   -1.46 KCAL/MOL
REMARK 927      BINDING AFFINITY PREDICTED BY RF-SCORE:    0.00 PKD
ROOT
HETATM    1  C   UNL     1      -7.012  13.898  69.207  1.00  0.00    -0.067 C  
HETATM    2  C   UNL     1      -6.627  12.432  69.289  1.00  0.00    -0.093 C  
ENDROOT
BRANCH   2   3
HETATM    3  C   UNL     1      -7.735  11.542  68.735  1.00  0.00    -0.124 C  
BRANCH   3   4
HETATM    4  C   UNL     1      -8.568  12.291  67.702  1.00  0.00    -0.169 C  
BRANCH   4   5
HETATM    5  C   UNL     1     -10.012  11.806  67.709  1.00  0.00    -0.198 C  
BRANCH   5   6
HETATM    6  C   UNL     1     -10.622  11.983  69.093  1.00  0.00    -0.067 C  
BRANCH   6   7
HETATM    7  C   UNL     1     -11.579  13.164  69.111  1.00  0.00    -0.368 C  
BRANCH   7   8
HETATM    8  C   UNL     1     -10.886  14.426  68.610  1.00  0.00    -0.260 C  
BRANCH   8   9
HETATM    9  C   UNL     1     -11.580  14.920  67.351  1.00  0.00    -0.347 C  
BRANCH   9  10
HETATM   10  C   UNL     1     -10.621  15.665  66.428  1.00  0.00    -0.308 C  
BRANCH  10  11
HETATM   11  C   UNL     1     -10.820  15.268  64.955  1.00  0.00    -0.457 C  
BRANCH  11  12
HETATM   12  C   UNL     1     -10.415  13.811  64.723  1.00  0.00    -0.428 C  
BRANCH  12  13
HETATM   13  N   UNL     1     -11.538  12.915  64.176  1.00  0.00    -0.370 N  
HETATM   14  C   UNL     1     -12.605  12.648  65.232  1.00  0.00    -0.316 C  
HETATM   15  C   UNL     1     -12.196  13.575  62.961  1.00  0.00     0.310 C  
BRANCH  13  16
HETATM   16  C   UNL     1     -10.922  11.556  63.680  1.00  0.00    -0.404 C  
BRANCH  16  17
HETATM   17  C   UNL     1      -9.389  11.579  63.639  1.00  0.00    -0.093 C  
BRANCH  17  18
HETATM   18  O   UNL     1      -8.828  10.595  64.503  1.00  0.00    -0.190 OA 
BRANCH  18  19
HETATM   19  C   UNL     1      -7.670  10.044  64.001  1.00  0.00    -0.143 A  
HETATM   20  C   UNL     1      -7.140   8.980  64.727  1.00  0.00    -0.092 A  
HETATM   21  C   UNL     1      -5.941   8.385  64.325  1.00  0.00    -0.065 A  
HETATM   22  C   UNL     1      -5.275   8.844  63.188  1.00  0.00    -0.068 A  
HETATM   23  C   UNL     1      -5.820   9.884  62.439  1.00  0.00    -0.096 A  
HETATM   24  C   UNL     1      -7.017  10.475  62.839  1.00  0.00    -0.050 A  
ENDBRANCH  18  19
ENDBRANCH  17  18
ENDBRANCH  16  17
ENDBRANCH  13  16
ENDBRANCH  12  13
ENDBRANCH  11  12
ENDBRANCH  10  11
ENDBRANCH   9  10
ENDBRANCH   8   9
ENDBRANCH   7   8
ENDBRANCH   6   7
ENDBRANCH   5   6
ENDBRANCH   4   5
ENDBRANCH   3   4
ENDBRANCH   2   3
TORSDOF 15
ENDMDL
MODEL      341
REMARK 921   NORMALIZED FREE ENERGY PREDICTED BY IDOCK:   -2.55 KCAL/MOL
REMARK 922        TOTAL FREE ENERGY PREDICTED BY IDOCK:   -5.91 KCAL/MOL
REMARK 923 INTER-LIGAND FREE ENERGY PREDICTED BY IDOCK:   -4.89 KCAL/MOL
REMARK 924 INTRA-LIGAND FREE ENERGY PREDICTED BY IDOCK:   -1.02 KCAL/MOL
REMARK 927      BINDING AFFINITY PREDICTED BY RF-SCORE:    0.00 PKD
ROOT
HETATM    1  C   UNL     1      -5.850   7.564  65.308  1.00  0.00    -0.038 C  
HETATM    2  C   UNL     1      -6.097   6.898  66.650  1.00  0.00    -0.033 C  
ENDROOT
BRANCH   2   3
HETATM    3  C   UNL     1      -7.266   5.921  66.572  1.00  0.00    -0.074 C  
BRANCH   3   4
HETATM    4  C   UNL     1      -8.484   6.582  65.938  1.00  0.00    -0.147 C  
BRANCH   4   5
HETATM    5  C   UNL     1      -9.493   7.001  67.001  1.00  0.00    -0.184 C  
BRANCH   5   6
HETATM    6  C   UNL     1     -10.093   8.357  66.655  1.00  0.00    -0.358 C  
BRANCH   6   7
HETATM    7  C   UNL     1      -9.037   9.274  66.056  1.00  0.00    -0.235 C  
BRANCH   7   8
HETATM    8  C   UNL     1      -9.573   9.968  64.809  1.00  0.00    -0.374 C  
BRANCH   8   9
HETATM    9  C   UNL     1     -10.060  11.361  65.175  1.00  0.00    -0.319 C  
BRANCH   9  10
HETATM   10  C   UNL     1      -9.760  11.705  66.630  1.00  0.00    -0.221 C  
BRANCH  10  11
HETATM   11  C   UNL     1     -10.810  12.661  67.220  1.00  0.00    -0.277 C  
BRANCH  11  12
HETATM   12  C   UNL     1     -10.379  13.162  68.600  1.00  0.00    -0.196 C  
BRANCH  12  13
HETATM   13  N   UNL     1     -10.311  14.692  68.732  1.00  0.00    -0.243 N  
HETATM   14  C   UNL     1     -10.341  15.374  67.368  1.00  0.00    -0.262 C  
HETATM   15  C   UNL     1     -11.489  15.203  69.568  1.00  0.00    -0.296 C  
BRANCH  13  16
HETATM   16  C   UNL     1      -8.999  15.089  69.501  1.00  0.00    -0.054 C  
BRANCH  16  17
HETATM   17  C   UNL     1      -7.957  15.755  68.595  1.00  0.00    -0.155 C  
BRANCH  17  18
HETATM   18  O   UNL     1      -7.498  16.987  69.144  1.00  0.00    -0.235 OA 
BRANCH  18  19
HETATM   19  C   UNL     1      -7.026  17.854  68.184  1.00  0.00    -0.218 A  
HETATM   20  C   UNL     1      -5.723  17.625  67.746  1.00  0.00    -0.143 A  
HETATM   21  C   UNL     1      -5.139  18.481  66.808  1.00  0.00    -0.141 A  
HETATM   22  C   UNL     1      -5.859  19.560  66.295  1.00  0.00    -0.175 A  
HETATM   23  C   UNL     1      -7.173  19.772  66.703  1.00  0.00    -0.250 A  
HETATM   24  C   UNL     1      -7.757  18.917  67.636  1.00  0.00    -0.259 A  
ENDBRANCH  18  19
ENDBRANCH  17  18
ENDBRANCH  16  17
ENDBRANCH  13  16
ENDBRANCH  12  13
ENDBRANCH  11  12
ENDBRANCH  10  11
ENDBRANCH   9  10
ENDBRANCH   8   9
ENDBRANCH   7   8
ENDBRANCH   6   7
ENDBRANCH   5   6
ENDBRANCH   4   5
ENDBRANCH   3   4
ENDBRANCH   2   3
TORSDOF 15
ENDMDL
MODEL      342
REMARK 921   NORMALIZED FREE ENERGY PREDICTED BY IDOCK:   -2.54 KCAL/MOL
REMARK 922        TOTAL FREE ENERGY PREDICTED BY IDOCK:   -5.89 KCAL/MOL
REMARK 923 INTER-LIGAND FREE ENERGY PREDICTED BY IDOCK:   -5.01 KCAL/MOL
REMARK 924 INTRA-LIGAND FREE ENERGY PREDICTED BY IDOCK:   -0.88 KCAL/MOL
REMARK 927      BINDING AFFINITY PREDICTED BY RF-SCORE:    0.00 PKD
ROOT
HETATM    1  C   UNL     1     -12.538  15.381  73.163  1.00  0.00    -0.580 C  
HETATM    2  C   UNL     1     -12.814  15.532  71.678  1.00  0.00    -0.518 C  
ENDROOT
BRANCH   2   3
HETATM    3  C   UNL     1     -11.520  15.482  70.871  1.00  0.00    -0.410 C  
BRANCH   3   4
HETATM    4  C   UNL     1     -11.805  15.615  69.380  1.00  0.00    -0.391 C  
BRANCH   4   5
HETATM    5  C   UNL     1     -12.022  14.249  68.741  1.00  0.00    -0.346 C  
BRANCH   5   6
HETATM    6  C   UNL     1     -10.710  13.478  68.684  1.00  0.00    -0.271 C  
BRANCH   6   7
HETATM    7  C   UNL     1      -9.806  14.038  67.597  1.00  0.00    -0.233 C  
BRANCH   7   8
HETATM    8  C   UNL     1      -8.499  14.549  68.194  1.00  0.00    -0.157 C  
BRANCH   8   9
HETATM    9  C   UNL     1      -7.387  13.554  67.904  1.00  0.00    -0.149 C  
BRANCH   9  10
HETATM   10  C   UNL     1      -6.623  13.171  69.167  1.00  0.00    -0.104 C  
BRANCH  10  11
HETATM   11  C   UNL     1      -6.004  11.767  69.058  1.00  0.00    -0.061 C  
BRANCH  11  12
HETATM   12  C   UNL     1      -6.489  10.866  70.196  1.00  0.00    -0.145 C  
BRANCH  12  13
HETATM   13  N   UNL     1      -7.376   9.693  69.749  1.00  0.00    -0.088 N  
HETATM   14  C   UNL     1      -8.417  10.136  68.727  1.00  0.00    -0.131 C  
HETATM   15  C   UNL     1      -6.515   8.585  69.134  1.00  0.00    -0.043 C  
BRANCH  13  16
HETATM   16  C   UNL     1      -8.088   9.073  71.006  1.00  0.00    -0.159 C  
BRANCH  16  17
HETATM   17  C   UNL     1      -7.658   7.627  71.279  1.00  0.00    -0.080 C  
BRANCH  17  18
HETATM   18  O   UNL     1      -8.740   6.844  71.775  1.00  0.00    -0.121 OA 
BRANCH  18  19
HETATM   19  C   UNL     1      -8.947   5.697  71.042  1.00  0.00    -0.141 A  
HETATM   20  C   UNL     1      -8.476   5.720  69.731  1.00  0.00    -0.123 A  
HETATM   21  C   UNL     1      -8.681   4.621  68.893  1.00  0.00    -0.110 A  
HETATM   22  C   UNL     1      -9.345   3.489  69.367  1.00  0.00    -0.243 A  
HETATM   23  C   UNL     1      -9.786   3.447  70.687  1.00  0.00    -0.176 A  
HETATM   24  C   UNL     1      -9.579   4.543  71.523  1.00  0.00    -0.227 A  
ENDBRANCH  18  19
ENDBRANCH  17  18
ENDBRANCH  16  17
ENDBRANCH  13  16
ENDBRANCH  12  13
ENDBRANCH  11  12
ENDBRANCH  10  11
ENDBRANCH   9  10
ENDBRANCH   8   9
ENDBRANCH   7   8
ENDBRANCH   6   7
ENDBRANCH   5   6
ENDBRANCH   4   5
ENDBRANCH   3   4
ENDBRANCH   2   3
TORSDOF 15
ENDMDL
MODEL      343
REMARK 921   NORMALIZED FREE ENERGY PREDICTED BY IDOCK:   -2.49 KCAL/MOL
REMARK 922        TOTAL FREE ENERGY PREDICTED BY IDOCK:   -5.80 KCAL/MOL
REMARK 923 INTER-LIGAND FREE ENERGY PREDICTED BY IDOCK:   -4.38 KCAL/MOL
REMARK 924 INTRA-LIGAND FREE ENERGY PREDICTED BY IDOCK:   -1.42 KCAL/MOL
REMARK 927      BINDING AFFINITY PREDICTED BY RF-SCORE:    0.00 PKD
ROOT
HETATM    1  C   UNL     1     -10.845  11.093  68.808  1.00  0.00    -0.256 C  
HETATM    2  C   UNL     1     -10.625   9.596  68.688  1.00  0.00    -0.246 C  
ENDROOT
BRANCH   2   3
HETATM    3  C   UNL     1      -9.253   9.198  69.222  1.00  0.00    -0.146 C  
BRANCH   3   4
HETATM    4  C   UNL     1      -8.401  10.431  69.500  1.00  0.00    -0.126 C  
BRANCH   4   5
HETATM    5  C   UNL     1      -6.984  10.036  69.900  1.00  0.00    -0.118 C  
BRANCH   5   6
HETATM    6  C   UNL     1      -6.316   9.257  68.774  1.00  0.00    -0.048 C  
BRANCH   6   7
HETATM    7  C   UNL     1      -5.783  10.202  67.710  1.00  0.00    -0.042 C  
BRANCH   7   8
HETATM    8  C   UNL     1      -5.896   9.573  66.326  1.00  0.00    -0.058 C  
BRANCH   8   9
HETATM    9  C   UNL     1      -7.103  10.150  65.604  1.00  0.00    -0.133 C  
BRANCH   9  10
HETATM   10  C   UNL     1      -8.276   9.175  65.589  1.00  0.00    -0.121 C  
BRANCH  10  11
HETATM   11  C   UNL     1      -8.216   8.227  64.379  1.00  0.00    -0.130 C  
BRANCH  11  12
HETATM   12  C   UNL     1      -7.394   6.979  64.703  1.00  0.00    -0.090 C  
BRANCH  12  13
HETATM   13  N   UNL     1      -8.201   5.821  65.312  1.00  0.00    -0.134 N  
HETATM   14  C   UNL     1      -8.711   4.868  64.237  1.00  0.00    -0.130 C  
HETATM   15  C   UNL     1      -7.334   5.036  66.301  1.00  0.00    -0.082 C  
BRANCH  13  16
HETATM   16  C   UNL     1      -9.411   6.405  66.129  1.00  0.00    -0.076 C  
BRANCH  16  17
HETATM   17  C   UNL     1      -9.534   5.792  67.528  1.00  0.00    -0.112 C  
BRANCH  17  18
HETATM   18  O   UNL     1     -10.810   6.054  68.104  1.00  0.00    -0.275 OA 
BRANCH  18  19
HETATM   19  C   UNL     1     -10.812   5.923  69.475  1.00  0.00    -0.372 A  
HETATM   20  C   UNL     1     -11.745   6.701  70.158  1.00  0.00    -0.412 A  
HETATM   21  C   UNL     1     -11.793   6.674  71.554  1.00  0.00    -0.387 A  
HETATM   22  C   UNL     1     -10.917   5.858  72.272  1.00  0.00    -0.313 A  
HETATM   23  C   UNL     1     -10.007   5.053  71.593  1.00  0.00    -0.249 A  
HETATM   24  C   UNL     1      -9.962   5.079  70.200  1.00  0.00    -0.328 A  
ENDBRANCH  18  19
ENDBRANCH  17  18
ENDBRANCH  16  17
ENDBRANCH  13  16
ENDBRANCH  12  13
ENDBRANCH  11  12
ENDBRANCH  10  11
ENDBRANCH   9  10
ENDBRANCH   8   9
ENDBRANCH   7   8
ENDBRANCH   6   7
ENDBRANCH   5   6
ENDBRANCH   4   5
ENDBRANCH   3   4
ENDBRANCH   2   3
TORSDOF 15
ENDMDL
MODEL      344
REMARK 921   NORMALIZED FREE ENERGY PREDICTED BY IDOCK:   -2.47 KCAL/MOL
REMARK 922        TOTAL FREE ENERGY PREDICTED BY IDOCK:   -5.75 KCAL/MOL
REMARK 923 INTER-LIGAND FREE ENERGY PREDICTED BY IDOCK:   -4.78 KCAL/MOL
REMARK 924 INTRA-LIGAND FREE ENERGY PREDICTED BY IDOCK:   -0.97 KCAL/MOL
REMARK 927      BINDING AFFINITY PREDICTED BY RF-SCORE:    0.00 PKD
ROOT
HETATM    1  C   UNL     1      -5.540   7.767  64.879  1.00  0.00    -0.033 C  
HETATM    2  C   UNL     1      -5.412   7.360  66.337  1.00  0.00    -0.024 C  
ENDROOT
BRANCH   2   3
HETATM    3  C   UNL     1      -6.429   6.282  66.697  1.00  0.00    -0.046 C  
BRANCH   3   4
HETATM    4  C   UNL     1      -7.818   6.657  66.194  1.00  0.00    -0.102 C  
BRANCH   4   5
HETATM    5  C   UNL     1      -8.761   6.942  67.356  1.00  0.00    -0.119 C  
BRANCH   5   6
HETATM    6  C   UNL     1      -9.530   8.234  67.108  1.00  0.00    -0.206 C  
BRANCH   6   7
HETATM    7  C   UNL     1      -8.671   9.232  66.348  1.00  0.00    -0.148 C  
BRANCH   7   8
HETATM    8  C   UNL     1      -9.528  10.075  65.410  1.00  0.00    -0.310 C  
BRANCH   8   9
HETATM    9  C   UNL     1      -9.702  11.467  65.998  1.00  0.00    -0.253 C  
BRANCH   9  10
HETATM   10  C   UNL     1      -8.516  11.869  66.868  1.00  0.00    -0.174 C  
BRANCH  10  11
HETATM   11  C   UNL     1      -8.968  12.539  68.177  1.00  0.00    -0.199 C  
BRANCH  11  12
HETATM   12  C   UNL     1      -7.840  13.376  68.781  1.00  0.00    -0.009 C  
BRANCH  12  13
HETATM   13  N   UNL     1      -8.104  14.890  68.796  1.00  0.00    -0.154 N  
HETATM   14  C   UNL     1      -9.471  15.214  69.388  1.00  0.00    -0.183 C  
HETATM   15  C   UNL     1      -7.025  15.606  69.614  1.00  0.00    -0.167 C  
BRANCH  13  16
HETATM   16  C   UNL     1      -8.009  15.447  67.329  1.00  0.00    -0.202 C  
BRANCH  16  17
HETATM   17  C   UNL     1      -9.210  16.321  66.947  1.00  0.00    -0.218 C  
BRANCH  17  18
HETATM   18  O   UNL     1      -8.810  17.451  66.177  1.00  0.00    -0.442 OA 
BRANCH  18  19
HETATM   19  C   UNL     1      -8.192  18.420  66.937  1.00  0.00    -0.247 A  
HETATM   20  C   UNL     1      -7.420  19.342  66.233  1.00  0.00    -0.284 A  
HETATM   21  C   UNL     1      -6.714  20.334  66.919  1.00  0.00    -0.274 A  
HETATM   22  C   UNL     1      -6.790  20.417  68.310  1.00  0.00    -0.288 A  
HETATM   23  C   UNL     1      -7.589  19.520  69.014  1.00  0.00    -0.356 A  
HETATM   24  C   UNL     1      -8.294  18.532  68.329  1.00  0.00    -0.344 A  
ENDBRANCH  18  19
ENDBRANCH  17  18
ENDBRANCH  16  17
ENDBRANCH  13  16
ENDBRANCH  12  13
ENDBRANCH  11  12
ENDBRANCH  10  11
ENDBRANCH   9  10
ENDBRANCH   8   9
ENDBRANCH   7   8
ENDBRANCH   6   7
ENDBRANCH   5   6
ENDBRANCH   4   5
ENDBRANCH   3   4
ENDBRANCH   2   3
TORSDOF 15
ENDMDL
MODEL      345
REMARK 921   NORMALIZED FREE ENERGY PREDICTED BY IDOCK:   -2.40 KCAL/MOL
REMARK 922        TOTAL FREE ENERGY PREDICTED BY IDOCK:   -5.64 KCAL/MOL
REMARK 923 INTER-LIGAND FREE ENERGY PREDICTED BY IDOCK:   -4.89 KCAL/MOL
REMARK 924 INTRA-LIGAND FREE ENERGY PREDICTED BY IDOCK:   -0.75 KCAL/MOL
REMARK 927      BINDING AFFINITY PREDICTED BY RF-SCORE:    0.00 PKD
ROOT
HETATM    1  C   UNL     1      -5.689  17.509  69.849  1.00  0.00    -0.250 C  
HETATM    2  C   UNL     1      -7.032  17.152  69.237  1.00  0.00    -0.186 C  
ENDROOT
BRANCH   2   3
HETATM    3  C   UNL     1      -7.574  18.301  68.393  1.00  0.00    -0.302 C  
BRANCH   3   4
HETATM    4  C   UNL     1      -8.997  18.010  67.931  1.00  0.00    -0.265 C  
BRANCH   4   5
HETATM    5  C   UNL     1      -9.694  17.047  68.885  1.00  0.00    -0.259 C  
BRANCH   5   6
HETATM    6  C   UNL     1     -10.932  16.454  68.225  1.00  0.00    -0.355 C  
BRANCH   6   7
HETATM    7  C   UNL     1     -10.539  15.433  67.168  1.00  0.00    -0.305 C  
BRANCH   7   8
HETATM    8  C   UNL     1      -9.579  14.401  67.748  1.00  0.00    -0.216 C  
BRANCH   8   9
HETATM    9  C   UNL     1     -10.338  13.470  68.680  1.00  0.00    -0.220 C  
BRANCH   9  10
HETATM   10  C   UNL     1     -10.096  12.003  68.340  1.00  0.00    -0.211 C  
BRANCH  10  11
HETATM   11  C   UNL     1     -11.348  11.144  68.588  1.00  0.00    -0.342 C  
BRANCH  11  12
HETATM   12  C   UNL     1     -10.990   9.658  68.636  1.00  0.00    -0.111 C  
BRANCH  12  13
HETATM   13  N   UNL     1     -10.717   9.111  70.047  1.00  0.00    -0.226 N  
HETATM   14  C   UNL     1      -9.291   9.409  70.496  1.00  0.00    -0.262 C  
HETATM   15  C   UNL     1     -11.693   9.730  71.052  1.00  0.00    -0.370 C  
BRANCH  13  16
HETATM   16  C   UNL     1     -10.970   7.560  70.060  1.00  0.00    -0.240 C  
BRANCH  16  17
HETATM   17  C   UNL     1      -9.702   6.753  70.361  1.00  0.00    -0.175 C  
BRANCH  17  18
HETATM   18  O   UNL     1      -9.555   6.510  71.757  1.00  0.00    -0.154 OA 
BRANCH  18  19
HETATM   19  C   UNL     1      -8.457   5.731  72.049  1.00  0.00    -0.126 A  
HETATM   20  C   UNL     1      -8.268   4.618  71.232  1.00  0.00    -0.100 A  
HETATM   21  C   UNL     1      -7.210   3.739  71.479  1.00  0.00    -0.039 A  
HETATM   22  C   UNL     1      -6.329   3.977  72.534  1.00  0.00    -0.020 A  
HETATM   23  C   UNL     1      -6.493   5.107  73.332  1.00  0.00    -0.058 A  
HETATM   24  C   UNL     1      -7.548   5.985  73.084  1.00  0.00    -0.098 A  
ENDBRANCH  18  19
ENDBRANCH  17  18
ENDBRANCH  16  17
ENDBRANCH  13  16
ENDBRANCH  12  13
ENDBRANCH  11  12
ENDBRANCH  10  11
ENDBRANCH   9  10
ENDBRANCH   8   9
ENDBRANCH   7   8
ENDBRANCH   6   7
ENDBRANCH   5   6
ENDBRANCH   4   5
ENDBRANCH   3   4
ENDBRANCH   2   3
TORSDOF 15
ENDMDL
MODEL      346
REMARK 921   NORMALIZED FREE ENERGY PREDICTED BY IDOCK:   -2.34 KCAL/MOL
REMARK 922        TOTAL FREE ENERGY PREDICTED BY IDOCK:   -5.52 KCAL/MOL
REMARK 923 INTER-LIGAND FREE ENERGY PREDICTED BY IDOCK:   -5.26 KCAL/MOL
REMARK 924 INTRA-LIGAND FREE ENERGY PREDICTED BY IDOCK:   -0.26 KCAL/MOL
REMARK 927      BINDING AFFINITY PREDICTED BY RF-SCORE:    0.00 PKD
ROOT
HETATM    1  C   UNL     1     -12.971   7.702  71.877  1.00  0.00    -0.299 C  
HETATM    2  C   UNL     1     -12.762   9.045  71.201  1.00  0.00    -0.242 C  
ENDROOT
BRANCH   2   3
HETATM    3  C   UNL     1     -11.291   9.264  70.859  1.00  0.00    -0.373 C  
BRANCH   3   4
HETATM    4  C   UNL     1     -10.884   8.425  69.654  1.00  0.00    -0.153 C  
BRANCH   4   5
HETATM    5  C   UNL     1     -10.130   9.268  68.632  1.00  0.00    -0.207 C  
BRANCH   5   6
HETATM    6  C   UNL     1      -9.981  10.698  69.134  1.00  0.00    -0.228 C  
BRANCH   6   7
HETATM    7  C   UNL     1      -8.667  11.299  68.661  1.00  0.00    -0.136 C  
BRANCH   7   8
HETATM    8  C   UNL     1      -7.565  11.054  69.685  1.00  0.00     0.080 C  
BRANCH   8   9
HETATM    9  C   UNL     1      -6.279  11.716  69.214  1.00  0.00    -0.086 C  
BRANCH   9  10
HETATM   10  C   UNL     1      -5.498  12.330  70.370  1.00  0.00    -0.150 C  
BRANCH  10  11
HETATM   11  C   UNL     1      -5.164  13.809  70.114  1.00  0.00    -0.096 C  
BRANCH  11  12
HETATM   12  C   UNL     1      -6.363  14.703  70.434  1.00  0.00    -0.153 C  
BRANCH  12  13
HETATM   13  N   UNL     1      -7.010  15.368  69.209  1.00  0.00    -0.154 N  
HETATM   14  C   UNL     1      -6.421  14.837  67.907  1.00  0.00    -0.162 C  
HETATM   15  C   UNL     1      -8.521  15.116  69.208  1.00  0.00    -0.209 C  
BRANCH  13  16
HETATM   16  C   UNL     1      -6.807  16.924  69.294  1.00  0.00    -0.228 C  
BRANCH  16  17
HETATM   17  C   UNL     1      -5.703  17.431  68.359  1.00  0.00    -0.154 C  
BRANCH  17  18
HETATM   18  O   UNL     1      -6.224  18.303  67.359  1.00  0.00    -0.172 OA 
BRANCH  18  19
HETATM   19  C   UNL     1      -7.591  18.451  67.442  1.00  0.00    -0.218 A  
HETATM   20  C   UNL     1      -8.048  19.326  68.425  1.00  0.00    -0.378 A  
HETATM   21  C   UNL     1      -9.420  19.507  68.619  1.00  0.00    -0.462 A  
HETATM   22  C   UNL     1     -10.339  18.824  67.822  1.00  0.00    -0.467 A  
HETATM   23  C   UNL     1      -9.886  17.975  66.815  1.00  0.00    -0.335 A  
HETATM   24  C   UNL     1      -8.518  17.797  66.620  1.00  0.00    -0.283 A  
ENDBRANCH  18  19
ENDBRANCH  17  18
ENDBRANCH  16  17
ENDBRANCH  13  16
ENDBRANCH  12  13
ENDBRANCH  11  12
ENDBRANCH  10  11
ENDBRANCH   9  10
ENDBRANCH   8   9
ENDBRANCH   7   8
ENDBRANCH   6   7
ENDBRANCH   5   6
ENDBRANCH   4   5
ENDBRANCH   3   4
ENDBRANCH   2   3
TORSDOF 15
ENDMDL
MODEL      347
REMARK 921   NORMALIZED FREE ENERGY PREDICTED BY IDOCK:   -2.33 KCAL/MOL
REMARK 922        TOTAL FREE ENERGY PREDICTED BY IDOCK:   -5.49 KCAL/MOL
REMARK 923 INTER-LIGAND FREE ENERGY PREDICTED BY IDOCK:   -4.34 KCAL/MOL
REMARK 924 INTRA-LIGAND FREE ENERGY PREDICTED BY IDOCK:   -1.15 KCAL/MOL
REMARK 927      BINDING AFFINITY PREDICTED BY RF-SCORE:    0.00 PKD
ROOT
HETATM    1  C   UNL     1     -12.729  14.245  64.692  1.00  0.00    -0.137 C  
HETATM    2  C   UNL     1     -11.366  14.624  65.244  1.00  0.00    -0.354 C  
ENDROOT
BRANCH   2   3
HETATM    3  C   UNL     1     -10.418  13.429  65.234  1.00  0.00    -0.334 C  
BRANCH   3   4
HETATM    4  C   UNL     1     -10.963  12.296  66.097  1.00  0.00    -0.328 C  
BRANCH   4   5
HETATM    5  C   UNL     1     -11.602  12.839  67.370  1.00  0.00    -0.415 C  
BRANCH   5   6
HETATM    6  C   UNL     1     -11.338  11.896  68.536  1.00  0.00    -0.329 C  
BRANCH   6   7
HETATM    7  C   UNL     1     -10.289  10.861  68.162  1.00  0.00    -0.202 C  
BRANCH   7   8
HETATM    8  C   UNL     1     -10.746   9.463  68.564  1.00  0.00    -0.203 C  
BRANCH   8   9
HETATM    9  C   UNL     1     -11.379   9.514  69.946  1.00  0.00    -0.161 C  
BRANCH   9  10
HETATM   10  C   UNL     1     -10.332   9.455  71.053  1.00  0.00    -0.382 C  
BRANCH  10  11
HETATM   11  C   UNL     1      -9.326   8.313  70.829  1.00  0.00    -0.183 C  
BRANCH  11  12
HETATM   12  C   UNL     1      -9.629   7.129  71.748  1.00  0.00    -0.151 C  
BRANCH  12  13
HETATM   13  N   UNL     1      -8.580   6.885  72.844  1.00  0.00    -0.115 N  
HETATM   14  C   UNL     1      -8.022   8.196  73.387  1.00  0.00    -0.183 C  
HETATM   15  C   UNL     1      -9.197   6.091  73.999  1.00  0.00    -0.131 C  
BRANCH  13  16
HETATM   16  C   UNL     1      -7.413   6.007  72.259  1.00  0.00    -0.095 C  
BRANCH  16  17
HETATM   17  C   UNL     1      -7.920   4.764  71.518  1.00  0.00    -0.102 C  
BRANCH  17  18
HETATM   18  O   UNL     1      -7.183   4.534  70.320  1.00  0.00    -0.047 OA 
BRANCH  18  19
HETATM   19  C   UNL     1      -7.279   5.579  69.428  1.00  0.00    -0.065 A  
HETATM   20  C   UNL     1      -8.296   5.479  68.482  1.00  0.00    -0.101 A  
HETATM   21  C   UNL     1      -8.443   6.466  67.503  1.00  0.00    -0.116 A  
HETATM   22  C   UNL     1      -7.582   7.563  67.477  1.00  0.00    -0.113 A  
HETATM   23  C   UNL     1      -6.586   7.686  68.442  1.00  0.00    -0.054 A  
HETATM   24  C   UNL     1      -6.441   6.702  69.418  1.00  0.00    -0.043 A  
ENDBRANCH  18  19
ENDBRANCH  17  18
ENDBRANCH  16  17
ENDBRANCH  13  16
ENDBRANCH  12  13
ENDBRANCH  11  12
ENDBRANCH  10  11
ENDBRANCH   9  10
ENDBRANCH   8   9
ENDBRANCH   7   8
ENDBRANCH   6   7
ENDBRANCH   5   6
ENDBRANCH   4   5
ENDBRANCH   3   4
ENDBRANCH   2   3
TORSDOF 15
ENDMDL
MODEL      348
REMARK 921   NORMALIZED FREE ENERGY PREDICTED BY IDOCK:   -2.23 KCAL/MOL
REMARK 922        TOTAL FREE ENERGY PREDICTED BY IDOCK:   -5.31 KCAL/MOL
REMARK 923 INTER-LIGAND FREE ENERGY PREDICTED BY IDOCK:   -4.16 KCAL/MOL
REMARK 924 INTRA-LIGAND FREE ENERGY PREDICTED BY IDOCK:   -1.15 KCAL/MOL
REMARK 927      BINDING AFFINITY PREDICTED BY RF-SCORE:    0.00 PKD
ROOT
HETATM    1  C   UNL     1     -11.005   9.078  71.437  1.00  0.00    -0.394 C  
HETATM    2  C   UNL     1     -11.403   8.265  72.656  1.00  0.00    -0.421 C  
ENDROOT
BRANCH   2   3
HETATM    3  C   UNL     1     -10.203   7.524  73.237  1.00  0.00    -0.398 C  
BRANCH   3   4
HETATM    4  C   UNL     1     -10.643   6.245  73.939  1.00  0.00    -0.231 C  
BRANCH   4   5
HETATM    5  C   UNL     1     -11.422   5.342  72.991  1.00  0.00    -0.340 C  
BRANCH   5   6
HETATM    6  C   UNL     1     -11.031   3.886  73.209  1.00  0.00    -0.294 C  
BRANCH   6   7
HETATM    7  C   UNL     1      -9.553   3.771  73.545  1.00  0.00    -0.135 C  
BRANCH   7   8
HETATM    8  C   UNL     1      -8.737   3.479  72.291  1.00  0.00    -0.107 C  
BRANCH   8   9
HETATM    9  C   UNL     1      -9.653   2.929  71.208  1.00  0.00    -0.228 C  
BRANCH   9  10
HETATM   10  C   UNL     1      -9.114   3.213  69.810  1.00  0.00    -0.200 C  
BRANCH  10  11
HETATM   11  C   UNL     1      -7.896   4.152  69.846  1.00  0.00    -0.052 C  
BRANCH  11  12
HETATM   12  C   UNL     1      -7.986   5.206  68.742  1.00  0.00    -0.082 C  
BRANCH  12  13
HETATM   13  N   UNL     1      -6.631   5.764  68.277  1.00  0.00    -0.050 N  
HETATM   14  C   UNL     1      -5.658   5.912  69.442  1.00  0.00    -0.012 C  
HETATM   15  C   UNL     1      -6.011   4.837  67.227  1.00  0.00    -0.023 C  
BRANCH  13  16
HETATM   16  C   UNL     1      -6.853   7.157  67.583  1.00  0.00    -0.074 C  
BRANCH  16  17
HETATM   17  C   UNL     1      -6.331   8.328  68.423  1.00  0.00    -0.054 C  
BRANCH  17  18
HETATM   18  O   UNL     1      -7.395   9.150  68.895  1.00  0.00    -0.072 OA 
BRANCH  18  19
HETATM   19  C   UNL     1      -8.094   9.754  67.873  1.00  0.00    -0.112 A  
HETATM   20  C   UNL     1      -9.366   9.245  67.623  1.00  0.00    -0.146 A  
HETATM   21  C   UNL     1     -10.134   9.760  66.575  1.00  0.00    -0.307 A  
HETATM   22  C   UNL     1      -9.638  10.796  65.784  1.00  0.00    -0.254 A  
HETATM   23  C   UNL     1      -8.381  11.333  66.052  1.00  0.00    -0.071 A  
HETATM   24  C   UNL     1      -7.617  10.820  67.099  1.00  0.00    -0.105 A  
ENDBRANCH  18  19
ENDBRANCH  17  18
ENDBRANCH  16  17
ENDBRANCH  13  16
ENDBRANCH  12  13
ENDBRANCH  11  12
ENDBRANCH  10  11
ENDBRANCH   9  10
ENDBRANCH   8   9
ENDBRANCH   7   8
ENDBRANCH   6   7
ENDBRANCH   5   6
ENDBRANCH   4   5
ENDBRANCH   3   4
ENDBRANCH   2   3
TORSDOF 15
ENDMDL
MODEL      349
REMARK 921   NORMALIZED FREE ENERGY PREDICTED BY IDOCK:   -2.22 KCAL/MOL
REMARK 922        TOTAL FREE ENERGY PREDICTED BY IDOCK:   -5.28 KCAL/MOL
REMARK 923 INTER-LIGAND FREE ENERGY PREDICTED BY IDOCK:   -3.87 KCAL/MOL
REMARK 924 INTRA-LIGAND FREE ENERGY PREDICTED BY IDOCK:   -1.41 KCAL/MOL
REMARK 927      BINDING AFFINITY PREDICTED BY RF-SCORE:    0.00 PKD
ROOT
HETATM    1  C   UNL     1     -10.840  12.066  66.526  1.00  0.00    -0.314 C  
HETATM    2  C   UNL     1     -10.234  11.789  65.161  1.00  0.00    -0.309 C  
ENDROOT
BRANCH   2   3
HETATM    3  C   UNL     1     -11.277  11.222  64.203  1.00  0.00    -0.222 C  
BRANCH   3   4
HETATM    4  C   UNL     1     -12.365  12.251  63.916  1.00  0.00    -0.606 C  
BRANCH   4   5
HETATM    5  C   UNL     1     -11.761  13.625  63.654  1.00  0.00    -0.204 C  
BRANCH   5   6
HETATM    6  C   UNL     1     -12.547  14.697  64.399  1.00  0.00    -0.157 C  
BRANCH   6   7
HETATM    7  C   UNL     1     -11.857  15.058  65.705  1.00  0.00    -0.050 C  
BRANCH   7   8
HETATM    8  C   UNL     1     -10.521  15.741  65.437  1.00  0.00    -0.438 C  
BRANCH   8   9
HETATM    9  C   UNL     1     -10.399  16.977  66.314  1.00  0.00    -0.309 C  
BRANCH   9  10
HETATM   10  C   UNL     1      -9.476  16.740  67.505  1.00  0.00    -0.237 C  
BRANCH  10  11
HETATM   11  C   UNL     1      -8.672  15.437  67.356  1.00  0.00    -0.194 C  
BRANCH  11  12
HETATM   12  C   UNL     1      -8.626  14.669  68.678  1.00  0.00    -0.172 C  
BRANCH  12  13
HETATM   13  N   UNL     1      -7.263  14.037  69.002  1.00  0.00    -0.109 N  
HETATM   14  C   UNL     1      -6.200  14.449  67.991  1.00  0.00    -0.155 C  
HETATM   15  C   UNL     1      -6.806  14.459  70.403  1.00  0.00     0.161 C  
BRANCH  13  16
HETATM   16  C   UNL     1      -7.408  12.472  69.021  1.00  0.00     0.043 C  
BRANCH  16  17
HETATM   17  C   UNL     1      -6.891  11.812  67.738  1.00  0.00    -0.090 C  
BRANCH  17  18
HETATM   18  O   UNL     1      -6.786  10.399  67.882  1.00  0.00    -0.069 OA 
BRANCH  18  19
HETATM   19  C   UNL     1      -6.360   9.776  66.729  1.00  0.00    -0.065 A  
HETATM   20  C   UNL     1      -6.769  10.364  65.534  1.00  0.00    -0.121 A  
HETATM   21  C   UNL     1      -6.427   9.779  64.312  1.00  0.00    -0.118 A  
HETATM   22  C   UNL     1      -5.663   8.613  64.280  1.00  0.00    -0.065 A  
HETATM   23  C   UNL     1      -5.221   8.042  65.470  1.00  0.00    -0.028 A  
HETATM   24  C   UNL     1      -5.561   8.627  66.689  1.00  0.00    -0.040 A  
ENDBRANCH  18  19
ENDBRANCH  17  18
ENDBRANCH  16  17
ENDBRANCH  13  16
ENDBRANCH  12  13
ENDBRANCH  11  12
ENDBRANCH  10  11
ENDBRANCH   9  10
ENDBRANCH   8   9
ENDBRANCH   7   8
ENDBRANCH   6   7
ENDBRANCH   5   6
ENDBRANCH   4   5
ENDBRANCH   3   4
ENDBRANCH   2   3
TORSDOF 15
ENDMDL
MODEL      350
REMARK 921   NORMALIZED FREE ENERGY PREDICTED BY IDOCK:   -2.18 KCAL/MOL
REMARK 922        TOTAL FREE ENERGY PREDICTED BY IDOCK:   -5.21 KCAL/MOL
REMARK 923 INTER-LIGAND FREE ENERGY PREDICTED BY IDOCK:   -3.53 KCAL/MOL
REMARK 924 INTRA-LIGAND FREE ENERGY PREDICTED BY IDOCK:   -1.68 KCAL/MOL
REMARK 927      BINDING AFFINITY PREDICTED BY RF-SCORE:    0.00 PKD
ROOT
HETATM    1  C   UNL     1     -10.831  11.456  68.695  1.00  0.00    -0.249 C  
HETATM    2  C   UNL     1     -10.494   9.977  68.758  1.00  0.00    -0.229 C  
ENDROOT
BRANCH   2   3
HETATM    3  C   UNL     1      -9.154   9.748  69.449  1.00  0.00    -0.209 C  
BRANCH   3   4
HETATM    4  C   UNL     1      -8.178  10.874  69.127  1.00  0.00    -0.090 C  
BRANCH   4   5
HETATM    5  C   UNL     1      -6.834  10.642  69.805  1.00  0.00    -0.143 C  
BRANCH   5   6
HETATM    6  C   UNL     1      -6.199   9.356  69.292  1.00  0.00    -0.041 C  
BRANCH   6   7
HETATM    7  C   UNL     1      -6.044   9.400  67.780  1.00  0.00    -0.053 C  
BRANCH   7   8
HETATM    8  C   UNL     1      -5.703   8.017  67.234  1.00  0.00    -0.038 C  
BRANCH   8   9
HETATM    9  C   UNL     1      -6.814   7.551  66.306  1.00  0.00    -0.061 C  
BRANCH   9  10
HETATM   10  C   UNL     1      -8.103   7.254  67.066  1.00  0.00    -0.117 C  
BRANCH  10  11
HETATM   11  C   UNL     1      -8.689   5.884  66.685  1.00  0.00    -0.121 C  
BRANCH  11  12
HETATM   12  C   UNL     1      -7.766   4.751  67.136  1.00  0.00    -0.091 C  
BRANCH  12  13
HETATM   13  N   UNL     1      -8.430   3.711  68.052  1.00  0.00    -0.091 N  
HETATM   14  C   UNL     1      -8.891   2.487  67.269  1.00  0.00    -0.136 C  
HETATM   15  C   UNL     1      -7.450   3.264  69.141  1.00  0.00    -0.048 C  
BRANCH  13  16
HETATM   16  C   UNL     1      -9.654   4.372  68.784  1.00  0.00    -0.155 C  
BRANCH  16  17
HETATM   17  C   UNL     1      -9.323   4.814  70.215  1.00  0.00    -0.151 C  
BRANCH  17  18
HETATM   18  O   UNL     1      -9.853   6.106  70.499  1.00  0.00    -0.174 OA 
BRANCH  18  19
HETATM   19  C   UNL     1      -9.716   6.458  71.824  1.00  0.00    -0.159 A  
HETATM   20  C   UNL     1      -9.067   7.666  72.067  1.00  0.00    -0.167 A  
HETATM   21  C   UNL     1      -8.837   8.086  73.380  1.00  0.00    -0.334 A  
HETATM   22  C   UNL     1      -9.268   7.306  74.453  1.00  0.00    -0.169 A  
HETATM   23  C   UNL     1      -9.948   6.115  74.215  1.00  0.00    -0.294 A  
HETATM   24  C   UNL     1     -10.179   5.698  72.905  1.00  0.00    -0.212 A  
ENDBRANCH  18  19
ENDBRANCH  17  18
ENDBRANCH  16  17
ENDBRANCH  13  16
ENDBRANCH  12  13
ENDBRANCH  11  12
ENDBRANCH  10  11
ENDBRANCH   9  10
ENDBRANCH   8   9
ENDBRANCH   7   8
ENDBRANCH   6   7
ENDBRANCH   5   6
ENDBRANCH   4   5
ENDBRANCH   3   4
ENDBRANCH   2   3
TORSDOF 15
ENDMDL
MODEL      351
REMARK 921   NORMALIZED FREE ENERGY PREDICTED BY IDOCK:   -2.17 KCAL/MOL
REMARK 922        TOTAL FREE ENERGY PREDICTED BY IDOCK:   -5.19 KCAL/MOL
REMARK 923 INTER-LIGAND FREE ENERGY PREDICTED BY IDOCK:   -4.11 KCAL/MOL
REMARK 924 INTRA-LIGAND FREE ENERGY PREDICTED BY IDOCK:   -1.07 KCAL/MOL
REMARK 927      BINDING AFFINITY PREDICTED BY RF-SCORE:    0.00 PKD
ROOT
HETATM    1  C   UNL     1     -12.832  13.651  66.596  1.00  0.00     0.335 C  
HETATM    2  C   UNL     1     -11.508  13.011  66.220  1.00  0.00    -0.379 C  
ENDROOT
BRANCH   2   3
HETATM    3  C   UNL     1     -11.169  11.858  67.159  1.00  0.00    -0.377 C  
BRANCH   3   4
HETATM    4  C   UNL     1     -10.777  10.614  66.370  1.00  0.00    -0.198 C  
BRANCH   4   5
HETATM    5  C   UNL     1     -10.056   9.608  67.260  1.00  0.00    -0.267 C  
BRANCH   5   6
HETATM    6  C   UNL     1     -10.775   9.475  68.596  1.00  0.00    -0.218 C  
BRANCH   6   7
HETATM    7  C   UNL     1     -10.096   8.433  69.470  1.00  0.00    -0.200 C  
BRANCH   7   8
HETATM    8  C   UNL     1      -9.762   9.014  70.839  1.00  0.00    -0.329 C  
BRANCH   8   9
HETATM    9  C   UNL     1      -8.260   8.944  71.066  1.00  0.00    -0.217 C  
BRANCH   9  10
HETATM   10  C   UNL     1      -7.535   8.308  69.885  1.00  0.00    -0.065 C  
BRANCH  10  11
HETATM   11  C   UNL     1      -6.929   9.367  68.948  1.00  0.00    -0.063 C  
BRANCH  11  12
HETATM   12  C   UNL     1      -6.846  10.727  69.642  1.00  0.00    -0.133 C  
BRANCH  12  13
HETATM   13  N   UNL     1      -6.617  11.915  68.694  1.00  0.00    -0.061 N  
HETATM   14  C   UNL     1      -5.155  12.024  68.275  1.00  0.00    -0.049 C  
HETATM   15  C   UNL     1      -7.484  11.764  67.440  1.00  0.00    -0.143 C  
BRANCH  13  16
HETATM   16  C   UNL     1      -7.071  13.241  69.406  1.00  0.00     0.152 C  
BRANCH  16  17
HETATM   17  C   UNL     1      -8.013  14.087  68.541  1.00  0.00    -0.141 C  
BRANCH  17  18
HETATM   18  O   UNL     1      -7.379  15.281  68.090  1.00  0.00    -0.104 OA 
BRANCH  18  19
HETATM   19  C   UNL     1      -8.280  16.253  67.716  1.00  0.00    -0.149 A  
HETATM   20  C   UNL     1      -9.307  16.511  68.622  1.00  0.00    -0.241 A  
HETATM   21  C   UNL     1     -10.297  17.446  68.312  1.00  0.00    -0.374 A  
HETATM   22  C   UNL     1     -10.257  18.137  67.101  1.00  0.00    -0.376 A  
HETATM   23  C   UNL     1      -9.214  17.910  66.208  1.00  0.00    -0.204 A  
HETATM   24  C   UNL     1      -8.224  16.978  66.519  1.00  0.00    -0.314 A  
ENDBRANCH  18  19
ENDBRANCH  17  18
ENDBRANCH  16  17
ENDBRANCH  13  16
ENDBRANCH  12  13
ENDBRANCH  11  12
ENDBRANCH  10  11
ENDBRANCH   9  10
ENDBRANCH   8   9
ENDBRANCH   7   8
ENDBRANCH   6   7
ENDBRANCH   5   6
ENDBRANCH   4   5
ENDBRANCH   3   4
ENDBRANCH   2   3
TORSDOF 15
ENDMDL
MODEL      352
REMARK 921   NORMALIZED FREE ENERGY PREDICTED BY IDOCK:   -2.15 KCAL/MOL
REMARK 922        TOTAL FREE ENERGY PREDICTED BY IDOCK:   -5.16 KCAL/MOL
REMARK 923 INTER-LIGAND FREE ENERGY PREDICTED BY IDOCK:   -3.69 KCAL/MOL
REMARK 924 INTRA-LIGAND FREE ENERGY PREDICTED BY IDOCK:   -1.47 KCAL/MOL
REMARK 927      BINDING AFFINITY PREDICTED BY RF-SCORE:    0.00 PKD
ROOT
HETATM    1  C   UNL     1      -9.203  10.424  62.817  1.00  0.00    -0.323 C  
HETATM    2  C   UNL     1      -7.872   9.826  63.237  1.00  0.00    -0.139 C  
ENDROOT
BRANCH   2   3
HETATM    3  C   UNL     1      -7.636   8.481  62.559  1.00  0.00    -0.111 C  
BRANCH   3   4
HETATM    4  C   UNL     1      -7.609   7.354  63.585  1.00  0.00    -0.121 C  
BRANCH   4   5
HETATM    5  C   UNL     1      -6.971   7.818  64.888  1.00  0.00    -0.055 C  
BRANCH   5   6
HETATM    6  C   UNL     1      -7.745   7.269  66.080  1.00  0.00    -0.095 C  
BRANCH   6   7
HETATM    7  C   UNL     1      -9.080   6.696  65.634  1.00  0.00     0.077 C  
BRANCH   7   8
HETATM    8  C   UNL     1      -9.297   5.310  66.231  1.00  0.00    -0.159 C  
BRANCH   8   9
HETATM    9  C   UNL     1      -8.664   4.264  65.327  1.00  0.00    -0.124 C  
BRANCH   9  10
HETATM   10  C   UNL     1      -8.374   2.967  66.074  1.00  0.00    -0.096 C  
BRANCH  10  11
HETATM   11  C   UNL     1      -9.151   2.884  67.400  1.00  0.00    -0.209 C  
BRANCH  11  12
HETATM   12  C   UNL     1      -8.291   2.257  68.499  1.00  0.00    -0.057 C  
BRANCH  12  13
HETATM   13  N   UNL     1      -7.991   3.188  69.684  1.00  0.00    -0.049 N  
HETATM   14  C   UNL     1      -6.959   2.579  70.627  1.00  0.00    -0.033 C  
HETATM   15  C   UNL     1      -7.466   4.536  69.178  1.00  0.00    -0.056 C  
BRANCH  13  16
HETATM   16  C   UNL     1      -9.324   3.482  70.464  1.00  0.00    -0.160 C  
BRANCH  16  17
HETATM   17  C   UNL     1     -10.038   4.743  69.965  1.00  0.00    -0.238 C  
BRANCH  17  18
HETATM   18  O   UNL     1     -10.483   5.555  71.048  1.00  0.00    -0.229 OA 
BRANCH  18  19
HETATM   19  C   UNL     1     -10.716   6.860  70.673  1.00  0.00    -0.236 A  
HETATM   20  C   UNL     1     -11.519   7.605  71.535  1.00  0.00    -0.295 A  
HETATM   21  C   UNL     1     -11.852   8.924  71.217  1.00  0.00    -0.371 A  
HETATM   22  C   UNL     1     -11.372   9.508  70.044  1.00  0.00    -0.204 A  
HETATM   23  C   UNL     1     -10.540   8.779  69.198  1.00  0.00    -0.200 A  
HETATM   24  C   UNL     1     -10.206   7.464  69.517  1.00  0.00    -0.204 A  
ENDBRANCH  18  19
ENDBRANCH  17  18
ENDBRANCH  16  17
ENDBRANCH  13  16
ENDBRANCH  12  13
ENDBRANCH  11  12
ENDBRANCH  10  11
ENDBRANCH   9  10
ENDBRANCH   8   9
ENDBRANCH   7   8
ENDBRANCH   6   7
ENDBRANCH   5   6
ENDBRANCH   4   5
ENDBRANCH   3   4
ENDBRANCH   2   3
TORSDOF 15
ENDMDL
MODEL      353
REMARK 921   NORMALIZED FREE ENERGY PREDICTED BY IDOCK:   -2.13 KCAL/MOL
REMARK 922        TOTAL FREE ENERGY PREDICTED BY IDOCK:   -5.12 KCAL/MOL
REMARK 923 INTER-LIGAND FREE ENERGY PREDICTED BY IDOCK:   -3.83 KCAL/MOL
REMARK 924 INTRA-LIGAND FREE ENERGY PREDICTED BY IDOCK:   -1.28 KCAL/MOL
REMARK 927      BINDING AFFINITY PREDICTED BY RF-SCORE:    0.00 PKD
ROOT
HETATM    1  C   UNL     1     -10.099   9.474  70.711  1.00  0.00    -0.352 C  
HETATM    2  C   UNL     1     -10.228   9.603  69.204  1.00  0.00    -0.212 C  
ENDROOT
BRANCH   2   3
HETATM    3  C   UNL     1     -11.473  10.398  68.826  1.00  0.00    -0.240 C  
BRANCH   3   4
HETATM    4  C   UNL     1     -11.137  11.871  68.625  1.00  0.00    -0.295 C  
BRANCH   4   5
HETATM    5  C   UNL     1     -10.266  12.069  67.390  1.00  0.00    -0.216 C  
BRANCH   5   6
HETATM    6  C   UNL     1     -11.070  11.787  66.127  1.00  0.00    -0.358 C  
BRANCH   6   7
HETATM    7  C   UNL     1     -10.173  11.826  64.900  1.00  0.00    -0.315 C  
BRANCH   7   8
HETATM    8  C   UNL     1      -9.806  10.413  64.458  1.00  0.00    -0.405 C  
BRANCH   8   9
HETATM    9  C   UNL     1      -8.436  10.050  65.009  1.00  0.00    -0.167 C  
BRANCH   9  10
HETATM   10  C   UNL     1      -8.125   8.568  64.829  1.00  0.00    -0.151 C  
BRANCH  10  11
HETATM   11  C   UNL     1      -8.928   7.692  65.805  1.00  0.00    -0.095 C  
BRANCH  11  12
HETATM   12  C   UNL     1      -8.132   6.449  66.206  1.00  0.00    -0.114 C  
BRANCH  12  13
HETATM   13  N   UNL     1      -7.322   6.601  67.504  1.00  0.00    -0.093 N  
HETATM   14  C   UNL     1      -8.190   6.369  68.736  1.00  0.00    -0.121 C  
HETATM   15  C   UNL     1      -6.160   5.602  67.520  1.00  0.00    -0.026 C  
BRANCH  13  16
HETATM   16  C   UNL     1      -6.690   8.039  67.556  1.00  0.00    -0.069 C  
BRANCH  16  17
HETATM   17  C   UNL     1      -6.888   8.726  68.912  1.00  0.00    -0.061 C  
BRANCH  17  18
HETATM   18  O   UNL     1      -5.757   9.517  69.268  1.00  0.00    -0.035 OA 
BRANCH  18  19
HETATM   19  C   UNL     1      -5.866  10.822  68.844  1.00  0.00    -0.040 A  
HETATM   20  C   UNL     1      -5.199  11.770  69.617  1.00  0.00    -0.067 A  
HETATM   21  C   UNL     1      -5.290  13.127  69.296  1.00  0.00    -0.075 A  
HETATM   22  C   UNL     1      -6.036  13.540  68.191  1.00  0.00    -0.115 A  
HETATM   23  C   UNL     1      -6.675  12.593  67.394  1.00  0.00    -0.143 A  
HETATM   24  C   UNL     1      -6.582  11.240  67.715  1.00  0.00    -0.068 A  
ENDBRANCH  18  19
ENDBRANCH  17  18
ENDBRANCH  16  17
ENDBRANCH  13  16
ENDBRANCH  12  13
ENDBRANCH  11  12
ENDBRANCH  10  11
ENDBRANCH   9  10
ENDBRANCH   8   9
ENDBRANCH   7   8
ENDBRANCH   6   7
ENDBRANCH   5   6
ENDBRANCH   4   5
ENDBRANCH   3   4
ENDBRANCH   2   3
TORSDOF 15
ENDMDL
MODEL      354
REMARK 921   NORMALIZED FREE ENERGY PREDICTED BY IDOCK:   -2.08 KCAL/MOL
REMARK 922        TOTAL FREE ENERGY PREDICTED BY IDOCK:   -5.02 KCAL/MOL
REMARK 923 INTER-LIGAND FREE ENERGY PREDICTED BY IDOCK:   -3.22 KCAL/MOL
REMARK 924 INTRA-LIGAND FREE ENERGY PREDICTED BY IDOCK:   -1.81 KCAL/MOL
REMARK 927      BINDING AFFINITY PREDICTED BY RF-SCORE:    0.00 PKD
ROOT
HETATM    1  C   UNL     1      -9.832  13.350  68.246  1.00  0.00    -0.235 C  
HETATM    2  C   UNL     1      -9.595  12.233  67.246  1.00  0.00    -0.187 C  
ENDROOT
BRANCH   2   3
HETATM    3  C   UNL     1     -10.694  11.179  67.328  1.00  0.00    -0.304 C  
BRANCH   3   4
HETATM    4  C   UNL     1     -10.229   9.971  68.133  1.00  0.00    -0.205 C  
BRANCH   4   5
HETATM    5  C   UNL     1      -8.841   9.523  67.690  1.00  0.00    -0.121 C  
BRANCH   5   6
HETATM    6  C   UNL     1      -8.946   8.586  66.493  1.00  0.00    -0.194 C  
BRANCH   6   7
HETATM    7  C   UNL     1      -7.827   7.558  66.517  1.00  0.00    -0.102 C  
BRANCH   7   8
HETATM    8  C   UNL     1      -7.053   7.575  65.203  1.00  0.00    -0.063 C  
BRANCH   8   9
HETATM    9  C   UNL     1      -8.017   7.364  64.045  1.00  0.00    -0.091 C  
BRANCH   9  10
HETATM   10  C   UNL     1      -7.296   6.905  62.782  1.00  0.00    -0.076 C  
BRANCH  10  11
HETATM   11  C   UNL     1      -7.674   5.463  62.400  1.00  0.00    -0.067 C  
BRANCH  11  12
HETATM   12  C   UNL     1      -8.675   4.878  63.397  1.00  0.00    -0.111 C  
BRANCH  12  13
HETATM   13  N   UNL     1      -8.442   3.399  63.743  1.00  0.00    -0.090 N  
HETATM   14  C   UNL     1      -8.965   2.478  62.647  1.00  0.00    -0.087 C  
HETATM   15  C   UNL     1      -6.947   3.133  63.944  1.00  0.00    -0.048 C  
BRANCH  13  16
HETATM   16  C   UNL     1      -9.151   3.067  65.106  1.00  0.00    -0.148 C  
BRANCH  16  17
HETATM   17  C   UNL     1      -8.924   4.146  66.172  1.00  0.00    -0.126 C  
BRANCH  17  18
HETATM   18  O   UNL     1      -8.585   3.573  67.432  1.00  0.00    -0.094 OA 
BRANCH  18  19
HETATM   19  C   UNL     1      -8.596   4.494  68.455  1.00  0.00    -0.093 A  
HETATM   20  C   UNL     1      -9.855   4.890  68.902  1.00  0.00    -0.241 A  
HETATM   21  C   UNL     1      -9.970   5.857  69.905  1.00  0.00    -0.238 A  
HETATM   22  C   UNL     1      -8.828   6.421  70.473  1.00  0.00    -0.144 A  
HETATM   23  C   UNL     1      -7.568   6.003  70.055  1.00  0.00    -0.087 A  
HETATM   24  C   UNL     1      -7.453   5.036  69.056  1.00  0.00    -0.065 A  
ENDBRANCH  18  19
ENDBRANCH  17  18
ENDBRANCH  16  17
ENDBRANCH  13  16
ENDBRANCH  12  13
ENDBRANCH  11  12
ENDBRANCH  10  11
ENDBRANCH   9  10
ENDBRANCH   8   9
ENDBRANCH   7   8
ENDBRANCH   6   7
ENDBRANCH   5   6
ENDBRANCH   4   5
ENDBRANCH   3   4
ENDBRANCH   2   3
TORSDOF 15
ENDMDL
MODEL      355
REMARK 921   NORMALIZED FREE ENERGY PREDICTED BY IDOCK:   -2.07 KCAL/MOL
REMARK 922        TOTAL FREE ENERGY PREDICTED BY IDOCK:   -5.01 KCAL/MOL
REMARK 923 INTER-LIGAND FREE ENERGY PREDICTED BY IDOCK:   -4.36 KCAL/MOL
REMARK 924 INTRA-LIGAND FREE ENERGY PREDICTED BY IDOCK:   -0.65 KCAL/MOL
REMARK 927      BINDING AFFINITY PREDICTED BY RF-SCORE:    0.00 PKD
ROOT
HETATM    1  C   UNL     1      -5.762  17.572  69.840  1.00  0.00    -0.250 C  
HETATM    2  C   UNL     1      -7.107  17.631  69.140  1.00  0.00    -0.189 C  
ENDROOT
BRANCH   2   3
HETATM    3  C   UNL     1      -7.422  19.049  68.675  1.00  0.00    -0.361 C  
BRANCH   3   4
HETATM    4  C   UNL     1      -8.799  19.113  68.022  1.00  0.00    -0.353 C  
BRANCH   4   5
HETATM    5  C   UNL     1      -9.708  18.014  68.560  1.00  0.00    -0.357 C  
BRANCH   5   6
HETATM    6  C   UNL     1     -10.712  17.593  67.495  1.00  0.00    -0.294 C  
BRANCH   6   7
HETATM    7  C   UNL     1     -10.014  16.870  66.355  1.00  0.00    -0.321 C  
BRANCH   7   8
HETATM    8  C   UNL     1      -8.940  15.930  66.892  1.00  0.00    -0.257 C  
BRANCH   8   9
HETATM    9  C   UNL     1      -9.599  14.698  67.491  1.00  0.00    -0.206 C  
BRANCH   9  10
HETATM   10  C   UNL     1      -8.880  13.415  67.088  1.00  0.00    -0.225 C  
BRANCH  10  11
HETATM   11  C   UNL     1      -9.852  12.228  66.968  1.00  0.00    -0.211 C  
BRANCH  11  12
HETATM   12  C   UNL     1      -9.100  10.898  67.019  1.00  0.00    -0.149 C  
BRANCH  12  13
HETATM   13  N   UNL     1      -9.091  10.220  68.398  1.00  0.00    -0.132 N  
HETATM   14  C   UNL     1      -7.960  10.746  69.274  1.00  0.00    -0.106 C  
HETATM   15  C   UNL     1     -10.425  10.459  69.112  1.00  0.00    -0.227 C  
BRANCH  13  16
HETATM   16  C   UNL     1      -8.947   8.665  68.211  1.00  0.00    -0.142 C  
BRANCH  16  17
HETATM   17  C   UNL     1      -7.677   8.105  68.862  1.00  0.00    -0.103 C  
BRANCH  17  18
HETATM   18  O   UNL     1      -7.935   6.881  69.544  1.00  0.00    -0.119 OA 
BRANCH  18  19
HETATM   19  C   UNL     1      -7.496   5.779  68.844  1.00  0.00    -0.085 A  
HETATM   20  C   UNL     1      -6.422   5.091  69.405  1.00  0.00    -0.039 A  
HETATM   21  C   UNL     1      -5.874   3.988  68.745  1.00  0.00    -0.022 A  
HETATM   22  C   UNL     1      -6.407   3.561  67.529  1.00  0.00    -0.037 A  
HETATM   23  C   UNL     1      -7.502   4.223  66.981  1.00  0.00    -0.077 A  
HETATM   24  C   UNL     1      -8.050   5.322  67.641  1.00  0.00    -0.100 A  
ENDBRANCH  18  19
ENDBRANCH  17  18
ENDBRANCH  16  17
ENDBRANCH  13  16
ENDBRANCH  12  13
ENDBRANCH  11  12
ENDBRANCH  10  11
ENDBRANCH   9  10
ENDBRANCH   8   9
ENDBRANCH   7   8
ENDBRANCH   6   7
ENDBRANCH   5   6
ENDBRANCH   4   5
ENDBRANCH   3   4
ENDBRANCH   2   3
TORSDOF 15
ENDMDL
MODEL      356
REMARK 921   NORMALIZED FREE ENERGY PREDICTED BY IDOCK:   -2.02 KCAL/MOL
REMARK 922        TOTAL FREE ENERGY PREDICTED BY IDOCK:   -4.92 KCAL/MOL
REMARK 923 INTER-LIGAND FREE ENERGY PREDICTED BY IDOCK:   -3.65 KCAL/MOL
REMARK 924 INTRA-LIGAND FREE ENERGY PREDICTED BY IDOCK:   -1.28 KCAL/MOL
REMARK 927      BINDING AFFINITY PREDICTED BY RF-SCORE:    0.00 PKD
ROOT
HETATM    1  C   UNL     1      -5.141  18.257  70.585  1.00  0.00    -0.260 C  
HETATM    2  C   UNL     1      -6.240  17.378  70.016  1.00  0.00    -0.026 C  
ENDROOT
BRANCH   2   3
HETATM    3  C   UNL     1      -6.663  17.854  68.630  1.00  0.00    -0.239 C  
BRANCH   3   4
HETATM    4  C   UNL     1      -7.214  16.698  67.804  1.00  0.00    -0.154 C  
BRANCH   4   5
HETATM    5  C   UNL     1      -8.070  15.773  68.661  1.00  0.00    -0.161 C  
BRANCH   5   6
HETATM    6  C   UNL     1      -8.414  14.506  67.889  1.00  0.00    -0.161 C  
BRANCH   6   7
HETATM    7  C   UNL     1      -7.153  13.843  67.358  1.00  0.00    -0.091 C  
BRANCH   7   8
HETATM    8  C   UNL     1      -6.081  13.781  68.439  1.00  0.00    -0.101 C  
BRANCH   8   9
HETATM    9  C   UNL     1      -6.147  12.435  69.142  1.00  0.00    -0.087 C  
BRANCH   9  10
HETATM   10  C   UNL     1      -5.389  11.355  68.376  1.00  0.00    -0.042 C  
BRANCH  10  11
HETATM   11  C   UNL     1      -6.303  10.602  67.395  1.00  0.00    -0.058 C  
BRANCH  11  12
HETATM   12  C   UNL     1      -6.905   9.359  68.053  1.00  0.00    -0.074 C  
BRANCH  12  13
HETATM   13  N   UNL     1      -6.794   8.075  67.217  1.00  0.00    -0.072 N  
HETATM   14  C   UNL     1      -6.617   8.385  65.735  1.00  0.00    -0.053 C  
HETATM   15  C   UNL     1      -5.605   7.235  67.694  1.00  0.00    -0.029 C  
BRANCH  13  16
HETATM   16  C   UNL     1      -8.084   7.203  67.432  1.00  0.00    -0.112 C  
BRANCH  16  17
HETATM   17  C   UNL     1      -9.039   7.801  68.471  1.00  0.00    -0.132 C  
BRANCH  17  18
HETATM   18  O   UNL     1     -10.300   8.132  67.894  1.00  0.00    -0.210 OA 
BRANCH  18  19
HETATM   19  C   UNL     1     -10.630   9.458  68.063  1.00  0.00    -0.226 A  
HETATM   20  C   UNL     1     -10.186  10.326  67.068  1.00  0.00    -0.282 A  
HETATM   21  C   UNL     1     -10.430  11.698  67.175  1.00  0.00    -0.252 A  
HETATM   22  C   UNL     1     -11.131  12.204  68.269  1.00  0.00    -0.288 A  
HETATM   23  C   UNL     1     -11.608  11.337  69.248  1.00  0.00    -0.390 A  
HETATM   24  C   UNL     1     -11.367   9.968  69.140  1.00  0.00    -0.146 A  
ENDBRANCH  18  19
ENDBRANCH  17  18
ENDBRANCH  16  17
ENDBRANCH  13  16
ENDBRANCH  12  13
ENDBRANCH  11  12
ENDBRANCH  10  11
ENDBRANCH   9  10
ENDBRANCH   8   9
ENDBRANCH   7   8
ENDBRANCH   6   7
ENDBRANCH   5   6
ENDBRANCH   4   5
ENDBRANCH   3   4
ENDBRANCH   2   3
TORSDOF 15
ENDMDL
MODEL      357
REMARK 921   NORMALIZED FREE ENERGY PREDICTED BY IDOCK:   -1.97 KCAL/MOL
REMARK 922        TOTAL FREE ENERGY PREDICTED BY IDOCK:   -4.81 KCAL/MOL
REMARK 923 INTER-LIGAND FREE ENERGY PREDICTED BY IDOCK:   -4.04 KCAL/MOL
REMARK 924 INTRA-LIGAND FREE ENERGY PREDICTED BY IDOCK:   -0.78 KCAL/MOL
REMARK 927      BINDING AFFINITY PREDICTED BY RF-SCORE:    0.00 PKD
ROOT
HETATM    1  C   UNL     1      -5.969   6.967  73.842  1.00  0.00    -0.062 C  
HETATM    2  C   UNL     1      -6.352   8.433  73.739  1.00  0.00    -0.134 C  
ENDROOT
BRANCH   2   3
HETATM    3  C   UNL     1      -7.606   8.615  72.890  1.00  0.00     0.043 C  
BRANCH   3   4
HETATM    4  C   UNL     1      -7.274   8.523  71.406  1.00  0.00    -0.096 C  
BRANCH   4   5
HETATM    5  C   UNL     1      -6.417   9.703  70.964  1.00  0.00    -0.051 C  
BRANCH   5   6
HETATM    6  C   UNL     1      -5.163   9.208  70.255  1.00  0.00    -0.027 C  
BRANCH   6   7
HETATM    7  C   UNL     1      -5.283   9.404  68.752  1.00  0.00    -0.037 C  
BRANCH   7   8
HETATM    8  C   UNL     1      -5.355   8.059  68.038  1.00  0.00    -0.033 C  
BRANCH   8   9
HETATM    9  C   UNL     1      -6.802   7.750  67.684  1.00  0.00    -0.069 C  
BRANCH   9  10
HETATM   10  C   UNL     1      -7.169   6.305  68.002  1.00  0.00    -0.087 C  
BRANCH  10  11
HETATM   11  C   UNL     1      -8.505   6.208  68.760  1.00  0.00    -0.118 C  
BRANCH  11  12
HETATM   12  C   UNL     1      -8.978   7.590  69.212  1.00  0.00    -0.136 C  
BRANCH  12  13
HETATM   13  N   UNL     1     -10.491   7.825  69.074  1.00  0.00    -0.217 N  
HETATM   14  C   UNL     1     -11.274   6.524  69.209  1.00  0.00    -0.328 C  
HETATM   15  C   UNL     1     -10.973   8.808  70.145  1.00  0.00    -0.223 C  
BRANCH  13  16
HETATM   16  C   UNL     1     -10.787   8.487  67.679  1.00  0.00    -0.002 C  
BRANCH  16  17
HETATM   17  C   UNL     1     -10.521   9.997  67.670  1.00  0.00    -0.246 C  
BRANCH  17  18
HETATM   18  O   UNL     1     -11.699  10.738  67.976  1.00  0.00    -0.528 OA 
BRANCH  18  19
HETATM   19  C   UNL     1     -11.438  12.063  68.247  1.00  0.00    -0.303 A  
HETATM   20  C   UNL     1     -10.559  12.700  67.374  1.00  0.00    -0.240 A  
HETATM   21  C   UNL     1     -10.194  14.031  67.593  1.00  0.00    -0.241 A  
HETATM   22  C   UNL     1     -10.719  14.734  68.678  1.00  0.00    -0.253 A  
HETATM   23  C   UNL     1     -11.626  14.113  69.532  1.00  0.00    -0.349 A  
HETATM   24  C   UNL     1     -11.991  12.786  69.312  1.00  0.00    -0.300 A  
ENDBRANCH  18  19
ENDBRANCH  17  18
ENDBRANCH  16  17
ENDBRANCH  13  16
ENDBRANCH  12  13
ENDBRANCH  11  12
ENDBRANCH  10  11
ENDBRANCH   9  10
ENDBRANCH   8   9
ENDBRANCH   7   8
ENDBRANCH   6   7
ENDBRANCH   5   6
ENDBRANCH   4   5
ENDBRANCH   3   4
ENDBRANCH   2   3
TORSDOF 15
ENDMDL
MODEL      358
REMARK 921   NORMALIZED FREE ENERGY PREDICTED BY IDOCK:   -1.95 KCAL/MOL
REMARK 922        TOTAL FREE ENERGY PREDICTED BY IDOCK:   -4.78 KCAL/MOL
REMARK 923 INTER-LIGAND FREE ENERGY PREDICTED BY IDOCK:   -3.46 KCAL/MOL
REMARK 924 INTRA-LIGAND FREE ENERGY PREDICTED BY IDOCK:   -1.32 KCAL/MOL
REMARK 927      BINDING AFFINITY PREDICTED BY RF-SCORE:    0.00 PKD
ROOT
HETATM    1  C   UNL     1     -10.679  14.003  68.899  1.00  0.00    -0.265 C  
HETATM    2  C   UNL     1     -10.395  12.748  68.094  1.00  0.00    -0.243 C  
ENDROOT
BRANCH   2   3
HETATM    3  C   UNL     1     -11.391  11.643  68.430  1.00  0.00    -0.339 C  
BRANCH   3   4
HETATM    4  C   UNL     1     -10.840  10.729  69.518  1.00  0.00    -0.288 C  
BRANCH   4   5
HETATM    5  C   UNL     1      -9.395  10.342  69.226  1.00  0.00    -0.202 C  
BRANCH   5   6
HETATM    6  C   UNL     1      -9.345   9.025  68.463  1.00  0.00    -0.141 C  
BRANCH   6   7
HETATM    7  C   UNL     1      -8.035   8.300  68.728  1.00  0.00    -0.114 C  
BRANCH   7   8
HETATM    8  C   UNL     1      -7.417   7.811  67.423  1.00  0.00    -0.093 C  
BRANCH   8   9
HETATM    9  C   UNL     1      -8.376   6.850  66.738  1.00  0.00    -0.116 C  
BRANCH   9  10
HETATM   10  C   UNL     1      -7.723   6.142  65.555  1.00  0.00    -0.094 C  
BRANCH  10  11
HETATM   11  C   UNL     1      -7.593   4.628  65.795  1.00  0.00    -0.082 C  
BRANCH  11  12
HETATM   12  C   UNL     1      -7.978   4.268  67.231  1.00  0.00    -0.096 C  
BRANCH  12  13
HETATM   13  N   UNL     1      -6.845   3.640  68.058  1.00  0.00    -0.049 N  
HETATM   14  C   UNL     1      -6.453   2.268  67.521  1.00  0.00    -0.032 C  
HETATM   15  C   UNL     1      -5.612   4.550  68.042  1.00  0.00    -0.017 C  
BRANCH  13  16
HETATM   16  C   UNL     1      -7.302   3.519  69.557  1.00  0.00    -0.048 C  
BRANCH  16  17
HETATM   17  C   UNL     1      -7.906   4.819  70.101  1.00  0.00    -0.058 C  
BRANCH  17  18
HETATM   18  O   UNL     1      -7.256   5.237  71.298  1.00  0.00    -0.071 OA 
BRANCH  18  19
HETATM   19  C   UNL     1      -8.051   6.046  72.080  1.00  0.00    -0.107 A  
HETATM   20  C   UNL     1      -8.865   6.944  71.393  1.00  0.00    -0.133 A  
HETATM   21  C   UNL     1      -9.672   7.840  72.099  1.00  0.00    -0.240 A  
HETATM   22  C   UNL     1      -9.678   7.832  73.494  1.00  0.00    -0.319 A  
HETATM   23  C   UNL     1      -8.893   6.913  74.185  1.00  0.00    -0.203 A  
HETATM   24  C   UNL     1      -8.090   6.017  73.480  1.00  0.00    -0.110 A  
ENDBRANCH  18  19
ENDBRANCH  17  18
ENDBRANCH  16  17
ENDBRANCH  13  16
ENDBRANCH  12  13
ENDBRANCH  11  12
ENDBRANCH  10  11
ENDBRANCH   9  10
ENDBRANCH   8   9
ENDBRANCH   7   8
ENDBRANCH   6   7
ENDBRANCH   5   6
ENDBRANCH   4   5
ENDBRANCH   3   4
ENDBRANCH   2   3
TORSDOF 15
ENDMDL
MODEL      359
REMARK 921   NORMALIZED FREE ENERGY PREDICTED BY IDOCK:   -1.93 KCAL/MOL
REMARK 922        TOTAL FREE ENERGY PREDICTED BY IDOCK:   -4.74 KCAL/MOL
REMARK 923 INTER-LIGAND FREE ENERGY PREDICTED BY IDOCK:   -3.47 KCAL/MOL
REMARK 924 INTRA-LIGAND FREE ENERGY PREDICTED BY IDOCK:   -1.27 KCAL/MOL
REMARK 927      BINDING AFFINITY PREDICTED BY RF-SCORE:    0.00 PKD
ROOT
HETATM    1  C   UNL     1     -10.093   9.464  70.680  1.00  0.00    -0.356 C  
HETATM    2  C   UNL     1     -10.286   9.516  69.174  1.00  0.00    -0.209 C  
ENDROOT
BRANCH   2   3
HETATM    3  C   UNL     1     -11.508  10.350  68.805  1.00  0.00    -0.240 C  
BRANCH   3   4
HETATM    4  C   UNL     1     -11.100  11.767  68.418  1.00  0.00    -0.286 C  
BRANCH   4   5
HETATM    5  C   UNL     1     -10.451  11.790  67.039  1.00  0.00    -0.252 C  
BRANCH   5   6
HETATM    6  C   UNL     1     -11.511  11.655  65.954  1.00  0.00    -0.189 C  
BRANCH   6   7
HETATM    7  C   UNL     1     -11.192  12.561  64.776  1.00  0.00    -0.344 C  
BRANCH   7   8
HETATM    8  C   UNL     1     -10.710  11.743  63.583  1.00  0.00    -0.503 C  
BRANCH   8   9
HETATM    9  C   UNL     1      -9.193  11.654  63.610  1.00  0.00     0.044 C  
BRANCH   9  10
HETATM   10  C   UNL     1      -8.664  10.648  62.593  1.00  0.00    -0.276 C  
BRANCH  10  11
HETATM   11  C   UNL     1      -9.083   9.209  62.941  1.00  0.00     0.103 C  
BRANCH  11  12
HETATM   12  C   UNL     1      -8.068   8.199  62.404  1.00  0.00    -0.167 C  
BRANCH  12  13
HETATM   13  N   UNL     1      -6.927   7.861  63.377  1.00  0.00    -0.074 N  
HETATM   14  C   UNL     1      -7.331   6.762  64.353  1.00  0.00    -0.087 C  
HETATM   15  C   UNL     1      -5.688   7.404  62.599  1.00  0.00    -0.050 C  
BRANCH  13  16
HETATM   16  C   UNL     1      -6.517   9.157  64.167  1.00  0.00    -0.084 C  
BRANCH  16  17
HETATM   17  C   UNL     1      -6.465   8.937  65.683  1.00  0.00    -0.063 C  
BRANCH  17  18
HETATM   18  O   UNL     1      -5.493   9.776  66.301  1.00  0.00    -0.043 OA 
BRANCH  18  19
HETATM   19  C   UNL     1      -6.057  10.733  67.115  1.00  0.00    -0.063 A  
HETATM   20  C   UNL     1      -5.802  10.597  68.478  1.00  0.00    -0.040 A  
HETATM   21  C   UNL     1      -6.370  11.491  69.390  1.00  0.00    -0.103 A  
HETATM   22  C   UNL     1      -7.183  12.531  68.941  1.00  0.00    -0.050 A  
HETATM   23  C   UNL     1      -7.412  12.692  67.577  1.00  0.00    -0.155 A  
HETATM   24  C   UNL     1      -6.844  11.802  66.668  1.00  0.00     0.020 A  
ENDBRANCH  18  19
ENDBRANCH  17  18
ENDBRANCH  16  17
ENDBRANCH  13  16
ENDBRANCH  12  13
ENDBRANCH  11  12
ENDBRANCH  10  11
ENDBRANCH   9  10
ENDBRANCH   8   9
ENDBRANCH   7   8
ENDBRANCH   6   7
ENDBRANCH   5   6
ENDBRANCH   4   5
ENDBRANCH   3   4
ENDBRANCH   2   3
TORSDOF 15
ENDMDL
MODEL      360
REMARK 921   NORMALIZED FREE ENERGY PREDICTED BY IDOCK:   -1.85 KCAL/MOL
REMARK 922        TOTAL FREE ENERGY PREDICTED BY IDOCK:   -4.60 KCAL/MOL
REMARK 923 INTER-LIGAND FREE ENERGY PREDICTED BY IDOCK:   -3.59 KCAL/MOL
REMARK 924 INTRA-LIGAND FREE ENERGY PREDICTED BY IDOCK:   -1.01 KCAL/MOL
REMARK 927      BINDING AFFINITY PREDICTED BY RF-SCORE:    0.00 PKD
ROOT
HETATM    1  C   UNL     1      -6.645  10.121  63.688  1.00  0.00    -0.122 C  
HETATM    2  C   UNL     1      -6.058   8.735  63.483  1.00  0.00    -0.081 C  
ENDROOT
BRANCH   2   3
HETATM    3  C   UNL     1      -7.130   7.744  63.043  1.00  0.00    -0.083 C  
BRANCH   3   4
HETATM    4  C   UNL     1      -8.143   7.510  64.158  1.00  0.00    -0.055 C  
BRANCH   4   5
HETATM    5  C   UNL     1      -7.629   6.478  65.154  1.00  0.00    -0.090 C  
BRANCH   5   6
HETATM    6  C   UNL     1      -8.135   6.800  66.555  1.00  0.00    -0.108 C  
BRANCH   6   7
HETATM    7  C   UNL     1      -8.113   8.300  66.802  1.00  0.00    -0.103 C  
BRANCH   7   8
HETATM    8  C   UNL     1      -9.255   8.709  67.727  1.00  0.00    -0.146 C  
BRANCH   8   9
HETATM    9  C   UNL     1      -9.660  10.143  67.427  1.00  0.00    -0.180 C  
BRANCH   9  10
HETATM   10  C   UNL     1     -10.593  10.706  68.495  1.00  0.00    -0.229 C  
BRANCH  10  11
HETATM   11  C   UNL     1     -10.249  10.168  69.895  1.00  0.00    -0.284 C  
BRANCH  11  12
HETATM   12  C   UNL     1     -11.474  10.207  70.810  1.00  0.00    -0.357 C  
BRANCH  12  13
HETATM   13  N   UNL     1     -11.990   8.826  71.247  1.00  0.00    -0.294 N  
HETATM   14  C   UNL     1     -13.474   8.867  71.592  1.00  0.00    -0.378 C  
HETATM   15  C   UNL     1     -11.767   7.802  70.129  1.00  0.00     0.137 C  
BRANCH  13  16
HETATM   16  C   UNL     1     -11.163   8.332  72.489  1.00  0.00    -0.376 C  
BRANCH  16  17
HETATM   17  C   UNL     1     -10.328   7.082  72.188  1.00  0.00    -0.191 C  
BRANCH  17  18
HETATM   18  O   UNL     1      -9.241   7.377  71.316  1.00  0.00    -0.149 OA 
BRANCH  18  19
HETATM   19  C   UNL     1      -8.532   6.254  70.950  1.00  0.00    -0.131 A  
HETATM   20  C   UNL     1      -7.205   6.210  71.370  1.00  0.00    -0.079 A  
HETATM   21  C   UNL     1      -6.390   5.134  71.007  1.00  0.00    -0.023 A  
HETATM   22  C   UNL     1      -6.905   4.091  70.235  1.00  0.00    -0.034 A  
HETATM   23  C   UNL     1      -8.241   4.114  69.843  1.00  0.00    -0.068 A  
HETATM   24  C   UNL     1      -9.053   5.186  70.207  1.00  0.00    -0.164 A  
ENDBRANCH  18  19
ENDBRANCH  17  18
ENDBRANCH  16  17
ENDBRANCH  13  16
ENDBRANCH  12  13
ENDBRANCH  11  12
ENDBRANCH  10  11
ENDBRANCH   9  10
ENDBRANCH   8   9
ENDBRANCH   7   8
ENDBRANCH   6   7
ENDBRANCH   5   6
ENDBRANCH   4   5
ENDBRANCH   3   4
ENDBRANCH   2   3
TORSDOF 15
ENDMDL
MODEL      361
REMARK 921   NORMALIZED FREE ENERGY PREDICTED BY IDOCK:   -1.82 KCAL/MOL
REMARK 922        TOTAL FREE ENERGY PREDICTED BY IDOCK:   -4.54 KCAL/MOL
REMARK 923 INTER-LIGAND FREE ENERGY PREDICTED BY IDOCK:   -5.90 KCAL/MOL
REMARK 924 INTRA-LIGAND FREE ENERGY PREDICTED BY IDOCK:    1.36 KCAL/MOL
REMARK 927      BINDING AFFINITY PREDICTED BY RF-SCORE:    0.00 PKD
ROOT
HETATM    1  C   UNL     1      -9.984   7.762  67.244  1.00  0.00    -0.277 C  
HETATM    2  C   UNL     1     -10.142   8.515  68.553  1.00  0.00    -0.214 C  
ENDROOT
BRANCH   2   3
HETATM    3  C   UNL     1     -10.110  10.023  68.327  1.00  0.00    -0.182 C  
BRANCH   3   4
HETATM    4  C   UNL     1      -8.709  10.484  67.944  1.00  0.00    -0.126 C  
BRANCH   4   5
HETATM    5  C   UNL     1      -8.396  11.843  68.558  1.00  0.00    -0.118 C  
BRANCH   5   6
HETATM    6  C   UNL     1      -7.223  12.492  67.833  1.00  0.00    -0.115 C  
BRANCH   6   7
HETATM    7  C   UNL     1      -6.786  13.761  68.548  1.00  0.00    -0.094 C  
BRANCH   7   8
HETATM    8  C   UNL     1      -5.503  14.309  67.933  1.00  0.00    -0.084 C  
BRANCH   8   9
HETATM    9  C   UNL     1      -5.492  15.825  68.051  1.00  0.00    -0.136 C  
BRANCH   9  10
HETATM   10  C   UNL     1      -6.878  16.381  68.364  1.00  0.00    -0.142 C  
BRANCH  10  11
HETATM   11  C   UNL     1      -7.157  17.685  67.598  1.00  0.00    -0.187 C  
BRANCH  11  12
HETATM   12  C   UNL     1      -7.825  18.720  68.505  1.00  0.00    -0.336 C  
BRANCH  12  13
HETATM   13  N   UNL     1      -9.349  18.827  68.340  1.00  0.00    -0.329 N  
HETATM   14  C   UNL     1     -10.064  17.628  68.953  1.00  0.00    -0.351 C  
HETATM   15  C   UNL     1      -9.864  20.107  69.005  1.00  0.00    -0.047 C  
BRANCH  13  16
HETATM   16  C   UNL     1      -9.699  18.935  66.811  1.00  0.00    -0.327 C  
BRANCH  16  17
HETATM   17  C   UNL     1      -9.758  17.569  66.117  1.00  0.00    -0.209 C  
BRANCH  17  18
HETATM   18  O   UNL     1     -10.006  16.520  67.048  1.00  0.00    -0.254 OA 
BRANCH  18  19
HETATM   19  C   UNL     1     -10.733  15.485  66.502  1.00  0.00    -0.304 A  
HETATM   20  C   UNL     1     -10.680  15.372  65.114  1.00  0.00    -0.460 A  
HETATM   21  C   UNL     1     -11.422  14.383  64.463  1.00  0.00    -0.352 A  
HETATM   22  C   UNL     1     -12.210  13.496  65.197  1.00  0.00    -0.462 A  
HETATM   23  C   UNL     1     -12.238  13.583  66.586  1.00  0.00    -0.411 A  
HETATM   24  C   UNL     1     -11.496  14.568  67.236  1.00  0.00    -0.381 A  
ENDBRANCH  18  19
ENDBRANCH  17  18
ENDBRANCH  16  17
ENDBRANCH  13  16
ENDBRANCH  12  13
ENDBRANCH  11  12
ENDBRANCH  10  11
ENDBRANCH   9  10
ENDBRANCH   8   9
ENDBRANCH   7   8
ENDBRANCH   6   7
ENDBRANCH   5   6
ENDBRANCH   4   5
ENDBRANCH   3   4
ENDBRANCH   2   3
TORSDOF 15
ENDMDL
MODEL      362
REMARK 921   NORMALIZED FREE ENERGY PREDICTED BY IDOCK:   -1.79 KCAL/MOL
REMARK 922        TOTAL FREE ENERGY PREDICTED BY IDOCK:   -4.48 KCAL/MOL
REMARK 923 INTER-LIGAND FREE ENERGY PREDICTED BY IDOCK:   -4.62 KCAL/MOL
REMARK 924 INTRA-LIGAND FREE ENERGY PREDICTED BY IDOCK:    0.14 KCAL/MOL
REMARK 927      BINDING AFFINITY PREDICTED BY RF-SCORE:    0.00 PKD
ROOT
HETATM    1  C   UNL     1     -10.922  11.025  66.860  1.00  0.00    -0.311 C  
HETATM    2  C   UNL     1      -9.794  11.104  65.846  1.00  0.00    -0.275 C  
ENDROOT
BRANCH   2   3
HETATM    3  C   UNL     1      -9.308   9.712  65.457  1.00  0.00    -0.309 C  
BRANCH   3   4
HETATM    4  C   UNL     1      -9.328   8.774  66.659  1.00  0.00    -0.242 C  
BRANCH   4   5
HETATM    5  C   UNL     1      -8.452   7.552  66.413  1.00  0.00    -0.131 C  
BRANCH   5   6
HETATM    6  C   UNL     1      -7.423   7.407  67.527  1.00  0.00    -0.100 C  
BRANCH   6   7
HETATM    7  C   UNL     1      -8.108   7.315  68.881  1.00  0.00    -0.128 C  
BRANCH   7   8
HETATM    8  C   UNL     1      -8.907   8.582  69.166  1.00  0.00    -0.142 C  
BRANCH   8   9
HETATM    9  C   UNL     1      -8.180   9.415  70.210  1.00  0.00    -0.194 C  
BRANCH   9  10
HETATM   10  C   UNL     1      -6.667   9.371  70.020  1.00  0.00    -0.063 C  
BRANCH  10  11
HETATM   11  C   UNL     1      -6.025  10.755  70.220  1.00  0.00    -0.119 C  
BRANCH  11  12
HETATM   12  C   UNL     1      -6.883  11.852  69.588  1.00  0.00     0.055 C  
BRANCH  12  13
HETATM   13  N   UNL     1      -6.144  12.737  68.572  1.00  0.00    -0.063 N  
HETATM   14  C   UNL     1      -5.389  13.869  69.261  1.00  0.00    -0.081 C  
HETATM   15  C   UNL     1      -5.149  11.897  67.765  1.00  0.00    -0.062 C  
BRANCH  13  16
HETATM   16  C   UNL     1      -7.179  13.328  67.548  1.00  0.00    -0.150 C  
BRANCH  16  17
HETATM   17  C   UNL     1      -7.324  14.850  67.661  1.00  0.00    -0.187 C  
BRANCH  17  18
HETATM   18  O   UNL     1      -8.343  15.344  66.796  1.00  0.00    -0.235 OA 
BRANCH  18  19
HETATM   19  C   UNL     1      -8.822  16.575  67.187  1.00  0.00    -0.195 A  
HETATM   20  C   UNL     1      -7.972  17.329  67.994  1.00  0.00    -0.215 A  
HETATM   21  C   UNL     1      -8.388  18.571  68.482  1.00  0.00    -0.359 A  
HETATM   22  C   UNL     1      -9.648  19.070  68.153  1.00  0.00    -0.395 A  
HETATM   23  C   UNL     1     -10.487  18.336  67.317  1.00  0.00    -0.419 A  
HETATM   24  C   UNL     1     -10.071  17.098  66.830  1.00  0.00    -0.303 A  
ENDBRANCH  18  19
ENDBRANCH  17  18
ENDBRANCH  16  17
ENDBRANCH  13  16
ENDBRANCH  12  13
ENDBRANCH  11  12
ENDBRANCH  10  11
ENDBRANCH   9  10
ENDBRANCH   8   9
ENDBRANCH   7   8
ENDBRANCH   6   7
ENDBRANCH   5   6
ENDBRANCH   4   5
ENDBRANCH   3   4
ENDBRANCH   2   3
TORSDOF 15
ENDMDL
MODEL      363
REMARK 921   NORMALIZED FREE ENERGY PREDICTED BY IDOCK:   -1.78 KCAL/MOL
REMARK 922        TOTAL FREE ENERGY PREDICTED BY IDOCK:   -4.47 KCAL/MOL
REMARK 923 INTER-LIGAND FREE ENERGY PREDICTED BY IDOCK:   -3.49 KCAL/MOL
REMARK 924 INTRA-LIGAND FREE ENERGY PREDICTED BY IDOCK:   -0.98 KCAL/MOL
REMARK 927      BINDING AFFINITY PREDICTED BY RF-SCORE:    0.00 PKD
ROOT
HETATM    1  C   UNL     1     -11.006   9.075  71.429  1.00  0.00    -0.394 C  
HETATM    2  C   UNL     1     -11.379   8.243  72.642  1.00  0.00    -0.421 C  
ENDROOT
BRANCH   2   3
HETATM    3  C   UNL     1     -10.171   7.481  73.179  1.00  0.00    -0.382 C  
BRANCH   3   4
HETATM    4  C   UNL     1     -10.607   6.204  73.888  1.00  0.00    -0.230 C  
BRANCH   4   5
HETATM    5  C   UNL     1     -11.462   5.337  72.972  1.00  0.00    -0.340 C  
BRANCH   5   6
HETATM    6  C   UNL     1     -11.090   3.869  73.136  1.00  0.00    -0.215 C  
BRANCH   6   7
HETATM    7  C   UNL     1      -9.591   3.715  73.342  1.00  0.00    -0.138 C  
BRANCH   7   8
HETATM    8  C   UNL     1      -8.894   3.422  72.018  1.00  0.00    -0.129 C  
BRANCH   8   9
HETATM    9  C   UNL     1      -9.909   2.896  71.016  1.00  0.00    -0.062 C  
BRANCH   9  10
HETATM   10  C   UNL     1      -9.502   3.203  69.579  1.00  0.00    -0.190 C  
BRANCH  10  11
HETATM   11  C   UNL     1      -8.286   4.142  69.517  1.00  0.00    -0.067 C  
BRANCH  11  12
HETATM   12  C   UNL     1      -8.482   5.221  68.450  1.00  0.00    -0.096 C  
BRANCH  12  13
HETATM   13  N   UNL     1      -7.178   5.786  67.865  1.00  0.00    -0.071 N  
HETATM   14  C   UNL     1      -7.267   7.292  67.650  1.00  0.00    -0.091 C  
HETATM   15  C   UNL     1      -6.004   5.486  68.803  1.00  0.00    -0.024 C  
BRANCH  13  16
HETATM   16  C   UNL     1      -6.866   5.067  66.502  1.00  0.00    -0.062 C  
BRANCH  16  17
HETATM   17  C   UNL     1      -7.066   5.982  65.288  1.00  0.00    -0.065 C  
BRANCH  17  18
HETATM   18  O   UNL     1      -8.171   5.562  64.493  1.00  0.00    -0.123 OA 
BRANCH  18  19
HETATM   19  C   UNL     1      -7.987   4.313  63.943  1.00  0.00    -0.090 A  
HETATM   20  C   UNL     1      -8.746   3.286  64.500  1.00  0.00    -0.099 A  
HETATM   21  C   UNL     1      -8.594   1.974  64.042  1.00  0.00    -0.083 A  
HETATM   22  C   UNL     1      -7.693   1.687  63.017  1.00  0.00    -0.054 A  
HETATM   23  C   UNL     1      -6.957   2.716  62.433  1.00  0.00    -0.027 A  
HETATM   24  C   UNL     1      -7.111   4.024  62.888  1.00  0.00    -0.040 A  
ENDBRANCH  18  19
ENDBRANCH  17  18
ENDBRANCH  16  17
ENDBRANCH  13  16
ENDBRANCH  12  13
ENDBRANCH  11  12
ENDBRANCH  10  11
ENDBRANCH   9  10
ENDBRANCH   8   9
ENDBRANCH   7   8
ENDBRANCH   6   7
ENDBRANCH   5   6
ENDBRANCH   4   5
ENDBRANCH   3   4
ENDBRANCH   2   3
TORSDOF 15
ENDMDL
MODEL      364
REMARK 921   NORMALIZED FREE ENERGY PREDICTED BY IDOCK:   -1.75 KCAL/MOL
REMARK 922        TOTAL FREE ENERGY PREDICTED BY IDOCK:   -4.40 KCAL/MOL
REMARK 923 INTER-LIGAND FREE ENERGY PREDICTED BY IDOCK:   -3.94 KCAL/MOL
REMARK 924 INTRA-LIGAND FREE ENERGY PREDICTED BY IDOCK:   -0.47 KCAL/MOL
REMARK 927      BINDING AFFINITY PREDICTED BY RF-SCORE:    0.00 PKD
ROOT
HETATM    1  C   UNL     1      -6.146   7.354  73.265  1.00  0.00    -0.056 C  
HETATM    2  C   UNL     1      -6.594   8.792  73.070  1.00  0.00     0.030 C  
ENDROOT
BRANCH   2   3
HETATM    3  C   UNL     1      -7.785   8.872  72.121  1.00  0.00     0.118 C  
BRANCH   3   4
HETATM    4  C   UNL     1      -7.330   8.765  70.670  1.00  0.00    -0.072 C  
BRANCH   4   5
HETATM    5  C   UNL     1      -6.526   9.993  70.259  1.00  0.00    -0.117 C  
BRANCH   5   6
HETATM    6  C   UNL     1      -5.175   9.575  69.692  1.00  0.00    -0.034 C  
BRANCH   6   7
HETATM    7  C   UNL     1      -5.171   9.688  68.176  1.00  0.00    -0.040 C  
BRANCH   7   8
HETATM    8  C   UNL     1      -5.178   8.305  67.533  1.00  0.00    -0.034 C  
BRANCH   8   9
HETATM    9  C   UNL     1      -6.574   7.993  67.018  1.00  0.00    -0.057 C  
BRANCH   9  10
HETATM   10  C   UNL     1      -6.979   6.552  67.312  1.00  0.00    -0.075 C  
BRANCH  10  11
HETATM   11  C   UNL     1      -8.379   6.470  67.945  1.00  0.00    -0.115 C  
BRANCH  11  12
HETATM   12  C   UNL     1      -8.847   7.847  68.419  1.00  0.00    -0.130 C  
BRANCH  12  13
HETATM   13  N   UNL     1     -10.309   8.177  68.081  1.00  0.00    -0.208 N  
HETATM   14  C   UNL     1     -11.171   6.920  68.040  1.00  0.00     0.001 C  
HETATM   15  C   UNL     1     -10.887   9.142  69.121  1.00  0.00    -0.110 C  
BRANCH  13  16
HETATM   16  C   UNL     1     -10.368   8.913  66.693  1.00  0.00    -0.223 C  
BRANCH  16  17
HETATM   17  C   UNL     1      -9.919  10.377  66.778  1.00  0.00    -0.206 C  
BRANCH  17  18
HETATM   18  O   UNL     1     -11.028  11.254  66.957  1.00  0.00    -0.270 OA 
BRANCH  18  19
HETATM   19  C   UNL     1     -11.296  12.008  65.836  1.00  0.00    -0.337 A  
HETATM   20  C   UNL     1     -10.672  11.593  64.662  1.00  0.00    -0.371 A  
HETATM   21  C   UNL     1     -10.843  12.322  63.482  1.00  0.00    -0.508 A  
HETATM   22  C   UNL     1     -11.650  13.460  63.469  1.00  0.00    -0.198 A  
HETATM   23  C   UNL     1     -12.304  13.859  64.632  1.00  0.00    -0.421 A  
HETATM   24  C   UNL     1     -12.134  13.130  65.808  1.00  0.00    -0.502 A  
ENDBRANCH  18  19
ENDBRANCH  17  18
ENDBRANCH  16  17
ENDBRANCH  13  16
ENDBRANCH  12  13
ENDBRANCH  11  12
ENDBRANCH  10  11
ENDBRANCH   9  10
ENDBRANCH   8   9
ENDBRANCH   7   8
ENDBRANCH   6   7
ENDBRANCH   5   6
ENDBRANCH   4   5
ENDBRANCH   3   4
ENDBRANCH   2   3
TORSDOF 15
ENDMDL
MODEL      365
REMARK 921   NORMALIZED FREE ENERGY PREDICTED BY IDOCK:   -1.73 KCAL/MOL
REMARK 922        TOTAL FREE ENERGY PREDICTED BY IDOCK:   -4.37 KCAL/MOL
REMARK 923 INTER-LIGAND FREE ENERGY PREDICTED BY IDOCK:   -3.15 KCAL/MOL
REMARK 924 INTRA-LIGAND FREE ENERGY PREDICTED BY IDOCK:   -1.23 KCAL/MOL
REMARK 927      BINDING AFFINITY PREDICTED BY RF-SCORE:    0.00 PKD
ROOT
HETATM    1  C   UNL     1      -5.713   6.089  74.563  1.00  0.00    -0.055 C  
HETATM    2  C   UNL     1      -5.913   7.578  74.349  1.00  0.00    -0.080 C  
ENDROOT
BRANCH   2   3
HETATM    3  C   UNL     1      -7.269   7.864  73.712  1.00  0.00    -0.162 C  
BRANCH   3   4
HETATM    4  C   UNL     1      -7.376   7.200  72.344  1.00  0.00    -0.079 C  
BRANCH   4   5
HETATM    5  C   UNL     1      -6.318   7.741  71.390  1.00  0.00    -0.035 C  
BRANCH   5   6
HETATM    6  C   UNL     1      -5.305   6.654  71.054  1.00  0.00    -0.023 C  
BRANCH   6   7
HETATM    7  C   UNL     1      -5.327   6.342  69.566  1.00  0.00    -0.013 C  
BRANCH   7   8
HETATM    8  C   UNL     1      -6.154   5.092  69.291  1.00  0.00    -0.021 C  
BRANCH   8   9
HETATM    9  C   UNL     1      -7.455   5.485  68.609  1.00  0.00    -0.076 C  
BRANCH   9  10
HETATM   10  C   UNL     1      -8.675   5.047  69.413  1.00  0.00    -0.108 C  
BRANCH  10  11
HETATM   11  C   UNL     1      -9.820   6.069  69.317  1.00  0.00    -0.191 C  
BRANCH  11  12
HETATM   12  C   UNL     1      -9.354   7.349  68.621  1.00  0.00    -0.139 C  
BRANCH  12  13
HETATM   13  N   UNL     1     -10.176   7.740  67.383  1.00  0.00    -0.225 N  
HETATM   14  C   UNL     1     -11.220   6.680  67.047  1.00  0.00    -0.194 C  
HETATM   15  C   UNL     1     -10.885   9.077  67.620  1.00  0.00    -0.063 C  
BRANCH  13  16
HETATM   16  C   UNL     1      -9.208   7.946  66.161  1.00  0.00    -0.152 C  
BRANCH  16  17
HETATM   17  C   UNL     1      -8.383   9.234  66.268  1.00  0.00    -0.122 C  
BRANCH  17  18
HETATM   18  O   UNL     1      -8.946  10.283  65.486  1.00  0.00    -0.157 OA 
BRANCH  18  19
HETATM   19  C   UNL     1      -8.914  11.501  66.128  1.00  0.00    -0.197 A  
HETATM   20  C   UNL     1      -7.846  11.700  67.000  1.00  0.00    -0.164 A  
HETATM   21  C   UNL     1      -7.752  12.885  67.734  1.00  0.00    -0.151 A  
HETATM   22  C   UNL     1      -8.718  13.881  67.588  1.00  0.00    -0.187 A  
HETATM   23  C   UNL     1      -9.768  13.702  66.691  1.00  0.00    -0.287 A  
HETATM   24  C   UNL     1      -9.860  12.521  65.958  1.00  0.00    -0.266 A  
ENDBRANCH  18  19
ENDBRANCH  17  18
ENDBRANCH  16  17
ENDBRANCH  13  16
ENDBRANCH  12  13
ENDBRANCH  11  12
ENDBRANCH  10  11
ENDBRANCH   9  10
ENDBRANCH   8   9
ENDBRANCH   7   8
ENDBRANCH   6   7
ENDBRANCH   5   6
ENDBRANCH   4   5
ENDBRANCH   3   4
ENDBRANCH   2   3
TORSDOF 15
ENDMDL
MODEL      366
REMARK 921   NORMALIZED FREE ENERGY PREDICTED BY IDOCK:   -1.65 KCAL/MOL
REMARK 922        TOTAL FREE ENERGY PREDICTED BY IDOCK:   -4.22 KCAL/MOL
REMARK 923 INTER-LIGAND FREE ENERGY PREDICTED BY IDOCK:   -3.75 KCAL/MOL
REMARK 924 INTRA-LIGAND FREE ENERGY PREDICTED BY IDOCK:   -0.47 KCAL/MOL
REMARK 927      BINDING AFFINITY PREDICTED BY RF-SCORE:    0.00 PKD
ROOT
HETATM    1  C   UNL     1     -10.776  12.982  67.151  1.00  0.00    -0.266 C  
HETATM    2  C   UNL     1     -10.990  12.021  68.307  1.00  0.00    -0.275 C  
ENDROOT
BRANCH   2   3
HETATM    3  C   UNL     1      -9.659  11.555  68.887  1.00  0.00    -0.045 C  
BRANCH   3   4
HETATM    4  C   UNL     1      -9.652  10.043  69.082  1.00  0.00    -0.217 C  
BRANCH   4   5
HETATM    5  C   UNL     1     -10.807   9.603  69.974  1.00  0.00    -0.302 C  
BRANCH   5   6
HETATM    6  C   UNL     1     -10.867   8.083  70.048  1.00  0.00    -0.235 C  
BRANCH   6   7
HETATM    7  C   UNL     1     -10.011   7.458  68.959  1.00  0.00    -0.176 C  
BRANCH   7   8
HETATM    8  C   UNL     1      -9.941   5.945  69.131  1.00  0.00    -0.214 C  
BRANCH   8   9
HETATM    9  C   UNL     1     -10.657   5.270  67.972  1.00  0.00    -0.088 C  
BRANCH   9  10
HETATM   10  C   UNL     1      -9.711   4.973  66.814  1.00  0.00    -0.188 C  
BRANCH  10  11
HETATM   11  C   UNL     1      -8.312   4.566  67.307  1.00  0.00    -0.104 C  
BRANCH  11  12
HETATM   12  C   UNL     1      -8.387   3.926  68.695  1.00  0.00    -0.078 C  
BRANCH  12  13
HETATM   13  N   UNL     1      -8.183   2.403  68.708  1.00  0.00    -0.055 N  
HETATM   14  C   UNL     1      -9.505   1.660  68.552  1.00  0.00    -0.177 C  
HETATM   15  C   UNL     1      -7.241   1.986  67.574  1.00  0.00    -0.054 C  
BRANCH  13  16
HETATM   16  C   UNL     1      -7.489   1.984  70.055  1.00  0.00    -0.042 C  
BRANCH  16  17
HETATM   17  C   UNL     1      -7.434   3.127  71.076  1.00  0.00    -0.036 C  
BRANCH  17  18
HETATM   18  O   UNL     1      -8.096   2.778  72.288  1.00  0.00    -0.054 OA 
BRANCH  18  19
HETATM   19  C   UNL     1      -8.841   3.815  72.805  1.00  0.00    -0.094 A  
HETATM   20  C   UNL     1     -10.074   4.040  72.196  1.00  0.00    -0.233 A  
HETATM   21  C   UNL     1     -10.881   5.099  72.619  1.00  0.00    -0.303 A  
HETATM   22  C   UNL     1     -10.465   5.929  73.660  1.00  0.00    -0.280 A  
HETATM   23  C   UNL     1      -9.249   5.686  74.295  1.00  0.00    -0.125 A  
HETATM   24  C   UNL     1      -8.446   4.628  73.875  1.00  0.00    -0.104 A  
ENDBRANCH  18  19
ENDBRANCH  17  18
ENDBRANCH  16  17
ENDBRANCH  13  16
ENDBRANCH  12  13
ENDBRANCH  11  12
ENDBRANCH  10  11
ENDBRANCH   9  10
ENDBRANCH   8   9
ENDBRANCH   7   8
ENDBRANCH   6   7
ENDBRANCH   5   6
ENDBRANCH   4   5
ENDBRANCH   3   4
ENDBRANCH   2   3
TORSDOF 15
ENDMDL
MODEL      367
REMARK 921   NORMALIZED FREE ENERGY PREDICTED BY IDOCK:   -1.59 KCAL/MOL
REMARK 922        TOTAL FREE ENERGY PREDICTED BY IDOCK:   -4.11 KCAL/MOL
REMARK 923 INTER-LIGAND FREE ENERGY PREDICTED BY IDOCK:   -2.67 KCAL/MOL
REMARK 924 INTRA-LIGAND FREE ENERGY PREDICTED BY IDOCK:   -1.44 KCAL/MOL
REMARK 927      BINDING AFFINITY PREDICTED BY RF-SCORE:    0.00 PKD
ROOT
HETATM    1  C   UNL     1      -5.961   6.965  73.842  1.00  0.00    -0.062 C  
HETATM    2  C   UNL     1      -6.351   8.430  73.752  1.00  0.00    -0.134 C  
ENDROOT
BRANCH   2   3
HETATM    3  C   UNL     1      -7.611   8.612  72.913  1.00  0.00     0.043 C  
BRANCH   3   4
HETATM    4  C   UNL     1      -7.287   8.546  71.425  1.00  0.00    -0.104 C  
BRANCH   4   5
HETATM    5  C   UNL     1      -6.467   9.756  70.991  1.00  0.00    -0.017 C  
BRANCH   5   6
HETATM    6  C   UNL     1      -5.212   9.305  70.255  1.00  0.00    -0.027 C  
BRANCH   6   7
HETATM    7  C   UNL     1      -5.382   9.471  68.753  1.00  0.00    -0.037 C  
BRANCH   7   8
HETATM    8  C   UNL     1      -5.558   8.115  68.079  1.00  0.00    -0.034 C  
BRANCH   8   9
HETATM    9  C   UNL     1      -7.039   7.845  67.865  1.00  0.00    -0.086 C  
BRANCH   9  10
HETATM   10  C   UNL     1      -7.406   7.822  66.385  1.00  0.00    -0.079 C  
BRANCH  10  11
HETATM   11  C   UNL     1      -8.293   6.616  66.033  1.00  0.00    -0.134 C  
BRANCH  11  12
HETATM   12  C   UNL     1      -8.325   5.608  67.183  1.00  0.00    -0.104 C  
BRANCH  12  13
HETATM   13  N   UNL     1      -9.721   5.049  67.505  1.00  0.00    -0.149 N  
HETATM   14  C   UNL     1     -10.599   4.986  66.261  1.00  0.00    -0.276 C  
HETATM   15  C   UNL     1      -9.602   3.643  68.101  1.00  0.00    -0.103 C  
BRANCH  13  16
HETATM   16  C   UNL     1     -10.401   5.952  68.597  1.00  0.00    -0.215 C  
BRANCH  16  17
HETATM   17  C   UNL     1      -9.835   5.714  70.002  1.00  0.00    -0.186 C  
BRANCH  17  18
HETATM   18  O   UNL     1     -10.602   4.751  70.719  1.00  0.00    -0.103 OA 
BRANCH  18  19
HETATM   19  C   UNL     1      -9.974   4.318  71.866  1.00  0.00    -0.185 A  
HETATM   20  C   UNL     1      -9.398   5.311  72.655  1.00  0.00    -0.150 A  
HETATM   21  C   UNL     1      -8.697   4.968  73.813  1.00  0.00    -0.109 A  
HETATM   22  C   UNL     1      -8.580   3.631  74.194  1.00  0.00    -0.088 A  
HETATM   23  C   UNL     1      -9.184   2.637  73.428  1.00  0.00    -0.095 A  
HETATM   24  C   UNL     1      -9.885   2.981  72.274  1.00  0.00    -0.234 A  
ENDBRANCH  18  19
ENDBRANCH  17  18
ENDBRANCH  16  17
ENDBRANCH  13  16
ENDBRANCH  12  13
ENDBRANCH  11  12
ENDBRANCH  10  11
ENDBRANCH   9  10
ENDBRANCH   8   9
ENDBRANCH   7   8
ENDBRANCH   6   7
ENDBRANCH   5   6
ENDBRANCH   4   5
ENDBRANCH   3   4
ENDBRANCH   2   3
TORSDOF 15
ENDMDL
MODEL      368
REMARK 921   NORMALIZED FREE ENERGY PREDICTED BY IDOCK:   -1.56 KCAL/MOL
REMARK 922        TOTAL FREE ENERGY PREDICTED BY IDOCK:   -4.05 KCAL/MOL
REMARK 923 INTER-LIGAND FREE ENERGY PREDICTED BY IDOCK:   -3.73 KCAL/MOL
REMARK 924 INTRA-LIGAND FREE ENERGY PREDICTED BY IDOCK:   -0.32 KCAL/MOL
REMARK 927      BINDING AFFINITY PREDICTED BY RF-SCORE:    0.00 PKD
ROOT
HETATM    1  C   UNL     1      -8.043   8.346  70.155  1.00  0.00    -0.108 C  
HETATM    2  C   UNL     1      -7.740   7.163  71.057  1.00  0.00    -0.090 C  
ENDROOT
BRANCH   2   3
HETATM    3  C   UNL     1      -7.594   5.878  70.248  1.00  0.00    -0.094 C  
BRANCH   3   4
HETATM    4  C   UNL     1      -6.190   5.761  69.665  1.00  0.00    -0.032 C  
BRANCH   4   5
HETATM    5  C   UNL     1      -6.203   6.005  68.160  1.00  0.00    -0.029 C  
BRANCH   5   6
HETATM    6  C   UNL     1      -7.208   5.081  67.485  1.00  0.00    -0.070 C  
BRANCH   6   7
HETATM    7  C   UNL     1      -8.618   5.632  67.619  1.00  0.00    -0.108 C  
BRANCH   7   8
HETATM    8  C   UNL     1      -9.204   5.951  66.248  1.00  0.00    -0.171 C  
BRANCH   8   9
HETATM    9  C   UNL     1      -9.660   7.401  66.216  1.00  0.00    -0.119 C  
BRANCH   9  10
HETATM   10  C   UNL     1      -8.480   8.367  66.187  1.00  0.00    -0.139 C  
BRANCH  10  11
HETATM   11  C   UNL     1      -8.831   9.719  66.832  1.00  0.00    -0.150 C  
BRANCH  11  12
HETATM   12  C   UNL     1      -8.370  10.881  65.952  1.00  0.00    -0.149 C  
BRANCH  12  13
HETATM   13  N   UNL     1      -9.479  11.516  65.097  1.00  0.00    -0.206 N  
HETATM   14  C   UNL     1      -9.131  11.482  63.614  1.00  0.00     0.100 C  
HETATM   15  C   UNL     1     -10.802  10.775  65.314  1.00  0.00     0.006 C  
BRANCH  13  16
HETATM   16  C   UNL     1      -9.705  13.001  65.561  1.00  0.00    -0.052 C  
BRANCH  16  17
HETATM   17  C   UNL     1     -10.148  13.104  67.026  1.00  0.00    -0.241 C  
BRANCH  17  18
HETATM   18  O   UNL     1     -11.529  12.790  67.178  1.00  0.00    -0.299 OA 
BRANCH  18  19
HETATM   19  C   UNL     1     -11.920  12.738  68.498  1.00  0.00    -0.225 A  
HETATM   20  C   UNL     1     -12.175  11.466  69.006  1.00  0.00    -0.200 A  
HETATM   21  C   UNL     1     -12.624  11.313  70.320  1.00  0.00    -0.255 A  
HETATM   22  C   UNL     1     -12.806  12.430  71.136  1.00  0.00    -0.299 A  
HETATM   23  C   UNL     1     -12.519  13.701  70.644  1.00  0.00    -0.417 A  
HETATM   24  C   UNL     1     -12.069  13.852  69.333  1.00  0.00    -0.384 A  
ENDBRANCH  18  19
ENDBRANCH  17  18
ENDBRANCH  16  17
ENDBRANCH  13  16
ENDBRANCH  12  13
ENDBRANCH  11  12
ENDBRANCH  10  11
ENDBRANCH   9  10
ENDBRANCH   8   9
ENDBRANCH   7   8
ENDBRANCH   6   7
ENDBRANCH   5   6
ENDBRANCH   4   5
ENDBRANCH   3   4
ENDBRANCH   2   3
TORSDOF 15
ENDMDL
MODEL      369
REMARK 921   NORMALIZED FREE ENERGY PREDICTED BY IDOCK:   -1.42 KCAL/MOL
REMARK 922        TOTAL FREE ENERGY PREDICTED BY IDOCK:   -3.79 KCAL/MOL
REMARK 923 INTER-LIGAND FREE ENERGY PREDICTED BY IDOCK:   -3.10 KCAL/MOL
REMARK 924 INTRA-LIGAND FREE ENERGY PREDICTED BY IDOCK:   -0.68 KCAL/MOL
REMARK 927      BINDING AFFINITY PREDICTED BY RF-SCORE:    0.00 PKD
ROOT
HETATM    1  C   UNL     1     -12.038   9.303  71.593  1.00  0.00    -0.451 C  
HETATM    2  C   UNL     1     -10.633   9.029  71.088  1.00  0.00    -0.361 C  
ENDROOT
BRANCH   2   3
HETATM    3  C   UNL     1     -10.628   8.778  69.584  1.00  0.00    -0.220 C  
BRANCH   3   4
HETATM    4  C   UNL     1     -10.636  10.093  68.814  1.00  0.00    -0.236 C  
BRANCH   4   5
HETATM    5  C   UNL     1      -9.218  10.527  68.461  1.00  0.00    -0.168 C  
BRANCH   5   6
HETATM    6  C   UNL     1      -8.843  10.026  67.073  1.00  0.00    -0.147 C  
BRANCH   6   7
HETATM    7  C   UNL     1      -9.880  10.457  66.048  1.00  0.00    -0.289 C  
BRANCH   7   8
HETATM    8  C   UNL     1      -9.385  11.663  65.256  1.00  0.00    -0.112 C  
BRANCH   8   9
HETATM    9  C   UNL     1     -10.173  12.896  65.667  1.00  0.00    -0.295 C  
BRANCH   9  10
HETATM   10  C   UNL     1      -9.269  13.987  66.232  1.00  0.00    -0.130 C  
BRANCH  10  11
HETATM   11  C   UNL     1      -8.068  13.398  66.992  1.00  0.00    -0.018 C  
BRANCH  11  12
HETATM   12  C   UNL     1      -7.062  14.491  67.355  1.00  0.00    -0.110 C  
BRANCH  12  13
HETATM   13  N   UNL     1      -6.690  14.548  68.845  1.00  0.00    -0.093 N  
HETATM   14  C   UNL     1      -7.268  13.365  69.612  1.00  0.00     0.418 C  
HETATM   15  C   UNL     1      -5.166  14.549  69.009  1.00  0.00    -0.089 C  
BRANCH  13  16
HETATM   16  C   UNL     1      -7.215  15.896  69.461  1.00  0.00    -0.174 C  
BRANCH  16  17
HETATM   17  C   UNL     1      -8.743  15.936  69.583  1.00  0.00     0.030 C  
BRANCH  17  18
HETATM   18  O   UNL     1      -9.242  14.799  70.281  1.00  0.00     0.543 OA 
BRANCH  18  19
HETATM   19  C   UNL     1     -10.597  14.873  70.520  1.00  0.00     0.098 A  
HETATM   20  C   UNL     1     -11.421  14.475  69.470  1.00  0.00    -0.330 A  
HETATM   21  C   UNL     1     -12.810  14.560  69.598  1.00  0.00     0.210 A  
HETATM   22  C   UNL     1     -13.380  15.030  70.782  1.00  0.00    -0.362 A  
HETATM   23  C   UNL     1     -12.561  15.396  71.847  1.00  0.00    -0.455 A  
HETATM   24  C   UNL     1     -11.175  15.309  71.719  1.00  0.00    -0.364 A  
ENDBRANCH  18  19
ENDBRANCH  17  18
ENDBRANCH  16  17
ENDBRANCH  13  16
ENDBRANCH  12  13
ENDBRANCH  11  12
ENDBRANCH  10  11
ENDBRANCH   9  10
ENDBRANCH   8   9
ENDBRANCH   7   8
ENDBRANCH   6   7
ENDBRANCH   5   6
ENDBRANCH   4   5
ENDBRANCH   3   4
ENDBRANCH   2   3
TORSDOF 15
ENDMDL
MODEL      370
REMARK 921   NORMALIZED FREE ENERGY PREDICTED BY IDOCK:   -1.33 KCAL/MOL
REMARK 922        TOTAL FREE ENERGY PREDICTED BY IDOCK:   -3.62 KCAL/MOL
REMARK 923 INTER-LIGAND FREE ENERGY PREDICTED BY IDOCK:   -3.01 KCAL/MOL
REMARK 924 INTRA-LIGAND FREE ENERGY PREDICTED BY IDOCK:   -0.62 KCAL/MOL
REMARK 927      BINDING AFFINITY PREDICTED BY RF-SCORE:    0.00 PKD
ROOT
HETATM    1  C   UNL     1      -6.486  20.511  70.970  1.00  0.00     0.308 C  
HETATM    2  C   UNL     1      -6.919  19.488  69.935  1.00  0.00    -0.083 C  
ENDROOT
BRANCH   2   3
HETATM    3  C   UNL     1      -5.801  18.490  69.649  1.00  0.00    -0.254 C  
BRANCH   3   4
HETATM    4  C   UNL     1      -6.000  17.208  70.448  1.00  0.00     0.108 C  
BRANCH   4   5
HETATM    5  C   UNL     1      -6.181  16.011  69.523  1.00  0.00    -0.172 C  
BRANCH   5   6
HETATM    6  C   UNL     1      -5.228  16.110  68.339  1.00  0.00    -0.100 C  
BRANCH   6   7
HETATM    7  C   UNL     1      -5.626  15.132  67.245  1.00  0.00     0.397 C  
BRANCH   7   8
HETATM    8  C   UNL     1      -6.712  14.183  67.742  1.00  0.00    -0.190 C  
BRANCH   8   9
HETATM    9  C   UNL     1      -6.165  12.765  67.781  1.00  0.00    -0.138 C  
BRANCH   9  10
HETATM   10  C   UNL     1      -6.973  11.869  68.715  1.00  0.00    -0.104 C  
BRANCH  10  11
HETATM   11  C   UNL     1      -8.124  11.164  67.977  1.00  0.00    -0.123 C  
BRANCH  11  12
HETATM   12  C   UNL     1      -8.260   9.712  68.437  1.00  0.00    -0.106 C  
BRANCH  12  13
HETATM   13  N   UNL     1      -9.687   9.146  68.353  1.00  0.00    -0.149 N  
HETATM   14  C   UNL     1     -10.697  10.074  69.019  1.00  0.00    -0.220 C  
HETATM   15  C   UNL     1     -10.089   8.942  66.889  1.00  0.00    -0.273 C  
BRANCH  13  16
HETATM   16  C   UNL     1      -9.724   7.731  69.039  1.00  0.00    -0.157 C  
BRANCH  16  17
HETATM   17  C   UNL     1      -8.359   7.299  69.584  1.00  0.00    -0.132 C  
BRANCH  17  18
HETATM   18  O   UNL     1      -8.464   6.131  70.393  1.00  0.00    -0.129 OA 
BRANCH  18  19
HETATM   19  C   UNL     1      -9.230   6.332  71.521  1.00  0.00    -0.145 A  
HETATM   20  C   UNL     1      -9.016   7.534  72.193  1.00  0.00    -0.159 A  
HETATM   21  C   UNL     1      -9.711   7.808  73.375  1.00  0.00    -0.353 A  
HETATM   22  C   UNL     1     -10.631   6.889  73.880  1.00  0.00    -0.260 A  
HETATM   23  C   UNL     1     -10.874   5.704  73.192  1.00  0.00    -0.321 A  
HETATM   24  C   UNL     1     -10.183   5.431  72.012  1.00  0.00    -0.256 A  
ENDBRANCH  18  19
ENDBRANCH  17  18
ENDBRANCH  16  17
ENDBRANCH  13  16
ENDBRANCH  12  13
ENDBRANCH  11  12
ENDBRANCH  10  11
ENDBRANCH   9  10
ENDBRANCH   8   9
ENDBRANCH   7   8
ENDBRANCH   6   7
ENDBRANCH   5   6
ENDBRANCH   4   5
ENDBRANCH   3   4
ENDBRANCH   2   3
TORSDOF 15
ENDMDL
MODEL      371
REMARK 921   NORMALIZED FREE ENERGY PREDICTED BY IDOCK:   -1.18 KCAL/MOL
REMARK 922        TOTAL FREE ENERGY PREDICTED BY IDOCK:   -3.33 KCAL/MOL
REMARK 923 INTER-LIGAND FREE ENERGY PREDICTED BY IDOCK:   -2.51 KCAL/MOL
REMARK 924 INTRA-LIGAND FREE ENERGY PREDICTED BY IDOCK:   -0.82 KCAL/MOL
REMARK 927      BINDING AFFINITY PREDICTED BY RF-SCORE:    0.00 PKD
ROOT
HETATM    1  C   UNL     1      -6.417  20.484  70.949  1.00  0.00     0.286 C  
HETATM    2  C   UNL     1      -6.830  19.456  69.911  1.00  0.00    -0.094 C  
ENDROOT
BRANCH   2   3
HETATM    3  C   UNL     1      -5.697  18.475  69.629  1.00  0.00    -0.243 C  
BRANCH   3   4
HETATM    4  C   UNL     1      -5.830  17.229  70.497  1.00  0.00     0.090 C  
BRANCH   4   5
HETATM    5  C   UNL     1      -6.083  15.993  69.643  1.00  0.00    -0.172 C  
BRANCH   5   6
HETATM    6  C   UNL     1      -5.126  15.965  68.459  1.00  0.00    -0.095 C  
BRANCH   6   7
HETATM    7  C   UNL     1      -5.598  14.970  67.410  1.00  0.00     0.250 C  
BRANCH   7   8
HETATM    8  C   UNL     1      -6.790  14.170  67.925  1.00  0.00    -0.173 C  
BRANCH   8   9
HETATM    9  C   UNL     1      -6.394  12.710  68.073  1.00  0.00    -0.093 C  
BRANCH   9  10
HETATM   10  C   UNL     1      -7.292  11.974  69.061  1.00  0.00    -0.018 C  
BRANCH  10  11
HETATM   11  C   UNL     1      -8.514  11.348  68.367  1.00  0.00    -0.155 C  
BRANCH  11  12
HETATM   12  C   UNL     1      -8.841   9.979  68.965  1.00  0.00    -0.159 C  
BRANCH  12  13
HETATM   13  N   UNL     1     -10.327   9.593  68.906  1.00  0.00    -0.196 N  
HETATM   14  C   UNL     1     -11.176  10.497  69.793  1.00  0.00    -0.298 C  
HETATM   15  C   UNL     1     -10.841   9.687  67.466  1.00  0.00    -0.198 C  
BRANCH  13  16
HETATM   16  C   UNL     1     -10.493   8.095  69.352  1.00  0.00    -0.220 C  
BRANCH  16  17
HETATM   17  C   UNL     1      -9.247   7.249  69.066  1.00  0.00    -0.139 C  
BRANCH  17  18
HETATM   18  O   UNL     1      -9.280   6.696  67.753  1.00  0.00    -0.114 OA 
BRANCH  18  19
HETATM   19  C   UNL     1      -8.921   5.366  67.726  1.00  0.00    -0.108 A  
HETATM   20  C   UNL     1      -8.063   4.990  66.695  1.00  0.00    -0.108 A  
HETATM   21  C   UNL     1      -7.680   3.654  66.555  1.00  0.00    -0.084 A  
HETATM   22  C   UNL     1      -8.141   2.692  67.453  1.00  0.00    -0.074 A  
HETATM   23  C   UNL     1      -8.970   3.069  68.506  1.00  0.00    -0.190 A  
HETATM   24  C   UNL     1      -9.351   4.402  68.647  1.00  0.00    -0.206 A  
ENDBRANCH  18  19
ENDBRANCH  17  18
ENDBRANCH  16  17
ENDBRANCH  13  16
ENDBRANCH  12  13
ENDBRANCH  11  12
ENDBRANCH  10  11
ENDBRANCH   9  10
ENDBRANCH   8   9
ENDBRANCH   7   8
ENDBRANCH   6   7
ENDBRANCH   5   6
ENDBRANCH   4   5
ENDBRANCH   3   4
ENDBRANCH   2   3
TORSDOF 15
ENDMDL
MODEL      372
REMARK 921   NORMALIZED FREE ENERGY PREDICTED BY IDOCK:   -1.02 KCAL/MOL
REMARK 922        TOTAL FREE ENERGY PREDICTED BY IDOCK:   -3.04 KCAL/MOL
REMARK 923 INTER-LIGAND FREE ENERGY PREDICTED BY IDOCK:   -2.21 KCAL/MOL
REMARK 924 INTRA-LIGAND FREE ENERGY PREDICTED BY IDOCK:   -0.83 KCAL/MOL
REMARK 927      BINDING AFFINITY PREDICTED BY RF-SCORE:    0.00 PKD
ROOT
HETATM    1  C   UNL     1      -6.417  20.484  70.949  1.00  0.00     0.286 C  
HETATM    2  C   UNL     1      -6.846  19.449  69.925  1.00  0.00    -0.094 C  
ENDROOT
BRANCH   2   3
HETATM    3  C   UNL     1      -5.722  18.457  69.642  1.00  0.00    -0.242 C  
BRANCH   3   4
HETATM    4  C   UNL     1      -5.856  17.221  70.524  1.00  0.00     0.090 C  
BRANCH   4   5
HETATM    5  C   UNL     1      -6.125  15.978  69.683  1.00  0.00    -0.172 C  
BRANCH   5   6
HETATM    6  C   UNL     1      -5.179  15.932  68.491  1.00  0.00    -0.098 C  
BRANCH   6   7
HETATM    7  C   UNL     1      -5.667  14.931  67.456  1.00  0.00     0.098 C  
BRANCH   7   8
HETATM    8  C   UNL     1      -6.859  14.144  67.990  1.00  0.00    -0.149 C  
BRANCH   8   9
HETATM    9  C   UNL     1      -6.472  12.683  68.148  1.00  0.00    -0.080 C  
BRANCH   9  10
HETATM   10  C   UNL     1      -7.366  11.962  69.151  1.00  0.00     0.022 C  
BRANCH  10  11
HETATM   11  C   UNL     1      -8.599  11.338  68.474  1.00  0.00    -0.156 C  
BRANCH  11  12
HETATM   12  C   UNL     1      -8.929   9.977  69.088  1.00  0.00    -0.169 C  
BRANCH  12  13
HETATM   13  N   UNL     1     -10.419   9.601  69.046  1.00  0.00    -0.207 N  
HETATM   14  C   UNL     1     -11.253  10.519  69.932  1.00  0.00    -0.307 C  
HETATM   15  C   UNL     1     -10.944   9.685  67.610  1.00  0.00    -0.124 C  
BRANCH  13  16
HETATM   16  C   UNL     1     -10.591   8.108  69.508  1.00  0.00    -0.213 C  
BRANCH  16  17
HETATM   17  C   UNL     1      -9.353   7.251  69.219  1.00  0.00    -0.154 C  
BRANCH  17  18
HETATM   18  O   UNL     1      -9.446   5.971  69.839  1.00  0.00    -0.148 OA 
BRANCH  18  19
HETATM   19  C   UNL     1      -8.279   5.600  70.470  1.00  0.00    -0.116 A  
HETATM   20  C   UNL     1      -7.307   5.021  69.656  1.00  0.00    -0.056 A  
HETATM   21  C   UNL     1      -6.108   4.567  70.211  1.00  0.00    -0.018 A  
HETATM   22  C   UNL     1      -5.871   4.702  71.580  1.00  0.00    -0.016 A  
HETATM   23  C   UNL     1      -6.825   5.311  72.391  1.00  0.00    -0.078 A  
HETATM   24  C   UNL     1      -8.020   5.766  71.836  1.00  0.00    -0.107 A  
ENDBRANCH  18  19
ENDBRANCH  17  18
ENDBRANCH  16  17
ENDBRANCH  13  16
ENDBRANCH  12  13
ENDBRANCH  11  12
ENDBRANCH  10  11
ENDBRANCH   9  10
ENDBRANCH   8   9
ENDBRANCH   7   8
ENDBRANCH   6   7
ENDBRANCH   5   6
ENDBRANCH   4   5
ENDBRANCH   3   4
ENDBRANCH   2   3
TORSDOF 15
ENDMDL
MODEL      373
REMARK 921   NORMALIZED FREE ENERGY PREDICTED BY IDOCK:   -0.79 KCAL/MOL
REMARK 922        TOTAL FREE ENERGY PREDICTED BY IDOCK:   -2.61 KCAL/MOL
REMARK 923 INTER-LIGAND FREE ENERGY PREDICTED BY IDOCK:   -2.55 KCAL/MOL
REMARK 924 INTRA-LIGAND FREE ENERGY PREDICTED BY IDOCK:   -0.06 KCAL/MOL
REMARK 927      BINDING AFFINITY PREDICTED BY RF-SCORE:    0.00 PKD
ROOT
HETATM    1  C   UNL     1      -5.706   6.072  74.564  1.00  0.00    -0.055 C  
HETATM    2  C   UNL     1      -5.917   7.550  74.290  1.00  0.00    -0.073 C  
ENDROOT
BRANCH   2   3
HETATM    3  C   UNL     1      -7.285   7.803  73.666  1.00  0.00    -0.143 C  
BRANCH   3   4
HETATM    4  C   UNL     1      -7.515   6.882  72.473  1.00  0.00    -0.090 C  
BRANCH   4   5
HETATM    5  C   UNL     1      -6.349   6.954  71.495  1.00  0.00    -0.041 C  
BRANCH   5   6
HETATM    6  C   UNL     1      -5.536   5.667  71.546  1.00  0.00    -0.020 C  
BRANCH   6   7
HETATM    7  C   UNL     1      -5.604   4.936  70.214  1.00  0.00    -0.015 C  
BRANCH   7   8
HETATM    8  C   UNL     1      -6.677   3.854  70.249  1.00  0.00    -0.033 C  
BRANCH   8   9
HETATM    9  C   UNL     1      -7.866   4.292  69.408  1.00  0.00    -0.057 C  
BRANCH   9  10
HETATM   10  C   UNL     1      -9.143   4.388  70.235  1.00  0.00    -0.162 C  
BRANCH  10  11
HETATM   11  C   UNL     1     -10.028   5.564  69.786  1.00  0.00    -0.279 C  
BRANCH  11  12
HETATM   12  C   UNL     1      -9.195   6.639  69.087  1.00  0.00    -0.136 C  
BRANCH  12  13
HETATM   13  N   UNL     1      -9.672   6.998  67.671  1.00  0.00    -0.133 N  
HETATM   14  C   UNL     1     -10.461   8.303  67.659  1.00  0.00    -0.235 C  
HETATM   15  C   UNL     1      -8.473   7.134  66.728  1.00  0.00    -0.121 C  
BRANCH  13  16
HETATM   16  C   UNL     1     -10.562   5.829  67.111  1.00  0.00    -0.291 C  
BRANCH  16  17
HETATM   17  C   UNL     1      -9.736   4.620  66.657  1.00  0.00    -0.199 C  
BRANCH  17  18
HETATM   18  O   UNL     1      -9.445   4.679  65.263  1.00  0.00    -0.161 OA 
BRANCH  18  19
HETATM   19  C   UNL     1      -8.117   4.440  64.987  1.00  0.00    -0.099 A  
HETATM   20  C   UNL     1      -7.697   4.762  63.698  1.00  0.00    -0.071 A  
HETATM   21  C   UNL     1      -6.380   4.510  63.306  1.00  0.00    -0.026 A  
HETATM   22  C   UNL     1      -5.473   3.950  64.206  1.00  0.00    -0.013 A  
HETATM   23  C   UNL     1      -5.878   3.659  65.506  1.00  0.00    -0.022 A  
HETATM   24  C   UNL     1      -7.192   3.912  65.897  1.00  0.00    -0.071 A  
ENDBRANCH  18  19
ENDBRANCH  17  18
ENDBRANCH  16  17
ENDBRANCH  13  16
ENDBRANCH  12  13
ENDBRANCH  11  12
ENDBRANCH  10  11
ENDBRANCH   9  10
ENDBRANCH   8   9
ENDBRANCH   7   8
ENDBRANCH   6   7
ENDBRANCH   5   6
ENDBRANCH   4   5
ENDBRANCH   3   4
ENDBRANCH   2   3
TORSDOF 15
ENDMDL
MODEL      374
REMARK 921   NORMALIZED FREE ENERGY PREDICTED BY IDOCK:    0.00 KCAL/MOL
REMARK 922        TOTAL FREE ENERGY PREDICTED BY IDOCK:   -1.12 KCAL/MOL
REMARK 923 INTER-LIGAND FREE ENERGY PREDICTED BY IDOCK:   -3.11 KCAL/MOL
REMARK 924 INTRA-LIGAND FREE ENERGY PREDICTED BY IDOCK:    1.98 KCAL/MOL
REMARK 927      BINDING AFFINITY PREDICTED BY RF-SCORE:    0.00 PKD
ROOT
HETATM    1  C   UNL     1      -9.029   9.270  70.978  1.00  0.00    -0.225 C  
HETATM    2  C   UNL     1      -9.765   9.481  69.668  1.00  0.00    -0.215 C  
ENDROOT
BRANCH   2   3
HETATM    3  C   UNL     1     -10.956  10.417  69.852  1.00  0.00    -0.364 C  
BRANCH   3   4
HETATM    4  C   UNL     1     -10.561  11.861  69.564  1.00  0.00     0.195 C  
BRANCH   4   5
HETATM    5  C   UNL     1     -10.857  12.229  68.115  1.00  0.00    -0.258 C  
BRANCH   5   6
HETATM    6  C   UNL     1     -12.303  12.686  67.972  1.00  0.00     0.336 C  
BRANCH   6   7
HETATM    7  C   UNL     1     -12.369  14.074  67.355  1.00  0.00    -0.150 C  
BRANCH   7   8
HETATM    8  C   UNL     1     -12.007  14.022  65.875  1.00  0.00    -0.424 C  
BRANCH   8   9
HETATM    9  C   UNL     1     -10.514  13.778  65.727  1.00  0.00    -0.303 C  
BRANCH   9  10
HETATM   10  C   UNL     1     -10.176  13.106  64.400  1.00  0.00    -0.319 C  
BRANCH  10  11
HETATM   11  C   UNL     1     -11.202  12.022  64.030  1.00  0.00    -0.468 C  
BRANCH  11  12
HETATM   12  C   UNL     1     -10.522  10.664  63.848  1.00  0.00    -0.038 C  
BRANCH  12  13
HETATM   13  N   UNL     1      -9.621  10.238  65.018  1.00  0.00    -0.260 N  
HETATM   14  C   UNL     1     -10.391   9.417  66.047  1.00  0.00    -0.011 C  
HETATM   15  C   UNL     1      -8.442   9.408  64.502  1.00  0.00    -0.177 C  
BRANCH  13  16
HETATM   16  C   UNL     1      -9.015  11.519  65.699  1.00  0.00    -0.074 C  
BRANCH  16  17
HETATM   17  C   UNL     1      -7.769  11.212  66.539  1.00  0.00    -0.146 C  
BRANCH  17  18
HETATM   18  O   UNL     1      -6.722  12.144  66.282  1.00  0.00     0.331 OA 
BRANCH  18  19
HETATM   19  C   UNL     1      -6.606  13.098  67.268  1.00  0.00     0.057 A  
HETATM   20  C   UNL     1      -5.503  12.971  68.110  1.00  0.00    -0.092 A  
HETATM   21  C   UNL     1      -5.324  13.863  69.171  1.00  0.00    -0.077 A  
HETATM   22  C   UNL     1      -6.239  14.894  69.385  1.00  0.00    -0.114 A  
HETATM   23  C   UNL     1      -7.324  15.047  68.525  1.00  0.00    -0.117 A  
HETATM   24  C   UNL     1      -7.500  14.158  67.465  1.00  0.00    -0.192 A  
ENDBRANCH  18  19
ENDBRANCH  17  18
ENDBRANCH  16  17
ENDBRANCH  13  16
ENDBRANCH  12  13
ENDBRANCH  11  12
ENDBRANCH  10  11
ENDBRANCH   9  10
ENDBRANCH   8   9
ENDBRANCH   7   8
ENDBRANCH   6   7
ENDBRANCH   5   6
ENDBRANCH   4   5
ENDBRANCH   3   4
ENDBRANCH   2   3
TORSDOF 15
ENDMDL
MODEL      375
REMARK 921   NORMALIZED FREE ENERGY PREDICTED BY IDOCK:    0.03 KCAL/MOL
REMARK 922        TOTAL FREE ENERGY PREDICTED BY IDOCK:   -1.06 KCAL/MOL
REMARK 923 INTER-LIGAND FREE ENERGY PREDICTED BY IDOCK:   -2.51 KCAL/MOL
REMARK 924 INTRA-LIGAND FREE ENERGY PREDICTED BY IDOCK:    1.45 KCAL/MOL
REMARK 927      BINDING AFFINITY PREDICTED BY RF-SCORE:    0.00 PKD
ROOT
HETATM    1  C   UNL     1      -6.941   8.967  65.188  1.00  0.00    -0.080 C  
HETATM    2  C   UNL     1      -6.158   8.736  66.468  1.00  0.00    -0.057 C  
ENDROOT
BRANCH   2   3
HETATM    3  C   UNL     1      -7.044   8.923  67.696  1.00  0.00    -0.076 C  
BRANCH   3   4
HETATM    4  C   UNL     1      -8.450   9.350  67.290  1.00  0.00    -0.125 C  
BRANCH   4   5
HETATM    5  C   UNL     1      -9.326   9.577  68.515  1.00  0.00    -0.138 C  
BRANCH   5   6
HETATM    6  C   UNL     1      -9.883  10.995  68.511  1.00  0.00    -0.194 C  
BRANCH   6   7
HETATM    7  C   UNL     1      -9.061  11.891  67.599  1.00  0.00    -0.179 C  
BRANCH   7   8
HETATM    8  C   UNL     1      -9.677  11.950  66.205  1.00  0.00    -0.251 C  
BRANCH   8   9
HETATM    9  C   UNL     1     -10.890  12.866  66.225  1.00  0.00    -0.295 C  
BRANCH   9  10
HETATM   10  C   UNL     1     -10.781  13.930  67.313  1.00  0.00    -0.286 C  
BRANCH  10  11
HETATM   11  C   UNL     1     -12.054  14.789  67.403  1.00  0.00    -0.122 C  
BRANCH  11  12
HETATM   12  C   UNL     1     -11.862  15.951  68.378  1.00  0.00    -0.121 C  
BRANCH  12  13
HETATM   13  N   UNL     1     -10.767  16.951  67.974  1.00  0.00    -0.364 N  
HETATM   14  C   UNL     1      -9.743  16.313  67.042  1.00  0.00    -0.239 C  
HETATM   15  C   UNL     1     -11.391  18.162  67.273  1.00  0.00     0.703 C  
BRANCH  13  16
HETATM   16  C   UNL     1     -10.054  17.489  69.267  1.00  0.00    -0.157 C  
BRANCH  16  17
HETATM   17  C   UNL     1      -8.759  16.734  69.590  1.00  0.00     0.646 C  
BRANCH  17  18
HETATM   18  O   UNL     1      -7.647  17.621  69.689  1.00  0.00     0.236 OA 
BRANCH  18  19
HETATM   19  C   UNL     1      -7.148  17.988  68.459  1.00  0.00    -0.256 A  
HETATM   20  C   UNL     1      -7.928  18.884  67.730  1.00  0.00    -0.275 A  
HETATM   21  C   UNL     1      -7.530  19.280  66.451  1.00  0.00    -0.271 A  
HETATM   22  C   UNL     1      -6.345  18.791  65.900  1.00  0.00    -0.260 A  
HETATM   23  C   UNL     1      -5.545  17.923  66.638  1.00  0.00    -0.197 A  
HETATM   24  C   UNL     1      -5.941  17.531  67.916  1.00  0.00    -0.151 A  
ENDBRANCH  18  19
ENDBRANCH  17  18
ENDBRANCH  16  17
ENDBRANCH  13  16
ENDBRANCH  12  13
ENDBRANCH  11  12
ENDBRANCH  10  11
ENDBRANCH   9  10
ENDBRANCH   8   9
ENDBRANCH   7   8
ENDBRANCH   6   7
ENDBRANCH   5   6
ENDBRANCH   4   5
ENDBRANCH   3   4
ENDBRANCH   2   3
TORSDOF 15
ENDMDL
MODEL      376
REMARK 921   NORMALIZED FREE ENERGY PREDICTED BY IDOCK:    0.79 KCAL/MOL
REMARK 922        TOTAL FREE ENERGY PREDICTED BY IDOCK:    0.36 KCAL/MOL
REMARK 923 INTER-LIGAND FREE ENERGY PREDICTED BY IDOCK:   -2.06 KCAL/MOL
REMARK 924 INTRA-LIGAND FREE ENERGY PREDICTED BY IDOCK:    2.42 KCAL/MOL
REMARK 927      BINDING AFFINITY PREDICTED BY RF-SCORE:    0.00 PKD
ROOT
HETATM    1  C   UNL     1      -9.603  10.045  70.756  1.00  0.00     0.415 C  
HETATM    2  C   UNL     1      -8.803   8.862  71.272  1.00  0.00    -0.298 C  
ENDROOT
BRANCH   2   3
HETATM    3  C   UNL     1      -8.621   7.806  70.186  1.00  0.00    -0.139 C  
BRANCH   3   4
HETATM    4  C   UNL     1      -7.786   8.352  69.033  1.00  0.00    -0.102 C  
BRANCH   4   5
HETATM    5  C   UNL     1      -8.392   7.965  67.690  1.00  0.00    -0.124 C  
BRANCH   5   6
HETATM    6  C   UNL     1      -8.392   6.451  67.527  1.00  0.00    -0.117 C  
BRANCH   6   7
HETATM    7  C   UNL     1      -9.760   5.875  67.858  1.00  0.00    -0.128 C  
BRANCH   7   8
HETATM    8  C   UNL     1     -10.642   5.833  66.615  1.00  0.00    -0.347 C  
BRANCH   8   9
HETATM    9  C   UNL     1      -9.882   5.169  65.478  1.00  0.00     0.003 C  
BRANCH   9  10
HETATM   10  C   UNL     1      -9.143   3.918  65.941  1.00  0.00    -0.146 C  
BRANCH  10  11
HETATM   11  C   UNL     1      -7.628   4.024  65.697  1.00  0.00    -0.085 C  
BRANCH  11  12
HETATM   12  C   UNL     1      -7.160   2.964  64.699  1.00  0.00    -0.050 C  
BRANCH  12  13
HETATM   13  N   UNL     1      -7.907   2.975  63.356  1.00  0.00    -0.068 N  
HETATM   14  C   UNL     1      -8.020   1.574  62.767  1.00  0.00    -0.055 C  
HETATM   15  C   UNL     1      -9.315   3.551  63.540  1.00  0.00    -0.111 C  
BRANCH  13  16
HETATM   16  C   UNL     1      -7.155   3.921  62.351  1.00  0.00    -0.036 C  
BRANCH  16  17
HETATM   17  C   UNL     1      -6.686   5.227  63.003  1.00  0.00    -0.026 C  
BRANCH  17  18
HETATM   18  O   UNL     1      -7.660   6.258  62.869  1.00  0.00    -0.065 OA 
BRANCH  18  19
HETATM   19  C   UNL     1      -7.251   7.452  63.419  1.00  0.00    -0.079 A  
HETATM   20  C   UNL     1      -7.894   8.593  62.942  1.00  0.00    -0.137 A  
HETATM   21  C   UNL     1      -7.514   9.856  63.404  1.00  0.00    -0.132 A  
HETATM   22  C   UNL     1      -6.500   9.982  64.354  1.00  0.00    -0.131 A  
HETATM   23  C   UNL     1      -5.879   8.843  64.859  1.00  0.00    -0.063 A  
HETATM   24  C   UNL     1      -6.260   7.583  64.400  1.00  0.00    -0.044 A  
ENDBRANCH  18  19
ENDBRANCH  17  18
ENDBRANCH  16  17
ENDBRANCH  13  16
ENDBRANCH  12  13
ENDBRANCH  11  12
ENDBRANCH  10  11
ENDBRANCH   9  10
ENDBRANCH   8   9
ENDBRANCH   7   8
ENDBRANCH   6   7
ENDBRANCH   5   6
ENDBRANCH   4   5
ENDBRANCH   3   4
ENDBRANCH   2   3
TORSDOF 15
ENDMDL
MODEL      377
REMARK 921   NORMALIZED FREE ENERGY PREDICTED BY IDOCK:    1.51 KCAL/MOL
REMARK 922        TOTAL FREE ENERGY PREDICTED BY IDOCK:    1.71 KCAL/MOL
REMARK 923 INTER-LIGAND FREE ENERGY PREDICTED BY IDOCK:    1.67 KCAL/MOL
REMARK 924 INTRA-LIGAND FREE ENERGY PREDICTED BY IDOCK:    0.04 KCAL/MOL
REMARK 927      BINDING AFFINITY PREDICTED BY RF-SCORE:    0.00 PKD
ROOT
HETATM    1  C   UNL     1     -13.816   8.071  73.605  1.00  0.00     2.922 C  
HETATM    2  C   UNL     1     -13.878   9.438  72.948  1.00  0.00     0.019 C  
ENDROOT
BRANCH   2   3
HETATM    3  C   UNL     1     -12.819   9.572  71.859  1.00  0.00    -0.508 C  
BRANCH   3   4
HETATM    4  C   UNL     1     -13.401   9.233  70.491  1.00  0.00     0.480 C  
BRANCH   4   5
HETATM    5  C   UNL     1     -12.921  10.220  69.434  1.00  0.00     1.263 C  
BRANCH   5   6
HETATM    6  C   UNL     1     -11.989  11.250  70.058  1.00  0.00    -0.447 C  
BRANCH   6   7
HETATM    7  C   UNL     1     -11.301  12.074  68.981  1.00  0.00    -0.331 C  
BRANCH   7   8
HETATM    8  C   UNL     1      -9.921  11.508  68.669  1.00  0.00    -0.207 C  
BRANCH   8   9
HETATM    9  C   UNL     1      -9.554  11.831  67.229  1.00  0.00    -0.182 C  
BRANCH   9  10
HETATM   10  C   UNL     1      -8.511  10.864  66.677  1.00  0.00    -0.151 C  
BRANCH  10  11
HETATM   11  C   UNL     1      -7.140  11.540  66.506  1.00  0.00    -0.009 C  
BRANCH  11  12
HETATM   12  C   UNL     1      -6.608  12.046  67.848  1.00  0.00    -0.076 C  
BRANCH  12  13
HETATM   13  N   UNL     1      -6.742  13.563  68.057  1.00  0.00    -0.119 N  
HETATM   14  C   UNL     1      -7.486  14.224  66.903  1.00  0.00     0.550 C  
HETATM   15  C   UNL     1      -7.491  13.851  69.362  1.00  0.00     0.190 C  
BRANCH  13  16
HETATM   16  C   UNL     1      -5.310  14.194  68.204  1.00  0.00    -0.120 C  
BRANCH  16  17
HETATM   17  C   UNL     1      -5.291  15.699  67.910  1.00  0.00    -0.133 C  
BRANCH  17  18
HETATM   18  O   UNL     1      -5.996  16.435  68.906  1.00  0.00    -0.127 OA 
BRANCH  18  19
HETATM   19  C   UNL     1      -6.051  17.784  68.632  1.00  0.00    -0.192 A  
HETATM   20  C   UNL     1      -5.198  18.234  67.625  1.00  0.00    -0.144 A  
HETATM   21  C   UNL     1      -5.146  19.593  67.307  1.00  0.00    -0.158 A  
HETATM   22  C   UNL     1      -5.956  20.506  67.984  1.00  0.00    -0.302 A  
HETATM   23  C   UNL     1      -6.835  20.056  68.965  1.00  0.00    -0.302 A  
HETATM   24  C   UNL     1      -6.888  18.699  69.281  1.00  0.00    -0.247 A  
ENDBRANCH  18  19
ENDBRANCH  17  18
ENDBRANCH  16  17
ENDBRANCH  13  16
ENDBRANCH  12  13
ENDBRANCH  11  12
ENDBRANCH  10  11
ENDBRANCH   9  10
ENDBRANCH   8   9
ENDBRANCH   7   8
ENDBRANCH   6   7
ENDBRANCH   5   6
ENDBRANCH   4   5
ENDBRANCH   3   4
ENDBRANCH   2   3
TORSDOF 15
ENDMDL
MODEL      378
REMARK 921   NORMALIZED FREE ENERGY PREDICTED BY IDOCK:    1.95 KCAL/MOL
REMARK 922        TOTAL FREE ENERGY PREDICTED BY IDOCK:    2.54 KCAL/MOL
REMARK 923 INTER-LIGAND FREE ENERGY PREDICTED BY IDOCK:   -3.30 KCAL/MOL
REMARK 924 INTRA-LIGAND FREE ENERGY PREDICTED BY IDOCK:    5.84 KCAL/MOL
REMARK 927      BINDING AFFINITY PREDICTED BY RF-SCORE:    0.00 PKD
ROOT
HETATM    1  C   UNL     1      -5.967  14.076  68.107  1.00  0.00    -0.126 C  
HETATM    2  C   UNL     1      -6.259  12.629  67.752  1.00  0.00    -0.131 C  
ENDROOT
BRANCH   2   3
HETATM    3  C   UNL     1      -7.755  12.403  67.557  1.00  0.00    -0.161 C  
BRANCH   3   4
HETATM    4  C   UNL     1      -8.434  13.673  67.057  1.00  0.00    -0.141 C  
BRANCH   4   5
HETATM    5  C   UNL     1      -9.621  14.040  67.939  1.00  0.00    -0.221 C  
BRANCH   5   6
HETATM    6  C   UNL     1      -9.149  14.376  69.347  1.00  0.00     0.308 C  
BRANCH   6   7
HETATM    7  C   UNL     1      -8.849  15.861  69.473  1.00  0.00    -0.115 C  
BRANCH   7   8
HETATM    8  C   UNL     1      -9.031  16.562  68.131  1.00  0.00    -0.207 C  
BRANCH   8   9
HETATM    9  C   UNL     1     -10.222  15.961  67.402  1.00  0.00    -0.270 C  
BRANCH   9  10
HETATM   10  C   UNL     1     -10.167  16.230  65.902  1.00  0.00    -0.384 C  
BRANCH  10  11
HETATM   11  C   UNL     1     -10.956  15.179  65.103  1.00  0.00    -0.428 C  
BRANCH  11  12
HETATM   12  C   UNL     1     -10.680  13.770  65.631  1.00  0.00    -0.288 C  
BRANCH  12  13
HETATM   13  N   UNL     1     -11.938  12.931  65.902  1.00  0.00    -0.428 N  
HETATM   14  C   UNL     1     -12.352  12.999  67.368  1.00  0.00     0.120 C  
HETATM   15  C   UNL     1     -13.100  13.425  65.035  1.00  0.00     0.012 C  
BRANCH  13  16
HETATM   16  C   UNL     1     -11.665  11.438  65.491  1.00  0.00     0.392 C  
BRANCH  16  17
HETATM   17  C   UNL     1     -10.456  11.291  64.560  1.00  0.00    -0.334 C  
BRANCH  17  18
HETATM   18  O   UNL     1      -9.278  10.945  65.282  1.00  0.00    -0.199 OA 
BRANCH  18  19
HETATM   19  C   UNL     1      -8.410  10.170  64.545  1.00  0.00    -0.167 A  
HETATM   20  C   UNL     1      -8.307  10.492  63.193  1.00  0.00    -0.146 A  
HETATM   21  C   UNL     1      -7.489   9.732  62.353  1.00  0.00    -0.121 A  
HETATM   22  C   UNL     1      -6.760   8.658  62.863  1.00  0.00    -0.090 A  
HETATM   23  C   UNL     1      -6.832   8.355  64.220  1.00  0.00    -0.066 A  
HETATM   24  C   UNL     1      -7.647   9.114  65.059  1.00  0.00    -0.106 A  
ENDBRANCH  18  19
ENDBRANCH  17  18
ENDBRANCH  16  17
ENDBRANCH  13  16
ENDBRANCH  12  13
ENDBRANCH  11  12
ENDBRANCH  10  11
ENDBRANCH   9  10
ENDBRANCH   8   9
ENDBRANCH   7   8
ENDBRANCH   6   7
ENDBRANCH   5   6
ENDBRANCH   4   5
ENDBRANCH   3   4
ENDBRANCH   2   3
TORSDOF 15
ENDMDL
MODEL      379
REMARK 921   NORMALIZED FREE ENERGY PREDICTED BY IDOCK:    2.74 KCAL/MOL
REMARK 922        TOTAL FREE ENERGY PREDICTED BY IDOCK:    4.02 KCAL/MOL
REMARK 923 INTER-LIGAND FREE ENERGY PREDICTED BY IDOCK:   -2.55 KCAL/MOL
REMARK 924 INTRA-LIGAND FREE ENERGY PREDICTED BY IDOCK:    6.57 KCAL/MOL
REMARK 927      BINDING AFFINITY PREDICTED BY RF-SCORE:    0.00 PKD
ROOT
HETATM    1  C   UNL     1      -5.125  13.337  67.669  1.00  0.00    -0.017 C  
HETATM    2  C   UNL     1      -5.394  11.878  67.346  1.00  0.00    -0.104 C  
ENDROOT
BRANCH   2   3
HETATM    3  C   UNL     1      -6.891  11.590  67.308  1.00  0.00    -0.118 C  
BRANCH   3   4
HETATM    4  C   UNL     1      -7.674  12.841  66.927  1.00  0.00     0.113 C  
BRANCH   4   5
HETATM    5  C   UNL     1      -8.742  13.155  67.968  1.00  0.00    -0.190 C  
BRANCH   5   6
HETATM    6  C   UNL     1      -8.097  13.419  69.323  1.00  0.00     0.572 C  
BRANCH   6   7
HETATM    7  C   UNL     1      -7.778  14.896  69.487  1.00  0.00    -0.121 C  
BRANCH   7   8
HETATM    8  C   UNL     1      -8.147  15.669  68.225  1.00  0.00    -0.134 C  
BRANCH   8   9
HETATM    9  C   UNL     1      -9.435  15.108  67.645  1.00  0.00    -0.201 C  
BRANCH   9  10
HETATM   10  C   UNL     1      -9.559  15.394  66.152  1.00  0.00    -0.362 C  
BRANCH  10  11
HETATM   11  C   UNL     1     -10.468  14.373  65.447  1.00  0.00    -0.391 C  
BRANCH  11  12
HETATM   12  C   UNL     1     -10.186  12.955  65.945  1.00  0.00    -0.290 C  
BRANCH  12  13
HETATM   13  N   UNL     1     -11.435  12.162  66.361  1.00  0.00    -0.363 N  
HETATM   14  C   UNL     1     -11.684  12.256  67.862  1.00  0.00    -0.347 C  
HETATM   15  C   UNL     1     -12.667  12.692  65.619  1.00  0.00     0.239 C  
BRANCH  13  16
HETATM   16  C   UNL     1     -11.260  10.658  65.938  1.00  0.00     0.445 C  
BRANCH  16  17
HETATM   17  C   UNL     1      -9.864  10.356  65.383  1.00  0.00    -0.283 C  
BRANCH  17  18
HETATM   18  O   UNL     1      -9.004   9.824  66.387  1.00  0.00    -0.146 OA 
BRANCH  18  19
HETATM   19  C   UNL     1      -9.624   8.875  67.169  1.00  0.00    -0.172 A  
HETATM   20  C   UNL     1     -10.501   8.020  66.504  1.00  0.00    -0.022 A  
HETATM   21  C   UNL     1     -11.214   7.054  67.219  1.00  0.00    -0.155 A  
HETATM   22  C   UNL     1     -11.043   6.930  68.598  1.00  0.00    -0.152 A  
HETATM   23  C   UNL     1     -10.141   7.759  69.261  1.00  0.00    -0.199 A  
HETATM   24  C   UNL     1      -9.428   8.720  68.547  1.00  0.00    -0.149 A  
ENDBRANCH  18  19
ENDBRANCH  17  18
ENDBRANCH  16  17
ENDBRANCH  13  16
ENDBRANCH  12  13
ENDBRANCH  11  12
ENDBRANCH  10  11
ENDBRANCH   9  10
ENDBRANCH   8   9
ENDBRANCH   7   8
ENDBRANCH   6   7
ENDBRANCH   5   6
ENDBRANCH   4   5
ENDBRANCH   3   4
ENDBRANCH   2   3
TORSDOF 15
ENDMDL
MODEL      380
REMARK 921   NORMALIZED FREE ENERGY PREDICTED BY IDOCK:    7.33 KCAL/MOL
REMARK 922        TOTAL FREE ENERGY PREDICTED BY IDOCK:   12.64 KCAL/MOL
REMARK 923 INTER-LIGAND FREE ENERGY PREDICTED BY IDOCK:    7.07 KCAL/MOL
REMARK 924 INTRA-LIGAND FREE ENERGY PREDICTED BY IDOCK:    5.57 KCAL/MOL
REMARK 927      BINDING AFFINITY PREDICTED BY RF-SCORE:    0.00 PKD
ROOT
HETATM    1  C   UNL     1      -9.835   9.728  64.986  1.00  0.00    -0.243 C  
HETATM    2  C   UNL     1      -9.996  10.171  63.543  1.00  0.00     0.164 C  
ENDROOT
BRANCH   2   3
HETATM    3  C   UNL     1      -8.776  10.955  63.070  1.00  0.00    -0.182 C  
BRANCH   3   4
HETATM    4  C   UNL     1      -8.254  11.865  64.176  1.00  0.00     2.000 C  
BRANCH   4   5
HETATM    5  C   UNL     1      -6.811  11.523  64.528  1.00  0.00     2.305 C  
BRANCH   5   6
HETATM    6  C   UNL     1      -6.683  11.248  66.020  1.00  0.00     0.132 C  
BRANCH   6   7
HETATM    7  C   UNL     1      -8.015  11.461  66.722  1.00  0.00    -0.160 C  
BRANCH   7   8
HETATM    8  C   UNL     1      -8.816  12.561  66.034  1.00  0.00     0.255 C  
BRANCH   8   9
HETATM    9  C   UNL     1      -8.195  13.912  66.351  1.00  0.00     0.813 C  
BRANCH   9  10
HETATM   10  C   UNL     1      -8.030  14.125  67.852  1.00  0.00    -0.157 C  
BRANCH  10  11
HETATM   11  C   UNL     1      -9.290  14.741  68.484  1.00  0.00    -0.199 C  
BRANCH  11  12
HETATM   12  C   UNL     1      -9.062  15.054  69.964  1.00  0.00     0.400 C  
BRANCH  12  13
HETATM   13  N   UNL     1     -10.242  15.751  70.659  1.00  0.00     0.159 N  
HETATM   14  C   UNL     1     -10.256  15.466  72.157  1.00  0.00     2.519 C  
HETATM   15  C   UNL     1     -10.163  17.265  70.442  1.00  0.00     1.272 C  
BRANCH  13  16
HETATM   16  C   UNL     1     -11.588  15.266  70.008  1.00  0.00    -0.305 C  
BRANCH  16  17
HETATM   17  C   UNL     1     -12.824  15.894  70.661  1.00  0.00     0.001 C  
BRANCH  17  18
HETATM   18  O   UNL     1     -13.472  14.980  71.541  1.00  0.00    -0.369 OA 
BRANCH  18  19
HETATM   19  C   UNL     1     -13.007  13.691  71.406  1.00  0.00    -0.347 A  
HETATM   20  C   UNL     1     -12.457  13.371  70.167  1.00  0.00    -0.243 A  
HETATM   21  C   UNL     1     -12.001  12.074  69.916  1.00  0.00    -0.391 A  
HETATM   22  C   UNL     1     -12.081  11.096  70.908  1.00  0.00    -0.427 A  
HETATM   23  C   UNL     1     -12.598  11.421  72.160  1.00  0.00     0.312 A  
HETATM   24  C   UNL     1     -13.050  12.715  72.410  1.00  0.00    -0.241 A  
ENDBRANCH  18  19
ENDBRANCH  17  18
ENDBRANCH  16  17
ENDBRANCH  13  16
ENDBRANCH  12  13
ENDBRANCH  11  12
ENDBRANCH  10  11
ENDBRANCH   9  10
ENDBRANCH   8   9
ENDBRANCH   7   8
ENDBRANCH   6   7
ENDBRANCH   5   6
ENDBRANCH   4   5
ENDBRANCH   3   4
ENDBRANCH   2   3
TORSDOF 15
ENDMDL
MODEL      381
REMARK 921   NORMALIZED FREE ENERGY PREDICTED BY IDOCK:   12.75 KCAL/MOL
REMARK 922        TOTAL FREE ENERGY PREDICTED BY IDOCK:   22.80 KCAL/MOL
REMARK 923 INTER-LIGAND FREE ENERGY PREDICTED BY IDOCK:   14.63 KCAL/MOL
REMARK 924 INTRA-LIGAND FREE ENERGY PREDICTED BY IDOCK:    8.17 KCAL/MOL
REMARK 927      BINDING AFFINITY PREDICTED BY RF-SCORE:    0.00 PKD
ROOT
HETATM    1  C   UNL     1     -12.137  11.361  63.824  1.00  0.00     0.086 C  
HETATM    2  C   UNL     1     -13.034  12.506  64.259  1.00  0.00    -0.253 C  
ENDROOT
BRANCH   2   3
HETATM    3  C   UNL     1     -12.241  13.573  65.006  1.00  0.00    -0.453 C  
BRANCH   3   4
HETATM    4  C   UNL     1     -10.883  13.033  65.442  1.00  0.00    -0.304 C  
BRANCH   4   5
HETATM    5  C   UNL     1     -11.041  11.769  66.279  1.00  0.00    -0.364 C  
BRANCH   5   6
HETATM    6  C   UNL     1     -12.222  11.912  67.231  1.00  0.00     0.500 C  
BRANCH   6   7
HETATM    7  C   UNL     1     -12.208  13.276  67.903  1.00  0.00    -0.129 C  
BRANCH   7   8
HETATM    8  C   UNL     1     -10.836  13.928  67.768  1.00  0.00    -0.261 C  
BRANCH   8   9
HETATM    9  C   UNL     1      -9.850  13.228  68.691  1.00  0.00    -0.096 C  
BRANCH   9  10
HETATM   10  C   UNL     1      -9.302  11.947  68.071  1.00  0.00    -0.193 C  
BRANCH  10  11
HETATM   11  C   UNL     1      -8.279  11.259  68.991  1.00  0.00    -0.026 C  
BRANCH  11  12
HETATM   12  C   UNL     1      -8.905  10.056  69.700  1.00  0.00    -0.199 C  
BRANCH  12  13
HETATM   13  N   UNL     1     -10.189  10.373  70.482  1.00  0.00     0.186 N  
HETATM   14  C   UNL     1     -11.403   9.684  69.868  1.00  0.00    -0.159 C  
HETATM   15  C   UNL     1     -10.045   9.920  71.939  1.00  0.00     2.052 C  
BRANCH  13  16
HETATM   16  C   UNL     1     -10.412  11.929  70.508  1.00  0.00     2.907 C  
BRANCH  16  17
HETATM   17  C   UNL     1     -11.447  12.364  71.552  1.00  0.00     2.970 C  
BRANCH  17  18
HETATM   18  O   UNL     1     -10.987  13.478  72.311  1.00  0.00     4.198 OA 
BRANCH  18  19
HETATM   19  C   UNL     1     -11.999  14.354  72.637  1.00  0.00     0.194 A  
HETATM   20  C   UNL     1     -12.175  15.429  71.767  1.00  0.00    -0.450 A  
HETATM   21  C   UNL     1     -13.145  16.398  72.038  1.00  0.00     0.796 A  
HETATM   22  C   UNL     1     -13.951  16.288  73.171  1.00  0.00     0.151 A  
HETATM   23  C   UNL     1     -13.803  15.198  74.024  1.00  0.00     2.810 A  
HETATM   24  C   UNL     1     -12.837  14.230  73.752  1.00  0.00     0.667 A  
ENDBRANCH  18  19
ENDBRANCH  17  18
ENDBRANCH  16  17
ENDBRANCH  13  16
ENDBRANCH  12  13
ENDBRANCH  11  12
ENDBRANCH  10  11
ENDBRANCH   9  10
ENDBRANCH   8   9
ENDBRANCH   7   8
ENDBRANCH   6   7
ENDBRANCH   5   6
ENDBRANCH   4   5
ENDBRANCH   3   4
ENDBRANCH   2   3
TORSDOF 15
ENDMDL
