MODEL        1
REMARK 921   NORMALIZED FREE ENERGY PREDICTED BY IDOCK:   -7.14 KCAL/MOL
REMARK 922        TOTAL FREE ENERGY PREDICTED BY IDOCK:  -10.38 KCAL/MOL
REMARK 923 INTER-LIGAND FREE ENERGY PREDICTED BY IDOCK:   -9.64 KCAL/MOL
REMARK 924 INTRA-LIGAND FREE ENERGY PREDICTED BY IDOCK:   -0.74 KCAL/MOL
REMARK 927      BINDING AFFINITY PREDICTED BY RF-SCORE:    0.00 PKD
ROOT
HETATM    1  C   UNL     1      -9.780   7.529  73.387  1.00  0.00    -0.291 C  
HETATM    2  O   UNL     1     -11.033   7.673  72.734  1.00  0.00    -0.315 OA 
ENDROOT
BRANCH   2   3
HETATM    3  C   UNL     1     -11.177   8.713  71.853  1.00  0.00    -0.343 A  
HETATM    4  C   UNL     1     -12.398   9.433  71.954  1.00  0.00    -0.375 A  
HETATM    5  C   UNL     1     -12.593  10.623  71.264  1.00  0.00    -0.533 A  
HETATM    6  C   UNL     1     -10.254   9.051  70.846  1.00  0.00    -0.324 A  
HETATM    7  C   UNL     1     -10.588  10.085  69.986  1.00  0.00    -0.344 A  
HETATM    8  C   UNL     1     -11.665  10.910  70.298  1.00  0.00    -0.437 A  
HETATM    9  C   UNL     1     -11.849  11.830  69.202  1.00  0.00    -0.326 C  
HETATM   10  O   UNL     1     -12.407  12.917  69.289  1.00  0.00    -0.132 OA 
HETATM   11  C   UNL     1     -11.278  11.149  67.994  1.00  0.00    -0.359 C  
HETATM   12  C   UNL     1     -10.031  10.455  68.627  1.00  0.00    -0.186 C  
BRANCH   4  13
HETATM   13  O   UNL     1     -13.441   8.881  72.667  1.00  0.00    -0.435 OA 
HETATM   14  C   UNL     1     -14.408   8.273  71.797  1.00  0.00    -0.483 C  
ENDBRANCH   4  13
BRANCH  11  15
HETATM   15  C   UNL     1     -11.329  12.003  66.724  1.00  0.00    -0.398 C  
BRANCH  15  16
HETATM   16  C   UNL     1     -10.062  12.774  66.325  1.00  0.00    -0.267 C  
HETATM   17  C   UNL     1     -10.345  13.760  65.201  1.00  0.00    -0.391 C  
HETATM   18  C   UNL     1     -11.162  14.943  65.706  1.00  0.00    -0.334 C  
HETATM   19  N   UNL     1     -10.409  15.742  66.674  1.00  0.00    -0.285 NA 
HETATM   20  C   UNL     1     -10.032  14.916  67.829  1.00  0.00    -0.222 C  
HETATM   21  C   UNL     1      -9.420  13.538  67.511  1.00  0.00    -0.222 C  
BRANCH  19  22
HETATM   22  C   UNL     1      -9.273  16.453  66.055  1.00  0.00    -0.293 C  
BRANCH  22  23
HETATM   23  C   UNL     1      -9.292  17.941  66.375  1.00  0.00    -0.268 A  
HETATM   24  C   UNL     1      -8.092  18.668  66.385  1.00  0.00    -0.300 A  
HETATM   25  C   UNL     1      -8.072  20.003  66.791  1.00  0.00    -0.356 A  
HETATM   26  C   UNL     1      -9.250  20.630  67.192  1.00  0.00    -0.429 A  
HETATM   27  C   UNL     1     -10.452  19.923  67.183  1.00  0.00    -0.566 A  
HETATM   28  C   UNL     1     -10.475  18.587  66.774  1.00  0.00    -0.432 A  
ENDBRANCH  22  23
ENDBRANCH  19  22
ENDBRANCH  15  16
ENDBRANCH  11  15
ENDBRANCH   2   3
TORSDOF 6
ENDMDL
MODEL        2
REMARK 921   NORMALIZED FREE ENERGY PREDICTED BY IDOCK:   -6.72 KCAL/MOL
REMARK 922        TOTAL FREE ENERGY PREDICTED BY IDOCK:   -9.81 KCAL/MOL
REMARK 923 INTER-LIGAND FREE ENERGY PREDICTED BY IDOCK:   -9.06 KCAL/MOL
REMARK 924 INTRA-LIGAND FREE ENERGY PREDICTED BY IDOCK:   -0.76 KCAL/MOL
REMARK 927      BINDING AFFINITY PREDICTED BY RF-SCORE:    0.00 PKD
ROOT
HETATM    1  C   UNL     1      -6.494  19.423  69.293  1.00  0.00    -0.312 C  
HETATM    2  O   UNL     1      -7.391  19.987  68.347  1.00  0.00    -0.303 OA 
ENDROOT
BRANCH   2   3
HETATM    3  C   UNL     1      -8.100  19.127  67.550  1.00  0.00    -0.273 A  
HETATM    4  C   UNL     1      -9.341  19.624  67.070  1.00  0.00    -0.346 A  
HETATM    5  C   UNL     1     -10.066  18.942  66.101  1.00  0.00    -0.438 A  
HETATM    6  C   UNL     1      -7.719  17.806  67.250  1.00  0.00    -0.222 A  
HETATM    7  C   UNL     1      -8.590  17.041  66.491  1.00  0.00    -0.305 A  
HETATM    8  C   UNL     1      -9.654  17.662  65.840  1.00  0.00    -0.003 A  
HETATM    9  C   UNL     1     -10.446  16.635  65.208  1.00  0.00    -0.173 C  
HETATM   10  O   UNL     1     -11.190  16.816  64.253  1.00  0.00    -1.163 OA 
HETATM   11  C   UNL     1     -10.197  15.383  65.995  1.00  0.00    -0.343 C  
HETATM   12  C   UNL     1      -8.673  15.541  66.299  1.00  0.00    -0.283 C  
BRANCH   4  13
HETATM   13  O   UNL     1      -9.882  20.749  67.658  1.00  0.00    -0.396 OA 
HETATM   14  C   UNL     1     -10.463  20.445  68.935  1.00  0.00     0.226 C  
ENDBRANCH   4  13
BRANCH  11  15
HETATM   15  C   UNL     1     -10.916  14.151  65.437  1.00  0.00    -0.328 C  
BRANCH  15  16
HETATM   16  C   UNL     1     -12.007  13.502  66.302  1.00  0.00    -0.457 C  
HETATM   17  C   UNL     1     -11.867  11.987  66.324  1.00  0.00    -0.225 C  
HETATM   18  C   UNL     1     -10.660  11.561  67.151  1.00  0.00    -0.237 C  
HETATM   19  N   UNL     1     -10.829  11.905  68.564  1.00  0.00    -0.211 NA 
HETATM   20  C   UNL     1     -11.005  13.356  68.715  1.00  0.00    -0.257 C  
HETATM   21  C   UNL     1     -12.013  14.025  67.762  1.00  0.00    -0.392 C  
BRANCH  19  22
HETATM   22  C   UNL     1     -11.888  11.107  69.215  1.00  0.00    -0.352 C  
BRANCH  22  23
HETATM   23  C   UNL     1     -11.317  10.124  70.227  1.00  0.00    -0.387 A  
HETATM   24  C   UNL     1     -12.144   9.590  71.225  1.00  0.00    -0.443 A  
HETATM   25  C   UNL     1     -11.615   8.782  72.233  1.00  0.00    -0.391 A  
HETATM   26  C   UNL     1     -10.252   8.495  72.255  1.00  0.00    -0.395 A  
HETATM   27  C   UNL     1      -9.416   9.014  71.266  1.00  0.00    -0.339 A  
HETATM   28  C   UNL     1      -9.944   9.821  70.255  1.00  0.00    -0.309 A  
ENDBRANCH  22  23
ENDBRANCH  19  22
ENDBRANCH  15  16
ENDBRANCH  11  15
ENDBRANCH   2   3
TORSDOF 6
ENDMDL
MODEL        3
REMARK 921   NORMALIZED FREE ENERGY PREDICTED BY IDOCK:   -6.69 KCAL/MOL
REMARK 922        TOTAL FREE ENERGY PREDICTED BY IDOCK:   -9.77 KCAL/MOL
REMARK 923 INTER-LIGAND FREE ENERGY PREDICTED BY IDOCK:   -8.87 KCAL/MOL
REMARK 924 INTRA-LIGAND FREE ENERGY PREDICTED BY IDOCK:   -0.90 KCAL/MOL
REMARK 927      BINDING AFFINITY PREDICTED BY RF-SCORE:    0.00 PKD
ROOT
HETATM    1  C   UNL     1     -10.372   5.098  70.341  1.00  0.00    -0.256 C  
HETATM    2  O   UNL     1     -10.500   6.186  71.245  1.00  0.00    -0.210 OA 
ENDROOT
BRANCH   2   3
HETATM    3  C   UNL     1     -10.702   7.434  70.717  1.00  0.00    -0.232 A  
HETATM    4  C   UNL     1     -11.821   8.141  71.233  1.00  0.00    -0.287 A  
HETATM    5  C   UNL     1     -12.029   9.481  70.935  1.00  0.00    -0.372 A  
HETATM    6  C   UNL     1      -9.938   8.005  69.682  1.00  0.00    -0.188 A  
HETATM    7  C   UNL     1     -10.324   9.249  69.208  1.00  0.00    -0.222 A  
HETATM    8  C   UNL     1     -11.258   9.993  69.924  1.00  0.00    -0.327 A  
HETATM    9  C   UNL     1     -11.547  11.187  69.168  1.00  0.00    -0.324 C  
HETATM   10  O   UNL     1     -11.986  12.226  69.644  1.00  0.00    -0.306 OA 
HETATM   11  C   UNL     1     -11.250  10.848  67.738  1.00  0.00    -0.384 C  
HETATM   12  C   UNL     1      -9.977   9.962  67.917  1.00  0.00    -0.190 C  
BRANCH   4  13
HETATM   13  O   UNL     1     -12.772   7.449  71.955  1.00  0.00    -0.313 OA 
HETATM   14  C   UNL     1     -14.101   7.846  71.588  1.00  0.00    -0.434 C  
ENDBRANCH   4  13
BRANCH  11  15
HETATM   15  C   UNL     1     -11.443  12.023  66.774  1.00  0.00    -0.410 C  
BRANCH  15  16
HETATM   16  C   UNL     1     -10.193  12.790  66.316  1.00  0.00    -0.264 C  
HETATM   17  C   UNL     1     -10.544  13.860  65.292  1.00  0.00    -0.372 C  
HETATM   18  C   UNL     1     -11.278  15.023  65.948  1.00  0.00    -0.313 C  
HETATM   19  N   UNL     1     -10.418  15.733  66.897  1.00  0.00    -0.311 NA 
HETATM   20  C   UNL     1      -9.966  14.819  67.954  1.00  0.00    -0.213 C  
HETATM   21  C   UNL     1      -9.426  13.453  67.489  1.00  0.00    -0.219 C  
BRANCH  19  22
HETATM   22  C   UNL     1      -9.320  16.459  66.228  1.00  0.00    -0.315 C  
BRANCH  22  23
HETATM   23  C   UNL     1      -9.354  17.950  66.534  1.00  0.00    -0.290 A  
HETATM   24  C   UNL     1      -8.184  18.714  66.417  1.00  0.00    -0.295 A  
HETATM   25  C   UNL     1      -8.166  20.054  66.807  1.00  0.00    -0.362 A  
HETATM   26  C   UNL     1      -9.318  20.649  67.318  1.00  0.00    -0.480 A  
HETATM   27  C   UNL     1     -10.491  19.904  67.436  1.00  0.00    -0.542 A  
HETATM   28  C   UNL     1     -10.512  18.563  67.044  1.00  0.00    -0.440 A  
ENDBRANCH  22  23
ENDBRANCH  19  22
ENDBRANCH  15  16
ENDBRANCH  11  15
ENDBRANCH   2   3
TORSDOF 6
ENDMDL
MODEL        4
REMARK 921   NORMALIZED FREE ENERGY PREDICTED BY IDOCK:   -6.65 KCAL/MOL
REMARK 922        TOTAL FREE ENERGY PREDICTED BY IDOCK:   -9.71 KCAL/MOL
REMARK 923 INTER-LIGAND FREE ENERGY PREDICTED BY IDOCK:   -9.06 KCAL/MOL
REMARK 924 INTRA-LIGAND FREE ENERGY PREDICTED BY IDOCK:   -0.65 KCAL/MOL
REMARK 927      BINDING AFFINITY PREDICTED BY RF-SCORE:    0.00 PKD
ROOT
HETATM    1  C   UNL     1     -10.252   4.873  70.139  1.00  0.00    -0.240 C  
HETATM    2  O   UNL     1     -11.155   5.945  69.906  1.00  0.00    -0.366 OA 
ENDROOT
BRANCH   2   3
HETATM    3  C   UNL     1     -10.640   7.119  69.424  1.00  0.00    -0.233 A  
HETATM    4  C   UNL     1     -10.300   8.085  70.410  1.00  0.00    -0.206 A  
HETATM    5  C   UNL     1      -9.591   9.234  70.081  1.00  0.00    -0.254 A  
HETATM    6  C   UNL     1     -10.499   7.440  68.061  1.00  0.00    -0.253 A  
HETATM    7  C   UNL     1     -10.032   8.705  67.742  1.00  0.00    -0.240 A  
HETATM    8  C   UNL     1      -9.477   9.500  68.741  1.00  0.00    -0.147 A  
HETATM    9  C   UNL     1      -9.164  10.784  68.163  1.00  0.00    -0.151 C  
HETATM   10  O   UNL     1      -8.331  11.564  68.605  1.00  0.00    -0.157 OA 
HETATM   11  C   UNL     1     -10.091  10.945  66.996  1.00  0.00    -0.244 C  
HETATM   12  C   UNL     1     -10.105   9.484  66.444  1.00  0.00    -0.328 C  
BRANCH   4  13
HETATM   13  O   UNL     1     -10.779   7.925  71.693  1.00  0.00    -0.216 OA 
HETATM   14  C   UNL     1     -11.927   8.754  71.932  1.00  0.00    -0.365 C  
ENDBRANCH   4  13
BRANCH  11  15
HETATM   15  C   UNL     1      -9.870  12.239  66.207  1.00  0.00    -0.254 C  
BRANCH  15  16
HETATM   16  C   UNL     1     -10.921  13.352  66.344  1.00  0.00    -0.297 C  
HETATM   17  C   UNL     1     -11.812  13.126  67.556  1.00  0.00    -0.409 C  
HETATM   18  C   UNL     1     -11.052  13.394  68.849  1.00  0.00    -0.266 C  
HETATM   19  N   UNL     1     -10.672  14.803  68.967  1.00  0.00    -0.243 NA 
HETATM   20  C   UNL     1      -9.816  15.193  67.839  1.00  0.00    -0.216 C  
HETATM   21  C   UNL     1     -10.296  14.768  66.438  1.00  0.00    -0.297 C  
BRANCH  19  22
HETATM   22  C   UNL     1     -11.840  15.686  69.161  1.00  0.00    -0.362 C  
BRANCH  22  23
HETATM   23  C   UNL     1     -12.350  15.647  70.594  1.00  0.00    -0.457 A  
HETATM   24  C   UNL     1     -13.669  15.246  70.855  1.00  0.00    -0.363 A  
HETATM   25  C   UNL     1     -14.193  15.317  72.147  1.00  0.00    -0.667 A  
HETATM   26  C   UNL     1     -13.406  15.789  73.195  1.00  0.00    -0.685 A  
HETATM   27  C   UNL     1     -12.091  16.187  72.954  1.00  0.00    -0.643 A  
HETATM   28  C   UNL     1     -11.563  16.114  71.661  1.00  0.00    -0.503 A  
ENDBRANCH  22  23
ENDBRANCH  19  22
ENDBRANCH  15  16
ENDBRANCH  11  15
ENDBRANCH   2   3
TORSDOF 6
ENDMDL
MODEL        5
REMARK 921   NORMALIZED FREE ENERGY PREDICTED BY IDOCK:   -6.57 KCAL/MOL
REMARK 922        TOTAL FREE ENERGY PREDICTED BY IDOCK:   -9.62 KCAL/MOL
REMARK 923 INTER-LIGAND FREE ENERGY PREDICTED BY IDOCK:   -8.78 KCAL/MOL
REMARK 924 INTRA-LIGAND FREE ENERGY PREDICTED BY IDOCK:   -0.84 KCAL/MOL
REMARK 927      BINDING AFFINITY PREDICTED BY RF-SCORE:    0.00 PKD
ROOT
HETATM    1  C   UNL     1     -10.238  16.967  68.175  1.00  0.00    -0.322 C  
HETATM    2  O   UNL     1     -11.234  16.893  69.185  1.00  0.00    -0.151 OA 
ENDROOT
BRANCH   2   3
HETATM    3  C   UNL     1     -11.614  15.649  69.615  1.00  0.00    -0.356 A  
HETATM    4  C   UNL     1     -11.926  15.551  70.997  1.00  0.00    -0.381 A  
HETATM    5  C   UNL     1     -12.510  14.407  71.526  1.00  0.00    -0.430 A  
HETATM    6  C   UNL     1     -11.645  14.494  68.813  1.00  0.00    -0.343 A  
HETATM    7  C   UNL     1     -11.980  13.295  69.422  1.00  0.00    -0.356 A  
HETATM    8  C   UNL     1     -12.521  13.309  70.705  1.00  0.00    -0.403 A  
HETATM    9  C   UNL     1     -12.686  11.942  71.132  1.00  0.00    -0.284 C  
HETATM   10  O   UNL     1     -13.472  11.569  71.993  1.00  0.00    -0.405 OA 
HETATM   11  C   UNL     1     -11.681  11.146  70.354  1.00  0.00    -0.415 C  
HETATM   12  C   UNL     1     -11.763  11.865  68.971  1.00  0.00    -0.391 C  
BRANCH   4  13
HETATM   13  O   UNL     1     -11.539  16.570  71.842  1.00  0.00    -0.419 OA 
HETATM   14  C   UNL     1     -12.064  16.383  73.165  1.00  0.00    -0.472 C  
ENDBRANCH   4  13
BRANCH  11  15
HETATM   15  C   UNL     1     -11.740   9.640  70.630  1.00  0.00    -0.353 C  
BRANCH  15  16
HETATM   16  C   UNL     1     -10.904   9.090  71.796  1.00  0.00    -0.437 C  
HETATM   17  C   UNL     1     -11.488   7.790  72.330  1.00  0.00    -0.418 C  
HETATM   18  C   UNL     1     -11.262   6.646  71.350  1.00  0.00    -0.274 C  
HETATM   19  N   UNL     1      -9.838   6.340  71.200  1.00  0.00    -0.179 NA 
HETATM   20  C   UNL     1      -9.115   7.520  70.708  1.00  0.00    -0.154 C  
HETATM   21  C   UNL     1      -9.419   8.853  71.418  1.00  0.00    -0.344 C  
BRANCH  19  22
HETATM   22  C   UNL     1      -9.257   5.755  72.425  1.00  0.00    -0.143 C  
BRANCH  22  23
HETATM   23  C   UNL     1      -9.624   4.286  72.583  1.00  0.00    -0.175 A  
HETATM   24  C   UNL     1      -9.268   3.367  71.585  1.00  0.00    -0.190 A  
HETATM   25  C   UNL     1      -9.698   2.040  71.652  1.00  0.00    -0.215 A  
HETATM   26  C   UNL     1     -10.489   1.615  72.718  1.00  0.00    -0.226 A  
HETATM   27  C   UNL     1     -10.847   2.516  73.721  1.00  0.00    -0.282 A  
HETATM   28  C   UNL     1     -10.416   3.844  73.657  1.00  0.00    -0.263 A  
ENDBRANCH  22  23
ENDBRANCH  19  22
ENDBRANCH  15  16
ENDBRANCH  11  15
ENDBRANCH   2   3
TORSDOF 6
ENDMDL
MODEL        6
REMARK 921   NORMALIZED FREE ENERGY PREDICTED BY IDOCK:   -6.56 KCAL/MOL
REMARK 922        TOTAL FREE ENERGY PREDICTED BY IDOCK:   -9.59 KCAL/MOL
REMARK 923 INTER-LIGAND FREE ENERGY PREDICTED BY IDOCK:   -8.73 KCAL/MOL
REMARK 924 INTRA-LIGAND FREE ENERGY PREDICTED BY IDOCK:   -0.86 KCAL/MOL
REMARK 927      BINDING AFFINITY PREDICTED BY RF-SCORE:    0.00 PKD
ROOT
HETATM    1  C   UNL     1     -10.303   6.694  74.089  1.00  0.00    -0.321 C  
HETATM    2  O   UNL     1     -11.004   6.420  72.884  1.00  0.00    -0.244 OA 
ENDROOT
BRANCH   2   3
HETATM    3  C   UNL     1     -11.246   7.468  72.035  1.00  0.00    -0.257 A  
HETATM    4  C   UNL     1     -10.486   7.468  70.835  1.00  0.00    -0.213 A  
HETATM    5  C   UNL     1     -10.768   8.354  69.802  1.00  0.00    -0.211 A  
HETATM    6  C   UNL     1     -12.117   8.540  72.305  1.00  0.00    -0.455 A  
HETATM    7  C   UNL     1     -12.189   9.562  71.372  1.00  0.00    -0.455 A  
HETATM    8  C   UNL     1     -11.625   9.378  70.112  1.00  0.00    -0.117 A  
HETATM    9  C   UNL     1     -11.756  10.615  69.383  1.00  0.00    -0.273 C  
HETATM   10  O   UNL     1     -11.747  10.709  68.162  1.00  0.00    -0.474 OA 
HETATM   11  C   UNL     1     -11.842  11.695  70.419  1.00  0.00    -0.385 C  
HETATM   12  C   UNL     1     -12.711  10.979  71.500  1.00  0.00    -0.521 C  
BRANCH   4  13
HETATM   13  O   UNL     1      -9.385   6.644  70.743  1.00  0.00    -0.158 OA 
HETATM   14  C   UNL     1      -8.318   7.273  70.016  1.00  0.00    -0.137 C  
ENDBRANCH   4  13
BRANCH  11  15
HETATM   15  C   UNL     1     -12.045  13.096  69.834  1.00  0.00    -0.357 C  
BRANCH  15  16
HETATM   16  C   UNL     1     -10.810  13.997  69.680  1.00  0.00    -0.013 C  
HETATM   17  C   UNL     1     -10.062  13.694  68.389  1.00  0.00    -0.241 C  
HETATM   18  C   UNL     1     -10.839  14.193  67.178  1.00  0.00    -0.290 C  
HETATM   19  N   UNL     1     -10.945  15.654  67.173  1.00  0.00    -0.304 NA 
HETATM   20  C   UNL     1     -11.633  16.117  68.385  1.00  0.00    -0.228 C  
HETATM   21  C   UNL     1     -11.154  15.508  69.716  1.00  0.00    -0.300 C  
BRANCH  19  22
HETATM   22  C   UNL     1      -9.645  16.312  66.939  1.00  0.00    -0.232 C  
BRANCH  22  23
HETATM   23  C   UNL     1      -9.732  17.822  67.112  1.00  0.00    -0.288 A  
HETATM   24  C   UNL     1     -10.400  18.596  66.152  1.00  0.00    -0.481 A  
HETATM   25  C   UNL     1     -10.390  19.990  66.229  1.00  0.00    -0.570 A  
HETATM   26  C   UNL     1      -9.712  20.628  67.266  1.00  0.00    -0.562 A  
HETATM   27  C   UNL     1      -9.047  19.872  68.230  1.00  0.00    -0.318 A  
HETATM   28  C   UNL     1      -9.058  18.477  68.157  1.00  0.00    -0.329 A  
ENDBRANCH  22  23
ENDBRANCH  19  22
ENDBRANCH  15  16
ENDBRANCH  11  15
ENDBRANCH   2   3
TORSDOF 6
ENDMDL
MODEL        7
REMARK 921   NORMALIZED FREE ENERGY PREDICTED BY IDOCK:   -6.54 KCAL/MOL
REMARK 922        TOTAL FREE ENERGY PREDICTED BY IDOCK:   -9.58 KCAL/MOL
REMARK 923 INTER-LIGAND FREE ENERGY PREDICTED BY IDOCK:   -8.83 KCAL/MOL
REMARK 924 INTRA-LIGAND FREE ENERGY PREDICTED BY IDOCK:   -0.75 KCAL/MOL
REMARK 927      BINDING AFFINITY PREDICTED BY RF-SCORE:    0.00 PKD
ROOT
HETATM    1  C   UNL     1     -12.083   8.709  72.197  1.00  0.00    -0.381 C  
HETATM    2  O   UNL     1     -10.961   9.210  71.485  1.00  0.00    -0.314 OA 
ENDROOT
BRANCH   2   3
HETATM    3  C   UNL     1     -11.201  10.020  70.406  1.00  0.00    -0.323 A  
HETATM    4  C   UNL     1     -10.719   9.534  69.160  1.00  0.00    -0.210 A  
HETATM    5  C   UNL     1     -11.062  10.152  67.964  1.00  0.00    -0.302 A  
HETATM    6  C   UNL     1     -11.808  11.287  70.468  1.00  0.00    -0.421 A  
HETATM    7  C   UNL     1     -11.906  12.014  69.292  1.00  0.00    -0.377 A  
HETATM    8  C   UNL     1     -11.655  11.382  68.077  1.00  0.00    -0.357 A  
HETATM    9  C   UNL     1     -11.732  12.377  67.036  1.00  0.00    -0.353 C  
HETATM   10  O   UNL     1     -11.964  12.139  65.858  1.00  0.00    -0.561 OA 
HETATM   11  C   UNL     1     -11.422  13.687  67.697  1.00  0.00    -0.357 C  
HETATM   12  C   UNL     1     -12.151  13.491  69.064  1.00  0.00    -0.330 C  
BRANCH   4  13
HETATM   13  O   UNL     1      -9.811   8.497  69.155  1.00  0.00    -0.177 OA 
HETATM   14  C   UNL     1     -10.204   7.459  68.244  1.00  0.00    -0.183 C  
ENDBRANCH   4  13
BRANCH  11  15
HETATM   15  C   UNL     1     -11.511  14.890  66.753  1.00  0.00    -0.304 C  
BRANCH  15  16
HETATM   16  C   UNL     1     -10.213  15.390  66.101  1.00  0.00    -0.324 C  
HETATM   17  C   UNL     1     -10.342  16.837  65.650  1.00  0.00    -0.284 C  
HETATM   18  C   UNL     1     -10.355  17.782  66.845  1.00  0.00    -0.344 C  
HETATM   19  N   UNL     1      -9.076  17.764  67.558  1.00  0.00    -0.243 NA 
HETATM   20  C   UNL     1      -8.787  16.408  68.045  1.00  0.00    -0.184 C  
HETATM   21  C   UNL     1      -8.979  15.264  67.032  1.00  0.00    -0.254 C  
BRANCH  19  22
HETATM   22  C   UNL     1      -7.981  18.357  66.766  1.00  0.00    -0.244 C  
BRANCH  22  23
HETATM   23  C   UNL     1      -7.124  19.301  67.598  1.00  0.00    -0.251 A  
HETATM   24  C   UNL     1      -6.444  20.358  66.976  1.00  0.00    -0.272 A  
HETATM   25  C   UNL     1      -5.561  21.161  67.700  1.00  0.00    -0.376 A  
HETATM   26  C   UNL     1      -5.346  20.918  69.055  1.00  0.00    -0.394 A  
HETATM   27  C   UNL     1      -6.018  19.873  69.689  1.00  0.00    -0.355 A  
HETATM   28  C   UNL     1      -6.905  19.070  68.967  1.00  0.00    -0.352 A  
ENDBRANCH  22  23
ENDBRANCH  19  22
ENDBRANCH  15  16
ENDBRANCH  11  15
ENDBRANCH   2   3
TORSDOF 6
ENDMDL
MODEL        8
REMARK 921   NORMALIZED FREE ENERGY PREDICTED BY IDOCK:   -6.50 KCAL/MOL
REMARK 922        TOTAL FREE ENERGY PREDICTED BY IDOCK:   -9.52 KCAL/MOL
REMARK 923 INTER-LIGAND FREE ENERGY PREDICTED BY IDOCK:   -8.57 KCAL/MOL
REMARK 924 INTRA-LIGAND FREE ENERGY PREDICTED BY IDOCK:   -0.94 KCAL/MOL
REMARK 927      BINDING AFFINITY PREDICTED BY RF-SCORE:    0.00 PKD
ROOT
HETATM    1  C   UNL     1     -10.635   7.194  73.482  1.00  0.00    -0.374 C  
HETATM    2  O   UNL     1      -9.916   8.287  72.928  1.00  0.00    -0.284 OA 
ENDROOT
BRANCH   2   3
HETATM    3  C   UNL     1     -10.157   8.611  71.619  1.00  0.00    -0.294 A  
HETATM    4  C   UNL     1      -9.271   8.026  70.674  1.00  0.00    -0.154 A  
HETATM    5  C   UNL     1      -9.516   8.109  69.309  1.00  0.00    -0.159 A  
HETATM    6  C   UNL     1     -11.146   9.509  71.179  1.00  0.00    -0.450 A  
HETATM    7  C   UNL     1     -11.207   9.787  69.823  1.00  0.00    -0.242 A  
HETATM    8  C   UNL     1     -10.492   8.993  68.930  1.00  0.00    -0.231 A  
HETATM    9  C   UNL     1     -10.654   9.553  67.611  1.00  0.00    -0.269 C  
HETATM   10  O   UNL     1     -10.518   8.930  66.567  1.00  0.00    -0.238 OA 
HETATM   11  C   UNL     1     -10.953  11.008  67.818  1.00  0.00    -0.323 C  
HETATM   12  C   UNL     1     -11.868  10.931  69.080  1.00  0.00    -0.389 C  
BRANCH   4  13
HETATM   13  O   UNL     1      -8.095   7.462  71.121  1.00  0.00    -0.099 OA 
HETATM   14  C   UNL     1      -8.040   6.059  70.825  1.00  0.00    -0.120 C  
ENDBRANCH   4  13
BRANCH  11  15
HETATM   15  C   UNL     1     -11.217  11.773  66.517  1.00  0.00    -0.380 C  
BRANCH  15  16
HETATM   16  C   UNL     1     -10.092  12.663  65.965  1.00  0.00    -0.274 C  
HETATM   17  C   UNL     1     -10.648  13.786  65.102  1.00  0.00    -0.385 C  
HETATM   18  C   UNL     1     -11.348  14.836  65.956  1.00  0.00    -0.332 C  
HETATM   19  N   UNL     1     -10.405  15.524  66.839  1.00  0.00    -0.284 NA 
HETATM   20  C   UNL     1      -9.753  14.560  67.736  1.00  0.00    -0.216 C  
HETATM   21  C   UNL     1      -9.206  13.279  67.078  1.00  0.00    -0.237 C  
BRANCH  19  22
HETATM   22  C   UNL     1      -9.458  16.379  66.096  1.00  0.00    -0.329 C  
BRANCH  22  23
HETATM   23  C   UNL     1      -9.445  17.806  66.624  1.00  0.00    -0.299 A  
HETATM   24  C   UNL     1     -10.566  18.310  67.301  1.00  0.00    -0.406 A  
HETATM   25  C   UNL     1     -10.622  19.650  67.687  1.00  0.00    -0.556 A  
HETATM   26  C   UNL     1      -9.559  20.504  67.403  1.00  0.00    -0.578 A  
HETATM   27  C   UNL     1      -8.436  20.018  66.735  1.00  0.00    -0.380 A  
HETATM   28  C   UNL     1      -8.376  18.676  66.349  1.00  0.00    -0.292 A  
ENDBRANCH  22  23
ENDBRANCH  19  22
ENDBRANCH  15  16
ENDBRANCH  11  15
ENDBRANCH   2   3
TORSDOF 6
ENDMDL
MODEL        9
REMARK 921   NORMALIZED FREE ENERGY PREDICTED BY IDOCK:   -6.50 KCAL/MOL
REMARK 922        TOTAL FREE ENERGY PREDICTED BY IDOCK:   -9.51 KCAL/MOL
REMARK 923 INTER-LIGAND FREE ENERGY PREDICTED BY IDOCK:   -8.69 KCAL/MOL
REMARK 924 INTRA-LIGAND FREE ENERGY PREDICTED BY IDOCK:   -0.82 KCAL/MOL
REMARK 927      BINDING AFFINITY PREDICTED BY RF-SCORE:    0.00 PKD
ROOT
HETATM    1  C   UNL     1     -10.224   6.609  73.972  1.00  0.00    -0.369 C  
HETATM    2  O   UNL     1      -9.649   7.864  73.641  1.00  0.00    -0.280 OA 
ENDROOT
BRANCH   2   3
HETATM    3  C   UNL     1      -9.844   8.340  72.371  1.00  0.00    -0.304 A  
HETATM    4  C   UNL     1      -8.736   8.204  71.492  1.00  0.00    -0.146 A  
HETATM    5  C   UNL     1      -8.857   8.460  70.132  1.00  0.00    -0.141 A  
HETATM    6  C   UNL     1     -11.008   8.993  71.924  1.00  0.00    -0.423 A  
HETATM    7  C   UNL     1     -11.014   9.483  70.628  1.00  0.00    -0.370 A  
HETATM    8  C   UNL     1     -10.010   9.093  69.745  1.00  0.00    -0.204 A  
HETATM    9  C   UNL     1     -10.199   9.815  68.511  1.00  0.00    -0.186 C  
HETATM   10  O   UNL     1      -9.781   9.452  67.419  1.00  0.00    -0.147 OA 
HETATM   11  C   UNL     1     -10.937  11.068  68.879  1.00  0.00    -0.277 C  
HETATM   12  C   UNL     1     -11.908  10.513  69.968  1.00  0.00    -0.388 C  
BRANCH   4  13
HETATM   13  O   UNL     1      -7.496   7.917  72.022  1.00  0.00    -0.071 OA 
HETATM   14  C   UNL     1      -6.519   8.893  71.631  1.00  0.00    -0.076 C  
ENDBRANCH   4  13
BRANCH  11  15
HETATM   15  C   UNL     1     -11.287  11.952  67.677  1.00  0.00    -0.372 C  
BRANCH  15  16
HETATM   16  C   UNL     1     -12.031  13.268  67.946  1.00  0.00    -0.349 C  
HETATM   17  C   UNL     1     -11.422  14.018  69.122  1.00  0.00    -0.340 C  
HETATM   18  C   UNL     1     -10.070  14.613  68.749  1.00  0.00    -0.235 C  
HETATM   19  N   UNL     1     -10.203  15.647  67.722  1.00  0.00    -0.248 NA 
HETATM   20  C   UNL     1     -10.808  15.082  66.509  1.00  0.00    -0.320 C  
HETATM   21  C   UNL     1     -12.061  14.210  66.714  1.00  0.00    -0.474 C  
BRANCH  19  22
HETATM   22  C   UNL     1     -10.891  16.853  68.223  1.00  0.00    -0.357 C  
BRANCH  22  23
HETATM   23  C   UNL     1     -10.077  18.116  67.976  1.00  0.00    -0.376 A  
HETATM   24  C   UNL     1     -10.598  19.134  67.163  1.00  0.00    -0.564 A  
HETATM   25  C   UNL     1      -9.821  20.244  66.827  1.00  0.00    -0.586 A  
HETATM   26  C   UNL     1      -8.515  20.352  67.299  1.00  0.00    -0.405 A  
HETATM   27  C   UNL     1      -7.984  19.351  68.112  1.00  0.00    -0.352 A  
HETATM   28  C   UNL     1      -8.760  18.240  68.452  1.00  0.00    -0.325 A  
ENDBRANCH  22  23
ENDBRANCH  19  22
ENDBRANCH  15  16
ENDBRANCH  11  15
ENDBRANCH   2   3
TORSDOF 6
ENDMDL
MODEL       10
REMARK 921   NORMALIZED FREE ENERGY PREDICTED BY IDOCK:   -6.42 KCAL/MOL
REMARK 922        TOTAL FREE ENERGY PREDICTED BY IDOCK:   -9.40 KCAL/MOL
REMARK 923 INTER-LIGAND FREE ENERGY PREDICTED BY IDOCK:   -8.39 KCAL/MOL
REMARK 924 INTRA-LIGAND FREE ENERGY PREDICTED BY IDOCK:   -1.01 KCAL/MOL
REMARK 927      BINDING AFFINITY PREDICTED BY RF-SCORE:    0.00 PKD
ROOT
HETATM    1  C   UNL     1     -13.113   7.826  71.958  1.00  0.00    -0.205 C  
HETATM    2  O   UNL     1     -12.057   8.759  72.133  1.00  0.00    -0.347 OA 
ENDROOT
BRANCH   2   3
HETATM    3  C   UNL     1     -12.034   9.857  71.314  1.00  0.00    -0.402 A  
HETATM    4  C   UNL     1     -11.207   9.742  70.164  1.00  0.00    -0.272 A  
HETATM    5  C   UNL     1     -11.241  10.695  69.153  1.00  0.00    -0.324 A  
HETATM    6  C   UNL     1     -12.699  11.070  71.572  1.00  0.00    -0.521 A  
HETATM    7  C   UNL     1     -12.508  12.112  70.679  1.00  0.00    -0.330 A  
HETATM    8  C   UNL     1     -11.905  11.856  69.450  1.00  0.00    -0.389 A  
HETATM    9  C   UNL     1     -11.745  13.115  68.764  1.00  0.00    -0.324 C  
HETATM   10  O   UNL     1     -11.634  13.240  67.551  1.00  0.00    -0.305 OA 
HETATM   11  C   UNL     1     -11.693  14.162  69.836  1.00  0.00    -0.372 C  
HETATM   12  C   UNL     1     -12.757  13.599  70.831  1.00  0.00    -0.382 C  
BRANCH   4  13
HETATM   13  O   UNL     1     -10.280   8.723  70.107  1.00  0.00    -0.181 OA 
HETATM   14  C   UNL     1      -8.987   9.164  70.548  1.00  0.00    -0.232 C  
ENDBRANCH   4  13
BRANCH  11  15
HETATM   15  C   UNL     1     -11.583  15.591  69.296  1.00  0.00    -0.369 C  
BRANCH  15  16
HETATM   16  C   UNL     1     -10.342  16.411  69.682  1.00  0.00    -0.244 C  
HETATM   17  C   UNL     1      -9.060  15.637  69.409  1.00  0.00    -0.278 C  
HETATM   18  C   UNL     1      -8.791  15.538  67.912  1.00  0.00    -0.171 C  
HETATM   19  N   UNL     1      -8.523  16.853  67.327  1.00  0.00    -0.192 NA 
HETATM   20  C   UNL     1      -9.674  17.743  67.530  1.00  0.00    -0.284 C  
HETATM   21  C   UNL     1     -10.267  17.777  68.952  1.00  0.00    -0.345 C  
BRANCH  19  22
HETATM   22  C   UNL     1      -7.241  17.423  67.787  1.00  0.00    -0.168 C  
BRANCH  22  23
HETATM   23  C   UNL     1      -6.885  18.699  67.037  1.00  0.00    -0.207 A  
HETATM   24  C   UNL     1      -6.665  18.657  65.652  1.00  0.00    -0.309 A  
HETATM   25  C   UNL     1      -6.222  19.789  64.967  1.00  0.00    -0.306 A  
HETATM   26  C   UNL     1      -5.994  20.979  65.656  1.00  0.00    -0.281 A  
HETATM   27  C   UNL     1      -6.213  21.039  67.031  1.00  0.00    -0.379 A  
HETATM   28  C   UNL     1      -6.659  19.907  67.720  1.00  0.00    -0.271 A  
ENDBRANCH  22  23
ENDBRANCH  19  22
ENDBRANCH  15  16
ENDBRANCH  11  15
ENDBRANCH   2   3
TORSDOF 6
ENDMDL
MODEL       11
REMARK 921   NORMALIZED FREE ENERGY PREDICTED BY IDOCK:   -6.39 KCAL/MOL
REMARK 922        TOTAL FREE ENERGY PREDICTED BY IDOCK:   -9.36 KCAL/MOL
REMARK 923 INTER-LIGAND FREE ENERGY PREDICTED BY IDOCK:   -8.52 KCAL/MOL
REMARK 924 INTRA-LIGAND FREE ENERGY PREDICTED BY IDOCK:   -0.84 KCAL/MOL
REMARK 927      BINDING AFFINITY PREDICTED BY RF-SCORE:    0.00 PKD
ROOT
HETATM    1  C   UNL     1     -10.646  15.153  65.142  1.00  0.00    -0.424 C  
HETATM    2  O   UNL     1      -9.945  15.025  66.370  1.00  0.00    -0.255 OA 
ENDROOT
BRANCH   2   3
HETATM    3  C   UNL     1     -10.575  14.377  67.400  1.00  0.00    -0.270 A  
HETATM    4  C   UNL     1     -10.530  15.039  68.656  1.00  0.00    -0.238 A  
HETATM    5  C   UNL     1     -11.289  14.598  69.732  1.00  0.00    -0.315 A  
HETATM    6  C   UNL     1     -11.180  13.110  67.305  1.00  0.00    -0.319 A  
HETATM    7  C   UNL     1     -11.706  12.559  68.462  1.00  0.00    -0.369 A  
HETATM    8  C   UNL     1     -11.861  13.361  69.591  1.00  0.00    -0.394 A  
HETATM    9  C   UNL     1     -12.334  12.525  70.667  1.00  0.00    -0.282 C  
HETATM   10  O   UNL     1     -12.946  12.929  71.648  1.00  0.00    -0.372 OA 
HETATM   11  C   UNL     1     -11.873  11.136  70.340  1.00  0.00    -0.462 C  
HETATM   12  C   UNL     1     -12.080  11.128  68.792  1.00  0.00    -0.232 C  
BRANCH   4  13
HETATM   13  O   UNL     1      -9.634  16.072  68.833  1.00  0.00    -0.212 OA 
HETATM   14  C   UNL     1     -10.308  17.321  69.047  1.00  0.00    -0.330 C  
ENDBRANCH   4  13
BRANCH  11  15
HETATM   15  C   UNL     1     -12.334  10.081  71.350  1.00  0.00    -0.512 C  
BRANCH  15  16
HETATM   16  C   UNL     1     -11.277   9.126  71.924  1.00  0.00    -0.400 C  
HETATM   17  C   UNL     1     -11.862   7.746  72.187  1.00  0.00    -0.370 C  
HETATM   18  C   UNL     1     -12.126   7.007  70.881  1.00  0.00    -0.357 C  
HETATM   19  N   UNL     1     -10.881   6.716  70.168  1.00  0.00    -0.257 NA 
HETATM   20  C   UNL     1     -10.171   7.963  69.857  1.00  0.00    -0.210 C  
HETATM   21  C   UNL     1     -10.034   8.976  71.009  1.00  0.00    -0.349 C  
BRANCH  19  22
HETATM   22  C   UNL     1     -10.050   5.718  70.870  1.00  0.00    -0.199 C  
BRANCH  22  23
HETATM   23  C   UNL     1      -9.720   4.526  69.982  1.00  0.00    -0.283 A  
HETATM   24  C   UNL     1      -9.709   4.677  68.588  1.00  0.00    -0.217 A  
HETATM   25  C   UNL     1      -9.527   3.573  67.753  1.00  0.00    -0.230 A  
HETATM   26  C   UNL     1      -9.353   2.304  68.302  1.00  0.00    -0.267 A  
HETATM   27  C   UNL     1      -9.356   2.138  69.686  1.00  0.00    -0.158 A  
HETATM   28  C   UNL     1      -9.536   3.242  70.524  1.00  0.00    -0.242 A  
ENDBRANCH  22  23
ENDBRANCH  19  22
ENDBRANCH  15  16
ENDBRANCH  11  15
ENDBRANCH   2   3
TORSDOF 6
ENDMDL
MODEL       12
REMARK 921   NORMALIZED FREE ENERGY PREDICTED BY IDOCK:   -6.38 KCAL/MOL
REMARK 922        TOTAL FREE ENERGY PREDICTED BY IDOCK:   -9.36 KCAL/MOL
REMARK 923 INTER-LIGAND FREE ENERGY PREDICTED BY IDOCK:   -8.60 KCAL/MOL
REMARK 924 INTRA-LIGAND FREE ENERGY PREDICTED BY IDOCK:   -0.76 KCAL/MOL
REMARK 927      BINDING AFFINITY PREDICTED BY RF-SCORE:    0.00 PKD
ROOT
HETATM    1  C   UNL     1     -11.838  15.293  64.521  1.00  0.00    -0.295 C  
HETATM    2  O   UNL     1     -10.988  15.370  65.657  1.00  0.00    -0.333 OA 
ENDROOT
BRANCH   2   3
HETATM    3  C   UNL     1     -11.314  14.610  66.749  1.00  0.00    -0.356 A  
HETATM    4  C   UNL     1     -11.249  15.281  68.000  1.00  0.00    -0.326 A  
HETATM    5  C   UNL     1     -11.739  14.694  69.160  1.00  0.00    -0.342 A  
HETATM    6  C   UNL     1     -11.627  13.239  66.713  1.00  0.00    -0.408 A  
HETATM    7  C   UNL     1     -11.858  12.599  67.920  1.00  0.00    -0.388 A  
HETATM    8  C   UNL     1     -12.035  13.359  69.073  1.00  0.00    -0.357 A  
HETATM    9  C   UNL     1     -12.160  12.452  70.187  1.00  0.00    -0.290 C  
HETATM   10  O   UNL     1     -12.709  12.721  71.248  1.00  0.00    -0.368 OA 
HETATM   11  C   UNL     1     -11.449  11.197  69.776  1.00  0.00    -0.388 C  
HETATM   12  C   UNL     1     -11.855  11.124  68.270  1.00  0.00    -0.260 C  
BRANCH   4  13
HETATM   13  O   UNL     1     -10.591  16.491  68.075  1.00  0.00    -0.302 OA 
HETATM   14  C   UNL     1      -9.334  16.363  68.756  1.00  0.00    -0.245 C  
ENDBRANCH   4  13
BRANCH  11  15
HETATM   15  C   UNL     1     -11.523  10.078  70.819  1.00  0.00    -0.438 C  
BRANCH  15  16
HETATM   16  C   UNL     1     -10.310   9.144  70.958  1.00  0.00    -0.363 C  
HETATM   17  C   UNL     1     -10.132   8.678  72.396  1.00  0.00    -0.321 C  
HETATM   18  C   UNL     1     -11.214   7.678  72.784  1.00  0.00    -0.377 C  
HETATM   19  N   UNL     1     -11.102   6.440  72.011  1.00  0.00    -0.252 NA 
HETATM   20  C   UNL     1     -11.230   6.724  70.576  1.00  0.00    -0.320 C  
HETATM   21  C   UNL     1     -10.395   7.900  70.036  1.00  0.00    -0.221 C  
BRANCH  19  22
HETATM   22  C   UNL     1      -9.894   5.666  72.359  1.00  0.00    -0.164 C  
BRANCH  22  23
HETATM   23  C   UNL     1     -10.200   4.187  72.546  1.00  0.00    -0.240 A  
HETATM   24  C   UNL     1      -9.745   3.255  71.601  1.00  0.00    -0.234 A  
HETATM   25  C   UNL     1     -10.115   1.912  71.690  1.00  0.00    -0.141 A  
HETATM   26  C   UNL     1     -10.944   1.483  72.725  1.00  0.00    -0.220 A  
HETATM   27  C   UNL     1     -11.400   2.395  73.675  1.00  0.00    -0.311 A  
HETATM   28  C   UNL     1     -11.029   3.740  73.590  1.00  0.00    -0.334 A  
ENDBRANCH  22  23
ENDBRANCH  19  22
ENDBRANCH  15  16
ENDBRANCH  11  15
ENDBRANCH   2   3
TORSDOF 6
ENDMDL
MODEL       13
REMARK 921   NORMALIZED FREE ENERGY PREDICTED BY IDOCK:   -6.34 KCAL/MOL
REMARK 922        TOTAL FREE ENERGY PREDICTED BY IDOCK:   -9.30 KCAL/MOL
REMARK 923 INTER-LIGAND FREE ENERGY PREDICTED BY IDOCK:   -8.39 KCAL/MOL
REMARK 924 INTRA-LIGAND FREE ENERGY PREDICTED BY IDOCK:   -0.91 KCAL/MOL
REMARK 927      BINDING AFFINITY PREDICTED BY RF-SCORE:    0.00 PKD
ROOT
HETATM    1  C   UNL     1      -6.169  21.018  66.173  1.00  0.00    -0.255 C  
HETATM    2  O   UNL     1      -7.235  21.202  67.094  1.00  0.00    -0.411 OA 
ENDROOT
BRANCH   2   3
HETATM    3  C   UNL     1      -8.122  20.171  67.257  1.00  0.00    -0.330 A  
HETATM    4  C   UNL     1      -8.091  19.536  68.527  1.00  0.00    -0.341 A  
HETATM    5  C   UNL     1      -9.061  18.613  68.897  1.00  0.00    -0.225 A  
HETATM    6  C   UNL     1      -8.978  19.677  66.255  1.00  0.00    -0.420 A  
HETATM    7  C   UNL     1      -9.759  18.575  66.562  1.00  0.00    -0.354 A  
HETATM    8  C   UNL     1      -9.874  18.166  67.888  1.00  0.00    -0.317 A  
HETATM    9  C   UNL     1     -10.657  16.956  67.913  1.00  0.00    -0.361 C  
HETATM   10  O   UNL     1     -11.283  16.549  68.883  1.00  0.00    -0.319 OA 
HETATM   11  C   UNL     1     -10.482  16.327  66.563  1.00  0.00    -0.290 C  
HETATM   12  C   UNL     1     -10.484  17.599  65.658  1.00  0.00    -0.150 C  
BRANCH   4  13
HETATM   13  O   UNL     1      -7.016  19.763  69.361  1.00  0.00    -0.348 OA 
HETATM   14  C   UNL     1      -5.986  18.781  69.169  1.00  0.00    -0.231 C  
ENDBRANCH   4  13
BRANCH  11  15
HETATM   15  C   UNL     1     -11.294  15.042  66.372  1.00  0.00    -0.275 C  
BRANCH  15  16
HETATM   16  C   UNL     1     -10.524  13.723  66.207  1.00  0.00    -0.291 C  
HETATM   17  C   UNL     1      -9.404  13.604  67.230  1.00  0.00    -0.233 C  
HETATM   18  C   UNL     1      -9.962  13.350  68.625  1.00  0.00    -0.135 C  
HETATM   19  N   UNL     1     -10.632  12.051  68.706  1.00  0.00    -0.227 NA 
HETATM   20  C   UNL     1     -11.743  11.992  67.746  1.00  0.00    -0.309 C  
HETATM   21  C   UNL     1     -11.434  12.472  66.315  1.00  0.00    -0.421 C  
BRANCH  19  22
HETATM   22  C   UNL     1      -9.687  10.922  68.592  1.00  0.00    -0.185 C  
BRANCH  22  23
HETATM   23  C   UNL     1      -9.729  10.019  69.817  1.00  0.00    -0.259 A  
HETATM   24  C   UNL     1     -10.913   9.906  70.560  1.00  0.00    -0.391 A  
HETATM   25  C   UNL     1     -10.940   9.180  71.752  1.00  0.00    -0.429 A  
HETATM   26  C   UNL     1      -9.783   8.557  72.216  1.00  0.00    -0.380 A  
HETATM   27  C   UNL     1      -8.599   8.655  71.487  1.00  0.00    -0.256 A  
HETATM   28  C   UNL     1      -8.571   9.380  70.292  1.00  0.00    -0.249 A  
ENDBRANCH  22  23
ENDBRANCH  19  22
ENDBRANCH  15  16
ENDBRANCH  11  15
ENDBRANCH   2   3
TORSDOF 6
ENDMDL
MODEL       14
REMARK 921   NORMALIZED FREE ENERGY PREDICTED BY IDOCK:   -6.34 KCAL/MOL
REMARK 922        TOTAL FREE ENERGY PREDICTED BY IDOCK:   -9.30 KCAL/MOL
REMARK 923 INTER-LIGAND FREE ENERGY PREDICTED BY IDOCK:   -8.52 KCAL/MOL
REMARK 924 INTRA-LIGAND FREE ENERGY PREDICTED BY IDOCK:   -0.78 KCAL/MOL
REMARK 927      BINDING AFFINITY PREDICTED BY RF-SCORE:    0.00 PKD
ROOT
HETATM    1  C   UNL     1      -9.581  17.025  66.131  1.00  0.00    -0.240 C  
HETATM    2  O   UNL     1     -10.757  16.287  65.835  1.00  0.00    -0.302 OA 
ENDROOT
BRANCH   2   3
HETATM    3  C   UNL     1     -10.888  15.044  66.397  1.00  0.00    -0.326 A  
HETATM    4  C   UNL     1     -11.257  14.005  65.500  1.00  0.00    -0.311 A  
HETATM    5  C   UNL     1     -11.234  12.672  65.891  1.00  0.00    -0.350 A  
HETATM    6  C   UNL     1     -10.753  14.761  67.769  1.00  0.00    -0.268 A  
HETATM    7  C   UNL     1     -10.994  13.462  68.185  1.00  0.00    -0.277 A  
HETATM    8  C   UNL     1     -11.095  12.448  67.236  1.00  0.00    -0.329 A  
HETATM    9  C   UNL     1     -11.439  11.228  67.925  1.00  0.00    -0.288 C  
HETATM   10  O   UNL     1     -11.222  10.101  67.499  1.00  0.00    -0.265 OA 
HETATM   11  C   UNL     1     -12.136  11.651  69.183  1.00  0.00    -0.315 C  
HETATM   12  C   UNL     1     -11.291  12.907  69.564  1.00  0.00    -0.221 C  
BRANCH   4  13
HETATM   13  O   UNL     1     -11.750  14.341  64.257  1.00  0.00    -0.385 OA 
HETATM   14  C   UNL     1     -12.016  13.174  63.465  1.00  0.00    -0.513 C  
ENDBRANCH   4  13
BRANCH  11  15
HETATM   15  C   UNL     1     -12.534  10.482  70.090  1.00  0.00    -0.297 C  
BRANCH  15  16
HETATM   16  C   UNL     1     -11.537  10.042  71.173  1.00  0.00    -0.460 C  
HETATM   17  C   UNL     1     -12.158   9.019  72.114  1.00  0.00    -0.412 C  
HETATM   18  C   UNL     1     -12.327   7.672  71.422  1.00  0.00    -0.333 C  
HETATM   19  N   UNL     1     -11.033   7.078  71.083  1.00  0.00    -0.242 NA 
HETATM   20  C   UNL     1     -10.285   7.967  70.185  1.00  0.00    -0.203 C  
HETATM   21  C   UNL     1     -10.228   9.453  70.588  1.00  0.00    -0.353 C  
BRANCH  19  22
HETATM   22  C   UNL     1     -10.273   6.665  72.280  1.00  0.00    -0.187 C  
BRANCH  22  23
HETATM   23  C   UNL     1     -10.262   5.152  72.453  1.00  0.00    -0.249 A  
HETATM   24  C   UNL     1      -9.535   4.352  71.558  1.00  0.00    -0.215 A  
HETATM   25  C   UNL     1      -9.609   2.960  71.627  1.00  0.00    -0.222 A  
HETATM   26  C   UNL     1     -10.409   2.349  72.590  1.00  0.00    -0.234 A  
HETATM   27  C   UNL     1     -11.133   3.130  73.490  1.00  0.00    -0.316 A  
HETATM   28  C   UNL     1     -11.060   4.524  73.425  1.00  0.00    -0.408 A  
ENDBRANCH  22  23
ENDBRANCH  19  22
ENDBRANCH  15  16
ENDBRANCH  11  15
ENDBRANCH   2   3
TORSDOF 6
ENDMDL
MODEL       15
REMARK 921   NORMALIZED FREE ENERGY PREDICTED BY IDOCK:   -6.32 KCAL/MOL
REMARK 922        TOTAL FREE ENERGY PREDICTED BY IDOCK:   -9.27 KCAL/MOL
REMARK 923 INTER-LIGAND FREE ENERGY PREDICTED BY IDOCK:   -8.84 KCAL/MOL
REMARK 924 INTRA-LIGAND FREE ENERGY PREDICTED BY IDOCK:   -0.43 KCAL/MOL
REMARK 927      BINDING AFFINITY PREDICTED BY RF-SCORE:    0.00 PKD
ROOT
HETATM    1  C   UNL     1      -8.115  17.021  66.039  1.00  0.00    -0.143 C  
HETATM    2  O   UNL     1      -9.530  17.145  66.016  1.00  0.00    -0.450 OA 
ENDROOT
BRANCH   2   3
HETATM    3  C   UNL     1     -10.244  16.473  66.973  1.00  0.00    -0.288 A  
HETATM    4  C   UNL     1     -10.381  17.147  68.216  1.00  0.00    -0.354 A  
HETATM    5  C   UNL     1     -11.239  16.676  69.202  1.00  0.00    -0.148 A  
HETATM    6  C   UNL     1     -10.768  15.176  66.826  1.00  0.00    -0.311 A  
HETATM    7  C   UNL     1     -11.399  14.608  67.921  1.00  0.00    -0.332 A  
HETATM    8  C   UNL     1     -11.727  15.409  69.011  1.00  0.00    -0.380 A  
HETATM    9  C   UNL     1     -12.282  14.559  70.036  1.00  0.00    -0.342 C  
HETATM   10  O   UNL     1     -13.025  14.938  70.932  1.00  0.00    -0.345 OA 
HETATM   11  C   UNL     1     -11.715  13.193  69.785  1.00  0.00    -0.350 C  
HETATM   12  C   UNL     1     -11.736  13.162  68.224  1.00  0.00    -0.384 C  
BRANCH   4  13
HETATM   13  O   UNL     1      -9.567  18.227  68.483  1.00  0.00    -0.314 OA 
HETATM   14  C   UNL     1     -10.244  19.469  68.240  1.00  0.00    -0.443 C  
ENDBRANCH   4  13
BRANCH  11  15
HETATM   15  C   UNL     1     -12.238  12.123  70.748  1.00  0.00    -0.367 C  
BRANCH  15  16
HETATM   16  C   UNL     1     -12.655  10.767  70.159  1.00  0.00    -0.309 C  
HETATM   17  C   UNL     1     -11.441   9.942  69.757  1.00  0.00    -0.194 C  
HETATM   18  C   UNL     1     -10.704   9.421  70.985  1.00  0.00    -0.337 C  
HETATM   19  N   UNL     1     -11.524   8.471  71.739  1.00  0.00    -0.288 NA 
HETATM   20  C   UNL     1     -12.766   9.115  72.185  1.00  0.00    -0.395 C  
HETATM   21  C   UNL     1     -13.532   9.929  71.125  1.00  0.00    -0.308 C  
BRANCH  19  22
HETATM   22  C   UNL     1     -11.739   7.207  71.007  1.00  0.00    -0.320 C  
BRANCH  22  23
HETATM   23  C   UNL     1     -11.131   6.017  71.735  1.00  0.00    -0.332 A  
HETATM   24  C   UNL     1     -10.279   5.139  71.049  1.00  0.00    -0.295 A  
HETATM   25  C   UNL     1      -9.807   3.978  71.663  1.00  0.00    -0.253 A  
HETATM   26  C   UNL     1     -10.179   3.679  72.973  1.00  0.00    -0.232 A  
HETATM   27  C   UNL     1     -11.021   4.544  73.671  1.00  0.00    -0.382 A  
HETATM   28  C   UNL     1     -11.493   5.709  73.058  1.00  0.00    -0.247 A  
ENDBRANCH  22  23
ENDBRANCH  19  22
ENDBRANCH  15  16
ENDBRANCH  11  15
ENDBRANCH   2   3
TORSDOF 6
ENDMDL
MODEL       16
REMARK 921   NORMALIZED FREE ENERGY PREDICTED BY IDOCK:   -6.30 KCAL/MOL
REMARK 922        TOTAL FREE ENERGY PREDICTED BY IDOCK:   -9.25 KCAL/MOL
REMARK 923 INTER-LIGAND FREE ENERGY PREDICTED BY IDOCK:   -8.45 KCAL/MOL
REMARK 924 INTRA-LIGAND FREE ENERGY PREDICTED BY IDOCK:   -0.80 KCAL/MOL
REMARK 927      BINDING AFFINITY PREDICTED BY RF-SCORE:    0.00 PKD
ROOT
HETATM    1  C   UNL     1     -10.062   4.625  71.713  1.00  0.00    -0.191 C  
HETATM    2  O   UNL     1     -10.989   5.691  71.565  1.00  0.00    -0.252 OA 
ENDROOT
BRANCH   2   3
HETATM    3  C   UNL     1     -10.605   6.771  70.816  1.00  0.00    -0.222 A  
HETATM    4  C   UNL     1     -10.148   7.895  71.556  1.00  0.00    -0.180 A  
HETATM    5  C   UNL     1      -9.547   8.978  70.926  1.00  0.00    -0.328 A  
HETATM    6  C   UNL     1     -10.700   6.856  69.414  1.00  0.00    -0.275 A  
HETATM    7  C   UNL     1     -10.340   8.052  68.815  1.00  0.00    -0.223 A  
HETATM    8  C   UNL     1      -9.661   9.013  69.561  1.00  0.00    -0.171 A  
HETATM    9  C   UNL     1      -9.496  10.182  68.733  1.00  0.00    -0.171 C  
HETATM   10  O   UNL     1      -8.633  11.035  68.894  1.00  0.00    -0.161 OA 
HETATM   11  C   UNL     1     -10.606  10.131  67.726  1.00  0.00    -0.304 C  
HETATM   12  C   UNL     1     -10.653   8.597  67.436  1.00  0.00    -0.298 C  
BRANCH   4  13
HETATM   13  O   UNL     1     -10.406   7.952  72.909  1.00  0.00    -0.299 OA 
HETATM   14  C   UNL     1      -9.219   7.711  73.680  1.00  0.00    -0.283 C  
ENDBRANCH   4  13
BRANCH  11  15
HETATM   15  C   UNL     1     -10.566  11.274  66.707  1.00  0.00    -0.305 C  
BRANCH  15  16
HETATM   16  C   UNL     1     -11.566  12.427  66.882  1.00  0.00    -0.437 C  
HETATM   17  C   UNL     1     -11.320  13.180  68.181  1.00  0.00    -0.328 C  
HETATM   18  C   UNL     1     -10.048  14.014  68.097  1.00  0.00    -0.244 C  
HETATM   19  N   UNL     1     -10.172  15.084  67.105  1.00  0.00    -0.247 NA 
HETATM   20  C   UNL     1     -10.440  14.516  65.778  1.00  0.00    -0.323 C  
HETATM   21  C   UNL     1     -11.537  13.437  65.705  1.00  0.00    -0.358 C  
BRANCH  19  22
HETATM   22  C   UNL     1     -11.140  16.122  67.515  1.00  0.00    -0.175 C  
BRANCH  22  23
HETATM   23  C   UNL     1     -10.560  17.523  67.384  1.00  0.00    -0.311 A  
HETATM   24  C   UNL     1     -10.167  18.226  68.532  1.00  0.00    -0.402 A  
HETATM   25  C   UNL     1      -9.745  19.554  68.445  1.00  0.00    -0.498 A  
HETATM   26  C   UNL     1      -9.709  20.196  67.209  1.00  0.00    -0.574 A  
HETATM   27  C   UNL     1     -10.092  19.510  66.057  1.00  0.00    -0.521 A  
HETATM   28  C   UNL     1     -10.512  18.179  66.141  1.00  0.00    -0.377 A  
ENDBRANCH  22  23
ENDBRANCH  19  22
ENDBRANCH  15  16
ENDBRANCH  11  15
ENDBRANCH   2   3
TORSDOF 6
ENDMDL
MODEL       17
REMARK 921   NORMALIZED FREE ENERGY PREDICTED BY IDOCK:   -6.30 KCAL/MOL
REMARK 922        TOTAL FREE ENERGY PREDICTED BY IDOCK:   -9.25 KCAL/MOL
REMARK 923 INTER-LIGAND FREE ENERGY PREDICTED BY IDOCK:   -8.54 KCAL/MOL
REMARK 924 INTRA-LIGAND FREE ENERGY PREDICTED BY IDOCK:   -0.71 KCAL/MOL
REMARK 927      BINDING AFFINITY PREDICTED BY RF-SCORE:    0.00 PKD
ROOT
HETATM    1  C   UNL     1     -11.149  16.204  70.179  1.00  0.00    -0.371 C  
HETATM    2  O   UNL     1     -12.457  15.727  70.463  1.00  0.00    -0.414 OA 
ENDROOT
BRANCH   2   3
HETATM    3  C   UNL     1     -12.602  14.394  70.744  1.00  0.00    -0.357 A  
HETATM    4  C   UNL     1     -13.242  14.098  71.978  1.00  0.00    -0.402 A  
HETATM    5  C   UNL     1     -13.629  12.802  72.296  1.00  0.00    -0.563 A  
HETATM    6  C   UNL     1     -12.110  13.344  69.947  1.00  0.00    -0.389 A  
HETATM    7  C   UNL     1     -12.274  12.050  70.415  1.00  0.00    -0.379 A  
HETATM    8  C   UNL     1     -13.129  11.815  71.488  1.00  0.00    -0.389 A  
HETATM    9  C   UNL     1     -13.041  10.415  71.827  1.00  0.00    -0.462 C  
HETATM   10  O   UNL     1     -13.907   9.784  72.419  1.00  0.00    -0.330 OA 
HETATM   11  C   UNL     1     -11.691   9.964  71.357  1.00  0.00    -0.449 C  
HETATM   12  C   UNL     1     -11.576  10.764  70.021  1.00  0.00    -0.417 C  
BRANCH   4  13
HETATM   13  O   UNL     1     -13.381  15.099  72.915  1.00  0.00    -0.444 OA 
HETATM   14  C   UNL     1     -12.309  15.077  73.870  1.00  0.00    -0.527 C  
ENDBRANCH   4  13
BRANCH  11  15
HETATM   15  C   UNL     1     -11.428   8.471  71.578  1.00  0.00    -0.350 C  
BRANCH  15  16
HETATM   16  C   UNL     1     -10.104   7.890  71.061  1.00  0.00    -0.212 C  
HETATM   17  C   UNL     1      -9.744   6.602  71.787  1.00  0.00    -0.168 C  
HETATM   18  C   UNL     1     -10.657   5.460  71.359  1.00  0.00    -0.212 C  
HETATM   19  N   UNL     1     -10.463   5.118  69.948  1.00  0.00    -0.281 NA 
HETATM   20  C   UNL     1     -10.751   6.282  69.100  1.00  0.00    -0.301 C  
HETATM   21  C   UNL     1     -10.117   7.617  69.535  1.00  0.00    -0.192 C  
BRANCH  19  22
HETATM   22  C   UNL     1      -9.143   4.508  69.693  1.00  0.00    -0.109 C  
BRANCH  22  23
HETATM   23  C   UNL     1      -8.847   4.395  68.204  1.00  0.00    -0.128 A  
HETATM   24  C   UNL     1      -9.407   3.346  67.459  1.00  0.00    -0.248 A  
HETATM   25  C   UNL     1      -9.055   3.154  66.122  1.00  0.00    -0.153 A  
HETATM   26  C   UNL     1      -8.139   4.009  65.512  1.00  0.00    -0.101 A  
HETATM   27  C   UNL     1      -7.577   5.059  66.236  1.00  0.00    -0.087 A  
HETATM   28  C   UNL     1      -7.930   5.254  67.575  1.00  0.00    -0.100 A  
ENDBRANCH  22  23
ENDBRANCH  19  22
ENDBRANCH  15  16
ENDBRANCH  11  15
ENDBRANCH   2   3
TORSDOF 6
ENDMDL
MODEL       18
REMARK 921   NORMALIZED FREE ENERGY PREDICTED BY IDOCK:   -6.26 KCAL/MOL
REMARK 922        TOTAL FREE ENERGY PREDICTED BY IDOCK:   -9.20 KCAL/MOL
REMARK 923 INTER-LIGAND FREE ENERGY PREDICTED BY IDOCK:   -8.25 KCAL/MOL
REMARK 924 INTRA-LIGAND FREE ENERGY PREDICTED BY IDOCK:   -0.95 KCAL/MOL
REMARK 927      BINDING AFFINITY PREDICTED BY RF-SCORE:    0.00 PKD
ROOT
HETATM    1  C   UNL     1     -10.583  19.220  66.177  1.00  0.00    -0.459 C  
HETATM    2  O   UNL     1      -9.751  18.217  66.743  1.00  0.00    -0.296 OA 
ENDROOT
BRANCH   2   3
HETATM    3  C   UNL     1     -10.173  16.916  66.657  1.00  0.00    -0.312 A  
HETATM    4  C   UNL     1     -10.745  16.381  67.842  1.00  0.00    -0.332 A  
HETATM    5  C   UNL     1     -11.388  15.150  67.841  1.00  0.00    -0.346 A  
HETATM    6  C   UNL     1     -10.014  16.090  65.529  1.00  0.00    -0.282 A  
HETATM    7  C   UNL     1     -10.426  14.771  65.634  1.00  0.00    -0.365 A  
HETATM    8  C   UNL     1     -11.208  14.384  66.720  1.00  0.00    -0.340 A  
HETATM    9  C   UNL     1     -11.413  12.959  66.632  1.00  0.00    -0.343 C  
HETATM   10  O   UNL     1     -12.341  12.354  67.153  1.00  0.00    -0.380 OA 
HETATM   11  C   UNL     1     -10.253  12.425  65.846  1.00  0.00    -0.273 C  
HETATM   12  C   UNL     1     -10.084  13.561  64.788  1.00  0.00    -0.267 C  
BRANCH   4  13
HETATM   13  O   UNL     1     -10.560  17.051  69.033  1.00  0.00    -0.325 OA 
HETATM   14  C   UNL     1     -11.141  16.336  70.134  1.00  0.00    -0.341 C  
ENDBRANCH   4  13
BRANCH  11  15
HETATM   15  C   UNL     1     -10.322  10.916  65.594  1.00  0.00    -0.305 C  
BRANCH  15  16
HETATM   16  C   UNL     1      -9.297  10.020  66.308  1.00  0.00    -0.213 C  
HETATM   17  C   UNL     1      -9.228  10.335  67.795  1.00  0.00    -0.149 C  
HETATM   18  C   UNL     1     -10.477   9.841  68.515  1.00  0.00    -0.210 C  
HETATM   19  N   UNL     1     -10.573   8.380  68.482  1.00  0.00    -0.156 NA 
HETATM   20  C   UNL     1     -10.624   7.907  67.093  1.00  0.00    -0.313 C  
HETATM   21  C   UNL     1      -9.585   8.508  66.128  1.00  0.00    -0.276 C  
BRANCH  19  22
HETATM   22  C   UNL     1      -9.527   7.729  69.295  1.00  0.00    -0.155 C  
BRANCH  22  23
HETATM   23  C   UNL     1      -9.972   7.523  70.736  1.00  0.00    -0.182 A  
HETATM   24  C   UNL     1      -9.286   8.167  71.777  1.00  0.00    -0.241 A  
HETATM   25  C   UNL     1      -9.601   7.900  73.110  1.00  0.00    -0.352 A  
HETATM   26  C   UNL     1     -10.606   6.986  73.421  1.00  0.00    -0.399 A  
HETATM   27  C   UNL     1     -11.300   6.341  72.398  1.00  0.00    -0.333 A  
HETATM   28  C   UNL     1     -10.988   6.609  71.062  1.00  0.00    -0.305 A  
ENDBRANCH  22  23
ENDBRANCH  19  22
ENDBRANCH  15  16
ENDBRANCH  11  15
ENDBRANCH   2   3
TORSDOF 6
ENDMDL
MODEL       19
REMARK 921   NORMALIZED FREE ENERGY PREDICTED BY IDOCK:   -6.26 KCAL/MOL
REMARK 922        TOTAL FREE ENERGY PREDICTED BY IDOCK:   -9.19 KCAL/MOL
REMARK 923 INTER-LIGAND FREE ENERGY PREDICTED BY IDOCK:   -8.41 KCAL/MOL
REMARK 924 INTRA-LIGAND FREE ENERGY PREDICTED BY IDOCK:   -0.78 KCAL/MOL
REMARK 927      BINDING AFFINITY PREDICTED BY RF-SCORE:    0.00 PKD
ROOT
HETATM    1  C   UNL     1      -7.059  18.947  68.878  1.00  0.00    -0.321 C  
HETATM    2  O   UNL     1      -8.301  18.956  68.189  1.00  0.00    -0.288 OA 
ENDROOT
BRANCH   2   3
HETATM    3  C   UNL     1      -8.679  17.810  67.540  1.00  0.00    -0.239 A  
HETATM    4  C   UNL     1      -9.903  17.890  66.824  1.00  0.00    -0.333 A  
HETATM    5  C   UNL     1     -10.305  16.875  65.965  1.00  0.00    -0.335 A  
HETATM    6  C   UNL     1      -7.989  16.585  67.598  1.00  0.00    -0.178 A  
HETATM    7  C   UNL     1      -8.548  15.498  66.946  1.00  0.00    -0.289 A  
HETATM    8  C   UNL     1      -9.599  15.704  66.055  1.00  0.00    -0.386 A  
HETATM    9  C   UNL     1     -10.049  14.413  65.596  1.00  0.00    -0.353 C  
HETATM   10  O   UNL     1     -10.651  14.216  64.548  1.00  0.00    -0.406 OA 
HETATM   11  C   UNL     1      -9.674  13.440  66.674  1.00  0.00    -0.275 C  
HETATM   12  C   UNL     1      -8.286  14.014  67.100  1.00  0.00    -0.174 C  
BRANCH   4  13
HETATM   13  O   UNL     1     -10.753  18.948  67.071  1.00  0.00    -0.430 OA 
HETATM   14  C   UNL     1     -10.755  19.885  65.983  1.00  0.00    -0.340 C  
ENDBRANCH   4  13
BRANCH  11  15
HETATM   15  C   UNL     1     -10.023  11.986  66.341  1.00  0.00    -0.240 C  
BRANCH  15  16
HETATM   16  C   UNL     1     -11.272  11.378  66.996  1.00  0.00    -0.350 C  
HETATM   17  C   UNL     1     -10.966  10.027  67.624  1.00  0.00    -0.297 C  
HETATM   18  C   UNL     1     -10.124  10.189  68.884  1.00  0.00    -0.200 C  
HETATM   19  N   UNL     1     -10.862  10.891  69.936  1.00  0.00    -0.200 NA 
HETATM   20  C   UNL     1     -11.260  12.226  69.472  1.00  0.00    -0.115 C  
HETATM   21  C   UNL     1     -11.901  12.300  68.073  1.00  0.00    -0.368 C  
BRANCH  19  22
HETATM   22  C   UNL     1     -11.982  10.089  70.469  1.00  0.00    -0.272 C  
BRANCH  22  23
HETATM   23  C   UNL     1     -11.493   8.844  71.197  1.00  0.00    -0.364 A  
HETATM   24  C   UNL     1     -12.275   7.680  71.192  1.00  0.00    -0.310 A  
HETATM   25  C   UNL     1     -11.904   6.569  71.950  1.00  0.00    -0.381 A  
HETATM   26  C   UNL     1     -10.745   6.606  72.724  1.00  0.00    -0.272 A  
HETATM   27  C   UNL     1      -9.954   7.754  72.736  1.00  0.00    -0.321 A  
HETATM   28  C   UNL     1     -10.322   8.867  71.975  1.00  0.00    -0.378 A  
ENDBRANCH  22  23
ENDBRANCH  19  22
ENDBRANCH  15  16
ENDBRANCH  11  15
ENDBRANCH   2   3
TORSDOF 6
ENDMDL
MODEL       20
REMARK 921   NORMALIZED FREE ENERGY PREDICTED BY IDOCK:   -6.25 KCAL/MOL
REMARK 922        TOTAL FREE ENERGY PREDICTED BY IDOCK:   -9.17 KCAL/MOL
REMARK 923 INTER-LIGAND FREE ENERGY PREDICTED BY IDOCK:   -8.22 KCAL/MOL
REMARK 924 INTRA-LIGAND FREE ENERGY PREDICTED BY IDOCK:   -0.96 KCAL/MOL
REMARK 927      BINDING AFFINITY PREDICTED BY RF-SCORE:    0.00 PKD
ROOT
HETATM    1  C   UNL     1     -10.612   8.512  72.242  1.00  0.00    -0.338 C  
HETATM    2  O   UNL     1     -11.265   8.487  70.981  1.00  0.00    -0.253 OA 
ENDROOT
BRANCH   2   3
HETATM    3  C   UNL     1     -11.450   9.681  70.335  1.00  0.00    -0.263 A  
HETATM    4  C   UNL     1     -10.908   9.755  69.024  1.00  0.00    -0.199 A  
HETATM    5  C   UNL     1     -11.190  10.827  68.186  1.00  0.00    -0.365 A  
HETATM    6  C   UNL     1     -12.061  10.816  70.899  1.00  0.00    -0.475 A  
HETATM    7  C   UNL     1     -12.100  11.972  70.137  1.00  0.00    -0.377 A  
HETATM    8  C   UNL     1     -11.789  11.907  68.781  1.00  0.00    -0.371 A  
HETATM    9  C   UNL     1     -11.815  13.249  68.255  1.00  0.00    -0.354 C  
HETATM   10  O   UNL     1     -11.987  13.535  67.077  1.00  0.00    -0.386 OA 
HETATM   11  C   UNL     1     -11.538  14.151  69.420  1.00  0.00    -0.353 C  
HETATM   12  C   UNL     1     -12.334  13.413  70.542  1.00  0.00    -0.401 C  
BRANCH   4  13
HETATM   13  O   UNL     1     -10.000   8.799  68.623  1.00  0.00    -0.171 OA 
HETATM   14  C   UNL     1      -8.656   9.173  68.965  1.00  0.00    -0.133 C  
ENDBRANCH   4  13
BRANCH  11  15
HETATM   15  C   UNL     1     -11.580  15.642  69.070  1.00  0.00    -0.396 C  
BRANCH  15  16
HETATM   16  C   UNL     1     -10.405  16.521  69.523  1.00  0.00    -0.266 C  
HETATM   17  C   UNL     1      -9.081  15.780  69.400  1.00  0.00    -0.254 C  
HETATM   18  C   UNL     1      -8.676  15.623  67.940  1.00  0.00    -0.166 C  
HETATM   19  N   UNL     1      -8.397  16.919  67.318  1.00  0.00    -0.180 NA 
HETATM   20  C   UNL     1      -9.588  17.777  67.377  1.00  0.00    -0.264 C  
HETATM   21  C   UNL     1     -10.307  17.854  68.737  1.00  0.00    -0.311 C  
BRANCH  19  22
HETATM   22  C   UNL     1      -7.179  17.553  67.860  1.00  0.00    -0.191 C  
BRANCH  22  23
HETATM   23  C   UNL     1      -6.721  18.727  67.006  1.00  0.00    -0.206 A  
HETATM   24  C   UNL     1      -6.705  20.020  67.548  1.00  0.00    -0.260 A  
HETATM   25  C   UNL     1      -6.403  21.124  66.748  1.00  0.00    -0.385 A  
HETATM   26  C   UNL     1      -6.112  20.949  65.396  1.00  0.00    -0.279 A  
HETATM   27  C   UNL     1      -6.119  19.669  64.844  1.00  0.00    -0.303 A  
HETATM   28  C   UNL     1      -6.418  18.562  65.643  1.00  0.00    -0.319 A  
ENDBRANCH  22  23
ENDBRANCH  19  22
ENDBRANCH  15  16
ENDBRANCH  11  15
ENDBRANCH   2   3
TORSDOF 6
ENDMDL
MODEL       21
REMARK 921   NORMALIZED FREE ENERGY PREDICTED BY IDOCK:   -6.22 KCAL/MOL
REMARK 922        TOTAL FREE ENERGY PREDICTED BY IDOCK:   -9.13 KCAL/MOL
REMARK 923 INTER-LIGAND FREE ENERGY PREDICTED BY IDOCK:   -8.30 KCAL/MOL
REMARK 924 INTRA-LIGAND FREE ENERGY PREDICTED BY IDOCK:   -0.83 KCAL/MOL
REMARK 927      BINDING AFFINITY PREDICTED BY RF-SCORE:    0.00 PKD
ROOT
HETATM    1  C   UNL     1      -6.123  20.848  65.274  1.00  0.00    -0.243 C  
HETATM    2  O   UNL     1      -6.735  21.066  66.537  1.00  0.00    -0.268 OA 
ENDROOT
BRANCH   2   3
HETATM    3  C   UNL     1      -7.646  20.140  66.972  1.00  0.00    -0.299 A  
HETATM    4  C   UNL     1      -7.439  19.654  68.291  1.00  0.00    -0.314 A  
HETATM    5  C   UNL     1      -8.390  18.867  68.928  1.00  0.00    -0.273 A  
HETATM    6  C   UNL     1      -8.692  19.610  66.194  1.00  0.00    -0.361 A  
HETATM    7  C   UNL     1      -9.479  18.621  66.761  1.00  0.00    -0.324 A  
HETATM    8  C   UNL     1      -9.391  18.379  68.129  1.00  0.00    -0.331 A  
HETATM    9  C   UNL     1     -10.236  17.250  68.435  1.00  0.00    -0.358 C  
HETATM   10  O   UNL     1     -10.711  17.012  69.537  1.00  0.00    -0.313 OA 
HETATM   11  C   UNL     1     -10.336  16.458  67.165  1.00  0.00    -0.290 C  
HETATM   12  C   UNL     1     -10.411  17.613  66.118  1.00  0.00    -0.334 C  
BRANCH   4  13
HETATM   13  O   UNL     1      -6.225  19.883  68.904  1.00  0.00    -0.263 OA 
HETATM   14  C   UNL     1      -6.024  18.999  70.016  1.00  0.00    -0.228 C  
ENDBRANCH   4  13
BRANCH  11  15
HETATM   15  C   UNL     1     -11.251  15.234  67.274  1.00  0.00    -0.306 C  
BRANCH  15  16
HETATM   16  C   UNL     1     -10.863  13.974  66.484  1.00  0.00    -0.300 C  
HETATM   17  C   UNL     1      -9.503  13.446  66.919  1.00  0.00    -0.253 C  
HETATM   18  C   UNL     1      -9.581  12.812  68.302  1.00  0.00    -0.211 C  
HETATM   19  N   UNL     1     -10.423  11.615  68.298  1.00  0.00    -0.196 NA 
HETATM   20  C   UNL     1     -11.786  11.955  67.870  1.00  0.00    -0.298 C  
HETATM   21  C   UNL     1     -11.906  12.835  66.611  1.00  0.00    -0.462 C  
BRANCH  19  22
HETATM   22  C   UNL     1      -9.819  10.505  67.534  1.00  0.00    -0.168 C  
BRANCH  22  23
HETATM   23  C   UNL     1     -10.297   9.147  68.031  1.00  0.00    -0.272 A  
HETATM   24  C   UNL     1     -10.455   8.924  69.407  1.00  0.00    -0.228 A  
HETATM   25  C   UNL     1     -10.777   7.654  69.890  1.00  0.00    -0.253 A  
HETATM   26  C   UNL     1     -10.943   6.591  69.004  1.00  0.00    -0.378 A  
HETATM   27  C   UNL     1     -10.794   6.798  67.633  1.00  0.00    -0.361 A  
HETATM   28  C   UNL     1     -10.475   8.069  67.147  1.00  0.00    -0.408 A  
ENDBRANCH  22  23
ENDBRANCH  19  22
ENDBRANCH  15  16
ENDBRANCH  11  15
ENDBRANCH   2   3
TORSDOF 6
ENDMDL
MODEL       22
REMARK 921   NORMALIZED FREE ENERGY PREDICTED BY IDOCK:   -6.19 KCAL/MOL
REMARK 922        TOTAL FREE ENERGY PREDICTED BY IDOCK:   -9.10 KCAL/MOL
REMARK 923 INTER-LIGAND FREE ENERGY PREDICTED BY IDOCK:   -8.27 KCAL/MOL
REMARK 924 INTRA-LIGAND FREE ENERGY PREDICTED BY IDOCK:   -0.83 KCAL/MOL
REMARK 927      BINDING AFFINITY PREDICTED BY RF-SCORE:    0.00 PKD
ROOT
HETATM    1  C   UNL     1      -9.829   4.140  65.929  1.00  0.00    -0.199 C  
HETATM    2  O   UNL     1      -9.788   4.462  67.312  1.00  0.00    -0.195 OA 
ENDROOT
BRANCH   2   3
HETATM    3  C   UNL     1      -9.910   5.781  67.663  1.00  0.00    -0.126 A  
HETATM    4  C   UNL     1     -10.169   6.023  69.039  1.00  0.00    -0.193 A  
HETATM    5  C   UNL     1     -10.120   7.308  69.566  1.00  0.00    -0.182 A  
HETATM    6  C   UNL     1      -9.867   6.862  66.764  1.00  0.00    -0.243 A  
HETATM    7  C   UNL     1     -10.087   8.132  67.272  1.00  0.00    -0.309 A  
HETATM    8  C   UNL     1     -10.074   8.327  68.651  1.00  0.00    -0.212 A  
HETATM    9  C   UNL     1     -10.420   9.703  68.908  1.00  0.00    -0.215 C  
HETATM   10  O   UNL     1     -10.126  10.319  69.924  1.00  0.00    -0.237 OA 
HETATM   11  C   UNL     1     -11.226  10.150  67.725  1.00  0.00    -0.205 C  
HETATM   12  C   UNL     1     -10.464   9.422  66.573  1.00  0.00    -0.199 C  
BRANCH   4  13
HETATM   13  O   UNL     1     -10.579   4.976  69.836  1.00  0.00    -0.237 OA 
HETATM   14  C   UNL     1     -10.415   5.280  71.229  1.00  0.00    -0.204 C  
ENDBRANCH   4  13
BRANCH  11  15
HETATM   15  C   UNL     1     -11.644  11.623  67.785  1.00  0.00    -0.359 C  
BRANCH  15  16
HETATM   16  C   UNL     1     -11.183  12.548  66.648  1.00  0.00    -0.357 C  
HETATM   17  C   UNL     1     -12.078  13.773  66.534  1.00  0.00    -0.483 C  
HETATM   18  C   UNL     1     -11.840  14.732  67.694  1.00  0.00    -0.292 C  
HETATM   19  N   UNL     1     -10.490  15.295  67.657  1.00  0.00    -0.258 NA 
HETATM   20  C   UNL     1      -9.490  14.222  67.733  1.00  0.00    -0.216 C  
HETATM   21  C   UNL     1      -9.713  13.014  66.803  1.00  0.00    -0.248 C  
BRANCH  19  22
HETATM   22  C   UNL     1     -10.293  16.211  66.515  1.00  0.00    -0.308 C  
BRANCH  22  23
HETATM   23  C   UNL     1     -10.257  17.668  66.954  1.00  0.00    -0.334 A  
HETATM   24  C   UNL     1     -10.413  18.688  66.004  1.00  0.00    -0.456 A  
HETATM   25  C   UNL     1     -10.264  20.027  66.366  1.00  0.00    -0.598 A  
HETATM   26  C   UNL     1      -9.958  20.366  67.683  1.00  0.00    -0.514 A  
HETATM   27  C   UNL     1      -9.804  19.364  68.640  1.00  0.00    -0.522 A  
HETATM   28  C   UNL     1      -9.955  18.022  68.281  1.00  0.00    -0.374 A  
ENDBRANCH  22  23
ENDBRANCH  19  22
ENDBRANCH  15  16
ENDBRANCH  11  15
ENDBRANCH   2   3
TORSDOF 6
ENDMDL
MODEL       23
REMARK 921   NORMALIZED FREE ENERGY PREDICTED BY IDOCK:   -6.18 KCAL/MOL
REMARK 922        TOTAL FREE ENERGY PREDICTED BY IDOCK:   -9.08 KCAL/MOL
REMARK 923 INTER-LIGAND FREE ENERGY PREDICTED BY IDOCK:   -8.33 KCAL/MOL
REMARK 924 INTRA-LIGAND FREE ENERGY PREDICTED BY IDOCK:   -0.75 KCAL/MOL
REMARK 927      BINDING AFFINITY PREDICTED BY RF-SCORE:    0.00 PKD
ROOT
HETATM    1  C   UNL     1      -8.808   6.204  70.509  1.00  0.00    -0.146 C  
HETATM    2  O   UNL     1      -9.188   5.817  69.196  1.00  0.00    -0.119 OA 
ENDROOT
BRANCH   2   3
HETATM    3  C   UNL     1      -9.367   6.808  68.266  1.00  0.00    -0.124 A  
HETATM    4  C   UNL     1      -8.409   6.841  67.218  1.00  0.00    -0.121 A  
HETATM    5  C   UNL     1      -8.580   7.660  66.109  1.00  0.00    -0.160 A  
HETATM    6  C   UNL     1     -10.364   7.799  68.326  1.00  0.00    -0.239 A  
HETATM    7  C   UNL     1     -10.360   8.777  67.345  1.00  0.00    -0.349 A  
HETATM    8  C   UNL     1      -9.566   8.606  66.213  1.00  0.00    -0.322 A  
HETATM    9  C   UNL     1      -9.675   9.799  65.411  1.00  0.00    -0.313 C  
HETATM   10  O   UNL     1      -9.458   9.853  64.207  1.00  0.00    -0.284 OA 
HETATM   11  C   UNL     1     -10.041  10.900  66.361  1.00  0.00    -0.280 C  
HETATM   12  C   UNL     1     -11.021  10.140  67.308  1.00  0.00    -0.250 C  
BRANCH   4  13
HETATM   13  O   UNL     1      -7.239   6.125  67.361  1.00  0.00    -0.072 OA 
HETATM   14  C   UNL     1      -6.139   6.980  67.707  1.00  0.00    -0.033 C  
ENDBRANCH   4  13
BRANCH  11  15
HETATM   15  C   UNL     1     -10.261  12.254  65.679  1.00  0.00    -0.287 C  
BRANCH  15  16
HETATM   16  C   UNL     1      -9.926  13.524  66.477  1.00  0.00    -0.287 C  
HETATM   17  C   UNL     1     -11.007  14.582  66.313  1.00  0.00    -0.323 C  
HETATM   18  C   UNL     1     -12.274  14.190  67.063  1.00  0.00    -0.339 C  
HETATM   19  N   UNL     1     -12.052  14.155  68.510  1.00  0.00    -0.321 NA 
HETATM   20  C   UNL     1     -11.001  13.183  68.838  1.00  0.00    -0.230 C  
HETATM   21  C   UNL     1      -9.718  13.251  67.989  1.00  0.00    -0.223 C  
BRANCH  19  22
HETATM   22  C   UNL     1     -11.818  15.498  69.076  1.00  0.00    -0.354 C  
BRANCH  22  23
HETATM   23  C   UNL     1     -12.403  15.636  70.474  1.00  0.00    -0.443 A  
HETATM   24  C   UNL     1     -11.624  16.176  71.507  1.00  0.00    -0.502 A  
HETATM   25  C   UNL     1     -12.099  16.201  72.820  1.00  0.00    -0.653 A  
HETATM   26  C   UNL     1     -13.359  15.687  73.116  1.00  0.00    -0.660 A  
HETATM   27  C   UNL     1     -14.149  15.151  72.100  1.00  0.00    -0.654 A  
HETATM   28  C   UNL     1     -13.677  15.127  70.785  1.00  0.00    -0.244 A  
ENDBRANCH  22  23
ENDBRANCH  19  22
ENDBRANCH  15  16
ENDBRANCH  11  15
ENDBRANCH   2   3
TORSDOF 6
ENDMDL
MODEL       24
REMARK 921   NORMALIZED FREE ENERGY PREDICTED BY IDOCK:   -6.15 KCAL/MOL
REMARK 922        TOTAL FREE ENERGY PREDICTED BY IDOCK:   -9.04 KCAL/MOL
REMARK 923 INTER-LIGAND FREE ENERGY PREDICTED BY IDOCK:   -8.21 KCAL/MOL
REMARK 924 INTRA-LIGAND FREE ENERGY PREDICTED BY IDOCK:   -0.84 KCAL/MOL
REMARK 927      BINDING AFFINITY PREDICTED BY RF-SCORE:    0.00 PKD
ROOT
HETATM    1  C   UNL     1     -10.757   5.755  73.652  1.00  0.00    -0.251 C  
HETATM    2  O   UNL     1     -11.406   5.534  72.408  1.00  0.00    -0.271 OA 
ENDROOT
BRANCH   2   3
HETATM    3  C   UNL     1     -11.222   6.463  71.419  1.00  0.00    -0.288 A  
HETATM    4  C   UNL     1     -10.670   5.964  70.208  1.00  0.00    -0.313 A  
HETATM    5  C   UNL     1     -10.614   6.749  69.063  1.00  0.00    -0.258 A  
HETATM    6  C   UNL     1     -11.472   7.842  71.551  1.00  0.00    -0.298 A  
HETATM    7  C   UNL     1     -11.158   8.659  70.476  1.00  0.00    -0.268 A  
HETATM    8  C   UNL     1     -10.869   8.083  69.242  1.00  0.00    -0.072 A  
HETATM    9  C   UNL     1     -10.489   9.141  68.338  1.00  0.00    -0.199 C  
HETATM   10  O   UNL     1     -10.558   9.074  67.117  1.00  0.00    -0.272 OA 
HETATM   11  C   UNL     1      -9.966  10.250  69.201  1.00  0.00    -0.235 C  
HETATM   12  C   UNL     1     -10.956  10.159  70.405  1.00  0.00    -0.386 C  
BRANCH   4  13
HETATM   13  O   UNL     1     -10.085   4.716  70.207  1.00  0.00    -0.239 OA 
HETATM   14  C   UNL     1      -8.655   4.806  70.292  1.00  0.00    -0.090 C  
ENDBRANCH   4  13
BRANCH  11  15
HETATM   15  C   UNL     1      -9.560  11.502  68.417  1.00  0.00    -0.195 C  
BRANCH  15  16
HETATM   16  C   UNL     1     -10.678  12.428  67.914  1.00  0.00    -0.245 C  
HETATM   17  C   UNL     1     -10.954  13.550  68.904  1.00  0.00    -0.286 C  
HETATM   18  C   UNL     1      -9.821  14.568  68.907  1.00  0.00    -0.191 C  
HETATM   19  N   UNL     1      -9.724  15.267  67.624  1.00  0.00    -0.208 NA 
HETATM   20  C   UNL     1      -9.479  14.306  66.540  1.00  0.00    -0.287 C  
HETATM   21  C   UNL     1     -10.371  13.050  66.527  1.00  0.00    -0.278 C  
BRANCH  19  22
HETATM   22  C   UNL     1     -10.876  16.157  67.380  1.00  0.00    -0.265 C  
BRANCH  22  23
HETATM   23  C   UNL     1     -10.489  17.627  67.472  1.00  0.00    -0.365 A  
HETATM   24  C   UNL     1     -10.426  18.407  66.308  1.00  0.00    -0.421 A  
HETATM   25  C   UNL     1      -9.959  19.721  66.356  1.00  0.00    -0.578 A  
HETATM   26  C   UNL     1      -9.548  20.273  67.567  1.00  0.00    -0.562 A  
HETATM   27  C   UNL     1      -9.609  19.513  68.734  1.00  0.00    -0.479 A  
HETATM   28  C   UNL     1     -10.079  18.197  68.690  1.00  0.00    -0.406 A  
ENDBRANCH  22  23
ENDBRANCH  19  22
ENDBRANCH  15  16
ENDBRANCH  11  15
ENDBRANCH   2   3
TORSDOF 6
ENDMDL
MODEL       25
REMARK 921   NORMALIZED FREE ENERGY PREDICTED BY IDOCK:   -6.10 KCAL/MOL
REMARK 922        TOTAL FREE ENERGY PREDICTED BY IDOCK:   -8.97 KCAL/MOL
REMARK 923 INTER-LIGAND FREE ENERGY PREDICTED BY IDOCK:   -8.14 KCAL/MOL
REMARK 924 INTRA-LIGAND FREE ENERGY PREDICTED BY IDOCK:   -0.84 KCAL/MOL
REMARK 927      BINDING AFFINITY PREDICTED BY RF-SCORE:    0.00 PKD
ROOT
HETATM    1  C   UNL     1     -12.140  15.071  64.338  1.00  0.00    -0.359 C  
HETATM    2  O   UNL     1     -12.801  13.914  64.831  1.00  0.00    -0.687 OA 
ENDROOT
BRANCH   2   3
HETATM    3  C   UNL     1     -12.165  13.181  65.798  1.00  0.00    -0.456 A  
HETATM    4  C   UNL     1     -11.392  12.087  65.324  1.00  0.00    -0.312 A  
HETATM    5  C   UNL     1     -10.543  11.383  66.168  1.00  0.00    -0.316 A  
HETATM    6  C   UNL     1     -12.285  13.397  67.183  1.00  0.00    -0.306 A  
HETATM    7  C   UNL     1     -11.635  12.514  68.031  1.00  0.00    -0.395 A  
HETATM    8  C   UNL     1     -10.694  11.631  67.508  1.00  0.00    -0.257 A  
HETATM    9  C   UNL     1     -10.248  10.773  68.578  1.00  0.00    -0.178 C  
HETATM   10  O   UNL     1      -9.180  10.175  68.593  1.00  0.00    -0.145 OA 
HETATM   11  C   UNL     1     -11.366  10.748  69.577  1.00  0.00    -0.355 C  
HETATM   12  C   UNL     1     -11.838  12.235  69.507  1.00  0.00    -0.380 C  
BRANCH   4  13
HETATM   13  O   UNL     1     -11.575  11.653  64.028  1.00  0.00    -0.354 OA 
HETATM   14  C   UNL     1     -10.337  11.635  63.301  1.00  0.00    -0.398 C  
ENDBRANCH   4  13
BRANCH  11  15
HETATM   15  C   UNL     1     -11.054   9.924  70.830  1.00  0.00    -0.417 C  
BRANCH  15  16
HETATM   16  C   UNL     1     -11.915   8.682  71.105  1.00  0.00    -0.320 C  
HETATM   17  C   UNL     1     -11.394   7.469  70.347  1.00  0.00    -0.253 C  
HETATM   18  C   UNL     1     -10.092   6.963  70.954  1.00  0.00    -0.194 C  
HETATM   19  N   UNL     1     -10.296   6.451  72.311  1.00  0.00    -0.190 NA 
HETATM   20  C   UNL     1     -10.829   7.510  73.178  1.00  0.00    -0.395 C  
HETATM   21  C   UNL     1     -12.005   8.329  72.612  1.00  0.00    -0.360 C  
BRANCH  19  22
HETATM   22  C   UNL     1     -11.095   5.209  72.330  1.00  0.00    -0.107 C  
BRANCH  22  23
HETATM   23  C   UNL     1     -10.440   4.125  73.175  1.00  0.00    -0.248 A  
HETATM   24  C   UNL     1      -9.050   4.130  73.362  1.00  0.00    -0.108 A  
HETATM   25  C   UNL     1      -8.418   3.082  74.032  1.00  0.00    -0.073 A  
HETATM   26  C   UNL     1      -9.166   2.014  74.524  1.00  0.00    -0.090 A  
HETATM   27  C   UNL     1     -10.550   1.997  74.350  1.00  0.00    -0.188 A  
HETATM   28  C   UNL     1     -11.186   3.047  73.682  1.00  0.00    -0.298 A  
ENDBRANCH  22  23
ENDBRANCH  19  22
ENDBRANCH  15  16
ENDBRANCH  11  15
ENDBRANCH   2   3
TORSDOF 6
ENDMDL
MODEL       26
REMARK 921   NORMALIZED FREE ENERGY PREDICTED BY IDOCK:   -6.10 KCAL/MOL
REMARK 922        TOTAL FREE ENERGY PREDICTED BY IDOCK:   -8.97 KCAL/MOL
REMARK 923 INTER-LIGAND FREE ENERGY PREDICTED BY IDOCK:   -8.10 KCAL/MOL
REMARK 924 INTRA-LIGAND FREE ENERGY PREDICTED BY IDOCK:   -0.87 KCAL/MOL
REMARK 927      BINDING AFFINITY PREDICTED BY RF-SCORE:    0.00 PKD
ROOT
HETATM    1  C   UNL     1      -5.807  21.139  65.439  1.00  0.00    -0.208 C  
HETATM    2  O   UNL     1      -6.493  21.343  66.666  1.00  0.00    -0.398 OA 
ENDROOT
BRANCH   2   3
HETATM    3  C   UNL     1      -7.433  20.416  67.032  1.00  0.00    -0.310 A  
HETATM    4  C   UNL     1      -7.136  19.679  68.210  1.00  0.00    -0.302 A  
HETATM    5  C   UNL     1      -8.083  18.853  68.803  1.00  0.00    -0.354 A  
HETATM    6  C   UNL     1      -8.596  20.113  66.299  1.00  0.00    -0.272 A  
HETATM    7  C   UNL     1      -9.405  19.091  66.768  1.00  0.00    -0.357 A  
HETATM    8  C   UNL     1      -9.200  18.592  68.052  1.00  0.00    -0.315 A  
HETATM    9  C   UNL     1     -10.105  17.486  68.248  1.00  0.00    -0.346 C  
HETATM   10  O   UNL     1     -10.484  17.079  69.338  1.00  0.00    -0.321 OA 
HETATM   11  C   UNL     1     -10.404  16.954  66.878  1.00  0.00    -0.304 C  
HETATM   12  C   UNL     1     -10.483  18.287  66.069  1.00  0.00    -0.380 C  
BRANCH   4  13
HETATM   13  O   UNL     1      -5.851  19.706  68.708  1.00  0.00    -0.217 OA 
HETATM   14  C   UNL     1      -5.810  20.266  70.029  1.00  0.00    -0.350 C  
ENDBRANCH   4  13
BRANCH  11  15
HETATM   15  C   UNL     1     -11.407  15.796  66.872  1.00  0.00     0.050 C  
BRANCH  15  16
HETATM   16  C   UNL     1     -11.651  15.063  65.544  1.00  0.00    -0.208 C  
HETATM   17  C   UNL     1     -10.352  14.528  64.961  1.00  0.00    -0.442 C  
HETATM   18  C   UNL     1      -9.840  13.340  65.767  1.00  0.00    -0.197 C  
HETATM   19  N   UNL     1     -10.750  12.196  65.673  1.00  0.00    -0.265 NA 
HETATM   20  C   UNL     1     -12.078  12.562  66.182  1.00  0.00    -0.286 C  
HETATM   21  C   UNL     1     -12.661  13.894  65.675  1.00  0.00    -0.534 C  
BRANCH  19  22
HETATM   22  C   UNL     1     -10.773  11.605  64.320  1.00  0.00    -0.341 C  
BRANCH  22  23
HETATM   23  C   UNL     1      -9.738  10.500  64.164  1.00  0.00    -0.388 A  
HETATM   24  C   UNL     1      -9.454   9.652  65.245  1.00  0.00    -0.342 A  
HETATM   25  C   UNL     1      -8.426   8.712  65.162  1.00  0.00    -0.197 A  
HETATM   26  C   UNL     1      -7.668   8.607  63.997  1.00  0.00    -0.134 A  
HETATM   27  C   UNL     1      -7.940   9.439  62.912  1.00  0.00    -0.135 A  
HETATM   28  C   UNL     1      -8.971  10.380  62.992  1.00  0.00    -0.247 A  
ENDBRANCH  22  23
ENDBRANCH  19  22
ENDBRANCH  15  16
ENDBRANCH  11  15
ENDBRANCH   2   3
TORSDOF 6
ENDMDL
MODEL       27
REMARK 921   NORMALIZED FREE ENERGY PREDICTED BY IDOCK:   -6.09 KCAL/MOL
REMARK 922        TOTAL FREE ENERGY PREDICTED BY IDOCK:   -8.96 KCAL/MOL
REMARK 923 INTER-LIGAND FREE ENERGY PREDICTED BY IDOCK:   -8.09 KCAL/MOL
REMARK 924 INTRA-LIGAND FREE ENERGY PREDICTED BY IDOCK:   -0.87 KCAL/MOL
REMARK 927      BINDING AFFINITY PREDICTED BY RF-SCORE:    0.00 PKD
ROOT
HETATM    1  C   UNL     1      -9.310   7.640  67.819  1.00  0.00    -0.142 C  
HETATM    2  O   UNL     1      -9.645   8.103  66.518  1.00  0.00    -0.207 OA 
ENDROOT
BRANCH   2   3
HETATM    3  C   UNL     1     -10.138   9.376  66.401  1.00  0.00    -0.262 A  
HETATM    4  C   UNL     1      -9.896  10.012  65.154  1.00  0.00    -0.318 A  
HETATM    5  C   UNL     1     -10.505  11.217  64.828  1.00  0.00    -0.384 A  
HETATM    6  C   UNL     1     -10.783  10.088  67.430  1.00  0.00    -0.336 A  
HETATM    7  C   UNL     1     -11.153  11.399  67.171  1.00  0.00    -0.366 A  
HETATM    8  C   UNL     1     -11.124  11.871  65.862  1.00  0.00    -0.365 A  
HETATM    9  C   UNL     1     -11.460  13.273  65.889  1.00  0.00    -0.332 C  
HETATM   10  O   UNL     1     -11.913  13.901  64.940  1.00  0.00    -0.358 OA 
HETATM   11  C   UNL     1     -11.086  13.758  67.258  1.00  0.00    -0.319 C  
HETATM   12  C   UNL     1     -11.513  12.526  68.118  1.00  0.00    -0.368 C  
BRANCH   4  13
HETATM   13  O   UNL     1      -8.958   9.471  64.301  1.00  0.00    -0.228 OA 
HETATM   14  C   UNL     1      -8.559  10.413  63.294  1.00  0.00    -0.190 C  
ENDBRANCH   4  13
BRANCH  11  15
HETATM   15  C   UNL     1     -11.425  15.231  67.503  1.00  0.00    -0.271 C  
BRANCH  15  16
HETATM   16  C   UNL     1     -10.345  16.121  68.137  1.00  0.00    -0.269 C  
HETATM   17  C   UNL     1      -8.978  15.852  67.526  1.00  0.00    -0.201 C  
HETATM   18  C   UNL     1      -8.896  16.400  66.107  1.00  0.00    -0.314 C  
HETATM   19  N   UNL     1      -8.993  17.861  66.090  1.00  0.00    -0.499 NA 
HETATM   20  C   UNL     1     -10.267  18.292  66.679  1.00  0.00    -0.384 C  
HETATM   21  C   UNL     1     -10.659  17.635  68.016  1.00  0.00    -0.379 C  
BRANCH  19  22
HETATM   22  C   UNL     1      -7.810  18.510  66.690  1.00  0.00    -0.252 C  
BRANCH  22  23
HETATM   23  C   UNL     1      -6.885  19.096  65.632  1.00  0.00    -0.308 A  
HETATM   24  C   UNL     1      -6.969  20.458  65.309  1.00  0.00    -0.240 A  
HETATM   25  C   UNL     1      -6.215  20.990  64.261  1.00  0.00    -0.318 A  
HETATM   26  C   UNL     1      -5.367  20.166  63.523  1.00  0.00    -0.265 A  
HETATM   27  C   UNL     1      -5.269  18.811  63.835  1.00  0.00    -0.191 A  
HETATM   28  C   UNL     1      -6.020  18.277  64.885  1.00  0.00    -0.030 A  
ENDBRANCH  22  23
ENDBRANCH  19  22
ENDBRANCH  15  16
ENDBRANCH  11  15
ENDBRANCH   2   3
TORSDOF 6
ENDMDL
MODEL       28
REMARK 921   NORMALIZED FREE ENERGY PREDICTED BY IDOCK:   -6.00 KCAL/MOL
REMARK 922        TOTAL FREE ENERGY PREDICTED BY IDOCK:   -8.84 KCAL/MOL
REMARK 923 INTER-LIGAND FREE ENERGY PREDICTED BY IDOCK:   -8.29 KCAL/MOL
REMARK 924 INTRA-LIGAND FREE ENERGY PREDICTED BY IDOCK:   -0.55 KCAL/MOL
REMARK 927      BINDING AFFINITY PREDICTED BY RF-SCORE:    0.00 PKD
ROOT
HETATM    1  C   UNL     1      -8.952  11.010  62.478  1.00  0.00    -0.326 C  
HETATM    2  O   UNL     1      -9.899  11.878  63.085  1.00  0.00    -0.405 OA 
ENDROOT
BRANCH   2   3
HETATM    3  C   UNL     1     -10.289  11.599  64.368  1.00  0.00    -0.313 A  
HETATM    4  C   UNL     1     -10.966  12.651  65.042  1.00  0.00    -0.289 A  
HETATM    5  C   UNL     1     -11.586  12.441  66.267  1.00  0.00    -0.449 A  
HETATM    6  C   UNL     1     -10.006  10.404  65.055  1.00  0.00    -0.399 A  
HETATM    7  C   UNL     1     -10.405  10.311  66.378  1.00  0.00    -0.262 A  
HETATM    8  C   UNL     1     -11.284  11.261  66.895  1.00  0.00    -0.300 A  
HETATM    9  C   UNL     1     -11.456  10.987  68.300  1.00  0.00    -0.304 C  
HETATM   10  O   UNL     1     -12.421  11.339  68.967  1.00  0.00    -0.417 OA 
HETATM   11  C   UNL     1     -10.216  10.263  68.732  1.00  0.00    -0.205 C  
HETATM   12  C   UNL     1      -9.962   9.368  67.478  1.00  0.00    -0.250 C  
BRANCH   4  13
HETATM   13  O   UNL     1     -10.910  13.924  64.517  1.00  0.00    -0.398 OA 
HETATM   14  C   UNL     1     -12.210  14.534  64.478  1.00  0.00    -0.465 C  
ENDBRANCH   4  13
BRANCH  11  15
HETATM   15  C   UNL     1     -10.235   9.831  70.201  1.00  0.00    -0.328 C  
BRANCH  15  16
HETATM   16  C   UNL     1     -11.323   8.840  70.645  1.00  0.00    -0.289 C  
HETATM   17  C   UNL     1     -11.015   7.429  70.166  1.00  0.00    -0.272 C  
HETATM   18  C   UNL     1      -9.853   6.829  70.947  1.00  0.00    -0.186 C  
HETATM   19  N   UNL     1     -10.195   6.640  72.358  1.00  0.00    -0.179 NA 
HETATM   20  C   UNL     1     -10.548   7.927  72.971  1.00  0.00    -0.339 C  
HETATM   21  C   UNL     1     -11.529   8.814  72.181  1.00  0.00    -0.421 C  
BRANCH  19  22
HETATM   22  C   UNL     1     -11.213   5.589  72.554  1.00  0.00    -0.274 C  
BRANCH  22  23
HETATM   23  C   UNL     1     -10.585   4.248  72.908  1.00  0.00    -0.255 A  
HETATM   24  C   UNL     1      -9.897   3.519  71.927  1.00  0.00    -0.237 A  
HETATM   25  C   UNL     1      -9.418   2.236  72.198  1.00  0.00    -0.175 A  
HETATM   26  C   UNL     1      -9.620   1.666  73.453  1.00  0.00    -0.096 A  
HETATM   27  C   UNL     1     -10.298   2.379  74.441  1.00  0.00    -0.192 A  
HETATM   28  C   UNL     1     -10.776   3.665  74.173  1.00  0.00    -0.256 A  
ENDBRANCH  22  23
ENDBRANCH  19  22
ENDBRANCH  15  16
ENDBRANCH  11  15
ENDBRANCH   2   3
TORSDOF 6
ENDMDL
MODEL       29
REMARK 921   NORMALIZED FREE ENERGY PREDICTED BY IDOCK:   -5.98 KCAL/MOL
REMARK 922        TOTAL FREE ENERGY PREDICTED BY IDOCK:   -8.82 KCAL/MOL
REMARK 923 INTER-LIGAND FREE ENERGY PREDICTED BY IDOCK:   -8.19 KCAL/MOL
REMARK 924 INTRA-LIGAND FREE ENERGY PREDICTED BY IDOCK:   -0.63 KCAL/MOL
REMARK 927      BINDING AFFINITY PREDICTED BY RF-SCORE:    0.00 PKD
ROOT
HETATM    1  C   UNL     1     -10.658  19.022  66.143  1.00  0.00    -0.416 C  
HETATM    2  O   UNL     1     -10.581  17.901  65.275  1.00  0.00    -0.637 OA 
ENDROOT
BRANCH   2   3
HETATM    3  C   UNL     1     -10.261  16.688  65.827  1.00  0.00    -0.307 A  
HETATM    4  C   UNL     1      -8.901  16.531  66.207  1.00  0.00    -0.329 A  
HETATM    5  C   UNL     1      -8.482  15.436  66.953  1.00  0.00    -0.287 A  
HETATM    6  C   UNL     1     -11.150  15.607  65.969  1.00  0.00    -0.136 A  
HETATM    7  C   UNL     1     -10.646  14.420  66.476  1.00  0.00    -0.296 A  
HETATM    8  C   UNL     1      -9.384  14.411  67.066  1.00  0.00    -0.252 A  
HETATM    9  C   UNL     1      -9.070  13.049  67.419  1.00  0.00    -0.201 C  
HETATM   10  O   UNL     1      -8.266  12.719  68.282  1.00  0.00    -0.156 OA 
HETATM   11  C   UNL     1      -9.872  12.189  66.489  1.00  0.00    -0.232 C  
HETATM   12  C   UNL     1     -11.198  13.010  66.421  1.00  0.00    -0.332 C  
BRANCH   4  13
HETATM   13  O   UNL     1      -7.968  17.429  65.732  1.00  0.00    -0.538 OA 
HETATM   14  C   UNL     1      -7.170  17.969  66.797  1.00  0.00    -0.208 C  
ENDBRANCH   4  13
BRANCH  11  15
HETATM   15  C   UNL     1      -9.715  10.687  66.749  1.00  0.00    -0.222 C  
BRANCH  15  16
HETATM   16  C   UNL     1     -10.887   9.946  67.410  1.00  0.00    -0.293 C  
HETATM   17  C   UNL     1     -10.595   8.459  67.546  1.00  0.00    -0.285 C  
HETATM   18  C   UNL     1      -9.548   8.204  68.624  1.00  0.00    -0.149 C  
HETATM   19  N   UNL     1     -10.044   8.574  69.951  1.00  0.00    -0.190 NA 
HETATM   20  C   UNL     1     -10.400   9.998  69.981  1.00  0.00    -0.272 C  
HETATM   21  C   UNL     1     -11.252  10.514  68.806  1.00  0.00    -0.317 C  
BRANCH  19  22
HETATM   22  C   UNL     1     -11.124   7.681  70.418  1.00  0.00    -0.258 C  
BRANCH  22  23
HETATM   23  C   UNL     1     -10.832   7.109  71.798  1.00  0.00    -0.253 A  
HETATM   24  C   UNL     1      -9.908   7.748  72.637  1.00  0.00    -0.284 A  
HETATM   25  C   UNL     1      -9.538   7.176  73.856  1.00  0.00    -0.319 A  
HETATM   26  C   UNL     1     -10.087   5.958  74.251  1.00  0.00    -0.292 A  
HETATM   27  C   UNL     1     -11.010   5.312  73.430  1.00  0.00    -0.372 A  
HETATM   28  C   UNL     1     -11.385   5.884  72.211  1.00  0.00    -0.351 A  
ENDBRANCH  22  23
ENDBRANCH  19  22
ENDBRANCH  15  16
ENDBRANCH  11  15
ENDBRANCH   2   3
TORSDOF 6
ENDMDL
MODEL       30
REMARK 921   NORMALIZED FREE ENERGY PREDICTED BY IDOCK:   -5.98 KCAL/MOL
REMARK 922        TOTAL FREE ENERGY PREDICTED BY IDOCK:   -8.81 KCAL/MOL
REMARK 923 INTER-LIGAND FREE ENERGY PREDICTED BY IDOCK:   -8.16 KCAL/MOL
REMARK 924 INTRA-LIGAND FREE ENERGY PREDICTED BY IDOCK:   -0.65 KCAL/MOL
REMARK 927      BINDING AFFINITY PREDICTED BY RF-SCORE:    0.00 PKD
ROOT
HETATM    1  C   UNL     1     -10.527  19.060  66.444  1.00  0.00    -0.446 C  
HETATM    2  O   UNL     1     -10.493  17.969  65.535  1.00  0.00    -0.636 OA 
ENDROOT
BRANCH   2   3
HETATM    3  C   UNL     1     -10.067  16.757  66.009  1.00  0.00    -0.332 A  
HETATM    4  C   UNL     1      -8.666  16.642  66.219  1.00  0.00    -0.324 A  
HETATM    5  C   UNL     1      -8.122  15.546  66.877  1.00  0.00    -0.284 A  
HETATM    6  C   UNL     1     -10.895  15.639  66.225  1.00  0.00    -0.262 A  
HETATM    7  C   UNL     1     -10.292  14.461  66.635  1.00  0.00    -0.275 A  
HETATM    8  C   UNL     1      -8.969  14.485  67.068  1.00  0.00    -0.258 A  
HETATM    9  C   UNL     1      -8.567  13.127  67.341  1.00  0.00    -0.204 C  
HETATM   10  O   UNL     1      -7.654  12.807  68.092  1.00  0.00    -0.112 OA 
HETATM   11  C   UNL     1      -9.446  12.261  66.490  1.00  0.00    -0.238 C  
HETATM   12  C   UNL     1     -10.798  13.033  66.605  1.00  0.00    -0.291 C  
BRANCH   4  13
HETATM   13  O   UNL     1      -7.829  17.585  65.662  1.00  0.00    -0.507 OA 
HETATM   14  C   UNL     1      -6.593  17.684  66.386  1.00  0.00    -0.243 C  
ENDBRANCH   4  13
BRANCH  11  15
HETATM   15  C   UNL     1      -9.207  10.760  66.686  1.00  0.00    -0.184 C  
BRANCH  15  16
HETATM   16  C   UNL     1     -10.416   9.879  67.035  1.00  0.00    -0.296 C  
HETATM   17  C   UNL     1     -10.265   8.479  66.459  1.00  0.00    -0.286 C  
HETATM   18  C   UNL     1      -9.204   7.689  67.214  1.00  0.00    -0.131 C  
HETATM   19  N   UNL     1      -9.604   7.442  68.601  1.00  0.00    -0.146 NA 
HETATM   20  C   UNL     1      -9.817   8.716  69.301  1.00  0.00    -0.188 C  
HETATM   21  C   UNL     1     -10.664   9.768  68.562  1.00  0.00    -0.252 C  
BRANCH  19  22
HETATM   22  C   UNL     1     -10.745   6.510  68.700  1.00  0.00    -0.271 C  
BRANCH  22  23
HETATM   23  C   UNL     1     -11.016   6.096  70.140  1.00  0.00    -0.426 A  
HETATM   24  C   UNL     1     -12.074   6.685  70.848  1.00  0.00    -0.379 A  
HETATM   25  C   UNL     1     -12.265   6.408  72.203  1.00  0.00    -0.278 A  
HETATM   26  C   UNL     1     -11.403   5.538  72.867  1.00  0.00    -0.348 A  
HETATM   27  C   UNL     1     -10.350   4.940  72.176  1.00  0.00    -0.263 A  
HETATM   28  C   UNL     1     -10.158   5.214  70.819  1.00  0.00    -0.303 A  
ENDBRANCH  22  23
ENDBRANCH  19  22
ENDBRANCH  15  16
ENDBRANCH  11  15
ENDBRANCH   2   3
TORSDOF 6
ENDMDL
MODEL       31
REMARK 921   NORMALIZED FREE ENERGY PREDICTED BY IDOCK:   -5.89 KCAL/MOL
REMARK 922        TOTAL FREE ENERGY PREDICTED BY IDOCK:   -8.70 KCAL/MOL
REMARK 923 INTER-LIGAND FREE ENERGY PREDICTED BY IDOCK:   -8.54 KCAL/MOL
REMARK 924 INTRA-LIGAND FREE ENERGY PREDICTED BY IDOCK:   -0.16 KCAL/MOL
REMARK 927      BINDING AFFINITY PREDICTED BY RF-SCORE:    0.00 PKD
ROOT
HETATM    1  C   UNL     1     -12.368  16.194  74.442  1.00  0.00    -0.528 C  
HETATM    2  O   UNL     1     -12.443  14.934  73.790  1.00  0.00    -0.514 OA 
ENDROOT
BRANCH   2   3
HETATM    3  C   UNL     1     -12.231  14.903  72.437  1.00  0.00    -0.325 A  
HETATM    4  C   UNL     1     -12.992  13.939  71.723  1.00  0.00    -0.358 A  
HETATM    5  C   UNL     1     -13.025  13.930  70.334  1.00  0.00    -0.087 A  
HETATM    6  C   UNL     1     -11.289  15.691  71.750  1.00  0.00    -0.436 A  
HETATM    7  C   UNL     1     -11.145  15.481  70.388  1.00  0.00    -0.357 A  
HETATM    8  C   UNL     1     -12.092  14.716  69.710  1.00  0.00    -0.371 A  
HETATM    9  C   UNL     1     -11.655  14.579  68.343  1.00  0.00    -0.326 C  
HETATM   10  O   UNL     1     -12.392  14.335  67.396  1.00  0.00    -0.311 OA 
HETATM   11  C   UNL     1     -10.164  14.741  68.371  1.00  0.00    -0.224 C  
HETATM   12  C   UNL     1     -10.023  15.865  69.444  1.00  0.00    -0.274 C  
BRANCH   4  13
HETATM   13  O   UNL     1     -13.621  12.932  72.425  1.00  0.00    -0.579 OA 
HETATM   14  C   UNL     1     -13.162  11.637  72.009  1.00  0.00    -0.338 C  
ENDBRANCH   4  13
BRANCH  11  15
HETATM   15  C   UNL     1      -9.513  14.683  66.985  1.00  0.00    -0.249 C  
BRANCH  15  16
HETATM   16  C   UNL     1      -8.913  13.345  66.528  1.00  0.00    -0.065 C  
HETATM   17  C   UNL     1      -8.612  12.440  67.714  1.00  0.00    -0.172 C  
HETATM   18  C   UNL     1      -9.896  11.897  68.327  1.00  0.00    -0.199 C  
HETATM   19  N   UNL     1     -10.603  11.013  67.398  1.00  0.00    -0.222 NA 
HETATM   20  C   UNL     1     -10.949  11.740  66.169  1.00  0.00    -0.307 C  
HETATM   21  C   UNL     1      -9.825  12.580  65.534  1.00  0.00    -0.197 C  
BRANCH  19  22
HETATM   22  C   UNL     1      -9.874   9.751  67.157  1.00  0.00    -0.188 C  
BRANCH  22  23
HETATM   23  C   UNL     1     -10.441   8.601  67.977  1.00  0.00    -0.254 A  
HETATM   24  C   UNL     1     -10.652   8.763  69.354  1.00  0.00    -0.218 A  
HETATM   25  C   UNL     1     -11.058   7.687  70.144  1.00  0.00    -0.229 A  
HETATM   26  C   UNL     1     -11.259   6.434  69.568  1.00  0.00    -0.477 A  
HETATM   27  C   UNL     1     -11.059   6.257  68.200  1.00  0.00    -0.364 A  
HETATM   28  C   UNL     1     -10.655   7.334  67.406  1.00  0.00    -0.370 A  
ENDBRANCH  22  23
ENDBRANCH  19  22
ENDBRANCH  15  16
ENDBRANCH  11  15
ENDBRANCH   2   3
TORSDOF 6
ENDMDL
MODEL       32
REMARK 921   NORMALIZED FREE ENERGY PREDICTED BY IDOCK:   -5.87 KCAL/MOL
REMARK 922        TOTAL FREE ENERGY PREDICTED BY IDOCK:   -8.67 KCAL/MOL
REMARK 923 INTER-LIGAND FREE ENERGY PREDICTED BY IDOCK:   -8.09 KCAL/MOL
REMARK 924 INTRA-LIGAND FREE ENERGY PREDICTED BY IDOCK:   -0.58 KCAL/MOL
REMARK 927      BINDING AFFINITY PREDICTED BY RF-SCORE:    0.00 PKD
ROOT
HETATM    1  C   UNL     1     -11.208   6.139  72.790  1.00  0.00    -0.243 C  
HETATM    2  O   UNL     1     -10.249   7.124  72.433  1.00  0.00    -0.183 OA 
ENDROOT
BRANCH   2   3
HETATM    3  C   UNL     1     -10.633   8.098  71.550  1.00  0.00    -0.228 A  
HETATM    4  C   UNL     1      -9.994   8.058  70.281  1.00  0.00    -0.189 A  
HETATM    5  C   UNL     1     -10.426   8.856  69.230  1.00  0.00    -0.234 A  
HETATM    6  C   UNL     1     -11.536   9.138  71.839  1.00  0.00    -0.430 A  
HETATM    7  C   UNL     1     -11.759  10.090  70.856  1.00  0.00    -0.462 A  
HETATM    8  C   UNL     1     -11.309   9.851  69.560  1.00  0.00    -0.172 A  
HETATM    9  C   UNL     1     -11.583  11.028  68.772  1.00  0.00    -0.318 C  
HETATM   10  O   UNL     1     -11.698  11.040  67.553  1.00  0.00    -0.565 OA 
HETATM   11  C   UNL     1     -11.633  12.169  69.744  1.00  0.00    -0.334 C  
HETATM   12  C   UNL     1     -12.350  11.482  70.948  1.00  0.00    -0.460 C  
BRANCH   4  13
HETATM   13  O   UNL     1      -8.859   7.289  70.130  1.00  0.00    -0.143 OA 
HETATM   14  C   UNL     1      -7.739   8.084  69.712  1.00  0.00    -0.101 C  
ENDBRANCH   4  13
BRANCH  11  15
HETATM   15  C   UNL     1     -11.975  13.514  69.096  1.00  0.00    -0.378 C  
BRANCH  15  16
HETATM   16  C   UNL     1     -11.088  14.001  67.940  1.00  0.00    -0.274 C  
HETATM   17  C   UNL     1     -11.470  15.409  67.504  1.00  0.00    -0.228 C  
HETATM   18  C   UNL     1     -11.044  16.437  68.545  1.00  0.00    -0.357 C  
HETATM   19  N   UNL     1      -9.586  16.504  68.666  1.00  0.00    -0.232 NA 
HETATM   20  C   UNL     1      -9.049  15.196  69.063  1.00  0.00    -0.218 C  
HETATM   21  C   UNL     1      -9.577  13.976  68.283  1.00  0.00    -0.224 C  
BRANCH  19  22
HETATM   22  C   UNL     1      -8.946  17.069  67.461  1.00  0.00    -0.219 C  
BRANCH  22  23
HETATM   23  C   UNL     1      -8.213  18.368  67.763  1.00  0.00    -0.265 A  
HETATM   24  C   UNL     1      -8.166  19.384  66.798  1.00  0.00    -0.311 A  
HETATM   25  C   UNL     1      -7.400  20.532  67.008  1.00  0.00    -0.372 A  
HETATM   26  C   UNL     1      -6.671  20.680  68.186  1.00  0.00    -0.293 A  
HETATM   27  C   UNL     1      -6.711  19.681  69.158  1.00  0.00    -0.383 A  
HETATM   28  C   UNL     1      -7.479  18.532  68.951  1.00  0.00    -0.274 A  
ENDBRANCH  22  23
ENDBRANCH  19  22
ENDBRANCH  15  16
ENDBRANCH  11  15
ENDBRANCH   2   3
TORSDOF 6
ENDMDL
MODEL       33
REMARK 921   NORMALIZED FREE ENERGY PREDICTED BY IDOCK:   -5.87 KCAL/MOL
REMARK 922        TOTAL FREE ENERGY PREDICTED BY IDOCK:   -8.66 KCAL/MOL
REMARK 923 INTER-LIGAND FREE ENERGY PREDICTED BY IDOCK:   -7.82 KCAL/MOL
REMARK 924 INTRA-LIGAND FREE ENERGY PREDICTED BY IDOCK:   -0.84 KCAL/MOL
REMARK 927      BINDING AFFINITY PREDICTED BY RF-SCORE:    0.00 PKD
ROOT
HETATM    1  C   UNL     1     -10.197  16.777  66.097  1.00  0.00    -0.351 C  
HETATM    2  O   UNL     1     -10.922  15.728  65.470  1.00  0.00    -0.322 OA 
ENDROOT
BRANCH   2   3
HETATM    3  C   UNL     1     -10.999  14.527  66.124  1.00  0.00    -0.322 A  
HETATM    4  C   UNL     1     -11.127  13.385  65.288  1.00  0.00    -0.291 A  
HETATM    5  C   UNL     1     -11.018  12.099  65.802  1.00  0.00    -0.338 A  
HETATM    6  C   UNL     1     -11.028  14.370  67.522  1.00  0.00    -0.299 A  
HETATM    7  C   UNL     1     -11.188  13.088  68.024  1.00  0.00    -0.310 A  
HETATM    8  C   UNL     1     -11.047  11.998  67.168  1.00  0.00    -0.344 A  
HETATM    9  C   UNL     1     -11.354  10.805  67.918  1.00  0.00    -0.299 C  
HETATM   10  O   UNL     1     -10.962   9.680  67.632  1.00  0.00    -0.268 OA 
HETATM   11  C   UNL     1     -12.261  11.241  69.029  1.00  0.00    -0.211 C  
HETATM   12  C   UNL     1     -11.615  12.613  69.398  1.00  0.00    -0.369 C  
BRANCH   4  13
HETATM   13  O   UNL     1     -11.473  13.562  63.965  1.00  0.00    -0.379 OA 
HETATM   14  C   UNL     1     -12.096  12.388  63.424  1.00  0.00    -0.524 C  
ENDBRANCH   4  13
BRANCH  11  15
HETATM   15  C   UNL     1     -12.656  10.108  69.982  1.00  0.00     0.028 C  
BRANCH  15  16
HETATM   16  C   UNL     1     -11.915  10.006  71.324  1.00  0.00    -0.483 C  
HETATM   17  C   UNL     1     -12.661   9.109  72.301  1.00  0.00    -0.447 C  
HETATM   18  C   UNL     1     -12.555   7.646  71.890  1.00  0.00    -0.303 C  
HETATM   19  N   UNL     1     -11.176   7.163  71.974  1.00  0.00    -0.244 NA 
HETATM   20  C   UNL     1     -10.307   7.955  71.093  1.00  0.00    -0.200 C  
HETATM   21  C   UNL     1     -10.463   9.485  71.175  1.00  0.00    -0.358 C  
BRANCH  19  22
HETATM   22  C   UNL     1     -10.692   7.080  73.367  1.00  0.00    -0.345 C  
BRANCH  22  23
HETATM   23  C   UNL     1      -9.185   6.878  73.434  1.00  0.00    -0.170 A  
HETATM   24  C   UNL     1      -8.349   7.962  73.742  1.00  0.00    -0.292 A  
HETATM   25  C   UNL     1      -6.961   7.827  73.692  1.00  0.00    -0.112 A  
HETATM   26  C   UNL     1      -6.390   6.607  73.335  1.00  0.00    -0.064 A  
HETATM   27  C   UNL     1      -7.206   5.519  73.032  1.00  0.00    -0.091 A  
HETATM   28  C   UNL     1      -8.597   5.651  73.083  1.00  0.00    -0.117 A  
ENDBRANCH  22  23
ENDBRANCH  19  22
ENDBRANCH  15  16
ENDBRANCH  11  15
ENDBRANCH   2   3
TORSDOF 6
ENDMDL
MODEL       34
REMARK 921   NORMALIZED FREE ENERGY PREDICTED BY IDOCK:   -5.86 KCAL/MOL
REMARK 922        TOTAL FREE ENERGY PREDICTED BY IDOCK:   -8.65 KCAL/MOL
REMARK 923 INTER-LIGAND FREE ENERGY PREDICTED BY IDOCK:   -8.24 KCAL/MOL
REMARK 924 INTRA-LIGAND FREE ENERGY PREDICTED BY IDOCK:   -0.40 KCAL/MOL
REMARK 927      BINDING AFFINITY PREDICTED BY RF-SCORE:    0.00 PKD
ROOT
HETATM    1  C   UNL     1      -7.471   5.577  70.300  1.00  0.00    -0.076 C  
HETATM    2  O   UNL     1      -8.306   5.894  71.405  1.00  0.00    -0.124 OA 
ENDROOT
BRANCH   2   3
HETATM    3  C   UNL     1      -9.092   7.012  71.309  1.00  0.00    -0.152 A  
HETATM    4  C   UNL     1     -10.447   6.840  71.702  1.00  0.00    -0.209 A  
HETATM    5  C   UNL     1     -11.301   7.926  71.843  1.00  0.00    -0.324 A  
HETATM    6  C   UNL     1      -8.671   8.253  70.798  1.00  0.00    -0.151 A  
HETATM    7  C   UNL     1      -9.615   9.263  70.697  1.00  0.00    -0.334 A  
HETATM    8  C   UNL     1     -10.844   9.114  71.335  1.00  0.00    -0.419 A  
HETATM    9  C   UNL     1     -11.661  10.252  70.993  1.00  0.00    -0.370 C  
HETATM   10  O   UNL     1     -12.607  10.657  71.656  1.00  0.00    -0.395 OA 
HETATM   11  C   UNL     1     -11.139  10.752  69.679  1.00  0.00    -0.339 C  
HETATM   12  C   UNL     1      -9.606  10.544  69.889  1.00  0.00     0.144 C  
BRANCH   4  13
HETATM   13  O   UNL     1     -10.944   5.561  71.840  1.00  0.00    -0.244 OA 
HETATM   14  C   UNL     1     -11.076   5.195  73.222  1.00  0.00    -0.327 C  
ENDBRANCH   4  13
BRANCH  11  15
HETATM   15  C   UNL     1     -11.851  12.009  69.171  1.00  0.00    -0.369 C  
BRANCH  15  16
HETATM   16  C   UNL     1     -11.339  12.650  67.872  1.00  0.00    -0.337 C  
HETATM   17  C   UNL     1     -12.015  13.988  67.611  1.00  0.00    -0.404 C  
HETATM   18  C   UNL     1     -11.514  15.051  68.582  1.00  0.00    -0.311 C  
HETATM   19  N   UNL     1     -10.094  15.342  68.373  1.00  0.00    -0.213 NA 
HETATM   20  C   UNL     1      -9.293  14.127  68.566  1.00  0.00    -0.191 C  
HETATM   21  C   UNL     1      -9.802  12.855  67.862  1.00  0.00    -0.227 C  
BRANCH  19  22
HETATM   22  C   UNL     1      -9.843  16.023  67.086  1.00  0.00    -0.236 C  
BRANCH  22  23
HETATM   23  C   UNL     1      -9.962  17.535  67.210  1.00  0.00    -0.312 A  
HETATM   24  C   UNL     1     -10.529  18.279  66.165  1.00  0.00    -0.403 A  
HETATM   25  C   UNL     1     -10.539  19.674  66.207  1.00  0.00    -0.585 A  
HETATM   26  C   UNL     1      -9.984  20.344  67.294  1.00  0.00    -0.564 A  
HETATM   27  C   UNL     1      -9.421  19.620  68.344  1.00  0.00    -0.452 A  
HETATM   28  C   UNL     1      -9.412  18.223  68.306  1.00  0.00    -0.320 A  
ENDBRANCH  22  23
ENDBRANCH  19  22
ENDBRANCH  15  16
ENDBRANCH  11  15
ENDBRANCH   2   3
TORSDOF 6
ENDMDL
MODEL       35
REMARK 921   NORMALIZED FREE ENERGY PREDICTED BY IDOCK:   -5.86 KCAL/MOL
REMARK 922        TOTAL FREE ENERGY PREDICTED BY IDOCK:   -8.65 KCAL/MOL
REMARK 923 INTER-LIGAND FREE ENERGY PREDICTED BY IDOCK:   -8.07 KCAL/MOL
REMARK 924 INTRA-LIGAND FREE ENERGY PREDICTED BY IDOCK:   -0.58 KCAL/MOL
REMARK 927      BINDING AFFINITY PREDICTED BY RF-SCORE:    0.00 PKD
ROOT
HETATM    1  C   UNL     1     -10.412  16.987  66.354  1.00  0.00    -0.252 C  
HETATM    2  O   UNL     1     -10.876  15.913  65.550  1.00  0.00    -0.345 OA 
ENDROOT
BRANCH   2   3
HETATM    3  C   UNL     1     -10.891  14.660  66.105  1.00  0.00    -0.321 A  
HETATM    4  C   UNL     1     -11.348  13.620  65.252  1.00  0.00    -0.296 A  
HETATM    5  C   UNL     1     -11.229  12.284  65.615  1.00  0.00    -0.375 A  
HETATM    6  C   UNL     1     -10.560  14.367  67.441  1.00  0.00    -0.270 A  
HETATM    7  C   UNL     1     -10.702  13.056  67.866  1.00  0.00    -0.249 A  
HETATM    8  C   UNL     1     -10.900  12.050  66.924  1.00  0.00    -0.302 A  
HETATM    9  C   UNL     1     -11.109  10.812  67.635  1.00  0.00    -0.319 C  
HETATM   10  O   UNL     1     -10.918   9.697  67.167  1.00  0.00    -0.190 OA 
HETATM   11  C   UNL     1     -11.639  11.198  68.984  1.00  0.00    -0.392 C  
HETATM   12  C   UNL     1     -10.789  12.477  69.264  1.00  0.00    -0.054 C  
BRANCH   4  13
HETATM   13  O   UNL     1     -12.016  13.953  64.093  1.00  0.00    -0.443 OA 
HETATM   14  C   UNL     1     -12.205  12.808  63.248  1.00  0.00    -0.410 C  
ENDBRANCH   4  13
BRANCH  11  15
HETATM   15  C   UNL     1     -11.873  10.007  69.918  1.00  0.00    -0.141 C  
BRANCH  15  16
HETATM   16  C   UNL     1     -10.665   9.127  70.275  1.00  0.00    -0.268 C  
HETATM   17  C   UNL     1     -10.470   9.040  71.782  1.00  0.00    -0.418 C  
HETATM   18  C   UNL     1     -11.553   8.182  72.424  1.00  0.00    -0.399 C  
HETATM   19  N   UNL     1     -11.461   6.787  71.990  1.00  0.00    -0.269 NA 
HETATM   20  C   UNL     1     -11.607   6.699  70.531  1.00  0.00    -0.390 C  
HETATM   21  C   UNL     1     -10.771   7.690  69.700  1.00  0.00    -0.230 C  
BRANCH  19  22
HETATM   22  C   UNL     1     -10.253   6.115  72.509  1.00  0.00    -0.185 C  
BRANCH  22  23
HETATM   23  C   UNL     1     -10.387   4.599  72.476  1.00  0.00    -0.259 A  
HETATM   24  C   UNL     1     -11.202   3.950  73.414  1.00  0.00    -0.297 A  
HETATM   25  C   UNL     1     -11.245   2.556  73.477  1.00  0.00    -0.311 A  
HETATM   26  C   UNL     1     -10.475   1.793  72.602  1.00  0.00    -0.231 A  
HETATM   27  C   UNL     1      -9.664   2.423  71.659  1.00  0.00    -0.222 A  
HETATM   28  C   UNL     1      -9.621   3.818  71.593  1.00  0.00    -0.227 A  
ENDBRANCH  22  23
ENDBRANCH  19  22
ENDBRANCH  15  16
ENDBRANCH  11  15
ENDBRANCH   2   3
TORSDOF 6
ENDMDL
MODEL       36
REMARK 921   NORMALIZED FREE ENERGY PREDICTED BY IDOCK:   -5.85 KCAL/MOL
REMARK 922        TOTAL FREE ENERGY PREDICTED BY IDOCK:   -8.64 KCAL/MOL
REMARK 923 INTER-LIGAND FREE ENERGY PREDICTED BY IDOCK:   -7.73 KCAL/MOL
REMARK 924 INTRA-LIGAND FREE ENERGY PREDICTED BY IDOCK:   -0.91 KCAL/MOL
REMARK 927      BINDING AFFINITY PREDICTED BY RF-SCORE:    0.00 PKD
ROOT
HETATM    1  C   UNL     1     -10.587   7.123  68.176  1.00  0.00    -0.192 C  
HETATM    2  O   UNL     1      -9.715   8.064  67.565  1.00  0.00    -0.147 OA 
ENDROOT
BRANCH   2   3
HETATM    3  C   UNL     1     -10.236   9.282  67.215  1.00  0.00    -0.252 A  
HETATM    4  C   UNL     1     -10.024   9.671  65.865  1.00  0.00    -0.281 A  
HETATM    5  C   UNL     1     -10.661  10.781  65.325  1.00  0.00    -0.230 A  
HETATM    6  C   UNL     1     -10.882  10.166  68.099  1.00  0.00    -0.310 A  
HETATM    7  C   UNL     1     -11.282  11.396  67.601  1.00  0.00    -0.346 A  
HETATM    8  C   UNL     1     -11.280  11.609  66.225  1.00  0.00    -0.332 A  
HETATM    9  C   UNL     1     -11.644  12.984  65.988  1.00  0.00    -0.365 C  
HETATM   10  O   UNL     1     -12.123  13.410  64.945  1.00  0.00    -0.356 OA 
HETATM   11  C   UNL     1     -11.264  13.729  67.233  1.00  0.00    -0.329 C  
HETATM   12  C   UNL     1     -11.653  12.677  68.320  1.00  0.00    -0.377 C  
BRANCH   4  13
HETATM   13  O   UNL     1      -9.085   8.993  65.116  1.00  0.00    -0.207 OA 
HETATM   14  C   UNL     1      -8.277   9.896  64.345  1.00  0.00    -0.164 C  
ENDBRANCH   4  13
BRANCH  11  15
HETATM   15  C   UNL     1     -11.630  15.216  67.198  1.00  0.00    -0.206 C  
BRANCH  15  16
HETATM   16  C   UNL     1     -10.597  16.197  66.622  1.00  0.00    -0.274 C  
HETATM   17  C   UNL     1     -10.396  17.392  67.542  1.00  0.00    -0.351 C  
HETATM   18  C   UNL     1      -9.631  16.993  68.797  1.00  0.00    -0.269 C  
HETATM   19  N   UNL     1      -8.263  16.576  68.482  1.00  0.00    -0.202 NA 
HETATM   20  C   UNL     1      -8.281  15.426  67.568  1.00  0.00    -0.169 C  
HETATM   21  C   UNL     1      -9.220  15.537  66.352  1.00  0.00    -0.339 C  
BRANCH  19  22
HETATM   22  C   UNL     1      -7.427  17.698  68.011  1.00  0.00    -0.223 C  
BRANCH  22  23
HETATM   23  C   UNL     1      -6.620  18.319  69.142  1.00  0.00    -0.265 A  
HETATM   24  C   UNL     1      -5.884  17.497  70.009  1.00  0.00    -0.234 A  
HETATM   25  C   UNL     1      -5.235  18.035  71.121  1.00  0.00    -0.214 A  
HETATM   26  C   UNL     1      -5.312  19.401  71.382  1.00  0.00    -0.342 A  
HETATM   27  C   UNL     1      -6.035  20.233  70.528  1.00  0.00    -0.365 A  
HETATM   28  C   UNL     1      -6.684  19.697  69.412  1.00  0.00    -0.389 A  
ENDBRANCH  22  23
ENDBRANCH  19  22
ENDBRANCH  15  16
ENDBRANCH  11  15
ENDBRANCH   2   3
TORSDOF 6
ENDMDL
MODEL       37
REMARK 921   NORMALIZED FREE ENERGY PREDICTED BY IDOCK:   -5.84 KCAL/MOL
REMARK 922        TOTAL FREE ENERGY PREDICTED BY IDOCK:   -8.63 KCAL/MOL
REMARK 923 INTER-LIGAND FREE ENERGY PREDICTED BY IDOCK:   -7.74 KCAL/MOL
REMARK 924 INTRA-LIGAND FREE ENERGY PREDICTED BY IDOCK:   -0.89 KCAL/MOL
REMARK 927      BINDING AFFINITY PREDICTED BY RF-SCORE:    0.00 PKD
ROOT
HETATM    1  C   UNL     1     -10.702  18.382  67.579  1.00  0.00    -0.365 C  
HETATM    2  O   UNL     1     -10.440  17.514  68.671  1.00  0.00    -0.356 OA 
ENDROOT
BRANCH   2   3
HETATM    3  C   UNL     1     -10.777  16.193  68.531  1.00  0.00    -0.300 A  
HETATM    4  C   UNL     1     -11.319  15.576  69.691  1.00  0.00    -0.315 A  
HETATM    5  C   UNL     1     -11.883  14.308  69.637  1.00  0.00    -0.370 A  
HETATM    6  C   UNL     1     -10.559  15.424  67.373  1.00  0.00    -0.289 A  
HETATM    7  C   UNL     1     -10.887  14.079  67.423  1.00  0.00    -0.288 A  
HETATM    8  C   UNL     1     -11.648  13.600  68.487  1.00  0.00    -0.371 A  
HETATM    9  C   UNL     1     -11.761  12.169  68.342  1.00  0.00    -0.332 C  
HETATM   10  O   UNL     1     -12.651  11.486  68.832  1.00  0.00    -0.203 OA 
HETATM   11  C   UNL     1     -10.565  11.742  67.544  1.00  0.00    -0.247 C  
HETATM   12  C   UNL     1     -10.464  12.927  66.533  1.00  0.00    -0.275 C  
BRANCH   4  13
HETATM   13  O   UNL     1     -11.184  16.209  70.908  1.00  0.00    -0.361 OA 
HETATM   14  C   UNL     1     -11.666  15.389  71.983  1.00  0.00    -0.455 C  
ENDBRANCH   4  13
BRANCH  11  15
HETATM   15  C   UNL     1     -10.536  10.243  67.233  1.00  0.00    -0.324 C  
BRANCH  15  16
HETATM   16  C   UNL     1      -9.444   9.391  67.899  1.00  0.00    -0.150 C  
HETATM   17  C   UNL     1      -9.340   9.690  69.388  1.00  0.00    -0.201 C  
HETATM   18  C   UNL     1     -10.538   9.126  70.142  1.00  0.00    -0.228 C  
HETATM   19  N   UNL     1     -10.562   7.663  70.092  1.00  0.00    -0.231 NA 
HETATM   20  C   UNL     1     -10.637   7.204  68.699  1.00  0.00    -0.189 C  
HETATM   21  C   UNL     1      -9.663   7.868  67.708  1.00  0.00    -0.189 C  
BRANCH  19  22
HETATM   22  C   UNL     1      -9.458   7.054  70.860  1.00  0.00    -0.160 C  
BRANCH  22  23
HETATM   23  C   UNL     1      -9.933   5.883  71.709  1.00  0.00    -0.200 A  
HETATM   24  C   UNL     1     -10.578   6.123  72.931  1.00  0.00    -0.257 A  
HETATM   25  C   UNL     1     -10.914   5.066  73.778  1.00  0.00    -0.336 A  
HETATM   26  C   UNL     1     -10.610   3.756  73.416  1.00  0.00    -0.279 A  
HETATM   27  C   UNL     1      -9.973   3.500  72.202  1.00  0.00    -0.234 A  
HETATM   28  C   UNL     1      -9.638   4.556  71.350  1.00  0.00    -0.232 A  
ENDBRANCH  22  23
ENDBRANCH  19  22
ENDBRANCH  15  16
ENDBRANCH  11  15
ENDBRANCH   2   3
TORSDOF 6
ENDMDL
MODEL       38
REMARK 921   NORMALIZED FREE ENERGY PREDICTED BY IDOCK:   -5.82 KCAL/MOL
REMARK 922        TOTAL FREE ENERGY PREDICTED BY IDOCK:   -8.60 KCAL/MOL
REMARK 923 INTER-LIGAND FREE ENERGY PREDICTED BY IDOCK:   -7.79 KCAL/MOL
REMARK 924 INTRA-LIGAND FREE ENERGY PREDICTED BY IDOCK:   -0.82 KCAL/MOL
REMARK 927      BINDING AFFINITY PREDICTED BY RF-SCORE:    0.00 PKD
ROOT
HETATM    1  C   UNL     1     -10.902   6.219  70.659  1.00  0.00    -0.280 C  
HETATM    2  O   UNL     1      -9.899   6.298  69.657  1.00  0.00    -0.158 OA 
ENDROOT
BRANCH   2   3
HETATM    3  C   UNL     1     -10.007   7.295  68.724  1.00  0.00    -0.166 A  
HETATM    4  C   UNL     1      -9.317   7.065  67.503  1.00  0.00    -0.123 A  
HETATM    5  C   UNL     1      -9.499   7.894  66.403  1.00  0.00    -0.258 A  
HETATM    6  C   UNL     1     -10.676   8.517  68.922  1.00  0.00    -0.100 A  
HETATM    7  C   UNL     1     -10.624   9.453  67.902  1.00  0.00    -0.293 A  
HETATM    8  C   UNL     1     -10.160   9.069  66.646  1.00  0.00    -0.355 A  
HETATM    9  C   UNL     1     -10.122  10.244  65.810  1.00  0.00    -0.255 C  
HETATM   10  O   UNL     1     -10.158  10.231  64.586  1.00  0.00    -0.345 OA 
HETATM   11  C   UNL     1      -9.979  11.408  66.745  1.00  0.00    -0.238 C  
HETATM   12  C   UNL     1     -10.901  10.943  67.916  1.00  0.00    -0.295 C  
BRANCH   4  13
HETATM   13  O   UNL     1      -8.371   6.063  67.451  1.00  0.00    -0.106 OA 
HETATM   14  C   UNL     1      -8.664   5.117  66.411  1.00  0.00    -0.113 C  
ENDBRANCH   4  13
BRANCH  11  15
HETATM   15  C   UNL     1      -9.978  12.767  66.039  1.00  0.00    -0.277 C  
BRANCH  15  16
HETATM   16  C   UNL     1     -10.627  13.955  66.767  1.00  0.00    -0.277 C  
HETATM   17  C   UNL     1      -9.577  14.854  67.404  1.00  0.00    -0.206 C  
HETATM   18  C   UNL     1      -8.819  15.644  66.344  1.00  0.00    -0.330 C  
HETATM   19  N   UNL     1      -9.696  16.588  65.650  1.00  0.00    -0.534 NA 
HETATM   20  C   UNL     1     -10.795  15.870  64.992  1.00  0.00    -0.426 C  
HETATM   21  C   UNL     1     -11.527  14.814  65.842  1.00  0.00    -0.319 C  
BRANCH  19  22
HETATM   22  C   UNL     1     -10.145  17.689  66.526  1.00  0.00    -0.350 C  
BRANCH  22  23
HETATM   23  C   UNL     1      -8.982  18.548  67.002  1.00  0.00    -0.275 A  
HETATM   24  C   UNL     1      -8.635  18.563  68.361  1.00  0.00    -0.355 A  
HETATM   25  C   UNL     1      -7.651  19.432  68.835  1.00  0.00    -0.398 A  
HETATM   26  C   UNL     1      -7.000  20.297  67.957  1.00  0.00    -0.327 A  
HETATM   27  C   UNL     1      -7.330  20.290  66.602  1.00  0.00    -0.316 A  
HETATM   28  C   UNL     1      -8.313  19.419  66.125  1.00  0.00    -0.310 A  
ENDBRANCH  22  23
ENDBRANCH  19  22
ENDBRANCH  15  16
ENDBRANCH  11  15
ENDBRANCH   2   3
TORSDOF 6
ENDMDL
MODEL       39
REMARK 921   NORMALIZED FREE ENERGY PREDICTED BY IDOCK:   -5.81 KCAL/MOL
REMARK 922        TOTAL FREE ENERGY PREDICTED BY IDOCK:   -8.59 KCAL/MOL
REMARK 923 INTER-LIGAND FREE ENERGY PREDICTED BY IDOCK:   -7.82 KCAL/MOL
REMARK 924 INTRA-LIGAND FREE ENERGY PREDICTED BY IDOCK:   -0.77 KCAL/MOL
REMARK 927      BINDING AFFINITY PREDICTED BY RF-SCORE:    0.00 PKD
ROOT
HETATM    1  C   UNL     1     -10.091   4.867  67.873  1.00  0.00    -0.085 C  
HETATM    2  O   UNL     1     -10.810   5.940  68.463  1.00  0.00    -0.267 OA 
ENDROOT
BRANCH   2   3
HETATM    3  C   UNL     1     -10.406   7.216  68.172  1.00  0.00    -0.196 A  
HETATM    4  C   UNL     1     -10.193   8.060  69.295  1.00  0.00    -0.213 A  
HETATM    5  C   UNL     1      -9.598   9.307  69.158  1.00  0.00    -0.161 A  
HETATM    6  C   UNL     1     -10.263   7.740  66.873  1.00  0.00    -0.373 A  
HETATM    7  C   UNL     1      -9.921   9.077  66.752  1.00  0.00    -0.332 A  
HETATM    8  C   UNL     1      -9.476   9.772  67.874  1.00  0.00    -0.146 A  
HETATM    9  C   UNL     1      -9.282  11.149  67.493  1.00  0.00    -0.153 C  
HETATM   10  O   UNL     1      -8.545  11.937  68.073  1.00  0.00    -0.152 OA 
HETATM   11  C   UNL     1     -10.190  11.383  66.323  1.00  0.00    -0.274 C  
HETATM   12  C   UNL     1     -10.039  10.022  65.574  1.00  0.00    -0.325 C  
BRANCH   4  13
HETATM   13  O   UNL     1     -10.687   7.673  70.523  1.00  0.00    -0.226 OA 
HETATM   14  C   UNL     1     -10.715   8.771  71.447  1.00  0.00    -0.286 C  
ENDBRANCH   4  13
BRANCH  11  15
HETATM   15  C   UNL     1     -10.082  12.792  65.732  1.00  0.00    -0.296 C  
BRANCH  15  16
HETATM   16  C   UNL     1     -10.829  13.930  66.445  1.00  0.00    -0.291 C  
HETATM   17  C   UNL     1      -9.866  14.844  67.188  1.00  0.00    -0.231 C  
HETATM   18  C   UNL     1      -9.063  15.698  66.214  1.00  0.00    -0.341 C  
HETATM   19  N   UNL     1      -9.922  16.632  65.485  1.00  0.00    -0.573 NA 
HETATM   20  C   UNL     1     -10.940  15.897  64.723  1.00  0.00    -0.375 C  
HETATM   21  C   UNL     1     -11.691  14.787  65.482  1.00  0.00    -0.274 C  
BRANCH  19  22
HETATM   22  C   UNL     1     -10.478  17.685  66.359  1.00  0.00    -0.286 C  
BRANCH  22  23
HETATM   23  C   UNL     1      -9.389  18.578  66.937  1.00  0.00    -0.294 A  
HETATM   24  C   UNL     1      -8.621  19.383  66.083  1.00  0.00    -0.297 A  
HETATM   25  C   UNL     1      -7.541  20.117  66.577  1.00  0.00    -0.316 A  
HETATM   26  C   UNL     1      -7.216  20.057  67.930  1.00  0.00    -0.325 A  
HETATM   27  C   UNL     1      -7.974  19.266  68.793  1.00  0.00    -0.392 A  
HETATM   28  C   UNL     1      -9.057  18.532  68.302  1.00  0.00    -0.338 A  
ENDBRANCH  22  23
ENDBRANCH  19  22
ENDBRANCH  15  16
ENDBRANCH  11  15
ENDBRANCH   2   3
TORSDOF 6
ENDMDL
MODEL       40
REMARK 921   NORMALIZED FREE ENERGY PREDICTED BY IDOCK:   -5.78 KCAL/MOL
REMARK 922        TOTAL FREE ENERGY PREDICTED BY IDOCK:   -8.54 KCAL/MOL
REMARK 923 INTER-LIGAND FREE ENERGY PREDICTED BY IDOCK:   -8.51 KCAL/MOL
REMARK 924 INTRA-LIGAND FREE ENERGY PREDICTED BY IDOCK:   -0.03 KCAL/MOL
REMARK 927      BINDING AFFINITY PREDICTED BY RF-SCORE:    0.00 PKD
ROOT
HETATM    1  C   UNL     1      -6.560  16.987  69.232  1.00  0.00    -0.233 C  
HETATM    2  O   UNL     1      -7.646  17.822  68.858  1.00  0.00    -0.277 OA 
ENDROOT
BRANCH   2   3
HETATM    3  C   UNL     1      -8.458  17.396  67.840  1.00  0.00    -0.228 A  
HETATM    4  C   UNL     1      -9.583  18.220  67.572  1.00  0.00    -0.280 A  
HETATM    5  C   UNL     1     -10.375  18.017  66.448  1.00  0.00    -0.382 A  
HETATM    6  C   UNL     1      -8.287  16.199  67.120  1.00  0.00    -0.225 A  
HETATM    7  C   UNL     1      -9.244  15.875  66.172  1.00  0.00    -0.384 A  
HETATM    8  C   UNL     1     -10.168  16.840  65.778  1.00  0.00    -0.311 A  
HETATM    9  C   UNL     1     -11.095  16.218  64.864  1.00  0.00    -0.290 C  
HETATM   10  O   UNL     1     -11.765  16.818  64.034  1.00  0.00    -1.120 OA 
HETATM   11  C   UNL     1     -11.081  14.756  65.198  1.00  0.00    -0.389 C  
HETATM   12  C   UNL     1      -9.564  14.552  65.506  1.00  0.00    -0.117 C  
BRANCH   4  13
HETATM   13  O   UNL     1      -9.953  19.168  68.502  1.00  0.00    -0.379 OA 
HETATM   14  C   UNL     1     -10.235  20.431  67.882  1.00  0.00    -0.222 C  
ENDBRANCH   4  13
BRANCH  11  15
HETATM   15  C   UNL     1     -11.972  13.908  64.285  1.00  0.00    -0.477 C  
BRANCH  15  16
HETATM   16  C   UNL     1     -12.255  12.457  64.703  1.00  0.00    -0.499 C  
HETATM   17  C   UNL     1     -11.614  11.468  63.741  1.00  0.00    -0.329 C  
HETATM   18  C   UNL     1     -10.100  11.445  63.911  1.00  0.00    -0.345 C  
HETATM   19  N   UNL     1      -9.715  10.933  65.227  1.00  0.00    -0.229 NA 
HETATM   20  C   UNL     1     -10.285  11.777  66.286  1.00  0.00    -0.221 C  
HETATM   21  C   UNL     1     -11.776  12.137  66.143  1.00  0.00    -0.384 C  
BRANCH  19  22
HETATM   22  C   UNL     1     -10.019   9.496  65.384  1.00  0.00    -0.065 C  
BRANCH  22  23
HETATM   23  C   UNL     1      -9.609   8.974  66.754  1.00  0.00    -0.259 A  
HETATM   24  C   UNL     1     -10.589   8.522  67.650  1.00  0.00    -0.268 A  
HETATM   25  C   UNL     1     -10.247   8.152  68.952  1.00  0.00    -0.221 A  
HETATM   26  C   UNL     1      -8.922   8.229  69.375  1.00  0.00    -0.147 A  
HETATM   27  C   UNL     1      -7.935   8.672  68.495  1.00  0.00    -0.116 A  
HETATM   28  C   UNL     1      -8.274   9.041  67.190  1.00  0.00    -0.110 A  
ENDBRANCH  22  23
ENDBRANCH  19  22
ENDBRANCH  15  16
ENDBRANCH  11  15
ENDBRANCH   2   3
TORSDOF 6
ENDMDL
MODEL       41
REMARK 921   NORMALIZED FREE ENERGY PREDICTED BY IDOCK:   -5.78 KCAL/MOL
REMARK 922        TOTAL FREE ENERGY PREDICTED BY IDOCK:   -8.54 KCAL/MOL
REMARK 923 INTER-LIGAND FREE ENERGY PREDICTED BY IDOCK:   -7.80 KCAL/MOL
REMARK 924 INTRA-LIGAND FREE ENERGY PREDICTED BY IDOCK:   -0.74 KCAL/MOL
REMARK 927      BINDING AFFINITY PREDICTED BY RF-SCORE:    0.00 PKD
ROOT
HETATM    1  C   UNL     1     -10.616  19.346  66.660  1.00  0.00    -0.467 C  
HETATM    2  O   UNL     1     -10.571  18.387  65.613  1.00  0.00    -0.622 OA 
ENDROOT
BRANCH   2   3
HETATM    3  C   UNL     1     -10.282  17.090  65.949  1.00  0.00    -0.296 A  
HETATM    4  C   UNL     1     -10.664  16.113  64.991  1.00  0.00    -0.337 A  
HETATM    5  C   UNL     1     -10.259  14.789  65.110  1.00  0.00    -0.410 A  
HETATM    6  C   UNL     1      -9.715  16.680  67.170  1.00  0.00    -0.250 A  
HETATM    7  C   UNL     1      -9.559  15.320  67.384  1.00  0.00    -0.207 A  
HETATM    8  C   UNL     1      -9.709  14.439  66.315  1.00  0.00    -0.330 A  
HETATM    9  C   UNL     1      -9.590  13.097  66.827  1.00  0.00    -0.249 C  
HETATM   10  O   UNL     1      -9.273  12.120  66.160  1.00  0.00    -0.220 OA 
HETATM   11  C   UNL     1      -9.981  13.173  68.273  1.00  0.00    -0.236 C  
HETATM   12  C   UNL     1      -9.341  14.542  68.665  1.00  0.00    -0.199 C  
BRANCH   4  13
HETATM   13  O   UNL     1     -11.541  16.469  63.988  1.00  0.00    -1.154 OA 
HETATM   14  C   UNL     1     -12.506  15.435  63.743  1.00  0.00     0.590 C  
ENDBRANCH   4  13
BRANCH  11  15
HETATM   15  C   UNL     1      -9.862  11.838  69.015  1.00  0.00     0.079 C  
BRANCH  15  16
HETATM   16  C   UNL     1     -10.868  10.731  68.667  1.00  0.00    -0.260 C  
HETATM   17  C   UNL     1     -10.179   9.381  68.525  1.00  0.00    -0.223 C  
HETATM   18  C   UNL     1      -9.739   8.848  69.883  1.00  0.00    -0.177 C  
HETATM   19  N   UNL     1     -10.887   8.552  70.741  1.00  0.00    -0.225 NA 
HETATM   20  C   UNL     1     -11.684   9.766  70.959  1.00  0.00    -0.370 C  
HETATM   21  C   UNL     1     -12.011  10.602  69.707  1.00  0.00    -0.363 C  
BRANCH  19  22
HETATM   22  C   UNL     1     -11.675   7.403  70.251  1.00  0.00    -0.072 C  
BRANCH  22  23
HETATM   23  C   UNL     1     -11.012   6.074  70.584  1.00  0.00    -0.376 A  
HETATM   24  C   UNL     1     -10.949   5.641  71.917  1.00  0.00    -0.297 A  
HETATM   25  C   UNL     1     -10.242   4.486  72.258  1.00  0.00    -0.257 A  
HETATM   26  C   UNL     1      -9.589   3.750  71.271  1.00  0.00    -0.243 A  
HETATM   27  C   UNL     1      -9.646   4.165  69.941  1.00  0.00    -0.282 A  
HETATM   28  C   UNL     1     -10.355   5.319  69.597  1.00  0.00    -0.348 A  
ENDBRANCH  22  23
ENDBRANCH  19  22
ENDBRANCH  15  16
ENDBRANCH  11  15
ENDBRANCH   2   3
TORSDOF 6
ENDMDL
MODEL       42
REMARK 921   NORMALIZED FREE ENERGY PREDICTED BY IDOCK:   -5.66 KCAL/MOL
REMARK 922        TOTAL FREE ENERGY PREDICTED BY IDOCK:   -8.38 KCAL/MOL
REMARK 923 INTER-LIGAND FREE ENERGY PREDICTED BY IDOCK:   -7.66 KCAL/MOL
REMARK 924 INTRA-LIGAND FREE ENERGY PREDICTED BY IDOCK:   -0.72 KCAL/MOL
REMARK 927      BINDING AFFINITY PREDICTED BY RF-SCORE:    0.00 PKD
ROOT
HETATM    1  C   UNL     1      -9.750   4.425  65.813  1.00  0.00    -0.209 C  
HETATM    2  O   UNL     1     -10.685   4.896  66.773  1.00  0.00    -0.187 OA 
ENDROOT
BRANCH   2   3
HETATM    3  C   UNL     1     -10.431   6.102  67.372  1.00  0.00    -0.247 A  
HETATM    4  C   UNL     1     -10.069   6.036  68.744  1.00  0.00    -0.168 A  
HETATM    5  C   UNL     1      -9.596   7.154  69.420  1.00  0.00    -0.153 A  
HETATM    6  C   UNL     1     -10.573   7.356  66.750  1.00  0.00    -0.281 A  
HETATM    7  C   UNL     1     -10.351   8.486  67.522  1.00  0.00    -0.334 A  
HETATM    8  C   UNL     1      -9.752   8.352  68.772  1.00  0.00    -0.168 A  
HETATM    9  C   UNL     1      -9.727   9.653  69.393  1.00  0.00    -0.194 C  
HETATM   10  O   UNL     1      -8.949   9.991  70.276  1.00  0.00    -0.123 OA 
HETATM   11  C   UNL     1     -10.853  10.425  68.772  1.00  0.00    -0.269 C  
HETATM   12  C   UNL     1     -10.754   9.929  67.295  1.00  0.00    -0.304 C  
BRANCH   4  13
HETATM   13  O   UNL     1     -10.294   4.867  69.438  1.00  0.00    -0.207 OA 
HETATM   14  C   UNL     1     -10.468   5.114  70.842  1.00  0.00    -0.187 C  
ENDBRANCH   4  13
BRANCH  11  15
HETATM   15  C   UNL     1     -10.956  11.871  69.268  1.00  0.00    -0.208 C  
BRANCH  15  16
HETATM   16  C   UNL     1     -11.563  12.915  68.318  1.00  0.00    -0.374 C  
HETATM   17  C   UNL     1     -12.178  14.074  69.089  1.00  0.00    -0.299 C  
HETATM   18  C   UNL     1     -11.097  14.953  69.706  1.00  0.00    -0.274 C  
HETATM   19  N   UNL     1     -10.295  15.619  68.677  1.00  0.00    -0.211 NA 
HETATM   20  C   UNL     1      -9.644  14.622  67.818  1.00  0.00    -0.213 C  
HETATM   21  C   UNL     1     -10.537  13.478  67.301  1.00  0.00    -0.263 C  
BRANCH  19  22
HETATM   22  C   UNL     1     -11.066  16.634  67.932  1.00  0.00    -0.212 C  
BRANCH  22  23
HETATM   23  C   UNL     1     -10.256  17.901  67.695  1.00  0.00    -0.369 A  
HETATM   24  C   UNL     1      -9.204  18.230  68.561  1.00  0.00    -0.335 A  
HETATM   25  C   UNL     1      -8.527  19.444  68.433  1.00  0.00    -0.389 A  
HETATM   26  C   UNL     1      -8.894  20.345  67.435  1.00  0.00    -0.430 A  
HETATM   27  C   UNL     1      -9.934  20.031  66.562  1.00  0.00    -0.603 A  
HETATM   28  C   UNL     1     -10.611  18.815  66.687  1.00  0.00    -0.446 A  
ENDBRANCH  22  23
ENDBRANCH  19  22
ENDBRANCH  15  16
ENDBRANCH  11  15
ENDBRANCH   2   3
TORSDOF 6
ENDMDL
MODEL       43
REMARK 921   NORMALIZED FREE ENERGY PREDICTED BY IDOCK:   -5.64 KCAL/MOL
REMARK 922        TOTAL FREE ENERGY PREDICTED BY IDOCK:   -8.36 KCAL/MOL
REMARK 923 INTER-LIGAND FREE ENERGY PREDICTED BY IDOCK:   -8.15 KCAL/MOL
REMARK 924 INTRA-LIGAND FREE ENERGY PREDICTED BY IDOCK:   -0.21 KCAL/MOL
REMARK 927      BINDING AFFINITY PREDICTED BY RF-SCORE:    0.00 PKD
ROOT
HETATM    1  C   UNL     1      -7.824   8.310  73.690  1.00  0.00    -0.154 C  
HETATM    2  O   UNL     1      -8.215   7.691  72.473  1.00  0.00    -0.105 OA 
ENDROOT
BRANCH   2   3
HETATM    3  C   UNL     1      -8.952   8.434  71.588  1.00  0.00    -0.199 A  
HETATM    4  C   UNL     1     -10.341   8.139  71.554  1.00  0.00    -0.209 A  
HETATM    5  C   UNL     1     -11.232   8.943  70.853  1.00  0.00    -0.334 A  
HETATM    6  C   UNL     1      -8.422   9.384  70.696  1.00  0.00    -0.239 A  
HETATM    7  C   UNL     1      -9.295   9.994  69.810  1.00  0.00    -0.233 A  
HETATM    8  C   UNL     1     -10.668   9.856  70.001  1.00  0.00    -0.338 A  
HETATM    9  C   UNL     1     -11.336  10.501  68.897  1.00  0.00    -0.251 C  
HETATM   10  O   UNL     1     -12.485  10.922  68.926  1.00  0.00    -0.431 OA 
HETATM   11  C   UNL     1     -10.360  10.479  67.759  1.00  0.00    -0.248 C  
HETATM   12  C   UNL     1      -9.027  10.751  68.525  1.00  0.00    -0.160 C  
BRANCH   4  13
HETATM   13  O   UNL     1     -10.791   6.975  72.139  1.00  0.00    -0.215 OA 
HETATM   14  C   UNL     1     -12.128   6.659  71.721  1.00  0.00    -0.353 C  
ENDBRANCH   4  13
BRANCH  11  15
HETATM   15  C   UNL     1     -10.871  11.179  66.496  1.00  0.00    -0.302 C  
BRANCH  15  16
HETATM   16  C   UNL     1     -11.621  12.509  66.665  1.00  0.00    -0.442 C  
HETATM   17  C   UNL     1     -10.722  13.579  67.266  1.00  0.00    -0.272 C  
HETATM   18  C   UNL     1      -9.683  14.050  66.256  1.00  0.00    -0.295 C  
HETATM   19  N   UNL     1     -10.309  14.733  65.122  1.00  0.00    -0.406 NA 
HETATM   20  C   UNL     1     -11.242  13.828  64.437  1.00  0.00    -0.352 C  
HETATM   21  C   UNL     1     -12.215  13.043  65.336  1.00  0.00    -0.520 C  
BRANCH  19  22
HETATM   22  C   UNL     1     -10.908  16.027  65.504  1.00  0.00    -0.292 C  
BRANCH  22  23
HETATM   23  C   UNL     1     -10.009  16.813  66.448  1.00  0.00    -0.317 A  
HETATM   24  C   UNL     1      -8.667  17.038  66.108  1.00  0.00    -0.254 A  
HETATM   25  C   UNL     1      -7.796  17.651  67.010  1.00  0.00    -0.239 A  
HETATM   26  C   UNL     1      -8.255  18.049  68.264  1.00  0.00    -0.298 A  
HETATM   27  C   UNL     1      -9.588  17.837  68.616  1.00  0.00    -0.322 A  
HETATM   28  C   UNL     1     -10.462  17.226  67.713  1.00  0.00    -0.371 A  
ENDBRANCH  22  23
ENDBRANCH  19  22
ENDBRANCH  15  16
ENDBRANCH  11  15
ENDBRANCH   2   3
TORSDOF 6
ENDMDL
MODEL       44
REMARK 921   NORMALIZED FREE ENERGY PREDICTED BY IDOCK:   -5.62 KCAL/MOL
REMARK 922        TOTAL FREE ENERGY PREDICTED BY IDOCK:   -8.32 KCAL/MOL
REMARK 923 INTER-LIGAND FREE ENERGY PREDICTED BY IDOCK:   -8.02 KCAL/MOL
REMARK 924 INTRA-LIGAND FREE ENERGY PREDICTED BY IDOCK:   -0.30 KCAL/MOL
REMARK 927      BINDING AFFINITY PREDICTED BY RF-SCORE:    0.00 PKD
ROOT
HETATM    1  C   UNL     1      -5.392  10.039  64.881  1.00  0.00    -0.079 C  
HETATM    2  O   UNL     1      -6.449  10.644  65.610  1.00  0.00    -0.126 OA 
ENDROOT
BRANCH   2   3
HETATM    3  C   UNL     1      -7.393   9.822  66.166  1.00  0.00    -0.101 A  
HETATM    4  C   UNL     1      -8.657   9.817  65.515  1.00  0.00    -0.145 A  
HETATM    5  C   UNL     1      -9.637   8.890  65.849  1.00  0.00    -0.293 A  
HETATM    6  C   UNL     1      -7.214   9.066  67.339  1.00  0.00    -0.083 A  
HETATM    7  C   UNL     1      -8.298   8.344  67.812  1.00  0.00    -0.130 A  
HETATM    8  C   UNL     1      -9.414   8.175  66.997  1.00  0.00    -0.226 A  
HETATM    9  C   UNL     1     -10.419   7.477  67.760  1.00  0.00    -0.223 C  
HETATM   10  O   UNL     1     -11.333   6.821  67.277  1.00  0.00    -0.300 OA 
HETATM   11  C   UNL     1     -10.124   7.779  69.199  1.00  0.00    -0.196 C  
HETATM   12  C   UNL     1      -8.563   7.746  69.179  1.00  0.00    -0.138 C  
BRANCH   4  13
HETATM   13  O   UNL     1      -8.947  10.819  64.614  1.00  0.00    -0.195 OA 
HETATM   14  C   UNL     1     -10.348  11.132  64.610  1.00  0.00    -0.330 C  
ENDBRANCH   4  13
BRANCH  11  15
HETATM   15  C   UNL     1     -11.061   7.070  70.182  1.00  0.00    -0.323 C  
BRANCH  15  16
HETATM   16  C   UNL     1     -11.464   7.822  71.460  1.00  0.00    -0.298 C  
HETATM   17  C   UNL     1     -10.835   9.207  71.509  1.00  0.00    -0.436 C  
HETATM   18  C   UNL     1     -11.492  10.140  70.499  1.00  0.00    -0.337 C  
HETATM   19  N   UNL     1     -12.894  10.393  70.836  1.00  0.00    -0.377 NA 
HETATM   20  C   UNL     1     -13.647   9.132  70.856  1.00  0.00     0.123 C  
HETATM   21  C   UNL     1     -12.999   7.963  71.622  1.00  0.00    -0.359 C  
BRANCH  19  22
HETATM   22  C   UNL     1     -13.042  11.194  72.068  1.00  0.00    -0.328 C  
BRANCH  22  23
HETATM   23  C   UNL     1     -13.100  12.686  71.772  1.00  0.00    -0.461 A  
HETATM   24  C   UNL     1     -14.027  13.495  72.445  1.00  0.00    -0.638 A  
HETATM   25  C   UNL     1     -14.178  14.840  72.104  1.00  0.00    -0.608 A  
HETATM   26  C   UNL     1     -13.404  15.395  71.087  1.00  0.00    -0.580 A  
HETATM   27  C   UNL     1     -12.474  14.605  70.412  1.00  0.00    -0.410 A  
HETATM   28  C   UNL     1     -12.319  13.258  70.753  1.00  0.00    -0.425 A  
ENDBRANCH  22  23
ENDBRANCH  19  22
ENDBRANCH  15  16
ENDBRANCH  11  15
ENDBRANCH   2   3
TORSDOF 6
ENDMDL
MODEL       45
REMARK 921   NORMALIZED FREE ENERGY PREDICTED BY IDOCK:   -5.61 KCAL/MOL
REMARK 922        TOTAL FREE ENERGY PREDICTED BY IDOCK:   -8.32 KCAL/MOL
REMARK 923 INTER-LIGAND FREE ENERGY PREDICTED BY IDOCK:   -7.44 KCAL/MOL
REMARK 924 INTRA-LIGAND FREE ENERGY PREDICTED BY IDOCK:   -0.87 KCAL/MOL
REMARK 927      BINDING AFFINITY PREDICTED BY RF-SCORE:    0.00 PKD
ROOT
HETATM    1  C   UNL     1      -6.629  19.678  69.107  1.00  0.00    -0.334 C  
HETATM    2  O   UNL     1      -7.045  19.685  67.749  1.00  0.00    -0.243 OA 
ENDROOT
BRANCH   2   3
HETATM    3  C   UNL     1      -7.700  18.577  67.278  1.00  0.00    -0.223 A  
HETATM    4  C   UNL     1      -9.011  18.810  66.781  1.00  0.00    -0.308 A  
HETATM    5  C   UNL     1      -9.709  17.823  66.097  1.00  0.00    -0.230 A  
HETATM    6  C   UNL     1      -7.197  17.264  67.321  1.00  0.00    -0.191 A  
HETATM    7  C   UNL     1      -8.021  16.244  66.872  1.00  0.00    -0.278 A  
HETATM    8  C   UNL     1      -9.177  16.561  66.164  1.00  0.00    -0.338 A  
HETATM    9  C   UNL     1      -9.888  15.334  65.903  1.00  0.00    -0.354 C  
HETATM   10  O   UNL     1     -10.697  15.174  64.998  1.00  0.00    -0.386 OA 
HETATM   11  C   UNL     1      -9.467  14.380  66.980  1.00  0.00    -0.255 C  
HETATM   12  C   UNL     1      -7.955  14.748  67.106  1.00  0.00    -0.205 C  
BRANCH   4  13
HETATM   13  O   UNL     1      -9.636  20.002  67.080  1.00  0.00    -0.359 OA 
HETATM   14  C   UNL     1     -10.473  19.880  68.239  1.00  0.00    -0.300 C  
ENDBRANCH   4  13
BRANCH  11  15
HETATM   15  C   UNL     1     -10.080  12.983  66.840  1.00  0.00    -0.243 C  
BRANCH  15  16
HETATM   16  C   UNL     1      -9.203  11.774  67.201  1.00  0.00    -0.179 C  
HETATM   17  C   UNL     1      -9.130  11.574  68.708  1.00  0.00    -0.063 C  
HETATM   18  C   UNL     1     -10.452  11.047  69.254  1.00  0.00    -0.180 C  
HETATM   19  N   UNL     1     -10.744   9.705  68.749  1.00  0.00    -0.221 NA 
HETATM   20  C   UNL     1     -10.824   9.720  67.283  1.00  0.00    -0.177 C  
HETATM   21  C   UNL     1      -9.689  10.456  66.545  1.00  0.00    -0.241 C  
BRANCH  19  22
HETATM   22  C   UNL     1      -9.816   8.688  69.283  1.00  0.00    -0.188 C  
BRANCH  22  23
HETATM   23  C   UNL     1     -10.207   8.242  70.685  1.00  0.00    -0.214 A  
HETATM   24  C   UNL     1      -9.412   8.609  71.781  1.00  0.00    -0.354 A  
HETATM   25  C   UNL     1      -9.686   8.113  73.057  1.00  0.00    -0.327 A  
HETATM   26  C   UNL     1     -10.757   7.243  73.254  1.00  0.00    -0.428 A  
HETATM   27  C   UNL     1     -11.559   6.873  72.175  1.00  0.00    -0.322 A  
HETATM   28  C   UNL     1     -11.289   7.370  70.898  1.00  0.00    -0.300 A  
ENDBRANCH  22  23
ENDBRANCH  19  22
ENDBRANCH  15  16
ENDBRANCH  11  15
ENDBRANCH   2   3
TORSDOF 6
ENDMDL
MODEL       46
REMARK 921   NORMALIZED FREE ENERGY PREDICTED BY IDOCK:   -5.56 KCAL/MOL
REMARK 922        TOTAL FREE ENERGY PREDICTED BY IDOCK:   -8.25 KCAL/MOL
REMARK 923 INTER-LIGAND FREE ENERGY PREDICTED BY IDOCK:   -7.32 KCAL/MOL
REMARK 924 INTRA-LIGAND FREE ENERGY PREDICTED BY IDOCK:   -0.94 KCAL/MOL
REMARK 927      BINDING AFFINITY PREDICTED BY RF-SCORE:    0.00 PKD
ROOT
HETATM    1  C   UNL     1     -10.778  20.175  65.478  1.00  0.00    -0.085 C  
HETATM    2  O   UNL     1      -9.531  19.708  65.971  1.00  0.00    -0.371 OA 
ENDROOT
BRANCH   2   3
HETATM    3  C   UNL     1      -9.529  18.553  66.708  1.00  0.00    -0.301 A  
HETATM    4  C   UNL     1      -8.374  17.738  66.560  1.00  0.00    -0.265 A  
HETATM    5  C   UNL     1      -8.151  16.646  67.390  1.00  0.00    -0.187 A  
HETATM    6  C   UNL     1     -10.593  18.110  67.515  1.00  0.00    -0.419 A  
HETATM    7  C   UNL     1     -10.461  16.877  68.135  1.00  0.00    -0.350 A  
HETATM    8  C   UNL     1      -9.215  16.255  68.161  1.00  0.00    -0.199 A  
HETATM    9  C   UNL     1      -9.379  14.961  68.774  1.00  0.00    -0.203 C  
HETATM   10  O   UNL     1      -8.482  14.327  69.316  1.00  0.00     0.059 OA 
HETATM   11  C   UNL     1     -10.811  14.579  68.550  1.00  0.00    -0.256 C  
HETATM   12  C   UNL     1     -11.505  15.964  68.745  1.00  0.00    -0.393 C  
BRANCH   4  13
HETATM   13  O   UNL     1      -7.520  17.976  65.505  1.00  0.00    -0.538 OA 
HETATM   14  C   UNL     1      -6.279  18.544  65.953  1.00  0.00    -0.225 C  
ENDBRANCH   4  13
BRANCH  11  15
HETATM   15  C   UNL     1     -11.199  13.241  69.188  1.00  0.00    -0.305 C  
BRANCH  15  16
HETATM   16  C   UNL     1     -11.727  12.132  68.266  1.00  0.00    -0.401 C  
HETATM   17  C   UNL     1     -10.990  12.121  66.935  1.00  0.00    -0.317 C  
HETATM   18  C   UNL     1      -9.569  11.597  67.103  1.00  0.00    -0.175 C  
HETATM   19  N   UNL     1      -9.559  10.190  67.506  1.00  0.00    -0.154 NA 
HETATM   20  C   UNL     1     -10.266  10.023  68.783  1.00  0.00    -0.186 C  
HETATM   21  C   UNL     1     -11.634  10.720  68.902  1.00  0.00    -0.361 C  
BRANCH  19  22
HETATM   22  C   UNL     1     -10.044   9.295  66.437  1.00  0.00    -0.267 C  
BRANCH  22  23
HETATM   23  C   UNL     1      -9.800   7.829  66.768  1.00  0.00    -0.312 A  
HETATM   24  C   UNL     1      -8.492   7.323  66.774  1.00  0.00    -0.121 A  
HETATM   25  C   UNL     1      -8.256   5.960  66.958  1.00  0.00    -0.105 A  
HETATM   26  C   UNL     1      -9.325   5.084  67.138  1.00  0.00    -0.132 A  
HETATM   27  C   UNL     1     -10.631   5.571  67.140  1.00  0.00    -0.313 A  
HETATM   28  C   UNL     1     -10.869   6.937  66.959  1.00  0.00    -0.436 A  
ENDBRANCH  22  23
ENDBRANCH  19  22
ENDBRANCH  15  16
ENDBRANCH  11  15
ENDBRANCH   2   3
TORSDOF 6
ENDMDL
MODEL       47
REMARK 921   NORMALIZED FREE ENERGY PREDICTED BY IDOCK:   -5.56 KCAL/MOL
REMARK 922        TOTAL FREE ENERGY PREDICTED BY IDOCK:   -8.25 KCAL/MOL
REMARK 923 INTER-LIGAND FREE ENERGY PREDICTED BY IDOCK:   -7.31 KCAL/MOL
REMARK 924 INTRA-LIGAND FREE ENERGY PREDICTED BY IDOCK:   -0.94 KCAL/MOL
REMARK 927      BINDING AFFINITY PREDICTED BY RF-SCORE:    0.00 PKD
ROOT
HETATM    1  C   UNL     1      -9.812   2.416  71.501  1.00  0.00    -0.127 C  
HETATM    2  O   UNL     1     -10.097   3.684  72.074  1.00  0.00    -0.173 OA 
ENDROOT
BRANCH   2   3
HETATM    3  C   UNL     1      -9.738   4.800  71.366  1.00  0.00    -0.175 A  
HETATM    4  C   UNL     1      -9.196   5.863  72.137  1.00  0.00    -0.146 A  
HETATM    5  C   UNL     1      -8.611   6.969  71.532  1.00  0.00    -0.117 A  
HETATM    6  C   UNL     1      -9.931   4.974  69.983  1.00  0.00    -0.324 A  
HETATM    7  C   UNL     1      -9.582   6.197  69.433  1.00  0.00    -0.159 A  
HETATM    8  C   UNL     1      -8.824   7.092  70.183  1.00  0.00    -0.145 A  
HETATM    9  C   UNL     1      -8.686   8.307  69.418  1.00  0.00    -0.142 C  
HETATM   10  O   UNL     1      -7.789   9.127  69.566  1.00  0.00    -0.076 OA 
HETATM   11  C   UNL     1      -9.867   8.346  68.494  1.00  0.00    -0.186 C  
HETATM   12  C   UNL     1      -9.977   6.835  68.116  1.00  0.00    -0.161 C  
BRANCH   4  13
HETATM   13  O   UNL     1      -9.354   5.842  73.506  1.00  0.00    -0.135 OA 
HETATM   14  C   UNL     1     -10.369   6.763  73.933  1.00  0.00    -0.368 C  
ENDBRANCH   4  13
BRANCH  11  15
HETATM   15  C   UNL     1      -9.868   9.549  67.547  1.00  0.00    -0.213 C  
BRANCH  15  16
HETATM   16  C   UNL     1     -11.140  10.408  67.477  1.00  0.00    -0.336 C  
HETATM   17  C   UNL     1     -11.704  10.674  68.866  1.00  0.00    -0.282 C  
HETATM   18  C   UNL     1     -10.827  11.658  69.631  1.00  0.00     0.060 C  
HETATM   19  N   UNL     1     -10.831  12.981  69.005  1.00  0.00    -0.201 NA 
HETATM   20  C   UNL     1     -10.330  12.892  67.627  1.00  0.00    -0.218 C  
HETATM   21  C   UNL     1     -10.917  11.764  66.759  1.00  0.00    -0.336 C  
BRANCH  19  22
HETATM   22  C   UNL     1     -12.141  13.654  69.119  1.00  0.00    -0.319 C  
BRANCH  22  23
HETATM   23  C   UNL     1     -12.360  14.240  70.506  1.00  0.00    -0.430 A  
HETATM   24  C   UNL     1     -13.196  13.579  71.419  1.00  0.00    -0.348 A  
HETATM   25  C   UNL     1     -13.505  14.159  72.651  1.00  0.00    -0.634 A  
HETATM   26  C   UNL     1     -12.982  15.406  72.987  1.00  0.00    -0.598 A  
HETATM   27  C   UNL     1     -12.146  16.074  72.093  1.00  0.00    -0.611 A  
HETATM   28  C   UNL     1     -11.833  15.494  70.860  1.00  0.00    -0.413 A  
ENDBRANCH  22  23
ENDBRANCH  19  22
ENDBRANCH  15  16
ENDBRANCH  11  15
ENDBRANCH   2   3
TORSDOF 6
ENDMDL
MODEL       48
REMARK 921   NORMALIZED FREE ENERGY PREDICTED BY IDOCK:   -5.56 KCAL/MOL
REMARK 922        TOTAL FREE ENERGY PREDICTED BY IDOCK:   -8.24 KCAL/MOL
REMARK 923 INTER-LIGAND FREE ENERGY PREDICTED BY IDOCK:   -7.61 KCAL/MOL
REMARK 924 INTRA-LIGAND FREE ENERGY PREDICTED BY IDOCK:   -0.64 KCAL/MOL
REMARK 927      BINDING AFFINITY PREDICTED BY RF-SCORE:    0.00 PKD
ROOT
HETATM    1  C   UNL     1     -10.545  14.933  66.276  1.00  0.00    -0.308 C  
HETATM    2  O   UNL     1     -11.467  15.160  67.333  1.00  0.00    -0.332 OA 
ENDROOT
BRANCH   2   3
HETATM    3  C   UNL     1     -11.696  14.134  68.211  1.00  0.00    -0.348 A  
HETATM    4  C   UNL     1     -12.109  14.526  69.512  1.00  0.00    -0.306 A  
HETATM    5  C   UNL     1     -12.563  13.594  70.437  1.00  0.00    -0.297 A  
HETATM    6  C   UNL     1     -11.485  12.771  67.931  1.00  0.00    -0.365 A  
HETATM    7  C   UNL     1     -11.691  11.863  68.957  1.00  0.00    -0.391 A  
HETATM    8  C   UNL     1     -12.339  12.280  70.118  1.00  0.00    -0.212 A  
HETATM    9  C   UNL     1     -12.337  11.177  71.047  1.00  0.00    -0.382 C  
HETATM   10  O   UNL     1     -13.132  11.038  71.967  1.00  0.00    -0.496 OA 
HETATM   11  C   UNL     1     -11.161  10.326  70.670  1.00  0.00    -0.358 C  
HETATM   12  C   UNL     1     -11.226  10.429  69.114  1.00  0.00    -0.301 C  
BRANCH   4  13
HETATM   13  O   UNL     1     -11.953  15.842  69.893  1.00  0.00    -0.355 OA 
HETATM   14  C   UNL     1     -11.590  15.948  71.278  1.00  0.00    -0.452 C  
ENDBRANCH   4  13
BRANCH  11  15
HETATM   15  C   UNL     1     -11.021   9.058  71.518  1.00  0.00    -0.418 C  
BRANCH  15  16
HETATM   16  C   UNL     1     -11.587   7.747  70.949  1.00  0.00    -0.289 C  
HETATM   17  C   UNL     1     -10.830   7.313  69.702  1.00  0.00    -0.238 C  
HETATM   18  C   UNL     1      -9.438   6.805  70.059  1.00  0.00    -0.157 C  
HETATM   19  N   UNL     1      -9.502   5.581  70.859  1.00  0.00    -0.162 NA 
HETATM   20  C   UNL     1     -10.236   5.828  72.107  1.00  0.00    -0.199 C  
HETATM   21  C   UNL     1     -11.572   6.585  71.975  1.00  0.00    -0.354 C  
BRANCH  19  22
HETATM   22  C   UNL     1     -10.012   4.430  70.088  1.00  0.00    -0.179 C  
BRANCH  22  23
HETATM   23  C   UNL     1      -9.101   4.079  68.920  1.00  0.00    -0.191 A  
HETATM   24  C   UNL     1      -9.638   3.944  67.631  1.00  0.00    -0.205 A  
HETATM   25  C   UNL     1      -8.843   3.508  66.570  1.00  0.00    -0.136 A  
HETATM   26  C   UNL     1      -7.500   3.201  66.783  1.00  0.00    -0.075 A  
HETATM   27  C   UNL     1      -6.950   3.334  68.057  1.00  0.00    -0.050 A  
HETATM   28  C   UNL     1      -7.743   3.774  69.121  1.00  0.00    -0.052 A  
ENDBRANCH  22  23
ENDBRANCH  19  22
ENDBRANCH  15  16
ENDBRANCH  11  15
ENDBRANCH   2   3
TORSDOF 6
ENDMDL
MODEL       49
REMARK 921   NORMALIZED FREE ENERGY PREDICTED BY IDOCK:   -5.50 KCAL/MOL
REMARK 922        TOTAL FREE ENERGY PREDICTED BY IDOCK:   -8.17 KCAL/MOL
REMARK 923 INTER-LIGAND FREE ENERGY PREDICTED BY IDOCK:   -7.50 KCAL/MOL
REMARK 924 INTRA-LIGAND FREE ENERGY PREDICTED BY IDOCK:   -0.67 KCAL/MOL
REMARK 927      BINDING AFFINITY PREDICTED BY RF-SCORE:    0.00 PKD
ROOT
HETATM    1  C   UNL     1     -11.061  12.568  63.545  1.00  0.00    -0.439 C  
HETATM    2  O   UNL     1     -11.048  13.505  64.612  1.00  0.00    -0.340 OA 
ENDROOT
BRANCH   2   3
HETATM    3  C   UNL     1     -11.279  13.033  65.877  1.00  0.00    -0.289 A  
HETATM    4  C   UNL     1     -11.396  14.027  66.886  1.00  0.00    -0.329 A  
HETATM    5  C   UNL     1     -11.823  13.706  68.169  1.00  0.00    -0.407 A  
HETATM    6  C   UNL     1     -11.334  11.673  66.233  1.00  0.00    -0.293 A  
HETATM    7  C   UNL     1     -11.499  11.364  67.574  1.00  0.00    -0.336 A  
HETATM    8  C   UNL     1     -11.865  12.369  68.466  1.00  0.00    -0.352 A  
HETATM    9  C   UNL     1     -11.873  11.802  69.793  1.00  0.00    -0.349 C  
HETATM   10  O   UNL     1     -12.510  12.248  70.738  1.00  0.00    -0.346 OA 
HETATM   11  C   UNL     1     -10.926  10.641  69.748  1.00  0.00    -0.340 C  
HETATM   12  C   UNL     1     -11.242  10.075  68.328  1.00  0.00    -0.195 C  
BRANCH   4  13
HETATM   13  O   UNL     1     -10.975  15.310  66.611  1.00  0.00    -0.313 OA 
HETATM   14  C   UNL     1      -9.755  15.622  67.301  1.00  0.00    -0.219 C  
ENDBRANCH   4  13
BRANCH  11  15
HETATM   15  C   UNL     1     -10.841   9.864  71.066  1.00  0.00    -0.300 C  
BRANCH  15  16
HETATM   16  C   UNL     1     -11.485   8.470  71.121  1.00  0.00    -0.322 C  
HETATM   17  C   UNL     1     -10.637   7.440  70.389  1.00  0.00    -0.238 C  
HETATM   18  C   UNL     1      -9.370   7.119  71.173  1.00  0.00    -0.157 C  
HETATM   19  N   UNL     1      -9.678   6.461  72.444  1.00  0.00    -0.154 NA 
HETATM   20  C   UNL     1     -10.525   7.329  73.272  1.00  0.00    -0.370 C  
HETATM   21  C   UNL     1     -11.734   7.975  72.569  1.00  0.00    -0.446 C  
BRANCH  19  22
HETATM   22  C   UNL     1     -10.222   5.102  72.258  1.00  0.00    -0.202 C  
BRANCH  22  23
HETATM   23  C   UNL     1      -9.281   4.218  71.451  1.00  0.00    -0.194 A  
HETATM   24  C   UNL     1      -9.599   3.888  70.125  1.00  0.00    -0.267 A  
HETATM   25  C   UNL     1      -8.812   2.984  69.408  1.00  0.00    -0.151 A  
HETATM   26  C   UNL     1      -7.698   2.400  70.006  1.00  0.00    -0.045 A  
HETATM   27  C   UNL     1      -7.365   2.722  71.322  1.00  0.00    -0.033 A  
HETATM   28  C   UNL     1      -8.150   3.628  72.041  1.00  0.00    -0.071 A  
ENDBRANCH  22  23
ENDBRANCH  19  22
ENDBRANCH  15  16
ENDBRANCH  11  15
ENDBRANCH   2   3
TORSDOF 6
ENDMDL
MODEL       50
REMARK 921   NORMALIZED FREE ENERGY PREDICTED BY IDOCK:   -5.50 KCAL/MOL
REMARK 922        TOTAL FREE ENERGY PREDICTED BY IDOCK:   -8.16 KCAL/MOL
REMARK 923 INTER-LIGAND FREE ENERGY PREDICTED BY IDOCK:   -7.69 KCAL/MOL
REMARK 924 INTRA-LIGAND FREE ENERGY PREDICTED BY IDOCK:   -0.47 KCAL/MOL
REMARK 927      BINDING AFFINITY PREDICTED BY RF-SCORE:    0.00 PKD
ROOT
HETATM    1  C   UNL     1      -8.031   6.238  63.256  1.00  0.00    -0.098 C  
HETATM    2  O   UNL     1      -8.210   5.919  64.629  1.00  0.00    -0.133 OA 
ENDROOT
BRANCH   2   3
HETATM    3  C   UNL     1      -8.746   6.882  65.443  1.00  0.00     0.028 A  
HETATM    4  C   UNL     1      -9.735   6.427  66.356  1.00  0.00    -0.089 A  
HETATM    5  C   UNL     1     -10.217   7.249  67.366  1.00  0.00    -0.304 A  
HETATM    6  C   UNL     1      -8.437   8.253  65.381  1.00  0.00    -0.189 A  
HETATM    7  C   UNL     1      -9.128   9.108  66.225  1.00  0.00    -0.222 A  
HETATM    8  C   UNL     1      -9.886   8.575  67.265  1.00  0.00    -0.259 A  
HETATM    9  C   UNL     1     -10.567   9.664  67.920  1.00  0.00    -0.255 C  
HETATM   10  O   UNL     1     -10.979   9.638  69.073  1.00  0.00    -0.208 OA 
HETATM   11  C   UNL     1     -10.690  10.748  66.891  1.00  0.00    -0.309 C  
HETATM   12  C   UNL     1      -9.312  10.611  66.171  1.00  0.00    -0.207 C  
BRANCH   4  13
HETATM   13  O   UNL     1     -10.299   5.183  66.163  1.00  0.00    -0.233 OA 
HETATM   14  C   UNL     1      -9.775   4.220  67.090  1.00  0.00    -0.196 C  
ENDBRANCH   4  13
BRANCH  11  15
HETATM   15  C   UNL     1     -11.345  12.028  67.421  1.00  0.00    -0.393 C  
BRANCH  15  16
HETATM   16  C   UNL     1     -11.665  13.142  66.412  1.00  0.00    -0.429 C  
HETATM   17  C   UNL     1     -12.147  14.403  67.115  1.00  0.00    -0.367 C  
HETATM   18  C   UNL     1     -11.000  15.097  67.839  1.00  0.00    -0.302 C  
HETATM   19  N   UNL     1      -9.996  15.597  66.898  1.00  0.00    -0.243 NA 
HETATM   20  C   UNL     1      -9.441  14.488  66.111  1.00  0.00    -0.259 C  
HETATM   21  C   UNL     1     -10.459  13.504  65.506  1.00  0.00    -0.304 C  
BRANCH  19  22
HETATM   22  C   UNL     1     -10.502  16.715  66.076  1.00  0.00    -0.298 C  
BRANCH  22  23
HETATM   23  C   UNL     1      -9.810  18.028  66.413  1.00  0.00    -0.340 A  
HETATM   24  C   UNL     1      -8.409  18.103  66.394  1.00  0.00    -0.272 A  
HETATM   25  C   UNL     1      -7.752  19.261  66.815  1.00  0.00    -0.267 A  
HETATM   26  C   UNL     1      -8.487  20.358  67.260  1.00  0.00    -0.405 A  
HETATM   27  C   UNL     1      -9.880  20.301  67.280  1.00  0.00    -0.593 A  
HETATM   28  C   UNL     1     -10.540  19.144  66.857  1.00  0.00    -0.540 A  
ENDBRANCH  22  23
ENDBRANCH  19  22
ENDBRANCH  15  16
ENDBRANCH  11  15
ENDBRANCH   2   3
TORSDOF 6
ENDMDL
MODEL       51
REMARK 921   NORMALIZED FREE ENERGY PREDICTED BY IDOCK:   -5.49 KCAL/MOL
REMARK 922        TOTAL FREE ENERGY PREDICTED BY IDOCK:   -8.15 KCAL/MOL
REMARK 923 INTER-LIGAND FREE ENERGY PREDICTED BY IDOCK:   -7.19 KCAL/MOL
REMARK 924 INTRA-LIGAND FREE ENERGY PREDICTED BY IDOCK:   -0.96 KCAL/MOL
REMARK 927      BINDING AFFINITY PREDICTED BY RF-SCORE:    0.00 PKD
ROOT
HETATM    1  C   UNL     1      -6.762   2.999  73.940  1.00  0.00    -0.034 C  
HETATM    2  O   UNL     1      -7.509   2.647  72.784  1.00  0.00    -0.042 OA 
ENDROOT
BRANCH   2   3
HETATM    3  C   UNL     1      -8.423   3.554  72.315  1.00  0.00    -0.084 A  
HETATM    4  C   UNL     1      -8.617   3.551  70.908  1.00  0.00    -0.071 A  
HETATM    5  C   UNL     1      -9.647   4.274  70.320  1.00  0.00    -0.269 A  
HETATM    6  C   UNL     1      -9.102   4.498  73.108  1.00  0.00    -0.126 A  
HETATM    7  C   UNL     1      -9.937   5.397  72.464  1.00  0.00    -0.201 A  
HETATM    8  C   UNL     1     -10.281   5.177  71.133  1.00  0.00    -0.291 A  
HETATM    9  C   UNL     1     -11.072   6.298  70.688  1.00  0.00    -0.327 C  
HETATM   10  O   UNL     1     -11.859   6.270  69.751  1.00  0.00    -0.319 OA 
HETATM   11  C   UNL     1     -10.676   7.451  71.563  1.00  0.00    -0.243 C  
HETATM   12  C   UNL     1     -10.509   6.720  72.932  1.00  0.00    -0.260 C  
BRANCH   4  13
HETATM   13  O   UNL     1      -7.697   2.905  70.109  1.00  0.00    -0.043 OA 
HETATM   14  C   UNL     1      -6.934   3.836  69.327  1.00  0.00    -0.046 C  
ENDBRANCH   4  13
BRANCH  11  15
HETATM   15  C   UNL     1     -11.459   8.736  71.279  1.00  0.00    -0.355 C  
BRANCH  15  16
HETATM   16  C   UNL     1     -10.684   9.944  70.729  1.00  0.00    -0.350 C  
HETATM   17  C   UNL     1      -9.879   9.569  69.493  1.00  0.00    -0.205 C  
HETATM   18  C   UNL     1     -10.794   9.343  68.295  1.00  0.00    -0.112 C  
HETATM   19  N   UNL     1     -11.471  10.578  67.896  1.00  0.00    -0.434 NA 
HETATM   20  C   UNL     1     -12.284  11.093  69.007  1.00  0.00    -0.125 C  
HETATM   21  C   UNL     1     -11.599  11.147  70.386  1.00  0.00    -0.355 C  
BRANCH  19  22
HETATM   22  C   UNL     1     -10.539  11.574  67.331  1.00  0.00    -0.214 C  
BRANCH  22  23
HETATM   23  C   UNL     1     -10.990  12.061  65.961  1.00  0.00    -0.346 A  
HETATM   24  C   UNL     1     -11.904  13.120  65.862  1.00  0.00    -0.453 A  
HETATM   25  C   UNL     1     -12.421  13.502  64.623  1.00  0.00    -0.372 A  
HETATM   26  C   UNL     1     -12.030  12.832  63.466  1.00  0.00    -0.633 A  
HETATM   27  C   UNL     1     -11.117  11.780  63.546  1.00  0.00    -0.503 A  
HETATM   28  C   UNL     1     -10.597  11.397  64.786  1.00  0.00    -0.377 A  
ENDBRANCH  22  23
ENDBRANCH  19  22
ENDBRANCH  15  16
ENDBRANCH  11  15
ENDBRANCH   2   3
TORSDOF 6
ENDMDL
MODEL       52
REMARK 921   NORMALIZED FREE ENERGY PREDICTED BY IDOCK:   -5.48 KCAL/MOL
REMARK 922        TOTAL FREE ENERGY PREDICTED BY IDOCK:   -8.14 KCAL/MOL
REMARK 923 INTER-LIGAND FREE ENERGY PREDICTED BY IDOCK:   -7.93 KCAL/MOL
REMARK 924 INTRA-LIGAND FREE ENERGY PREDICTED BY IDOCK:   -0.21 KCAL/MOL
REMARK 927      BINDING AFFINITY PREDICTED BY RF-SCORE:    0.00 PKD
ROOT
HETATM    1  C   UNL     1      -5.972   6.444  66.207  1.00  0.00    -0.029 C  
HETATM    2  O   UNL     1      -7.008   6.612  67.165  1.00  0.00    -0.066 OA 
ENDROOT
BRANCH   2   3
HETATM    3  C   UNL     1      -7.838   7.692  67.023  1.00  0.00    -0.112 A  
HETATM    4  C   UNL     1      -9.194   7.384  66.732  1.00  0.00    -0.156 A  
HETATM    5  C   UNL     1     -10.179   8.364  66.757  1.00  0.00    -0.376 A  
HETATM    6  C   UNL     1      -7.429   9.037  67.076  1.00  0.00    -0.087 A  
HETATM    7  C   UNL     1      -8.383  10.011  66.834  1.00  0.00    -0.125 A  
HETATM    8  C   UNL     1      -9.730   9.658  66.814  1.00  0.00    -0.252 A  
HETATM    9  C   UNL     1     -10.491  10.828  66.451  1.00  0.00    -0.233 C  
HETATM   10  O   UNL     1     -11.673  11.003  66.717  1.00  0.00    -0.267 OA 
HETATM   11  C   UNL     1      -9.554  11.698  65.667  1.00  0.00    -0.252 C  
HETATM   12  C   UNL     1      -8.229  11.472  66.462  1.00  0.00    -0.129 C  
BRANCH   4  13
HETATM   13  O   UNL     1      -9.514   6.109  66.313  1.00  0.00    -0.159 OA 
HETATM   14  C   UNL     1     -10.500   5.508  67.166  1.00  0.00    -0.257 C  
ENDBRANCH   4  13
BRANCH  11  15
HETATM   15  C   UNL     1     -10.169  13.033  65.236  1.00  0.00    -0.294 C  
BRANCH  15  16
HETATM   16  C   UNL     1      -9.895  14.267  66.110  1.00  0.00    -0.335 C  
HETATM   17  C   UNL     1     -11.152  15.103  66.297  1.00  0.00    -0.309 C  
HETATM   18  C   UNL     1     -12.141  14.405  67.222  1.00  0.00    -0.323 C  
HETATM   19  N   UNL     1     -11.611  14.284  68.581  1.00  0.00    -0.298 NA 
HETATM   20  C   UNL     1     -10.362  13.511  68.572  1.00  0.00    -0.240 C  
HETATM   21  C   UNL     1      -9.323  13.905  67.505  1.00  0.00    -0.217 C  
BRANCH  19  22
HETATM   22  C   UNL     1     -11.496  15.591  69.259  1.00  0.00    -0.340 C  
BRANCH  22  23
HETATM   23  C   UNL     1     -12.170  15.585  70.624  1.00  0.00    -0.445 A  
HETATM   24  C   UNL     1     -11.526  16.171  71.723  1.00  0.00    -0.386 A  
HETATM   25  C   UNL     1     -12.071  16.072  73.004  1.00  0.00    -0.628 A  
HETATM   26  C   UNL     1     -13.267  15.385  73.204  1.00  0.00    -0.636 A  
HETATM   27  C   UNL     1     -13.922  14.800  72.121  1.00  0.00    -0.590 A  
HETATM   28  C   UNL     1     -13.380  14.901  70.836  1.00  0.00    -0.393 A  
ENDBRANCH  22  23
ENDBRANCH  19  22
ENDBRANCH  15  16
ENDBRANCH  11  15
ENDBRANCH   2   3
TORSDOF 6
ENDMDL
MODEL       53
REMARK 921   NORMALIZED FREE ENERGY PREDICTED BY IDOCK:   -5.48 KCAL/MOL
REMARK 922        TOTAL FREE ENERGY PREDICTED BY IDOCK:   -8.13 KCAL/MOL
REMARK 923 INTER-LIGAND FREE ENERGY PREDICTED BY IDOCK:   -7.32 KCAL/MOL
REMARK 924 INTRA-LIGAND FREE ENERGY PREDICTED BY IDOCK:   -0.81 KCAL/MOL
REMARK 927      BINDING AFFINITY PREDICTED BY RF-SCORE:    0.00 PKD
ROOT
HETATM    1  C   UNL     1     -10.236   5.325  71.287  1.00  0.00    -0.224 C  
HETATM    2  O   UNL     1     -11.063   5.472  70.142  1.00  0.00    -0.248 OA 
ENDROOT
BRANCH   2   3
HETATM    3  C   UNL     1     -10.897   6.596  69.376  1.00  0.00    -0.292 A  
HETATM    4  C   UNL     1     -10.627   6.362  68.001  1.00  0.00    -0.254 A  
HETATM    5  C   UNL     1     -10.633   7.400  67.078  1.00  0.00    -0.414 A  
HETATM    6  C   UNL     1     -10.908   7.915  69.867  1.00  0.00    -0.221 A  
HETATM    7  C   UNL     1     -10.646   8.938  68.969  1.00  0.00    -0.203 A  
HETATM    8  C   UNL     1     -10.649   8.666  67.604  1.00  0.00    -0.272 A  
HETATM    9  C   UNL     1     -10.258   9.869  66.911  1.00  0.00    -0.240 C  
HETATM   10  O   UNL     1     -10.530  10.122  65.744  1.00  0.00    -0.183 OA 
HETATM   11  C   UNL     1      -9.442  10.659  67.890  1.00  0.00    -0.168 C  
HETATM   12  C   UNL     1     -10.230  10.375  69.207  1.00  0.00    -0.248 C  
BRANCH   4  13
HETATM   13  O   UNL     1     -10.248   5.098  67.601  1.00  0.00    -0.175 OA 
HETATM   14  C   UNL     1     -10.431   4.917  66.189  1.00  0.00    -0.302 C  
ENDBRANCH   4  13
BRANCH  11  15
HETATM   15  C   UNL     1      -8.977  12.016  67.352  1.00  0.00    -0.176 C  
BRANCH  15  16
HETATM   16  C   UNL     1      -9.103  13.237  68.276  1.00  0.00    -0.184 C  
HETATM   17  C   UNL     1      -7.736  13.748  68.707  1.00  0.00    -0.080 C  
HETATM   18  C   UNL     1      -7.020  14.433  67.549  1.00  0.00    -0.159 C  
HETATM   19  N   UNL     1      -7.719  15.649  67.130  1.00  0.00    -0.206 NA 
HETATM   20  C   UNL     1      -9.086  15.326  66.700  1.00  0.00    -0.282 C  
HETATM   21  C   UNL     1      -9.895  14.404  67.633  1.00  0.00    -0.224 C  
BRANCH  19  22
HETATM   22  C   UNL     1      -7.652  16.716  68.148  1.00  0.00    -0.171 C  
BRANCH  22  23
HETATM   23  C   UNL     1      -8.509  17.917  67.770  1.00  0.00    -0.242 A  
HETATM   24  C   UNL     1      -8.128  18.736  66.698  1.00  0.00    -0.286 A  
HETATM   25  C   UNL     1      -8.832  19.907  66.411  1.00  0.00    -0.420 A  
HETATM   26  C   UNL     1      -9.926  20.273  67.192  1.00  0.00    -0.593 A  
HETATM   27  C   UNL     1     -10.321  19.466  68.258  1.00  0.00    -0.500 A  
HETATM   28  C   UNL     1      -9.619  18.293  68.546  1.00  0.00    -0.358 A  
ENDBRANCH  22  23
ENDBRANCH  19  22
ENDBRANCH  15  16
ENDBRANCH  11  15
ENDBRANCH   2   3
TORSDOF 6
ENDMDL
MODEL       54
REMARK 921   NORMALIZED FREE ENERGY PREDICTED BY IDOCK:   -5.47 KCAL/MOL
REMARK 922        TOTAL FREE ENERGY PREDICTED BY IDOCK:   -8.13 KCAL/MOL
REMARK 923 INTER-LIGAND FREE ENERGY PREDICTED BY IDOCK:   -7.63 KCAL/MOL
REMARK 924 INTRA-LIGAND FREE ENERGY PREDICTED BY IDOCK:   -0.50 KCAL/MOL
REMARK 927      BINDING AFFINITY PREDICTED BY RF-SCORE:    0.00 PKD
ROOT
HETATM    1  C   UNL     1      -8.401   5.908  66.844  1.00  0.00    -0.108 C  
HETATM    2  O   UNL     1      -7.878   7.228  66.854  1.00  0.00    -0.107 OA 
ENDROOT
BRANCH   2   3
HETATM    3  C   UNL     1      -8.762   8.262  67.017  1.00  0.00    -0.127 A  
HETATM    4  C   UNL     1      -9.079   8.984  65.835  1.00  0.00    -0.212 A  
HETATM    5  C   UNL     1     -10.103   9.924  65.816  1.00  0.00    -0.317 A  
HETATM    6  C   UNL     1      -9.297   8.680  68.249  1.00  0.00    -0.143 A  
HETATM    7  C   UNL     1     -10.118   9.796  68.250  1.00  0.00    -0.189 A  
HETATM    8  C   UNL     1     -10.594  10.294  67.040  1.00  0.00    -0.302 A  
HETATM    9  C   UNL     1     -11.337  11.499  67.319  1.00  0.00    -0.290 C  
HETATM   10  O   UNL     1     -12.204  11.968  66.593  1.00  0.00    -0.550 OA 
HETATM   11  C   UNL     1     -10.783  12.034  68.605  1.00  0.00    -0.266 C  
HETATM   12  C   UNL     1     -10.548  10.702  69.386  1.00  0.00    -0.270 C  
BRANCH   4  13
HETATM   13  O   UNL     1      -8.284   8.822  64.720  1.00  0.00    -0.145 OA 
HETATM   14  C   UNL     1      -8.584   9.802  63.714  1.00  0.00    -0.200 C  
ENDBRANCH   4  13
BRANCH  11  15
HETATM   15  C   UNL     1     -11.492  13.297  69.103  1.00  0.00    -0.357 C  
BRANCH  15  16
HETATM   16  C   UNL     1     -11.534  14.514  68.167  1.00  0.00    -0.337 C  
HETATM   17  C   UNL     1     -11.884  15.785  68.927  1.00  0.00    -0.354 C  
HETATM   18  C   UNL     1     -10.723  16.234  69.805  1.00  0.00    -0.345 C  
HETATM   19  N   UNL     1      -9.564  16.629  69.002  1.00  0.00    -0.261 NA 
HETATM   20  C   UNL     1      -9.110  15.502  68.178  1.00  0.00    -0.184 C  
HETATM   21  C   UNL     1     -10.202  14.738  67.405  1.00  0.00    -0.236 C  
BRANCH  19  22
HETATM   22  C   UNL     1      -9.807  17.868  68.235  1.00  0.00    -0.348 C  
BRANCH  22  23
HETATM   23  C   UNL     1      -8.560  18.737  68.150  1.00  0.00    -0.338 A  
HETATM   24  C   UNL     1      -7.479  18.493  69.009  1.00  0.00    -0.226 A  
HETATM   25  C   UNL     1      -6.378  19.350  69.030  1.00  0.00    -0.314 A  
HETATM   26  C   UNL     1      -6.343  20.463  68.192  1.00  0.00    -0.328 A  
HETATM   27  C   UNL     1      -7.407  20.717  67.328  1.00  0.00    -0.397 A  
HETATM   28  C   UNL     1      -8.510  19.859  67.304  1.00  0.00    -0.375 A  
ENDBRANCH  22  23
ENDBRANCH  19  22
ENDBRANCH  15  16
ENDBRANCH  11  15
ENDBRANCH   2   3
TORSDOF 6
ENDMDL
MODEL       55
REMARK 921   NORMALIZED FREE ENERGY PREDICTED BY IDOCK:   -5.47 KCAL/MOL
REMARK 922        TOTAL FREE ENERGY PREDICTED BY IDOCK:   -8.13 KCAL/MOL
REMARK 923 INTER-LIGAND FREE ENERGY PREDICTED BY IDOCK:   -8.08 KCAL/MOL
REMARK 924 INTRA-LIGAND FREE ENERGY PREDICTED BY IDOCK:   -0.05 KCAL/MOL
REMARK 927      BINDING AFFINITY PREDICTED BY RF-SCORE:    0.00 PKD
ROOT
HETATM    1  C   UNL     1     -10.131   6.534  71.000  1.00  0.00    -0.184 C  
HETATM    2  O   UNL     1     -11.321   7.152  71.468  1.00  0.00    -0.244 OA 
ENDROOT
BRANCH   2   3
HETATM    3  C   UNL     1     -11.491   8.486  71.209  1.00  0.00    -0.277 A  
HETATM    4  C   UNL     1     -12.630   9.084  71.813  1.00  0.00    -0.367 A  
HETATM    5  C   UNL     1     -12.816  10.461  71.798  1.00  0.00    -0.561 A  
HETATM    6  C   UNL     1     -10.676   9.253  70.355  1.00  0.00    -0.300 A  
HETATM    7  C   UNL     1     -11.033  10.574  70.139  1.00  0.00    -0.338 A  
HETATM    8  C   UNL     1     -11.995  11.164  70.955  1.00  0.00    -0.362 A  
HETATM    9  C   UNL     1     -12.242  12.495  70.458  1.00  0.00    -0.297 C  
HETATM   10  O   UNL     1     -12.698  13.416  71.124  1.00  0.00    -0.348 OA 
HETATM   11  C   UNL     1     -11.880  12.463  69.003  1.00  0.00    -0.349 C  
HETATM   12  C   UNL     1     -10.621  11.540  69.047  1.00  0.00    -0.207 C  
BRANCH   4  13
HETATM   13  O   UNL     1     -13.617   8.270  72.328  1.00  0.00    -0.286 OA 
HETATM   14  C   UNL     1     -14.237   7.483  71.300  1.00  0.00    -0.293 C  
ENDBRANCH   4  13
BRANCH  11  15
HETATM   15  C   UNL     1     -12.021  13.819  68.303  1.00  0.00    -0.392 C  
BRANCH  15  16
HETATM   16  C   UNL     1     -11.260  15.015  68.895  1.00  0.00    -0.288 C  
HETATM   17  C   UNL     1      -9.813  14.655  69.201  1.00  0.00    -0.130 C  
HETATM   18  C   UNL     1      -9.005  14.504  67.918  1.00  0.00    -0.187 C  
HETATM   19  N   UNL     1      -8.892  15.776  67.202  1.00  0.00    -0.193 NA 
HETATM   20  C   UNL     1     -10.226  16.280  66.850  1.00  0.00    -0.288 C  
HETATM   21  C   UNL     1     -11.281  16.262  67.973  1.00  0.00    -0.260 C  
BRANCH  19  22
HETATM   22  C   UNL     1      -8.057  16.756  67.925  1.00  0.00    -0.185 C  
BRANCH  22  23
HETATM   23  C   UNL     1      -7.762  17.986  67.077  1.00  0.00    -0.235 A  
HETATM   24  C   UNL     1      -6.955  17.869  65.935  1.00  0.00    -0.313 A  
HETATM   25  C   UNL     1      -6.575  19.001  65.213  1.00  0.00    -0.270 A  
HETATM   26  C   UNL     1      -6.996  20.265  65.622  1.00  0.00    -0.292 A  
HETATM   27  C   UNL     1      -7.802  20.398  66.751  1.00  0.00    -0.310 A  
HETATM   28  C   UNL     1      -8.187  19.265  67.475  1.00  0.00    -0.320 A  
ENDBRANCH  22  23
ENDBRANCH  19  22
ENDBRANCH  15  16
ENDBRANCH  11  15
ENDBRANCH   2   3
TORSDOF 6
ENDMDL
MODEL       56
REMARK 921   NORMALIZED FREE ENERGY PREDICTED BY IDOCK:   -5.38 KCAL/MOL
REMARK 922        TOTAL FREE ENERGY PREDICTED BY IDOCK:   -8.01 KCAL/MOL
REMARK 923 INTER-LIGAND FREE ENERGY PREDICTED BY IDOCK:   -7.05 KCAL/MOL
REMARK 924 INTRA-LIGAND FREE ENERGY PREDICTED BY IDOCK:   -0.96 KCAL/MOL
REMARK 927      BINDING AFFINITY PREDICTED BY RF-SCORE:    0.00 PKD
ROOT
HETATM    1  C   UNL     1      -7.999  17.131  68.766  1.00  0.00    -0.255 C  
HETATM    2  O   UNL     1      -9.352  17.047  68.340  1.00  0.00    -0.248 OA 
ENDROOT
BRANCH   2   3
HETATM    3  C   UNL     1      -9.768  15.874  67.766  1.00  0.00    -0.220 A  
HETATM    4  C   UNL     1     -11.139  15.555  67.957  1.00  0.00    -0.322 A  
HETATM    5  C   UNL     1     -11.739  14.506  67.271  1.00  0.00    -0.429 A  
HETATM    6  C   UNL     1      -8.933  14.969  67.086  1.00  0.00    -0.235 A  
HETATM    7  C   UNL     1      -9.498  13.788  66.631  1.00  0.00    -0.289 A  
HETATM    8  C   UNL     1     -10.885  13.655  66.620  1.00  0.00    -0.283 A  
HETATM    9  C   UNL     1     -11.197  12.312  66.196  1.00  0.00    -0.328 C  
HETATM   10  O   UNL     1     -12.260  11.968  65.696  1.00  0.00    -0.503 OA 
HETATM   11  C   UNL     1      -9.999  11.482  66.548  1.00  0.00    -0.240 C  
HETATM   12  C   UNL     1      -8.852  12.485  66.208  1.00  0.00     0.059 C  
BRANCH   4  13
HETATM   13  O   UNL     1     -11.854  16.234  68.922  1.00  0.00    -0.284 OA 
HETATM   14  C   UNL     1     -12.166  15.386  70.037  1.00  0.00    -0.361 C  
ENDBRANCH   4  13
BRANCH  11  15
HETATM   15  C   UNL     1     -10.118  10.016  66.118  1.00  0.00    -0.317 C  
BRANCH  15  16
HETATM   16  C   UNL     1     -10.783   9.033  67.093  1.00  0.00    -0.206 C  
HETATM   17  C   UNL     1     -10.301   7.609  66.858  1.00  0.00    -0.388 C  
HETATM   18  C   UNL     1      -8.863   7.434  67.330  1.00  0.00    -0.123 C  
HETATM   19  N   UNL     1      -8.751   7.593  68.781  1.00  0.00    -0.129 NA 
HETATM   20  C   UNL     1      -9.209   8.930  69.182  1.00  0.00    -0.144 C  
HETATM   21  C   UNL     1     -10.547   9.402  68.581  1.00  0.00    -0.230 C  
BRANCH  19  22
HETATM   22  C   UNL     1      -9.405   6.494  69.520  1.00  0.00    -0.147 C  
BRANCH  22  23
HETATM   23  C   UNL     1      -9.577   6.825  70.996  1.00  0.00    -0.175 A  
HETATM   24  C   UNL     1      -8.465   6.805  71.850  1.00  0.00    -0.116 A  
HETATM   25  C   UNL     1      -8.619   6.987  73.225  1.00  0.00    -0.147 A  
HETATM   26  C   UNL     1      -9.887   7.193  73.765  1.00  0.00    -0.355 A  
HETATM   27  C   UNL     1     -11.002   7.220  72.929  1.00  0.00    -0.381 A  
HETATM   28  C   UNL     1     -10.850   7.041  71.551  1.00  0.00    -0.255 A  
ENDBRANCH  22  23
ENDBRANCH  19  22
ENDBRANCH  15  16
ENDBRANCH  11  15
ENDBRANCH   2   3
TORSDOF 6
ENDMDL
MODEL       57
REMARK 921   NORMALIZED FREE ENERGY PREDICTED BY IDOCK:   -5.35 KCAL/MOL
REMARK 922        TOTAL FREE ENERGY PREDICTED BY IDOCK:   -7.97 KCAL/MOL
REMARK 923 INTER-LIGAND FREE ENERGY PREDICTED BY IDOCK:   -7.09 KCAL/MOL
REMARK 924 INTRA-LIGAND FREE ENERGY PREDICTED BY IDOCK:   -0.88 KCAL/MOL
REMARK 927      BINDING AFFINITY PREDICTED BY RF-SCORE:    0.00 PKD
ROOT
HETATM    1  C   UNL     1     -10.904  19.338  66.931  1.00  0.00    -0.381 C  
HETATM    2  O   UNL     1     -10.424  18.746  68.130  1.00  0.00    -0.369 OA 
ENDROOT
BRANCH   2   3
HETATM    3  C   UNL     1     -10.051  17.429  68.086  1.00  0.00    -0.328 A  
HETATM    4  C   UNL     1      -8.685  17.172  68.378  1.00  0.00    -0.246 A  
HETATM    5  C   UNL     1      -8.217  15.877  68.561  1.00  0.00    -0.169 A  
HETATM    6  C   UNL     1     -10.893  16.365  67.713  1.00  0.00    -0.306 A  
HETATM    7  C   UNL     1     -10.337  15.097  67.644  1.00  0.00    -0.248 A  
HETATM    8  C   UNL     1      -9.075  14.875  68.189  1.00  0.00    -0.177 A  
HETATM    9  C   UNL     1      -8.701  13.512  67.899  1.00  0.00    -0.183 C  
HETATM   10  O   UNL     1      -7.882  12.863  68.537  1.00  0.00    -0.134 OA 
HETATM   11  C   UNL     1      -9.469  13.129  66.670  1.00  0.00    -0.260 C  
HETATM   12  C   UNL     1     -10.829  13.841  66.954  1.00  0.00    -0.286 C  
BRANCH   4  13
HETATM   13  O   UNL     1      -7.792  18.223  68.371  1.00  0.00    -0.286 OA 
HETATM   14  C   UNL     1      -6.619  17.921  69.141  1.00  0.00    -0.240 C  
ENDBRANCH   4  13
BRANCH  11  15
HETATM   15  C   UNL     1      -9.247  11.678  66.232  1.00  0.00    -0.225 C  
BRANCH  15  16
HETATM   16  C   UNL     1     -10.353  10.657  66.540  1.00  0.00    -0.299 C  
HETATM   17  C   UNL     1      -9.926   9.247  66.161  1.00  0.00    -0.348 C  
HETATM   18  C   UNL     1      -8.875   8.717  67.130  1.00  0.00    -0.129 C  
HETATM   19  N   UNL     1      -9.421   8.554  68.478  1.00  0.00    -0.142 NA 
HETATM   20  C   UNL     1      -9.909   9.843  68.987  1.00  0.00    -0.190 C  
HETATM   21  C   UNL     1     -10.789  10.667  68.027  1.00  0.00    -0.309 C  
BRANCH  19  22
HETATM   22  C   UNL     1     -10.420   7.469  68.554  1.00  0.00    -0.180 C  
BRANCH  22  23
HETATM   23  C   UNL     1     -10.691   7.046  69.991  1.00  0.00    -0.267 A  
HETATM   24  C   UNL     1      -9.647   6.539  70.779  1.00  0.00    -0.190 A  
HETATM   25  C   UNL     1      -9.899   6.036  72.056  1.00  0.00    -0.177 A  
HETATM   26  C   UNL     1     -11.196   6.033  72.563  1.00  0.00    -0.333 A  
HETATM   27  C   UNL     1     -12.245   6.538  71.795  1.00  0.00    -0.374 A  
HETATM   28  C   UNL     1     -11.995   7.045  70.517  1.00  0.00    -0.315 A  
ENDBRANCH  22  23
ENDBRANCH  19  22
ENDBRANCH  15  16
ENDBRANCH  11  15
ENDBRANCH   2   3
TORSDOF 6
ENDMDL
MODEL       58
REMARK 921   NORMALIZED FREE ENERGY PREDICTED BY IDOCK:   -5.35 KCAL/MOL
REMARK 922        TOTAL FREE ENERGY PREDICTED BY IDOCK:   -7.96 KCAL/MOL
REMARK 923 INTER-LIGAND FREE ENERGY PREDICTED BY IDOCK:   -8.26 KCAL/MOL
REMARK 924 INTRA-LIGAND FREE ENERGY PREDICTED BY IDOCK:    0.30 KCAL/MOL
REMARK 927      BINDING AFFINITY PREDICTED BY RF-SCORE:    0.00 PKD
ROOT
HETATM    1  C   UNL     1     -12.676  11.768  63.675  1.00  0.00    -0.290 C  
HETATM    2  O   UNL     1     -13.059  12.523  64.816  1.00  0.00    -0.853 OA 
ENDROOT
BRANCH   2   3
HETATM    3  C   UNL     1     -12.085  13.238  65.462  1.00  0.00    -0.435 A  
HETATM    4  C   UNL     1     -11.450  12.567  66.541  1.00  0.00    -0.362 A  
HETATM    5  C   UNL     1     -10.320  13.093  67.154  1.00  0.00    -0.247 A  
HETATM    6  C   UNL     1     -11.741  14.572  65.176  1.00  0.00    -0.376 A  
HETATM    7  C   UNL     1     -10.786  15.177  65.977  1.00  0.00    -0.333 A  
HETATM    8  C   UNL     1     -10.023  14.394  66.840  1.00  0.00    -0.261 A  
HETATM    9  C   UNL     1      -9.184  15.275  67.614  1.00  0.00    -0.187 C  
HETATM   10  O   UNL     1      -8.138  14.945  68.157  1.00  0.00    -0.127 OA 
HETATM   11  C   UNL     1      -9.892  16.597  67.639  1.00  0.00    -0.256 C  
HETATM   12  C   UNL     1     -10.456  16.641  66.184  1.00  0.00    -0.291 C  
BRANCH   4  13
HETATM   13  O   UNL     1     -12.034  11.428  67.054  1.00  0.00    -0.492 OA 
HETATM   14  C   UNL     1     -11.045  10.470  67.465  1.00  0.00    -0.290 C  
ENDBRANCH   4  13
BRANCH  11  15
HETATM   15  C   UNL     1      -9.120  17.696  68.376  1.00  0.00    -0.277 C  
BRANCH  15  16
HETATM   16  C   UNL     1      -7.614  17.826  68.098  1.00  0.00    -0.250 C  
HETATM   17  C   UNL     1      -7.350  18.183  66.642  1.00  0.00    -0.252 C  
HETATM   18  C   UNL     1      -7.743  19.626  66.354  1.00  0.00    -0.298 C  
HETATM   19  N   UNL     1      -6.901  20.570  67.092  1.00  0.00    -0.268 NA 
HETATM   20  C   UNL     1      -7.025  20.338  68.537  1.00  0.00    -0.210 C  
HETATM   21  C   UNL     1      -6.919  18.874  69.005  1.00  0.00    -0.342 C  
BRANCH  19  22
HETATM   22  C   UNL     1      -5.506  20.577  66.608  1.00  0.00    -0.175 C  
BRANCH  22  23
HETATM   23  C   UNL     1      -5.421  20.298  65.114  1.00  0.00    -0.202 A  
HETATM   24  C   UNL     1      -5.726  21.313  64.196  1.00  0.00    -0.216 A  
HETATM   25  C   UNL     1      -5.770  21.046  62.826  1.00  0.00    -0.275 A  
HETATM   26  C   UNL     1      -5.510  19.760  62.357  1.00  0.00    -0.347 A  
HETATM   27  C   UNL     1      -5.200  18.740  63.256  1.00  0.00    -0.135 A  
HETATM   28  C   UNL     1      -5.153  19.006  64.627  1.00  0.00    -0.215 A  
ENDBRANCH  22  23
ENDBRANCH  19  22
ENDBRANCH  15  16
ENDBRANCH  11  15
ENDBRANCH   2   3
TORSDOF 6
ENDMDL
MODEL       59
REMARK 921   NORMALIZED FREE ENERGY PREDICTED BY IDOCK:   -5.34 KCAL/MOL
REMARK 922        TOTAL FREE ENERGY PREDICTED BY IDOCK:   -7.94 KCAL/MOL
REMARK 923 INTER-LIGAND FREE ENERGY PREDICTED BY IDOCK:   -7.36 KCAL/MOL
REMARK 924 INTRA-LIGAND FREE ENERGY PREDICTED BY IDOCK:   -0.58 KCAL/MOL
REMARK 927      BINDING AFFINITY PREDICTED BY RF-SCORE:    0.00 PKD
ROOT
HETATM    1  C   UNL     1     -11.895  15.263  68.712  1.00  0.00    -0.307 C  
HETATM    2  O   UNL     1     -12.449  14.517  67.638  1.00  0.00    -0.097 OA 
ENDROOT
BRANCH   2   3
HETATM    3  C   UNL     1     -11.829  13.346  67.288  1.00  0.00    -0.376 A  
HETATM    4  C   UNL     1     -11.846  13.038  65.901  1.00  0.00    -0.416 A  
HETATM    5  C   UNL     1     -11.091  11.993  65.385  1.00  0.00    -0.369 A  
HETATM    6  C   UNL     1     -11.260  12.433  68.195  1.00  0.00    -0.313 A  
HETATM    7  C   UNL     1     -10.740  11.255  67.682  1.00  0.00    -0.270 A  
HETATM    8  C   UNL     1     -10.554  11.133  66.307  1.00  0.00    -0.309 A  
HETATM    9  C   UNL     1     -10.096   9.792  66.039  1.00  0.00    -0.251 C  
HETATM   10  O   UNL     1      -9.466   9.455  65.045  1.00  0.00    -0.247 OA 
HETATM   11  C   UNL     1     -10.598   8.953  67.177  1.00  0.00    -0.301 C  
HETATM   12  C   UNL     1     -10.403   9.946  68.365  1.00  0.00    -0.226 C  
BRANCH   4  13
HETATM   13  O   UNL     1     -12.712  13.725  65.076  1.00  0.00    -0.630 OA 
HETATM   14  C   UNL     1     -12.047  14.800  64.395  1.00  0.00    -0.440 C  
ENDBRANCH   4  13
BRANCH  11  15
HETATM   15  C   UNL     1     -10.158   7.487  67.101  1.00  0.00    -0.317 C  
BRANCH  15  16
HETATM   16  C   UNL     1      -9.103   7.001  68.106  1.00  0.00    -0.128 C  
HETATM   17  C   UNL     1      -9.692   6.859  69.502  1.00  0.00    -0.159 C  
HETATM   18  C   UNL     1     -10.627   5.659  69.581  1.00  0.00    -0.331 C  
HETATM   19  N   UNL     1      -9.903   4.401  69.391  1.00  0.00    -0.199 NA 
HETATM   20  C   UNL     1      -9.245   4.388  68.078  1.00  0.00    -0.136 C  
HETATM   21  C   UNL     1      -8.453   5.653  67.698  1.00  0.00    -0.102 C  
BRANCH  19  22
HETATM   22  C   UNL     1      -8.994   4.099  70.514  1.00  0.00    -0.095 C  
BRANCH  22  23
HETATM   23  C   UNL     1      -9.737   3.507  71.704  1.00  0.00    -0.234 A  
HETATM   24  C   UNL     1      -9.934   4.279  72.858  1.00  0.00    -0.197 A  
HETATM   25  C   UNL     1     -10.506   3.718  74.001  1.00  0.00    -0.262 A  
HETATM   26  C   UNL     1     -10.889   2.378  74.005  1.00  0.00    -0.256 A  
HETATM   27  C   UNL     1     -10.705   1.599  72.864  1.00  0.00    -0.238 A  
HETATM   28  C   UNL     1     -10.135   2.159  71.717  1.00  0.00    -0.153 A  
ENDBRANCH  22  23
ENDBRANCH  19  22
ENDBRANCH  15  16
ENDBRANCH  11  15
ENDBRANCH   2   3
TORSDOF 6
ENDMDL
MODEL       60
REMARK 921   NORMALIZED FREE ENERGY PREDICTED BY IDOCK:   -5.33 KCAL/MOL
REMARK 922        TOTAL FREE ENERGY PREDICTED BY IDOCK:   -7.94 KCAL/MOL
REMARK 923 INTER-LIGAND FREE ENERGY PREDICTED BY IDOCK:   -7.28 KCAL/MOL
REMARK 924 INTRA-LIGAND FREE ENERGY PREDICTED BY IDOCK:   -0.66 KCAL/MOL
REMARK 927      BINDING AFFINITY PREDICTED BY RF-SCORE:    0.00 PKD
ROOT
HETATM    1  C   UNL     1     -14.346   7.174  71.338  1.00  0.00    -0.252 C  
HETATM    2  O   UNL     1     -13.148   6.901  72.051  1.00  0.00    -0.249 OA 
ENDROOT
BRANCH   2   3
HETATM    3  C   UNL     1     -11.967   7.317  71.495  1.00  0.00    -0.316 A  
HETATM    4  C   UNL     1     -11.541   8.619  71.871  1.00  0.00    -0.350 A  
HETATM    5  C   UNL     1     -10.275   9.088  71.542  1.00  0.00    -0.414 A  
HETATM    6  C   UNL     1     -11.216   6.586  70.555  1.00  0.00    -0.401 A  
HETATM    7  C   UNL     1     -10.082   7.185  70.031  1.00  0.00    -0.194 A  
HETATM    8  C   UNL     1      -9.582   8.340  70.627  1.00  0.00    -0.190 A  
HETATM    9  C   UNL     1      -8.468   8.800  69.836  1.00  0.00    -0.131 C  
HETATM   10  O   UNL     1      -7.565   9.516  70.250  1.00  0.00    -0.120 OA 
HETATM   11  C   UNL     1      -8.701   8.270  68.452  1.00  0.00    -0.133 C  
HETATM   12  C   UNL     1      -9.281   6.860  68.786  1.00  0.00    -0.131 C  
BRANCH   4  13
HETATM   13  O   UNL     1     -12.444   9.466  72.479  1.00  0.00    -0.250 OA 
HETATM   14  C   UNL     1     -12.821  10.544  71.608  1.00  0.00    -0.475 C  
ENDBRANCH   4  13
BRANCH  11  15
HETATM   15  C   UNL     1      -7.579   8.609  67.466  1.00  0.00    -0.094 C  
BRANCH  15  16
HETATM   16  C   UNL     1      -7.638   9.968  66.750  1.00  0.00    -0.103 C  
HETATM   17  C   UNL     1      -7.481   9.808  65.245  1.00  0.00    -0.120 C  
HETATM   18  C   UNL     1      -8.730   9.191  64.628  1.00  0.00    -0.166 C  
HETATM   19  N   UNL     1      -9.887  10.079  64.755  1.00  0.00    -0.309 NA 
HETATM   20  C   UNL     1     -10.160  10.357  66.171  1.00  0.00    -0.237 C  
HETATM   21  C   UNL     1      -8.948  10.747  67.037  1.00  0.00    -0.148 C  
BRANCH  19  22
HETATM   22  C   UNL     1      -9.757  11.294  63.925  1.00  0.00    -0.277 C  
BRANCH  22  23
HETATM   23  C   UNL     1     -10.757  12.368  64.329  1.00  0.00    -0.390 A  
HETATM   24  C   UNL     1     -10.299  13.610  64.793  1.00  0.00    -0.414 A  
HETATM   25  C   UNL     1     -11.194  14.563  65.280  1.00  0.00    -0.352 A  
HETATM   26  C   UNL     1     -12.559  14.288  65.310  1.00  0.00    -0.405 A  
HETATM   27  C   UNL     1     -13.032  13.060  64.849  1.00  0.00    -0.218 A  
HETATM   28  C   UNL     1     -12.138  12.105  64.358  1.00  0.00    -0.443 A  
ENDBRANCH  22  23
ENDBRANCH  19  22
ENDBRANCH  15  16
ENDBRANCH  11  15
ENDBRANCH   2   3
TORSDOF 6
ENDMDL
MODEL       61
REMARK 921   NORMALIZED FREE ENERGY PREDICTED BY IDOCK:   -5.33 KCAL/MOL
REMARK 922        TOTAL FREE ENERGY PREDICTED BY IDOCK:   -7.94 KCAL/MOL
REMARK 923 INTER-LIGAND FREE ENERGY PREDICTED BY IDOCK:   -7.33 KCAL/MOL
REMARK 924 INTRA-LIGAND FREE ENERGY PREDICTED BY IDOCK:   -0.61 KCAL/MOL
REMARK 927      BINDING AFFINITY PREDICTED BY RF-SCORE:    0.00 PKD
ROOT
HETATM    1  C   UNL     1     -13.509   7.377  71.589  1.00  0.00    -0.366 C  
HETATM    2  O   UNL     1     -12.229   6.763  71.643  1.00  0.00    -0.336 OA 
ENDROOT
BRANCH   2   3
HETATM    3  C   UNL     1     -11.338   7.059  70.646  1.00  0.00    -0.307 A  
HETATM    4  C   UNL     1     -10.237   7.871  71.033  1.00  0.00    -0.197 A  
HETATM    5  C   UNL     1      -9.162   8.083  70.180  1.00  0.00    -0.152 A  
HETATM    6  C   UNL     1     -11.479   6.679  69.299  1.00  0.00    -0.253 A  
HETATM    7  C   UNL     1     -10.525   7.127  68.400  1.00  0.00    -0.228 A  
HETATM    8  C   UNL     1      -9.346   7.692  68.880  1.00  0.00    -0.145 A  
HETATM    9  C   UNL     1      -8.582   8.153  67.747  1.00  0.00    -0.131 C  
HETATM   10  O   UNL     1      -7.370   8.324  67.746  1.00  0.00    -0.089 OA 
HETATM   11  C   UNL     1      -9.579   8.410  66.657  1.00  0.00    -0.294 C  
HETATM   12  C   UNL     1     -10.561   7.219  66.888  1.00  0.00    -0.375 C  
BRANCH   4  13
HETATM   13  O   UNL     1     -10.295   8.543  72.236  1.00  0.00    -0.311 OA 
HETATM   14  C   UNL     1      -9.285   8.080  73.145  1.00  0.00    -0.279 C  
ENDBRANCH   4  13
BRANCH  11  15
HETATM   15  C   UNL     1      -8.946   8.858  65.336  1.00  0.00    -0.232 C  
BRANCH  15  16
HETATM   16  C   UNL     1      -8.612  10.348  65.168  1.00  0.00    -0.189 C  
HETATM   17  C   UNL     1      -9.367  10.956  63.996  1.00  0.00    -0.266 C  
HETATM   18  C   UNL     1     -10.848  11.108  64.320  1.00  0.00    -0.284 C  
HETATM   19  N   UNL     1     -11.065  12.074  65.399  1.00  0.00    -0.312 NA 
HETATM   20  C   UNL     1     -10.368  11.639  66.617  1.00  0.00    -0.222 C  
HETATM   21  C   UNL     1      -8.907  11.183  66.441  1.00  0.00    -0.182 C  
BRANCH  19  22
HETATM   22  C   UNL     1     -10.743  13.456  64.991  1.00  0.00    -0.343 C  
BRANCH  22  23
HETATM   23  C   UNL     1     -10.716  14.407  66.179  1.00  0.00    -0.304 A  
HETATM   24  C   UNL     1      -9.569  15.174  66.433  1.00  0.00    -0.309 A  
HETATM   25  C   UNL     1      -9.479  15.962  67.582  1.00  0.00    -0.219 A  
HETATM   26  C   UNL     1     -10.534  15.994  68.492  1.00  0.00    -0.258 A  
HETATM   27  C   UNL     1     -11.683  15.242  68.251  1.00  0.00    -0.320 A  
HETATM   28  C   UNL     1     -11.777  14.454  67.100  1.00  0.00    -0.424 A  
ENDBRANCH  22  23
ENDBRANCH  19  22
ENDBRANCH  15  16
ENDBRANCH  11  15
ENDBRANCH   2   3
TORSDOF 6
ENDMDL
MODEL       62
REMARK 921   NORMALIZED FREE ENERGY PREDICTED BY IDOCK:   -5.29 KCAL/MOL
REMARK 922        TOTAL FREE ENERGY PREDICTED BY IDOCK:   -7.88 KCAL/MOL
REMARK 923 INTER-LIGAND FREE ENERGY PREDICTED BY IDOCK:   -7.19 KCAL/MOL
REMARK 924 INTRA-LIGAND FREE ENERGY PREDICTED BY IDOCK:   -0.69 KCAL/MOL
REMARK 927      BINDING AFFINITY PREDICTED BY RF-SCORE:    0.00 PKD
ROOT
HETATM    1  C   UNL     1     -11.532   6.197  72.276  1.00  0.00    -0.312 C  
HETATM    2  O   UNL     1     -10.665   5.519  71.379  1.00  0.00    -0.249 OA 
ENDROOT
BRANCH   2   3
HETATM    3  C   UNL     1     -10.119   6.242  70.351  1.00  0.00    -0.185 A  
HETATM    4  C   UNL     1      -8.740   6.556  70.493  1.00  0.00    -0.144 A  
HETATM    5  C   UNL     1      -8.015   7.109  69.445  1.00  0.00    -0.125 A  
HETATM    6  C   UNL     1     -10.832   6.733  69.242  1.00  0.00    -0.303 A  
HETATM    7  C   UNL     1     -10.144   7.515  68.329  1.00  0.00    -0.209 A  
HETATM    8  C   UNL     1      -8.753   7.568  68.386  1.00  0.00    -0.123 A  
HETATM    9  C   UNL     1      -8.305   8.517  67.396  1.00  0.00    -0.120 C  
HETATM   10  O   UNL     1      -7.188   8.528  66.895  1.00  0.00    -0.074 OA 
HETATM   11  C   UNL     1      -9.450   9.463  67.187  1.00  0.00    -0.185 C  
HETATM   12  C   UNL     1     -10.653   8.471  67.268  1.00  0.00    -0.315 C  
BRANCH   4  13
HETATM   13  O   UNL     1      -8.146   6.407  71.728  1.00  0.00    -0.105 OA 
HETATM   14  C   UNL     1      -7.910   7.677  72.354  1.00  0.00    -0.103 C  
ENDBRANCH   4  13
BRANCH  11  15
HETATM   15  C   UNL     1      -9.184  10.524  66.115  1.00  0.00    -0.197 C  
BRANCH  15  16
HETATM   16  C   UNL     1      -9.315  12.001  66.518  1.00  0.00    -0.226 C  
HETATM   17  C   UNL     1     -10.715  12.528  66.241  1.00  0.00    -0.288 C  
HETATM   18  C   UNL     1     -11.721  11.950  67.229  1.00  0.00    -0.247 C  
HETATM   19  N   UNL     1     -11.453  12.404  68.595  1.00  0.00    -0.278 NA 
HETATM   20  C   UNL     1     -10.107  11.990  69.012  1.00  0.00     0.092 C  
HETATM   21  C   UNL     1      -8.970  12.255  68.008  1.00  0.00    -0.190 C  
BRANCH  19  22
HETATM   22  C   UNL     1     -11.713  13.846  68.771  1.00  0.00    -0.357 C  
BRANCH  22  23
HETATM   23  C   UNL     1     -12.385  14.145  70.104  1.00  0.00    -0.413 A  
HETATM   24  C   UNL     1     -12.509  15.472  70.540  1.00  0.00    -0.472 A  
HETATM   25  C   UNL     1     -13.013  15.760  71.810  1.00  0.00    -0.505 A  
HETATM   26  C   UNL     1     -13.400  14.725  72.659  1.00  0.00    -0.559 A  
HETATM   27  C   UNL     1     -13.287  13.401  72.238  1.00  0.00    -0.641 A  
HETATM   28  C   UNL     1     -12.785  13.110  70.966  1.00  0.00    -0.361 A  
ENDBRANCH  22  23
ENDBRANCH  19  22
ENDBRANCH  15  16
ENDBRANCH  11  15
ENDBRANCH   2   3
TORSDOF 6
ENDMDL
MODEL       63
REMARK 921   NORMALIZED FREE ENERGY PREDICTED BY IDOCK:   -5.27 KCAL/MOL
REMARK 922        TOTAL FREE ENERGY PREDICTED BY IDOCK:   -7.86 KCAL/MOL
REMARK 923 INTER-LIGAND FREE ENERGY PREDICTED BY IDOCK:   -7.01 KCAL/MOL
REMARK 924 INTRA-LIGAND FREE ENERGY PREDICTED BY IDOCK:   -0.84 KCAL/MOL
REMARK 927      BINDING AFFINITY PREDICTED BY RF-SCORE:    0.00 PKD
ROOT
HETATM    1  C   UNL     1      -9.702  15.412  65.581  1.00  0.00    -0.331 C  
HETATM    2  O   UNL     1     -11.027  15.566  66.069  1.00  0.00    -0.316 OA 
ENDROOT
BRANCH   2   3
HETATM    3  C   UNL     1     -11.405  14.800  67.140  1.00  0.00    -0.356 A  
HETATM    4  C   UNL     1     -11.401  15.464  68.397  1.00  0.00    -0.339 A  
HETATM    5  C   UNL     1     -11.946  14.871  69.528  1.00  0.00    -0.347 A  
HETATM    6  C   UNL     1     -11.717  13.429  67.081  1.00  0.00    -0.424 A  
HETATM    7  C   UNL     1     -12.005  12.782  68.272  1.00  0.00    -0.276 A  
HETATM    8  C   UNL     1     -12.237  13.536  69.420  1.00  0.00    -0.278 A  
HETATM    9  C   UNL     1     -12.417  12.622  70.522  1.00  0.00    -0.193 C  
HETATM   10  O   UNL     1     -13.016  12.886  71.557  1.00  0.00    -0.369 OA 
HETATM   11  C   UNL     1     -11.687  11.370  70.138  1.00  0.00    -0.414 C  
HETATM   12  C   UNL     1     -12.020  11.306  68.614  1.00  0.00    -0.314 C  
BRANCH   4  13
HETATM   13  O   UNL     1     -10.746  16.672  68.510  1.00  0.00    -0.314 OA 
HETATM   14  C   UNL     1      -9.463  16.518  69.135  1.00  0.00    -0.212 C  
ENDBRANCH   4  13
BRANCH  11  15
HETATM   15  C   UNL     1     -11.811  10.244  71.170  1.00  0.00    -0.455 C  
BRANCH  15  16
HETATM   16  C   UNL     1     -11.524   8.808  70.705  1.00  0.00    -0.263 C  
HETATM   17  C   UNL     1     -10.030   8.561  70.561  1.00  0.00    -0.214 C  
HETATM   18  C   UNL     1      -9.356   8.480  71.925  1.00  0.00    -0.267 C  
HETATM   19  N   UNL     1      -9.819   7.316  72.684  1.00  0.00    -0.161 NA 
HETATM   20  C   UNL     1     -11.272   7.391  72.890  1.00  0.00    -0.319 C  
HETATM   21  C   UNL     1     -12.120   7.734  71.651  1.00  0.00    -0.335 C  
BRANCH  19  22
HETATM   22  C   UNL     1      -9.368   6.041  72.091  1.00  0.00    -0.148 C  
BRANCH  22  23
HETATM   23  C   UNL     1      -7.941   5.699  72.499  1.00  0.00    -0.103 A  
HETATM   24  C   UNL     1      -7.643   5.441  73.845  1.00  0.00    -0.094 A  
HETATM   25  C   UNL     1      -6.324   5.243  74.257  1.00  0.00    -0.068 A  
HETATM   26  C   UNL     1      -5.286   5.300  73.329  1.00  0.00    -0.021 A  
HETATM   27  C   UNL     1      -5.566   5.551  71.986  1.00  0.00    -0.018 A  
HETATM   28  C   UNL     1      -6.886   5.746  71.571  1.00  0.00    -0.067 A  
ENDBRANCH  22  23
ENDBRANCH  19  22
ENDBRANCH  15  16
ENDBRANCH  11  15
ENDBRANCH   2   3
TORSDOF 6
ENDMDL
MODEL       64
REMARK 921   NORMALIZED FREE ENERGY PREDICTED BY IDOCK:   -5.27 KCAL/MOL
REMARK 922        TOTAL FREE ENERGY PREDICTED BY IDOCK:   -7.85 KCAL/MOL
REMARK 923 INTER-LIGAND FREE ENERGY PREDICTED BY IDOCK:   -7.47 KCAL/MOL
REMARK 924 INTRA-LIGAND FREE ENERGY PREDICTED BY IDOCK:   -0.39 KCAL/MOL
REMARK 927      BINDING AFFINITY PREDICTED BY RF-SCORE:    0.00 PKD
ROOT
HETATM    1  C   UNL     1     -10.751  18.495  65.545  1.00  0.00     0.074 C  
HETATM    2  O   UNL     1     -10.102  17.232  65.547  1.00  0.00    -0.581 OA 
ENDROOT
BRANCH   2   3
HETATM    3  C   UNL     1     -10.581  16.270  66.396  1.00  0.00    -0.253 A  
HETATM    4  C   UNL     1     -10.369  16.518  67.779  1.00  0.00    -0.291 A  
HETATM    5  C   UNL     1     -10.970  15.732  68.754  1.00  0.00    -0.291 A  
HETATM    6  C   UNL     1     -11.183  15.064  65.992  1.00  0.00    -0.310 A  
HETATM    7  C   UNL     1     -11.542  14.161  66.979  1.00  0.00    -0.404 A  
HETATM    8  C   UNL     1     -11.547  14.570  68.310  1.00  0.00    -0.358 A  
HETATM    9  C   UNL     1     -11.863  13.423  69.126  1.00  0.00    -0.336 C  
HETATM   10  O   UNL     1     -12.337  13.477  70.253  1.00  0.00    -0.326 OA 
HETATM   11  C   UNL     1     -11.440  12.225  68.329  1.00  0.00    -0.367 C  
HETATM   12  C   UNL     1     -11.856  12.681  66.894  1.00  0.00    -0.425 C  
BRANCH   4  13
HETATM   13  O   UNL     1      -9.465  17.490  68.152  1.00  0.00    -0.272 OA 
HETATM   14  C   UNL     1     -10.089  18.512  68.944  1.00  0.00    -0.310 C  
ENDBRANCH   4  13
BRANCH  11  15
HETATM   15  C   UNL     1     -11.750  10.890  69.012  1.00  0.00    -0.391 C  
BRANCH  15  16
HETATM   16  C   UNL     1     -10.936  10.515  70.260  1.00  0.00    -0.306 C  
HETATM   17  C   UNL     1     -11.767   9.698  71.238  1.00  0.00    -0.458 C  
HETATM   18  C   UNL     1     -12.004   8.289  70.710  1.00  0.00    -0.109 C  
HETATM   19  N   UNL     1     -10.753   7.534  70.616  1.00  0.00    -0.226 NA 
HETATM   20  C   UNL     1      -9.816   8.214  69.713  1.00  0.00    -0.187 C  
HETATM   21  C   UNL     1      -9.642   9.730  69.926  1.00  0.00    -0.269 C  
BRANCH  19  22
HETATM   22  C   UNL     1     -10.182   7.224  71.942  1.00  0.00    -0.187 C  
BRANCH  22  23
HETATM   23  C   UNL     1      -9.523   5.852  71.971  1.00  0.00    -0.164 A  
HETATM   24  C   UNL     1      -8.157   5.740  72.270  1.00  0.00    -0.107 A  
HETATM   25  C   UNL     1      -7.508   4.507  72.185  1.00  0.00    -0.080 A  
HETATM   26  C   UNL     1      -8.216   3.370  71.801  1.00  0.00    -0.067 A  
HETATM   27  C   UNL     1      -9.575   3.464  71.506  1.00  0.00    -0.233 A  
HETATM   28  C   UNL     1     -10.228   4.697  71.592  1.00  0.00    -0.233 A  
ENDBRANCH  22  23
ENDBRANCH  19  22
ENDBRANCH  15  16
ENDBRANCH  11  15
ENDBRANCH   2   3
TORSDOF 6
ENDMDL
MODEL       65
REMARK 921   NORMALIZED FREE ENERGY PREDICTED BY IDOCK:   -5.27 KCAL/MOL
REMARK 922        TOTAL FREE ENERGY PREDICTED BY IDOCK:   -7.85 KCAL/MOL
REMARK 923 INTER-LIGAND FREE ENERGY PREDICTED BY IDOCK:   -6.89 KCAL/MOL
REMARK 924 INTRA-LIGAND FREE ENERGY PREDICTED BY IDOCK:   -0.96 KCAL/MOL
REMARK 927      BINDING AFFINITY PREDICTED BY RF-SCORE:    0.00 PKD
ROOT
HETATM    1  C   UNL     1      -5.859   2.091  68.718  1.00  0.00    -0.023 C  
HETATM    2  O   UNL     1      -7.095   1.909  68.042  1.00  0.00    -0.042 OA 
ENDROOT
BRANCH   2   3
HETATM    3  C   UNL     1      -8.013   2.924  68.107  1.00  0.00    -0.061 A  
HETATM    4  C   UNL     1      -8.143   3.705  66.927  1.00  0.00    -0.095 A  
HETATM    5  C   UNL     1      -9.166   4.633  66.785  1.00  0.00    -0.130 A  
HETATM    6  C   UNL     1      -8.754   3.269  69.252  1.00  0.00    -0.135 A  
HETATM    7  C   UNL     1      -9.585   4.375  69.172  1.00  0.00    -0.252 A  
HETATM    8  C   UNL     1      -9.862   4.933  67.926  1.00  0.00    -0.196 A  
HETATM    9  C   UNL     1     -10.664   6.113  68.138  1.00  0.00    -0.294 C  
HETATM   10  O   UNL     1     -11.406   6.611  67.301  1.00  0.00    -0.324 OA 
HETATM   11  C   UNL     1     -10.342   6.584  69.524  1.00  0.00    -0.237 C  
HETATM   12  C   UNL     1     -10.215   5.216  70.264  1.00  0.00    -0.342 C  
BRANCH   4  13
HETATM   13  O   UNL     1      -7.170   3.611  65.954  1.00  0.00    -0.068 OA 
HETATM   14  C   UNL     1      -6.425   4.832  65.836  1.00  0.00    -0.040 C  
ENDBRANCH   4  13
BRANCH  11  15
HETATM   15  C   UNL     1     -11.148   7.812  69.960  1.00  0.00    -0.182 C  
BRANCH  15  16
HETATM   16  C   UNL     1     -10.411   9.156  70.065  1.00  0.00    -0.244 C  
HETATM   17  C   UNL     1      -9.879   9.602  68.711  1.00  0.00    -0.173 C  
HETATM   18  C   UNL     1     -11.014  10.055  67.801  1.00  0.00    -0.249 C  
HETATM   19  N   UNL     1     -11.671  11.257  68.319  1.00  0.00    -0.508 NA 
HETATM   20  C   UNL     1     -12.226  10.996  69.654  1.00  0.00    -0.300 C  
HETATM   21  C   UNL     1     -11.293  10.286  70.654  1.00  0.00    -0.431 C  
BRANCH  19  22
HETATM   22  C   UNL     1     -10.797  12.446  68.260  1.00  0.00    -0.237 C  
BRANCH  22  23
HETATM   23  C   UNL     1     -10.997  13.235  66.974  1.00  0.00    -0.291 A  
HETATM   24  C   UNL     1      -9.961  14.042  66.482  1.00  0.00    -0.289 A  
HETATM   25  C   UNL     1     -10.164  14.864  65.373  1.00  0.00    -0.409 A  
HETATM   26  C   UNL     1     -11.406  14.891  64.740  1.00  0.00    -0.400 A  
HETATM   27  C   UNL     1     -12.445  14.090  65.214  1.00  0.00    -0.495 A  
HETATM   28  C   UNL     1     -12.243  13.264  66.323  1.00  0.00    -0.440 A  
ENDBRANCH  22  23
ENDBRANCH  19  22
ENDBRANCH  15  16
ENDBRANCH  11  15
ENDBRANCH   2   3
TORSDOF 6
ENDMDL
MODEL       66
REMARK 921   NORMALIZED FREE ENERGY PREDICTED BY IDOCK:   -5.25 KCAL/MOL
REMARK 922        TOTAL FREE ENERGY PREDICTED BY IDOCK:   -7.83 KCAL/MOL
REMARK 923 INTER-LIGAND FREE ENERGY PREDICTED BY IDOCK:   -7.07 KCAL/MOL
REMARK 924 INTRA-LIGAND FREE ENERGY PREDICTED BY IDOCK:   -0.76 KCAL/MOL
REMARK 927      BINDING AFFINITY PREDICTED BY RF-SCORE:    0.00 PKD
ROOT
HETATM    1  C   UNL     1      -9.697   4.849  68.626  1.00  0.00    -0.160 C  
HETATM    2  O   UNL     1     -10.402   5.585  69.616  1.00  0.00    -0.237 OA 
ENDROOT
BRANCH   2   3
HETATM    3  C   UNL     1     -10.542   6.935  69.427  1.00  0.00    -0.229 A  
HETATM    4  C   UNL     1     -11.316   7.610  70.409  1.00  0.00    -0.219 A  
HETATM    5  C   UNL     1     -11.376   8.997  70.452  1.00  0.00    -0.242 A  
HETATM    6  C   UNL     1     -10.042   7.651  68.324  1.00  0.00    -0.214 A  
HETATM    7  C   UNL     1     -10.338   9.002  68.246  1.00  0.00    -0.252 A  
HETATM    8  C   UNL     1     -10.872   9.650  69.357  1.00  0.00    -0.239 A  
HETATM    9  C   UNL     1     -11.171  11.009  68.977  1.00  0.00    -0.258 C  
HETATM   10  O   UNL     1     -11.265  11.948  69.758  1.00  0.00    -0.182 OA 
HETATM   11  C   UNL     1     -11.383  10.982  67.493  1.00  0.00    -0.332 C  
HETATM   12  C   UNL     1     -10.284   9.957  67.071  1.00  0.00    -0.294 C  
BRANCH   4  13
HETATM   13  O   UNL     1     -12.105   6.868  71.262  1.00  0.00    -0.335 OA 
HETATM   14  C   UNL     1     -11.423   6.581  72.492  1.00  0.00    -0.239 C  
ENDBRANCH   4  13
BRANCH  11  15
HETATM   15  C   UNL     1     -11.658  12.361  66.885  1.00  0.00    -0.437 C  
BRANCH  15  16
HETATM   16  C   UNL     1     -10.534  13.029  66.079  1.00  0.00    -0.289 C  
HETATM   17  C   UNL     1     -10.992  14.350  65.480  1.00  0.00    -0.330 C  
HETATM   18  C   UNL     1     -11.140  15.417  66.558  1.00  0.00    -0.227 C  
HETATM   19  N   UNL     1      -9.849  15.749  67.164  1.00  0.00    -0.224 NA 
HETATM   20  C   UNL     1      -9.252  14.555  67.775  1.00  0.00    -0.194 C  
HETATM   21  C   UNL     1      -9.252  13.276  66.916  1.00  0.00    -0.242 C  
BRANCH  19  22
HETATM   22  C   UNL     1      -8.950  16.449  66.224  1.00  0.00    -0.333 C  
BRANCH  22  23
HETATM   23  C   UNL     1      -7.820  17.168  66.948  1.00  0.00    -0.250 A  
HETATM   24  C   UNL     1      -8.094  18.319  67.701  1.00  0.00    -0.249 A  
HETATM   25  C   UNL     1      -7.058  19.060  68.273  1.00  0.00    -0.296 A  
HETATM   26  C   UNL     1      -5.735  18.660  68.099  1.00  0.00    -0.191 A  
HETATM   27  C   UNL     1      -5.446  17.516  67.357  1.00  0.00    -0.153 A  
HETATM   28  C   UNL     1      -6.481  16.771  66.786  1.00  0.00    -0.226 A  
ENDBRANCH  22  23
ENDBRANCH  19  22
ENDBRANCH  15  16
ENDBRANCH  11  15
ENDBRANCH   2   3
TORSDOF 6
ENDMDL
MODEL       67
REMARK 921   NORMALIZED FREE ENERGY PREDICTED BY IDOCK:   -5.24 KCAL/MOL
REMARK 922        TOTAL FREE ENERGY PREDICTED BY IDOCK:   -7.82 KCAL/MOL
REMARK 923 INTER-LIGAND FREE ENERGY PREDICTED BY IDOCK:   -7.32 KCAL/MOL
REMARK 924 INTRA-LIGAND FREE ENERGY PREDICTED BY IDOCK:   -0.50 KCAL/MOL
REMARK 927      BINDING AFFINITY PREDICTED BY RF-SCORE:    0.00 PKD
ROOT
HETATM    1  C   UNL     1      -6.872  18.714  66.679  1.00  0.00    -0.198 C  
HETATM    2  O   UNL     1      -7.557  17.944  65.702  1.00  0.00    -0.546 OA 
ENDROOT
BRANCH   2   3
HETATM    3  C   UNL     1      -8.442  16.995  66.143  1.00  0.00    -0.227 A  
HETATM    4  C   UNL     1      -9.814  17.290  65.921  1.00  0.00    -0.126 A  
HETATM    5  C   UNL     1     -10.801  16.337  66.137  1.00  0.00    -0.105 A  
HETATM    6  C   UNL     1      -8.088  15.825  66.840  1.00  0.00    -0.292 A  
HETATM    7  C   UNL     1      -9.112  15.006  67.286  1.00  0.00    -0.213 A  
HETATM    8  C   UNL     1     -10.406  15.213  66.815  1.00  0.00    -0.273 A  
HETATM    9  C   UNL     1     -11.281  14.296  67.503  1.00  0.00    -0.307 C  
HETATM   10  O   UNL     1     -12.367  13.918  67.083  1.00  0.00    -0.372 OA 
HETATM   11  C   UNL     1     -10.604  13.983  68.804  1.00  0.00    -0.260 C  
HETATM   12  C   UNL     1      -9.116  13.916  68.338  1.00  0.00    -0.184 C  
BRANCH   4  13
HETATM   13  O   UNL     1     -10.173  18.579  65.588  1.00  0.00    -0.552 OA 
HETATM   14  C   UNL     1     -10.632  19.309  66.736  1.00  0.00    -0.448 C  
ENDBRANCH   4  13
BRANCH  11  15
HETATM   15  C   UNL     1     -11.362  12.966  69.664  1.00  0.00    -0.166 C  
BRANCH  15  16
HETATM   16  C   UNL     1     -11.806  11.654  68.999  1.00  0.00    -0.391 C  
HETATM   17  C   UNL     1     -10.629  10.930  68.362  1.00  0.00    -0.225 C  
HETATM   18  C   UNL     1      -9.718  10.329  69.426  1.00  0.00    -0.222 C  
HETATM   19  N   UNL     1     -10.396   9.274  70.180  1.00  0.00    -0.206 NA 
HETATM   20  C   UNL     1     -11.589   9.813  70.846  1.00  0.00    -0.361 C  
HETATM   21  C   UNL     1     -12.517  10.688  69.982  1.00  0.00    -0.294 C  
BRANCH  19  22
HETATM   22  C   UNL     1     -10.664   8.077  69.358  1.00  0.00    -0.159 C  
BRANCH  22  23
HETATM   23  C   UNL     1      -9.946   6.847  69.895  1.00  0.00    -0.185 A  
HETATM   24  C   UNL     1     -10.670   5.859  70.578  1.00  0.00    -0.363 A  
HETATM   25  C   UNL     1     -10.015   4.784  71.181  1.00  0.00    -0.273 A  
HETATM   26  C   UNL     1      -8.628   4.681  71.109  1.00  0.00    -0.128 A  
HETATM   27  C   UNL     1      -7.893   5.653  70.429  1.00  0.00    -0.102 A  
HETATM   28  C   UNL     1      -8.547   6.729  69.823  1.00  0.00    -0.141 A  
ENDBRANCH  22  23
ENDBRANCH  19  22
ENDBRANCH  15  16
ENDBRANCH  11  15
ENDBRANCH   2   3
TORSDOF 6
ENDMDL
MODEL       68
REMARK 921   NORMALIZED FREE ENERGY PREDICTED BY IDOCK:   -5.22 KCAL/MOL
REMARK 922        TOTAL FREE ENERGY PREDICTED BY IDOCK:   -7.78 KCAL/MOL
REMARK 923 INTER-LIGAND FREE ENERGY PREDICTED BY IDOCK:   -7.40 KCAL/MOL
REMARK 924 INTRA-LIGAND FREE ENERGY PREDICTED BY IDOCK:   -0.38 KCAL/MOL
REMARK 927      BINDING AFFINITY PREDICTED BY RF-SCORE:    0.00 PKD
ROOT
HETATM    1  C   UNL     1     -10.454  19.341  66.106  1.00  0.00    -0.488 C  
HETATM    2  O   UNL     1     -10.629  18.155  65.343  1.00  0.00    -0.636 OA 
ENDROOT
BRANCH   2   3
HETATM    3  C   UNL     1     -10.174  16.979  65.879  1.00  0.00    -0.296 A  
HETATM    4  C   UNL     1      -8.787  16.945  66.186  1.00  0.00    -0.244 A  
HETATM    5  C   UNL     1      -8.233  15.897  66.910  1.00  0.00    -0.283 A  
HETATM    6  C   UNL     1     -10.955  15.825  66.071  1.00  0.00    -0.177 A  
HETATM    7  C   UNL     1     -10.322  14.691  66.553  1.00  0.00    -0.283 A  
HETATM    8  C   UNL     1      -9.034  14.797  67.074  1.00  0.00    -0.258 A  
HETATM    9  C   UNL     1      -8.582  13.470  67.412  1.00  0.00    -0.208 C  
HETATM   10  O   UNL     1      -7.708  13.218  68.231  1.00  0.00    -0.124 OA 
HETATM   11  C   UNL     1      -9.354  12.537  66.529  1.00  0.00    -0.233 C  
HETATM   12  C   UNL     1     -10.749  13.238  66.531  1.00  0.00    -0.290 C  
BRANCH   4  13
HETATM   13  O   UNL     1      -7.963  17.918  65.659  1.00  0.00    -0.527 OA 
HETATM   14  C   UNL     1      -6.604  17.744  66.088  1.00  0.00    -0.274 C  
ENDBRANCH   4  13
BRANCH  11  15
HETATM   15  C   UNL     1      -9.052  11.057  66.783  1.00  0.00    -0.172 C  
BRANCH  15  16
HETATM   16  C   UNL     1     -10.211  10.055  66.665  1.00  0.00    -0.288 C  
HETATM   17  C   UNL     1      -9.706   8.662  66.322  1.00  0.00    -0.322 C  
HETATM   18  C   UNL     1      -9.000   8.028  67.514  1.00  0.00    -0.138 C  
HETATM   19  N   UNL     1      -9.927   7.788  68.621  1.00  0.00    -0.177 NA 
HETATM   20  C   UNL     1     -10.529   9.052  69.061  1.00  0.00    -0.218 C  
HETATM   21  C   UNL     1     -11.073   9.973  67.952  1.00  0.00    -0.260 C  
BRANCH  19  22
HETATM   22  C   UNL     1     -10.914   6.735  68.311  1.00  0.00    -0.197 C  
BRANCH  22  23
HETATM   23  C   UNL     1     -10.292   5.345  68.340  1.00  0.00    -0.216 A  
HETATM   24  C   UNL     1      -9.809   4.822  69.548  1.00  0.00    -0.292 A  
HETATM   25  C   UNL     1      -9.129   3.603  69.575  1.00  0.00    -0.201 A  
HETATM   26  C   UNL     1      -8.923   2.892  68.395  1.00  0.00    -0.192 A  
HETATM   27  C   UNL     1      -9.401   3.396  67.186  1.00  0.00    -0.224 A  
HETATM   28  C   UNL     1     -10.084   4.615  67.157  1.00  0.00    -0.187 A  
ENDBRANCH  22  23
ENDBRANCH  19  22
ENDBRANCH  15  16
ENDBRANCH  11  15
ENDBRANCH   2   3
TORSDOF 6
ENDMDL
MODEL       69
REMARK 921   NORMALIZED FREE ENERGY PREDICTED BY IDOCK:   -5.19 KCAL/MOL
REMARK 922        TOTAL FREE ENERGY PREDICTED BY IDOCK:   -7.75 KCAL/MOL
REMARK 923 INTER-LIGAND FREE ENERGY PREDICTED BY IDOCK:   -6.90 KCAL/MOL
REMARK 924 INTRA-LIGAND FREE ENERGY PREDICTED BY IDOCK:   -0.85 KCAL/MOL
REMARK 927      BINDING AFFINITY PREDICTED BY RF-SCORE:    0.00 PKD
ROOT
HETATM    1  C   UNL     1     -10.494  19.360  67.173  1.00  0.00    -0.466 C  
HETATM    2  O   UNL     1     -10.718  18.436  66.117  1.00  0.00    -0.347 OA 
ENDROOT
BRANCH   2   3
HETATM    3  C   UNL     1     -10.364  17.129  66.329  1.00  0.00    -0.313 A  
HETATM    4  C   UNL     1     -10.615  16.246  65.244  1.00  0.00    -0.336 A  
HETATM    5  C   UNL     1     -10.130  14.944  65.246  1.00  0.00    -0.380 A  
HETATM    6  C   UNL     1      -9.853  16.617  67.536  1.00  0.00    -0.253 A  
HETATM    7  C   UNL     1      -9.619  15.253  67.610  1.00  0.00    -0.206 A  
HETATM    8  C   UNL     1      -9.638  14.493  66.443  1.00  0.00    -0.324 A  
HETATM    9  C   UNL     1      -9.462  13.110  66.812  1.00  0.00    -0.252 C  
HETATM   10  O   UNL     1      -9.036  12.237  66.066  1.00  0.00    -0.146 OA 
HETATM   11  C   UNL     1      -9.952  12.998  68.225  1.00  0.00    -0.235 C  
HETATM   12  C   UNL     1      -9.433  14.349  68.811  1.00  0.00    -0.161 C  
BRANCH   4  13
HETATM   13  O   UNL     1     -11.446  16.661  64.225  1.00  0.00    -1.075 OA 
HETATM   14  C   UNL     1     -12.486  15.704  63.972  1.00  0.00     0.384 C  
ENDBRANCH   4  13
BRANCH  11  15
HETATM   15  C   UNL     1      -9.791  11.596  68.823  1.00  0.00    -0.129 C  
BRANCH  15  16
HETATM   16  C   UNL     1     -10.957  10.608  68.660  1.00  0.00    -0.291 C  
HETATM   17  C   UNL     1     -10.763   9.719  67.441  1.00  0.00    -0.314 C  
HETATM   18  C   UNL     1      -9.654   8.701  67.678  1.00  0.00    -0.155 C  
HETATM   19  N   UNL     1     -10.014   7.753  68.734  1.00  0.00    -0.171 NA 
HETATM   20  C   UNL     1     -10.263   8.466  69.993  1.00  0.00    -0.202 C  
HETATM   21  C   UNL     1     -11.167   9.710  69.906  1.00  0.00    -0.244 C  
BRANCH  19  22
HETATM   22  C   UNL     1     -11.114   6.854  68.332  1.00  0.00    -0.068 C  
BRANCH  22  23
HETATM   23  C   UNL     1     -10.602   5.619  67.603  1.00  0.00    -0.279 A  
HETATM   24  C   UNL     1      -9.820   4.678  68.288  1.00  0.00    -0.168 A  
HETATM   25  C   UNL     1      -9.242   3.603  67.610  1.00  0.00    -0.225 A  
HETATM   26  C   UNL     1      -9.440   3.455  66.238  1.00  0.00    -0.128 A  
HETATM   27  C   UNL     1     -10.219   4.379  65.544  1.00  0.00    -0.260 A  
HETATM   28  C   UNL     1     -10.801   5.455  66.221  1.00  0.00    -0.161 A  
ENDBRANCH  22  23
ENDBRANCH  19  22
ENDBRANCH  15  16
ENDBRANCH  11  15
ENDBRANCH   2   3
TORSDOF 6
ENDMDL
MODEL       70
REMARK 921   NORMALIZED FREE ENERGY PREDICTED BY IDOCK:   -5.16 KCAL/MOL
REMARK 922        TOTAL FREE ENERGY PREDICTED BY IDOCK:   -7.71 KCAL/MOL
REMARK 923 INTER-LIGAND FREE ENERGY PREDICTED BY IDOCK:   -7.22 KCAL/MOL
REMARK 924 INTRA-LIGAND FREE ENERGY PREDICTED BY IDOCK:   -0.49 KCAL/MOL
REMARK 927      BINDING AFFINITY PREDICTED BY RF-SCORE:    0.00 PKD
ROOT
HETATM    1  C   UNL     1     -10.738  19.581  65.643  1.00  0.00    -0.325 C  
HETATM    2  O   UNL     1      -9.816  18.501  65.688  1.00  0.00    -0.428 OA 
ENDROOT
BRANCH   2   3
HETATM    3  C   UNL     1     -10.254  17.311  66.206  1.00  0.00    -0.342 A  
HETATM    4  C   UNL     1     -10.367  17.266  67.621  1.00  0.00    -0.350 A  
HETATM    5  C   UNL     1     -10.981  16.197  68.263  1.00  0.00    -0.340 A  
HETATM    6  C   UNL     1     -10.519  16.153  65.452  1.00  0.00    -0.396 A  
HETATM    7  C   UNL     1     -10.880  15.005  66.139  1.00  0.00    -0.329 A  
HETATM    8  C   UNL     1     -11.223  15.095  67.486  1.00  0.00    -0.331 A  
HETATM    9  C   UNL     1     -11.460  13.758  67.973  1.00  0.00    -0.310 C  
HETATM   10  O   UNL     1     -12.146  13.482  68.949  1.00  0.00    -0.341 OA 
HETATM   11  C   UNL     1     -10.666  12.850  67.082  1.00  0.00    -0.268 C  
HETATM   12  C   UNL     1     -10.877  13.553  65.704  1.00  0.00    -0.292 C  
BRANCH   4  13
HETATM   13  O   UNL     1      -9.760  18.251  68.371  1.00  0.00    -0.321 OA 
HETATM   14  C   UNL     1      -8.444  17.858  68.788  1.00  0.00    -0.205 C  
ENDBRANCH   4  13
BRANCH  11  15
HETATM   15  C   UNL     1     -10.836  11.363  67.409  1.00  0.00    -0.301 C  
BRANCH  15  16
HETATM   16  C   UNL     1      -9.588  10.469  67.361  1.00  0.00    -0.181 C  
HETATM   17  C   UNL     1      -9.030  10.223  68.756  1.00  0.00    -0.155 C  
HETATM   18  C   UNL     1      -9.932   9.284  69.546  1.00  0.00    -0.187 C  
HETATM   19  N   UNL     1      -9.964   7.945  68.954  1.00  0.00    -0.185 NA 
HETATM   20  C   UNL     1     -10.464   8.013  67.574  1.00  0.00    -0.260 C  
HETATM   21  C   UNL     1      -9.847   9.102  66.677  1.00  0.00    -0.307 C  
BRANCH  19  22
HETATM   22  C   UNL     1      -8.673   7.241  69.085  1.00  0.00    -0.136 C  
BRANCH  22  23
HETATM   23  C   UNL     1      -8.739   5.825  68.529  1.00  0.00    -0.111 A  
HETATM   24  C   UNL     1      -8.301   5.567  67.222  1.00  0.00    -0.104 A  
HETATM   25  C   UNL     1      -8.463   4.303  66.653  1.00  0.00    -0.108 A  
HETATM   26  C   UNL     1      -9.064   3.279  67.384  1.00  0.00    -0.201 A  
HETATM   27  C   UNL     1      -9.500   3.518  68.687  1.00  0.00    -0.209 A  
HETATM   28  C   UNL     1      -9.336   4.783  69.259  1.00  0.00    -0.196 A  
ENDBRANCH  22  23
ENDBRANCH  19  22
ENDBRANCH  15  16
ENDBRANCH  11  15
ENDBRANCH   2   3
TORSDOF 6
ENDMDL
MODEL       71
REMARK 921   NORMALIZED FREE ENERGY PREDICTED BY IDOCK:   -5.16 KCAL/MOL
REMARK 922        TOTAL FREE ENERGY PREDICTED BY IDOCK:   -7.71 KCAL/MOL
REMARK 923 INTER-LIGAND FREE ENERGY PREDICTED BY IDOCK:   -6.86 KCAL/MOL
REMARK 924 INTRA-LIGAND FREE ENERGY PREDICTED BY IDOCK:   -0.84 KCAL/MOL
REMARK 927      BINDING AFFINITY PREDICTED BY RF-SCORE:    0.00 PKD
ROOT
HETATM    1  C   UNL     1     -10.582   4.188  65.327  1.00  0.00    -0.087 C  
HETATM    2  O   UNL     1     -10.212   4.799  66.555  1.00  0.00    -0.233 OA 
ENDROOT
BRANCH   2   3
HETATM    3  C   UNL     1      -9.918   6.137  66.539  1.00  0.00    -0.126 A  
HETATM    4  C   UNL     1      -8.618   6.470  66.072  1.00  0.00    -0.148 A  
HETATM    5  C   UNL     1      -8.258   7.787  65.818  1.00  0.00    -0.132 A  
HETATM    6  C   UNL     1     -10.770   7.155  67.005  1.00  0.00    -0.420 A  
HETATM    7  C   UNL     1     -10.289   8.454  66.990  1.00  0.00    -0.385 A  
HETATM    8  C   UNL     1      -9.121   8.742  66.287  1.00  0.00    -0.240 A  
HETATM    9  C   UNL     1      -8.799  10.130  66.513  1.00  0.00    -0.140 C  
HETATM   10  O   UNL     1      -8.109  10.816  65.770  1.00  0.00    -0.162 OA 
HETATM   11  C   UNL     1      -9.427  10.488  67.827  1.00  0.00    -0.162 C  
HETATM   12  C   UNL     1     -10.766   9.691  67.724  1.00  0.00    -0.316 C  
BRANCH   4  13
HETATM   13  O   UNL     1      -7.669   5.474  65.976  1.00  0.00    -0.092 OA 
HETATM   14  C   UNL     1      -6.879   5.616  64.786  1.00  0.00    -0.051 C  
ENDBRANCH   4  13
BRANCH  11  15
HETATM   15  C   UNL     1      -9.241  11.957  68.218  1.00  0.00    -0.187 C  
BRANCH  15  16
HETATM   16  C   UNL     1     -10.411  12.921  67.966  1.00  0.00    -0.230 C  
HETATM   17  C   UNL     1     -10.171  14.268  68.632  1.00  0.00    -0.246 C  
HETATM   18  C   UNL     1      -9.089  15.053  67.901  1.00  0.00    -0.180 C  
HETATM   19  N   UNL     1      -9.511  15.416  66.547  1.00  0.00    -0.252 NA 
HETATM   20  C   UNL     1      -9.810  14.207  65.768  1.00  0.00    -0.271 C  
HETATM   21  C   UNL     1     -10.693  13.151  66.459  1.00  0.00    -0.288 C  
BRANCH  19  22
HETATM   22  C   UNL     1     -10.603  16.410  66.545  1.00  0.00    -0.235 C  
BRANCH  22  23
HETATM   23  C   UNL     1     -10.078  17.831  66.696  1.00  0.00    -0.350 A  
HETATM   24  C   UNL     1      -8.820  18.169  66.178  1.00  0.00    -0.107 A  
HETATM   25  C   UNL     1      -8.270  19.431  66.409  1.00  0.00    -0.335 A  
HETATM   26  C   UNL     1      -8.970  20.372  67.161  1.00  0.00    -0.453 A  
HETATM   27  C   UNL     1     -10.225  20.053  67.679  1.00  0.00    -0.548 A  
HETATM   28  C   UNL     1     -10.779  18.791  67.446  1.00  0.00    -0.487 A  
ENDBRANCH  22  23
ENDBRANCH  19  22
ENDBRANCH  15  16
ENDBRANCH  11  15
ENDBRANCH   2   3
TORSDOF 6
ENDMDL
MODEL       72
REMARK 921   NORMALIZED FREE ENERGY PREDICTED BY IDOCK:   -5.15 KCAL/MOL
REMARK 922        TOTAL FREE ENERGY PREDICTED BY IDOCK:   -7.70 KCAL/MOL
REMARK 923 INTER-LIGAND FREE ENERGY PREDICTED BY IDOCK:   -6.89 KCAL/MOL
REMARK 924 INTRA-LIGAND FREE ENERGY PREDICTED BY IDOCK:   -0.81 KCAL/MOL
REMARK 927      BINDING AFFINITY PREDICTED BY RF-SCORE:    0.00 PKD
ROOT
HETATM    1  C   UNL     1      -5.305  19.563  65.320  1.00  0.00    -0.162 C  
HETATM    2  O   UNL     1      -6.302  20.079  66.190  1.00  0.00    -0.186 OA 
ENDROOT
BRANCH   2   3
HETATM    3  C   UNL     1      -7.291  19.226  66.604  1.00  0.00    -0.225 A  
HETATM    4  C   UNL     1      -7.777  19.448  67.921  1.00  0.00    -0.284 A  
HETATM    5  C   UNL     1      -8.905  18.791  68.394  1.00  0.00    -0.375 A  
HETATM    6  C   UNL     1      -7.785  18.141  65.856  1.00  0.00    -0.122 A  
HETATM    7  C   UNL     1      -8.734  17.326  66.453  1.00  0.00    -0.285 A  
HETATM    8  C   UNL     1      -9.351  17.745  67.629  1.00  0.00    -0.250 A  
HETATM    9  C   UNL     1     -10.213  16.681  68.080  1.00  0.00    -0.280 C  
HETATM   10  O   UNL     1     -11.180  16.830  68.817  1.00  0.00    -0.273 OA 
HETATM   11  C   UNL     1      -9.639  15.418  67.510  1.00  0.00    -0.206 C  
HETATM   12  C   UNL     1      -9.190  15.924  66.103  1.00  0.00    -0.384 C  
BRANCH   4  13
HETATM   13  O   UNL     1      -7.048  20.250  68.774  1.00  0.00    -0.223 OA 
HETATM   14  C   UNL     1      -6.329  19.470  69.741  1.00  0.00    -0.310 C  
ENDBRANCH   4  13
BRANCH  11  15
HETATM   15  C   UNL     1     -10.460  14.166  67.835  1.00  0.00    -0.237 C  
BRANCH  15  16
HETATM   16  C   UNL     1     -10.224  12.911  66.981  1.00  0.00    -0.243 C  
HETATM   17  C   UNL     1      -8.758  12.503  66.990  1.00  0.00    -0.205 C  
HETATM   18  C   UNL     1      -8.362  11.917  68.340  1.00  0.00    -0.157 C  
HETATM   19  N   UNL     1      -9.064  10.661  68.606  1.00  0.00    -0.162 NA 
HETATM   20  C   UNL     1     -10.516  10.881  68.607  1.00  0.00    -0.194 C  
HETATM   21  C   UNL     1     -11.083  11.701  67.433  1.00  0.00    -0.337 C  
BRANCH  19  22
HETATM   22  C   UNL     1      -8.629   9.571  67.710  1.00  0.00    -0.115 C  
BRANCH  22  23
HETATM   23  C   UNL     1      -9.333   8.259  68.025  1.00  0.00    -0.141 A  
HETATM   24  C   UNL     1     -10.236   7.712  67.101  1.00  0.00    -0.360 A  
HETATM   25  C   UNL     1     -10.980   6.575  67.420  1.00  0.00    -0.458 A  
HETATM   26  C   UNL     1     -10.833   5.971  68.666  1.00  0.00    -0.379 A  
HETATM   27  C   UNL     1      -9.937   6.499  69.594  1.00  0.00    -0.186 A  
HETATM   28  C   UNL     1      -9.188   7.636  69.276  1.00  0.00    -0.145 A  
ENDBRANCH  22  23
ENDBRANCH  19  22
ENDBRANCH  15  16
ENDBRANCH  11  15
ENDBRANCH   2   3
TORSDOF 6
ENDMDL
MODEL       73
REMARK 921   NORMALIZED FREE ENERGY PREDICTED BY IDOCK:   -5.11 KCAL/MOL
REMARK 922        TOTAL FREE ENERGY PREDICTED BY IDOCK:   -7.64 KCAL/MOL
REMARK 923 INTER-LIGAND FREE ENERGY PREDICTED BY IDOCK:   -7.58 KCAL/MOL
REMARK 924 INTRA-LIGAND FREE ENERGY PREDICTED BY IDOCK:   -0.06 KCAL/MOL
REMARK 927      BINDING AFFINITY PREDICTED BY RF-SCORE:    0.00 PKD
ROOT
HETATM    1  C   UNL     1      -7.178   4.297  66.682  1.00  0.00    -0.075 C  
HETATM    2  O   UNL     1      -6.649   5.615  66.667  1.00  0.00    -0.052 OA 
ENDROOT
BRANCH   2   3
HETATM    3  C   UNL     1      -7.503   6.641  66.361  1.00  0.00    -0.085 A  
HETATM    4  C   UNL     1      -7.062   7.516  65.332  1.00  0.00    -0.063 A  
HETATM    5  C   UNL     1      -7.907   8.475  64.788  1.00  0.00    -0.125 A  
HETATM    6  C   UNL     1      -8.712   6.911  67.029  1.00  0.00    -0.119 A  
HETATM    7  C   UNL     1      -9.422   8.037  66.647  1.00  0.00    -0.273 A  
HETATM    8  C   UNL     1      -9.074   8.698  65.471  1.00  0.00    -0.190 A  
HETATM    9  C   UNL     1      -9.900   9.875  65.362  1.00  0.00    -0.313 C  
HETATM   10  O   UNL     1     -10.156  10.454  64.314  1.00  0.00    -0.334 OA 
HETATM   11  C   UNL     1     -10.298  10.228  66.765  1.00  0.00    -0.288 C  
HETATM   12  C   UNL     1     -10.518   8.802  67.362  1.00  0.00    -0.349 C  
BRANCH   4  13
HETATM   13  O   UNL     1      -5.739   7.478  64.946  1.00  0.00    -0.036 OA 
HETATM   14  C   UNL     1      -5.608   7.469  63.516  1.00  0.00    -0.045 C  
ENDBRANCH   4  13
BRANCH  11  15
HETATM   15  C   UNL     1     -11.238  11.434  66.853  1.00  0.00    -0.331 C  
BRANCH  15  16
HETATM   16  C   UNL     1     -11.040  12.575  65.844  1.00  0.00    -0.334 C  
HETATM   17  C   UNL     1     -12.126  13.632  65.984  1.00  0.00    -0.480 C  
HETATM   18  C   UNL     1     -11.937  14.444  67.259  1.00  0.00    -0.377 C  
HETATM   19  N   UNL     1     -10.702  15.230  67.217  1.00  0.00    -0.305 NA 
HETATM   20  C   UNL     1      -9.542  14.345  67.057  1.00  0.00    -0.247 C  
HETATM   21  C   UNL     1      -9.655  13.261  65.969  1.00  0.00    -0.174 C  
BRANCH  19  22
HETATM   22  C   UNL     1     -10.762  16.318  66.221  1.00  0.00    -0.185 C  
BRANCH  22  23
HETATM   23  C   UNL     1     -10.401  17.667  66.829  1.00  0.00    -0.331 A  
HETATM   24  C   UNL     1     -10.104  17.758  68.196  1.00  0.00    -0.362 A  
HETATM   25  C   UNL     1      -9.888  19.000  68.796  1.00  0.00    -0.485 A  
HETATM   26  C   UNL     1      -9.966  20.166  68.037  1.00  0.00    -0.519 A  
HETATM   27  C   UNL     1     -10.255  20.091  66.676  1.00  0.00    -0.597 A  
HETATM   28  C   UNL     1     -10.469  18.849  66.072  1.00  0.00    -0.507 A  
ENDBRANCH  22  23
ENDBRANCH  19  22
ENDBRANCH  15  16
ENDBRANCH  11  15
ENDBRANCH   2   3
TORSDOF 6
ENDMDL
MODEL       74
REMARK 921   NORMALIZED FREE ENERGY PREDICTED BY IDOCK:   -5.07 KCAL/MOL
REMARK 922        TOTAL FREE ENERGY PREDICTED BY IDOCK:   -7.58 KCAL/MOL
REMARK 923 INTER-LIGAND FREE ENERGY PREDICTED BY IDOCK:   -6.94 KCAL/MOL
REMARK 924 INTRA-LIGAND FREE ENERGY PREDICTED BY IDOCK:   -0.64 KCAL/MOL
REMARK 927      BINDING AFFINITY PREDICTED BY RF-SCORE:    0.00 PKD
ROOT
HETATM    1  C   UNL     1      -6.063  19.635  66.739  1.00  0.00    -0.175 C  
HETATM    2  O   UNL     1      -7.120  19.363  65.830  1.00  0.00    -0.274 OA 
ENDROOT
BRANCH   2   3
HETATM    3  C   UNL     1      -7.947  18.308  66.111  1.00  0.00    -0.184 A  
HETATM    4  C   UNL     1      -9.321  18.634  66.269  1.00  0.00    -0.243 A  
HETATM    5  C   UNL     1     -10.292  17.645  66.360  1.00  0.00    -0.345 A  
HETATM    6  C   UNL     1      -7.521  16.982  66.314  1.00  0.00    -0.318 A  
HETATM    7  C   UNL     1      -8.479  16.045  66.668  1.00  0.00    -0.323 A  
HETATM    8  C   UNL     1      -9.828  16.370  66.552  1.00  0.00    -0.290 A  
HETATM    9  C   UNL     1     -10.596  15.265  67.070  1.00  0.00    -0.306 C  
HETATM   10  O   UNL     1     -11.759  15.024  66.774  1.00  0.00    -0.288 OA 
HETATM   11  C   UNL     1      -9.698  14.562  68.044  1.00  0.00    -0.218 C  
HETATM   12  C   UNL     1      -8.332  14.674  67.296  1.00  0.00    -0.234 C  
BRANCH   4  13
HETATM   13  O   UNL     1      -9.676  19.955  66.442  1.00  0.00    -0.390 OA 
HETATM   14  C   UNL     1     -10.020  20.232  67.808  1.00  0.00    -0.388 C  
ENDBRANCH   4  13
BRANCH  11  15
HETATM   15  C   UNL     1     -10.323  13.309  68.665  1.00  0.00    -0.206 C  
BRANCH  15  16
HETATM   16  C   UNL     1     -10.916  12.256  67.717  1.00  0.00    -0.274 C  
HETATM   17  C   UNL     1      -9.822  11.454  67.027  1.00  0.00    -0.214 C  
HETATM   18  C   UNL     1      -9.145  10.501  68.004  1.00  0.00    -0.138 C  
HETATM   19  N   UNL     1     -10.071   9.471  68.478  1.00  0.00    -0.171 NA 
HETATM   20  C   UNL     1     -11.216  10.092  69.157  1.00  0.00    -0.149 C  
HETATM   21  C   UNL     1     -11.882  11.274  68.429  1.00  0.00    -0.331 C  
BRANCH  19  22
HETATM   22  C   UNL     1     -10.454   8.525  67.411  1.00  0.00    -0.280 C  
BRANCH  22  23
HETATM   23  C   UNL     1     -10.249   7.077  67.836  1.00  0.00    -0.224 A  
HETATM   24  C   UNL     1      -9.613   6.789  69.052  1.00  0.00    -0.135 A  
HETATM   25  C   UNL     1      -9.310   5.473  69.404  1.00  0.00    -0.154 A  
HETATM   26  C   UNL     1      -9.639   4.427  68.544  1.00  0.00    -0.208 A  
HETATM   27  C   UNL     1     -10.276   4.695  67.333  1.00  0.00    -0.095 A  
HETATM   28  C   UNL     1     -10.583   6.012  66.980  1.00  0.00    -0.385 A  
ENDBRANCH  22  23
ENDBRANCH  19  22
ENDBRANCH  15  16
ENDBRANCH  11  15
ENDBRANCH   2   3
TORSDOF 6
ENDMDL
MODEL       75
REMARK 921   NORMALIZED FREE ENERGY PREDICTED BY IDOCK:   -5.04 KCAL/MOL
REMARK 922        TOTAL FREE ENERGY PREDICTED BY IDOCK:   -7.55 KCAL/MOL
REMARK 923 INTER-LIGAND FREE ENERGY PREDICTED BY IDOCK:   -6.89 KCAL/MOL
REMARK 924 INTRA-LIGAND FREE ENERGY PREDICTED BY IDOCK:   -0.66 KCAL/MOL
REMARK 927      BINDING AFFINITY PREDICTED BY RF-SCORE:    0.00 PKD
ROOT
HETATM    1  C   UNL     1      -5.530   2.366  70.106  1.00  0.00    -0.016 C  
HETATM    2  O   UNL     1      -6.037   3.167  69.048  1.00  0.00    -0.023 OA 
ENDROOT
BRANCH   2   3
HETATM    3  C   UNL     1      -7.239   3.795  69.244  1.00  0.00    -0.049 A  
HETATM    4  C   UNL     1      -7.609   4.728  68.238  1.00  0.00    -0.077 A  
HETATM    5  C   UNL     1      -8.881   5.288  68.206  1.00  0.00    -0.108 A  
HETATM    6  C   UNL     1      -8.061   3.629  70.373  1.00  0.00    -0.062 A  
HETATM    7  C   UNL     1      -9.210   4.400  70.453  1.00  0.00    -0.184 A  
HETATM    8  C   UNL     1      -9.646   5.094  69.327  1.00  0.00    -0.223 A  
HETATM    9  C   UNL     1     -10.793   5.880  69.707  1.00  0.00    -0.377 C  
HETATM   10  O   UNL     1     -11.652   6.282  68.933  1.00  0.00    -0.227 OA 
HETATM   11  C   UNL     1     -10.656   6.119  71.181  1.00  0.00    -0.300 C  
HETATM   12  C   UNL     1     -10.091   4.738  71.638  1.00  0.00    -0.264 C  
BRANCH   4  13
HETATM   13  O   UNL     1      -6.652   5.163  67.346  1.00  0.00    -0.050 OA 
HETATM   14  C   UNL     1      -6.911   6.507  66.911  1.00  0.00    -0.066 C  
ENDBRANCH   4  13
BRANCH  11  15
HETATM   15  C   UNL     1     -11.825   6.899  71.790  1.00  0.00    -0.354 C  
BRANCH  15  16
HETATM   16  C   UNL     1     -11.556   8.328  72.287  1.00  0.00    -0.449 C  
HETATM   17  C   UNL     1     -10.586   9.058  71.369  1.00  0.00    -0.393 C  
HETATM   18  C   UNL     1     -11.252   9.417  70.046  1.00  0.00    -0.190 C  
HETATM   19  N   UNL     1     -12.334  10.385  70.235  1.00  0.00    -0.276 NA 
HETATM   20  C   UNL     1     -13.358   9.833  71.132  1.00  0.00    -0.291 C  
HETATM   21  C   UNL     1     -12.847   9.174  72.427  1.00  0.00    -0.438 C  
BRANCH  19  22
HETATM   22  C   UNL     1     -11.836  11.713  70.646  1.00  0.00    -0.138 C  
BRANCH  22  23
HETATM   23  C   UNL     1     -11.710  12.664  69.464  1.00  0.00    -0.374 A  
HETATM   24  C   UNL     1     -11.795  14.049  69.670  1.00  0.00    -0.386 A  
HETATM   25  C   UNL     1     -11.802  14.931  68.589  1.00  0.00    -0.332 A  
HETATM   26  C   UNL     1     -11.723  14.441  67.287  1.00  0.00    -0.429 A  
HETATM   27  C   UNL     1     -11.633  13.067  67.065  1.00  0.00    -0.413 A  
HETATM   28  C   UNL     1     -11.623  12.182  68.146  1.00  0.00    -0.397 A  
ENDBRANCH  22  23
ENDBRANCH  19  22
ENDBRANCH  15  16
ENDBRANCH  11  15
ENDBRANCH   2   3
TORSDOF 6
ENDMDL
MODEL       76
REMARK 921   NORMALIZED FREE ENERGY PREDICTED BY IDOCK:   -5.04 KCAL/MOL
REMARK 922        TOTAL FREE ENERGY PREDICTED BY IDOCK:   -7.54 KCAL/MOL
REMARK 923 INTER-LIGAND FREE ENERGY PREDICTED BY IDOCK:   -6.82 KCAL/MOL
REMARK 924 INTRA-LIGAND FREE ENERGY PREDICTED BY IDOCK:   -0.72 KCAL/MOL
REMARK 927      BINDING AFFINITY PREDICTED BY RF-SCORE:    0.00 PKD
ROOT
HETATM    1  C   UNL     1      -5.132   3.365  67.234  1.00  0.00    -0.008 C  
HETATM    2  O   UNL     1      -5.427   4.494  68.044  1.00  0.00    -0.014 OA 
ENDROOT
BRANCH   2   3
HETATM    3  C   UNL     1      -6.739   4.871  68.159  1.00  0.00    -0.054 A  
HETATM    4  C   UNL     1      -7.151   5.917  67.290  1.00  0.00    -0.074 A  
HETATM    5  C   UNL     1      -8.490   6.262  67.160  1.00  0.00    -0.108 A  
HETATM    6  C   UNL     1      -7.648   4.351  69.099  1.00  0.00    -0.055 A  
HETATM    7  C   UNL     1      -8.921   4.898  69.134  1.00  0.00    -0.132 A  
HETATM    8  C   UNL     1      -9.337   5.728  68.096  1.00  0.00    -0.114 A  
HETATM    9  C   UNL     1     -10.648   6.228  68.427  1.00  0.00    -0.260 C  
HETATM   10  O   UNL     1     -11.465   6.637  67.612  1.00  0.00    -0.140 OA 
HETATM   11  C   UNL     1     -10.739   6.182  69.923  1.00  0.00    -0.366 C  
HETATM   12  C   UNL     1      -9.987   4.844  70.209  1.00  0.00    -0.321 C  
BRANCH   4  13
HETATM   13  O   UNL     1      -6.189   6.669  66.650  1.00  0.00    -0.037 OA 
HETATM   14  C   UNL     1      -6.463   8.074  66.759  1.00  0.00    -0.056 C  
ENDBRANCH   4  13
BRANCH  11  15
HETATM   15  C   UNL     1     -12.098   6.627  70.471  1.00  0.00    -0.302 C  
BRANCH  15  16
HETATM   16  C   UNL     1     -12.111   7.546  71.702  1.00  0.00    -0.341 C  
HETATM   17  C   UNL     1     -11.274   8.796  71.468  1.00  0.00    -0.377 C  
HETATM   18  C   UNL     1     -11.966   9.740  70.493  1.00  0.00    -0.206 C  
HETATM   19  N   UNL     1     -13.213  10.268  71.049  1.00  0.00    -0.375 NA 
HETATM   20  C   UNL     1     -14.136   9.168  71.358  1.00  0.00    -0.127 C  
HETATM   21  C   UNL     1     -13.540   7.972  72.126  1.00  0.00    -0.221 C  
BRANCH  19  22
HETATM   22  C   UNL     1     -12.980  11.185  72.182  1.00  0.00    -0.115 C  
BRANCH  22  23
HETATM   23  C   UNL     1     -13.074  12.645  71.760  1.00  0.00    -0.461 A  
HETATM   24  C   UNL     1     -12.310  13.109  70.679  1.00  0.00    -0.405 A  
HETATM   25  C   UNL     1     -12.290  14.466  70.351  1.00  0.00    -0.406 A  
HETATM   26  C   UNL     1     -13.033  15.376  71.100  1.00  0.00    -0.545 A  
HETATM   27  C   UNL     1     -13.802  14.931  72.174  1.00  0.00    -0.576 A  
HETATM   28  C   UNL     1     -13.826  13.572  72.502  1.00  0.00    -0.624 A  
ENDBRANCH  22  23
ENDBRANCH  19  22
ENDBRANCH  15  16
ENDBRANCH  11  15
ENDBRANCH   2   3
TORSDOF 6
ENDMDL
MODEL       77
REMARK 921   NORMALIZED FREE ENERGY PREDICTED BY IDOCK:   -5.04 KCAL/MOL
REMARK 922        TOTAL FREE ENERGY PREDICTED BY IDOCK:   -7.54 KCAL/MOL
REMARK 923 INTER-LIGAND FREE ENERGY PREDICTED BY IDOCK:   -6.80 KCAL/MOL
REMARK 924 INTRA-LIGAND FREE ENERGY PREDICTED BY IDOCK:   -0.73 KCAL/MOL
REMARK 927      BINDING AFFINITY PREDICTED BY RF-SCORE:    0.00 PKD
ROOT
HETATM    1  C   UNL     1     -10.716  17.552  65.907  1.00  0.00    -0.119 C  
HETATM    2  O   UNL     1     -10.448  16.543  64.944  1.00  0.00    -0.653 OA 
ENDROOT
BRANCH   2   3
HETATM    3  C   UNL     1     -10.117  15.295  65.402  1.00  0.00    -0.362 A  
HETATM    4  C   UNL     1     -10.736  14.212  64.721  1.00  0.00    -0.419 A  
HETATM    5  C   UNL     1     -10.344  12.899  64.948  1.00  0.00    -0.329 A  
HETATM    6  C   UNL     1      -9.289  15.036  66.509  1.00  0.00    -0.309 A  
HETATM    7  C   UNL     1      -9.117  13.715  66.890  1.00  0.00    -0.249 A  
HETATM    8  C   UNL     1      -9.534  12.698  66.035  1.00  0.00    -0.140 A  
HETATM    9  C   UNL     1      -9.327  11.440  66.709  1.00  0.00    -0.180 C  
HETATM   10  O   UNL     1      -9.198  10.360  66.147  1.00  0.00    -0.160 OA 
HETATM   11  C   UNL     1      -9.366  11.750  68.176  1.00  0.00    -0.190 C  
HETATM   12  C   UNL     1      -8.621  13.121  68.193  1.00  0.00    -0.181 C  
BRANCH   4  13
HETATM   13  O   UNL     1     -11.815  14.468  63.902  1.00  0.00    -0.251 OA 
HETATM   14  C   UNL     1     -12.277  13.274  63.253  1.00  0.00    -0.313 C  
ENDBRANCH   4  13
BRANCH  11  15
HETATM   15  C   UNL     1      -9.105  10.533  69.069  1.00  0.00    -0.188 C  
BRANCH  15  16
HETATM   16  C   UNL     1     -10.266   9.556  69.311  1.00  0.00    -0.212 C  
HETATM   17  C   UNL     1      -9.849   8.120  69.031  1.00  0.00    -0.176 C  
HETATM   18  C   UNL     1      -8.911   7.603  70.114  1.00  0.00    -0.146 C  
HETATM   19  N   UNL     1      -9.586   7.513  71.410  1.00  0.00    -0.156 NA 
HETATM   20  C   UNL     1     -10.079   8.835  71.819  1.00  0.00    -0.333 C  
HETATM   21  C   UNL     1     -10.839   9.640  70.749  1.00  0.00    -0.400 C  
BRANCH  19  22
HETATM   22  C   UNL     1     -10.619   6.459  71.434  1.00  0.00    -0.230 C  
BRANCH  22  23
HETATM   23  C   UNL     1     -10.309   5.382  72.464  1.00  0.00    -0.251 A  
HETATM   24  C   UNL     1      -8.981   4.989  72.685  1.00  0.00    -0.130 A  
HETATM   25  C   UNL     1      -8.686   3.922  73.536  1.00  0.00    -0.090 A  
HETATM   26  C   UNL     1      -9.714   3.235  74.178  1.00  0.00    -0.139 A  
HETATM   27  C   UNL     1     -11.039   3.616  73.973  1.00  0.00    -0.144 A  
HETATM   28  C   UNL     1     -11.337   4.686  73.123  1.00  0.00    -0.355 A  
ENDBRANCH  22  23
ENDBRANCH  19  22
ENDBRANCH  15  16
ENDBRANCH  11  15
ENDBRANCH   2   3
TORSDOF 6
ENDMDL
MODEL       78
REMARK 921   NORMALIZED FREE ENERGY PREDICTED BY IDOCK:   -5.00 KCAL/MOL
REMARK 922        TOTAL FREE ENERGY PREDICTED BY IDOCK:   -7.49 KCAL/MOL
REMARK 923 INTER-LIGAND FREE ENERGY PREDICTED BY IDOCK:   -7.24 KCAL/MOL
REMARK 924 INTRA-LIGAND FREE ENERGY PREDICTED BY IDOCK:   -0.25 KCAL/MOL
REMARK 927      BINDING AFFINITY PREDICTED BY RF-SCORE:    0.00 PKD
ROOT
HETATM    1  C   UNL     1     -10.208   7.298  73.878  1.00  0.00    -0.257 C  
HETATM    2  O   UNL     1     -11.107   7.248  72.780  1.00  0.00    -0.283 OA 
ENDROOT
BRANCH   2   3
HETATM    3  C   UNL     1     -11.261   8.384  72.030  1.00  0.00    -0.334 A  
HETATM    4  C   UNL     1     -12.548   8.982  72.086  1.00  0.00    -0.391 A  
HETATM    5  C   UNL     1     -12.786  10.236  71.537  1.00  0.00    -0.557 A  
HETATM    6  C   UNL     1     -10.278   8.932  71.185  1.00  0.00    -0.336 A  
HETATM    7  C   UNL     1     -10.621  10.044  70.433  1.00  0.00    -0.343 A  
HETATM    8  C   UNL     1     -11.798  10.729  70.726  1.00  0.00    -0.443 A  
HETATM    9  C   UNL     1     -11.959  11.773  69.744  1.00  0.00    -0.322 C  
HETATM   10  O   UNL     1     -12.623  12.788  69.907  1.00  0.00    -0.000 OA 
HETATM   11  C   UNL     1     -11.207  11.314  68.530  1.00  0.00    -0.311 C  
HETATM   12  C   UNL     1      -9.969  10.643  69.203  1.00  0.00    -0.228 C  
BRANCH   4  13
HETATM   13  O   UNL     1     -13.600   8.254  72.600  1.00  0.00    -0.101 OA 
HETATM   14  C   UNL     1     -14.355   7.615  71.560  1.00  0.00    -0.452 C  
ENDBRANCH   4  13
BRANCH  11  15
HETATM   15  C   UNL     1     -11.212  12.328  67.382  1.00  0.00    -0.358 C  
BRANCH  15  16
HETATM   16  C   UNL     1      -9.939  12.456  66.531  1.00  0.00    -0.242 C  
HETATM   17  C   UNL     1      -9.247  11.111  66.365  1.00  0.00    -0.199 C  
HETATM   18  C   UNL     1     -10.036  10.203  65.430  1.00  0.00    -0.307 C  
HETATM   19  N   UNL     1     -10.070  10.736  64.067  1.00  0.00    -0.337 NA 
HETATM   20  C   UNL     1     -10.697  12.064  64.057  1.00  0.00    -0.375 C  
HETATM   21  C   UNL     1     -10.207  13.058  65.128  1.00  0.00    -0.289 C  
BRANCH  19  22
HETATM   22  C   UNL     1      -8.746  10.698  63.414  1.00  0.00    -0.164 C  
BRANCH  22  23
HETATM   23  C   UNL     1      -8.168   9.290  63.382  1.00  0.00    -0.176 A  
HETATM   24  C   UNL     1      -7.100   8.955  64.227  1.00  0.00    -0.090 A  
HETATM   25  C   UNL     1      -6.478   7.709  64.129  1.00  0.00    -0.052 A  
HETATM   26  C   UNL     1      -6.917   6.781  63.186  1.00  0.00    -0.052 A  
HETATM   27  C   UNL     1      -7.980   7.098  62.342  1.00  0.00    -0.131 A  
HETATM   28  C   UNL     1      -8.606   8.344  62.440  1.00  0.00    -0.103 A  
ENDBRANCH  22  23
ENDBRANCH  19  22
ENDBRANCH  15  16
ENDBRANCH  11  15
ENDBRANCH   2   3
TORSDOF 6
ENDMDL
MODEL       79
REMARK 921   NORMALIZED FREE ENERGY PREDICTED BY IDOCK:   -4.97 KCAL/MOL
REMARK 922        TOTAL FREE ENERGY PREDICTED BY IDOCK:   -7.45 KCAL/MOL
REMARK 923 INTER-LIGAND FREE ENERGY PREDICTED BY IDOCK:   -6.57 KCAL/MOL
REMARK 924 INTRA-LIGAND FREE ENERGY PREDICTED BY IDOCK:   -0.88 KCAL/MOL
REMARK 927      BINDING AFFINITY PREDICTED BY RF-SCORE:    0.00 PKD
ROOT
HETATM    1  C   UNL     1      -6.873  20.489  65.860  1.00  0.00    -0.204 C  
HETATM    2  O   UNL     1      -7.666  20.307  67.024  1.00  0.00    -0.295 OA 
ENDROOT
BRANCH   2   3
HETATM    3  C   UNL     1      -8.222  19.072  67.230  1.00  0.00    -0.274 A  
HETATM    4  C   UNL     1      -8.065  18.543  68.540  1.00  0.00    -0.330 A  
HETATM    5  C   UNL     1      -8.742  17.399  68.942  1.00  0.00    -0.153 A  
HETATM    6  C   UNL     1      -8.853  18.296  66.240  1.00  0.00    -0.197 A  
HETATM    7  C   UNL     1      -9.294  17.032  66.596  1.00  0.00    -0.274 A  
HETATM    8  C   UNL     1      -9.344  16.680  67.943  1.00  0.00    -0.221 A  
HETATM    9  C   UNL     1      -9.743  15.297  68.025  1.00  0.00    -0.211 C  
HETATM   10  O   UNL     1     -10.266  14.778  69.003  1.00  0.00    -0.232 OA 
HETATM   11  C   UNL     1      -9.332  14.674  66.724  1.00  0.00    -0.275 C  
HETATM   12  C   UNL     1      -9.663  15.838  65.739  1.00  0.00    -0.372 C  
BRANCH   4  13
HETATM   13  O   UNL     1      -7.141  19.120  69.385  1.00  0.00    -0.299 OA 
HETATM   14  C   UNL     1      -6.052  18.226  69.661  1.00  0.00    -0.236 C  
ENDBRANCH   4  13
BRANCH  11  15
HETATM   15  C   UNL     1      -9.728  13.199  66.596  1.00  0.00    -0.261 C  
BRANCH  15  16
HETATM   16  C   UNL     1      -8.655  12.139  66.891  1.00  0.00    -0.191 C  
HETATM   17  C   UNL     1      -8.697  11.702  68.348  1.00  0.00    -0.158 C  
HETATM   18  C   UNL     1      -9.924  10.843  68.626  1.00  0.00    -0.189 C  
HETATM   19  N   UNL     1      -9.869   9.576  67.894  1.00  0.00    -0.150 NA 
HETATM   20  C   UNL     1      -9.799   9.828  66.448  1.00  0.00    -0.235 C  
HETATM   21  C   UNL     1      -8.778  10.885  65.988  1.00  0.00    -0.192 C  
BRANCH  19  22
HETATM   22  C   UNL     1      -8.806   8.683  68.394  1.00  0.00    -0.142 C  
BRANCH  22  23
HETATM   23  C   UNL     1      -9.360   7.584  69.290  1.00  0.00    -0.151 A  
HETATM   24  C   UNL     1      -8.482   6.743  69.989  1.00  0.00    -0.140 A  
HETATM   25  C   UNL     1      -8.966   5.657  70.720  1.00  0.00    -0.154 A  
HETATM   26  C   UNL     1     -10.334   5.397  70.762  1.00  0.00    -0.322 A  
HETATM   27  C   UNL     1     -11.221   6.226  70.076  1.00  0.00    -0.480 A  
HETATM   28  C   UNL     1     -10.739   7.316  69.346  1.00  0.00    -0.236 A  
ENDBRANCH  22  23
ENDBRANCH  19  22
ENDBRANCH  15  16
ENDBRANCH  11  15
ENDBRANCH   2   3
TORSDOF 6
ENDMDL
MODEL       80
REMARK 921   NORMALIZED FREE ENERGY PREDICTED BY IDOCK:   -4.96 KCAL/MOL
REMARK 922        TOTAL FREE ENERGY PREDICTED BY IDOCK:   -7.43 KCAL/MOL
REMARK 923 INTER-LIGAND FREE ENERGY PREDICTED BY IDOCK:   -7.58 KCAL/MOL
REMARK 924 INTRA-LIGAND FREE ENERGY PREDICTED BY IDOCK:    0.15 KCAL/MOL
REMARK 927      BINDING AFFINITY PREDICTED BY RF-SCORE:    0.00 PKD
ROOT
HETATM    1  C   UNL     1      -7.300   6.584  66.895  1.00  0.00    -0.079 C  
HETATM    2  O   UNL     1      -8.022   6.953  65.729  1.00  0.00    -0.103 OA 
ENDROOT
BRANCH   2   3
HETATM    3  C   UNL     1      -8.842   8.048  65.806  1.00  0.00    -0.132 A  
HETATM    4  C   UNL     1      -8.733   8.968  64.729  1.00  0.00    -0.153 A  
HETATM    5  C   UNL     1      -9.637  10.012  64.578  1.00  0.00    -0.346 A  
HETATM    6  C   UNL     1      -9.700   8.338  66.883  1.00  0.00    -0.291 A  
HETATM    7  C   UNL     1     -10.406   9.529  66.841  1.00  0.00    -0.307 A  
HETATM    8  C   UNL     1     -10.454  10.253  65.652  1.00  0.00    -0.152 A  
HETATM    9  C   UNL     1     -11.165  11.481  65.909  1.00  0.00    -0.177 C  
HETATM   10  O   UNL     1     -11.735  12.150  65.056  1.00  0.00    -0.351 OA 
HETATM   11  C   UNL     1     -10.996  11.753  67.374  1.00  0.00    -0.314 C  
HETATM   12  C   UNL     1     -11.101  10.303  67.943  1.00  0.00    -0.341 C  
BRANCH   4  13
HETATM   13  O   UNL     1      -7.648   8.880  63.883  1.00  0.00    -0.111 OA 
HETATM   14  C   UNL     1      -8.058   8.717  62.517  1.00  0.00    -0.169 C  
ENDBRANCH   4  13
BRANCH  11  15
HETATM   15  C   UNL     1     -11.739  13.003  67.858  1.00  0.00    -0.402 C  
BRANCH  15  16
HETATM   16  C   UNL     1     -10.899  14.218  68.281  1.00  0.00    -0.256 C  
HETATM   17  C   UNL     1      -9.423  14.002  67.983  1.00  0.00    -0.206 C  
HETATM   18  C   UNL     1      -9.153  14.070  66.485  1.00  0.00    -0.150 C  
HETATM   19  N   UNL     1      -9.412  15.409  65.954  1.00  0.00    -0.342 NA 
HETATM   20  C   UNL     1     -10.812  15.785  66.188  1.00  0.00    -0.240 C  
HETATM   21  C   UNL     1     -11.358  15.536  67.606  1.00  0.00    -0.260 C  
BRANCH  19  22
HETATM   22  C   UNL     1      -8.439  16.407  66.442  1.00  0.00    -0.329 C  
BRANCH  22  23
HETATM   23  C   UNL     1      -9.126  17.638  67.016  1.00  0.00    -0.256 A  
HETATM   24  C   UNL     1      -9.710  18.578  66.154  1.00  0.00    -0.241 A  
HETATM   25  C   UNL     1     -10.239  19.769  66.651  1.00  0.00    -0.595 A  
HETATM   26  C   UNL     1     -10.192  20.038  68.018  1.00  0.00    -0.538 A  
HETATM   27  C   UNL     1      -9.619  19.112  68.889  1.00  0.00    -0.447 A  
HETATM   28  C   UNL     1      -9.091  17.916  68.393  1.00  0.00    -0.292 A  
ENDBRANCH  22  23
ENDBRANCH  19  22
ENDBRANCH  15  16
ENDBRANCH  11  15
ENDBRANCH   2   3
TORSDOF 6
ENDMDL
MODEL       81
REMARK 921   NORMALIZED FREE ENERGY PREDICTED BY IDOCK:   -4.93 KCAL/MOL
REMARK 922        TOTAL FREE ENERGY PREDICTED BY IDOCK:   -7.40 KCAL/MOL
REMARK 923 INTER-LIGAND FREE ENERGY PREDICTED BY IDOCK:   -6.62 KCAL/MOL
REMARK 924 INTRA-LIGAND FREE ENERGY PREDICTED BY IDOCK:   -0.78 KCAL/MOL
REMARK 927      BINDING AFFINITY PREDICTED BY RF-SCORE:    0.00 PKD
ROOT
HETATM    1  C   UNL     1     -10.437   4.819  66.255  1.00  0.00    -0.269 C  
HETATM    2  O   UNL     1     -11.201   5.905  66.760  1.00  0.00    -0.184 OA 
ENDROOT
BRANCH   2   3
HETATM    3  C   UNL     1     -10.521   6.982  67.265  1.00  0.00    -0.293 A  
HETATM    4  C   UNL     1     -10.316   6.969  68.671  1.00  0.00    -0.186 A  
HETATM    5  C   UNL     1      -9.479   7.890  69.287  1.00  0.00    -0.152 A  
HETATM    6  C   UNL     1     -10.094   8.091  66.512  1.00  0.00    -0.270 A  
HETATM    7  C   UNL     1      -9.487   9.135  67.191  1.00  0.00    -0.197 A  
HETATM    8  C   UNL     1      -9.085   8.950  68.511  1.00  0.00    -0.137 A  
HETATM    9  C   UNL     1      -8.577  10.207  69.001  1.00  0.00    -0.156 C  
HETATM   10  O   UNL     1      -7.795  10.328  69.935  1.00  0.00    -0.166 OA 
HETATM   11  C   UNL     1      -9.243  11.268  68.176  1.00  0.00    -0.170 C  
HETATM   12  C   UNL     1      -9.249  10.574  66.778  1.00  0.00    -0.175 C  
BRANCH   4  13
HETATM   13  O   UNL     1     -11.048   6.092  69.444  1.00  0.00    -0.366 OA 
HETATM   14  C   UNL     1     -11.770   6.779  70.477  1.00  0.00    -0.375 C  
ENDBRANCH   4  13
BRANCH  11  15
HETATM   15  C   UNL     1      -8.783  12.689  68.513  1.00  0.00    -0.048 C  
BRANCH  15  16
HETATM   16  C   UNL     1      -9.469  13.857  67.787  1.00  0.00    -0.214 C  
HETATM   17  C   UNL     1     -10.126  14.812  68.774  1.00  0.00    -0.237 C  
HETATM   18  C   UNL     1      -9.079  15.620  69.531  1.00  0.00    -0.240 C  
HETATM   19  N   UNL     1      -8.340  16.513  68.637  1.00  0.00    -0.224 NA 
HETATM   20  C   UNL     1      -7.658  15.736  67.595  1.00  0.00    -0.156 C  
HETATM   21  C   UNL     1      -8.500  14.661  66.882  1.00  0.00    -0.203 C  
BRANCH  19  22
HETATM   22  C   UNL     1      -9.183  17.605  68.110  1.00  0.00    -0.282 C  
BRANCH  22  23
HETATM   23  C   UNL     1      -8.356  18.820  67.714  1.00  0.00    -0.293 A  
HETATM   24  C   UNL     1      -8.297  19.216  66.369  1.00  0.00    -0.326 A  
HETATM   25  C   UNL     1      -7.452  20.252  65.968  1.00  0.00    -0.246 A  
HETATM   26  C   UNL     1      -6.656  20.907  66.906  1.00  0.00    -0.380 A  
HETATM   27  C   UNL     1      -6.707  20.530  68.247  1.00  0.00    -0.286 A  
HETATM   28  C   UNL     1      -7.554  19.494  68.651  1.00  0.00    -0.389 A  
ENDBRANCH  22  23
ENDBRANCH  19  22
ENDBRANCH  15  16
ENDBRANCH  11  15
ENDBRANCH   2   3
TORSDOF 6
ENDMDL
MODEL       82
REMARK 921   NORMALIZED FREE ENERGY PREDICTED BY IDOCK:   -4.91 KCAL/MOL
REMARK 922        TOTAL FREE ENERGY PREDICTED BY IDOCK:   -7.37 KCAL/MOL
REMARK 923 INTER-LIGAND FREE ENERGY PREDICTED BY IDOCK:   -6.63 KCAL/MOL
REMARK 924 INTRA-LIGAND FREE ENERGY PREDICTED BY IDOCK:   -0.74 KCAL/MOL
REMARK 927      BINDING AFFINITY PREDICTED BY RF-SCORE:    0.00 PKD
ROOT
HETATM    1  C   UNL     1     -11.574  14.631  65.737  1.00  0.00    -0.328 C  
HETATM    2  O   UNL     1     -10.619  14.180  66.687  1.00  0.00    -0.275 OA 
ENDROOT
BRANCH   2   3
HETATM    3  C   UNL     1     -11.065  13.389  67.712  1.00  0.00    -0.268 A  
HETATM    4  C   UNL     1     -11.389  14.074  68.914  1.00  0.00    -0.280 A  
HETATM    5  C   UNL     1     -12.034  13.428  69.962  1.00  0.00    -0.407 A  
HETATM    6  C   UNL     1     -11.150  11.985  67.670  1.00  0.00    -0.319 A  
HETATM    7  C   UNL     1     -11.548  11.328  68.823  1.00  0.00    -0.383 A  
HETATM    8  C   UNL     1     -12.096  12.062  69.872  1.00  0.00    -0.334 A  
HETATM    9  C   UNL     1     -12.331  11.157  70.970  1.00  0.00    -0.382 C  
HETATM   10  O   UNL     1     -13.141  11.347  71.869  1.00  0.00    -0.492 OA 
HETATM   11  C   UNL     1     -11.363  10.028  70.786  1.00  0.00    -0.439 C  
HETATM   12  C   UNL     1     -11.400   9.877  69.232  1.00  0.00    -0.116 C  
BRANCH   4  13
HETATM   13  O   UNL     1     -10.957  15.373  69.079  1.00  0.00    -0.228 OA 
HETATM   14  C   UNL     1      -9.578  15.422  69.476  1.00  0.00    -0.257 C  
ENDBRANCH   4  13
BRANCH  11  15
HETATM   15  C   UNL     1     -11.500   8.921  71.836  1.00  0.00    -0.442 C  
BRANCH  15  16
HETATM   16  C   UNL     1     -10.228   8.458  72.563  1.00  0.00    -0.369 C  
HETATM   17  C   UNL     1     -10.308   6.985  72.935  1.00  0.00    -0.267 C  
HETATM   18  C   UNL     1     -10.179   6.102  71.700  1.00  0.00    -0.198 C  
HETATM   19  N   UNL     1      -8.854   6.224  71.090  1.00  0.00    -0.142 NA 
HETATM   20  C   UNL     1      -8.606   7.615  70.690  1.00  0.00    -0.135 C  
HETATM   21  C   UNL     1      -8.938   8.696  71.736  1.00  0.00    -0.307 C  
BRANCH  19  22
HETATM   22  C   UNL     1      -7.789   5.650  71.936  1.00  0.00    -0.106 C  
BRANCH  22  23
HETATM   23  C   UNL     1      -6.937   4.644  71.173  1.00  0.00    -0.039 A  
HETATM   24  C   UNL     1      -6.896   4.685  69.772  1.00  0.00    -0.044 A  
HETATM   25  C   UNL     1      -6.218   3.701  69.050  1.00  0.00    -0.028 A  
HETATM   26  C   UNL     1      -5.573   2.664  69.719  1.00  0.00    -0.017 A  
HETATM   27  C   UNL     1      -5.600   2.611  71.112  1.00  0.00    -0.012 A  
HETATM   28  C   UNL     1      -6.275   3.597  71.837  1.00  0.00    -0.014 A  
ENDBRANCH  22  23
ENDBRANCH  19  22
ENDBRANCH  15  16
ENDBRANCH  11  15
ENDBRANCH   2   3
TORSDOF 6
ENDMDL
MODEL       83
REMARK 921   NORMALIZED FREE ENERGY PREDICTED BY IDOCK:   -4.87 KCAL/MOL
REMARK 922        TOTAL FREE ENERGY PREDICTED BY IDOCK:   -7.31 KCAL/MOL
REMARK 923 INTER-LIGAND FREE ENERGY PREDICTED BY IDOCK:   -6.32 KCAL/MOL
REMARK 924 INTRA-LIGAND FREE ENERGY PREDICTED BY IDOCK:   -0.99 KCAL/MOL
REMARK 927      BINDING AFFINITY PREDICTED BY RF-SCORE:    0.00 PKD
ROOT
HETATM    1  C   UNL     1      -7.913   6.703  64.309  1.00  0.00    -0.092 C  
HETATM    2  O   UNL     1      -8.784   6.939  65.406  1.00  0.00    -0.094 OA 
ENDROOT
BRANCH   2   3
HETATM    3  C   UNL     1      -8.757   8.180  65.986  1.00  0.00    -0.156 A  
HETATM    4  C   UNL     1      -7.882   8.316  67.096  1.00  0.00    -0.097 A  
HETATM    5  C   UNL     1      -7.608   9.559  67.652  1.00  0.00    -0.094 A  
HETATM    6  C   UNL     1      -9.568   9.265  65.604  1.00  0.00    -0.324 A  
HETATM    7  C   UNL     1      -9.473  10.432  66.346  1.00  0.00    -0.209 A  
HETATM    8  C   UNL     1      -8.421  10.585  67.246  1.00  0.00    -0.122 A  
HETATM    9  C   UNL     1      -8.614  11.832  67.944  1.00  0.00    -0.156 C  
HETATM   10  O   UNL     1      -7.724  12.472  68.490  1.00  0.00    -0.129 OA 
HETATM   11  C   UNL     1     -10.087  12.107  67.893  1.00  0.00    -0.199 C  
HETATM   12  C   UNL     1     -10.415  11.614  66.448  1.00  0.00    -0.283 C  
BRANCH   4  13
HETATM   13  O   UNL     1      -7.382   7.178  67.695  1.00  0.00    -0.088 OA 
HETATM   14  C   UNL     1      -7.874   7.031  69.035  1.00  0.00    -0.115 C  
ENDBRANCH   4  13
BRANCH  11  15
HETATM   15  C   UNL     1     -10.489  13.436  68.540  1.00  0.00    -0.260 C  
BRANCH  15  16
HETATM   16  C   UNL     1     -10.710  14.646  67.620  1.00  0.00    -0.271 C  
HETATM   17  C   UNL     1     -11.461  15.758  68.339  1.00  0.00    -0.367 C  
HETATM   18  C   UNL     1     -10.571  16.439  69.371  1.00  0.00    -0.317 C  
HETATM   19  N   UNL     1      -9.453  17.141  68.737  1.00  0.00    -0.273 NA 
HETATM   20  C   UNL     1      -8.631  16.196  67.970  1.00  0.00    -0.171 C  
HETATM   21  C   UNL     1      -9.389  15.223  67.048  1.00  0.00    -0.238 C  
BRANCH  19  22
HETATM   22  C   UNL     1      -9.895  18.314  67.957  1.00  0.00    -0.330 C  
BRANCH  22  23
HETATM   23  C   UNL     1      -8.721  19.176  67.513  1.00  0.00    -0.322 A  
HETATM   24  C   UNL     1      -8.498  19.401  66.147  1.00  0.00    -0.303 A  
HETATM   25  C   UNL     1      -7.362  20.087  65.714  1.00  0.00    -0.321 A  
HETATM   26  C   UNL     1      -6.435  20.558  66.642  1.00  0.00    -0.283 A  
HETATM   27  C   UNL     1      -6.645  20.347  68.004  1.00  0.00    -0.340 A  
HETATM   28  C   UNL     1      -7.782  19.663  68.440  1.00  0.00    -0.366 A  
ENDBRANCH  22  23
ENDBRANCH  19  22
ENDBRANCH  15  16
ENDBRANCH  11  15
ENDBRANCH   2   3
TORSDOF 6
ENDMDL
MODEL       84
REMARK 921   NORMALIZED FREE ENERGY PREDICTED BY IDOCK:   -4.85 KCAL/MOL
REMARK 922        TOTAL FREE ENERGY PREDICTED BY IDOCK:   -7.29 KCAL/MOL
REMARK 923 INTER-LIGAND FREE ENERGY PREDICTED BY IDOCK:   -6.36 KCAL/MOL
REMARK 924 INTRA-LIGAND FREE ENERGY PREDICTED BY IDOCK:   -0.94 KCAL/MOL
REMARK 927      BINDING AFFINITY PREDICTED BY RF-SCORE:    0.00 PKD
ROOT
HETATM    1  C   UNL     1      -9.122   2.718  69.948  1.00  0.00    -0.120 C  
HETATM    2  O   UNL     1      -9.964   3.826  70.231  1.00  0.00    -0.134 OA 
ENDROOT
BRANCH   2   3
HETATM    3  C   UNL     1      -9.705   5.005  69.583  1.00  0.00    -0.196 A  
HETATM    4  C   UNL     1      -8.898   5.930  70.299  1.00  0.00    -0.143 A  
HETATM    5  C   UNL     1      -8.397   7.074  69.689  1.00  0.00    -0.133 A  
HETATM    6  C   UNL     1     -10.229   5.367  68.328  1.00  0.00    -0.224 A  
HETATM    7  C   UNL     1      -9.931   6.632  67.847  1.00  0.00    -0.152 A  
HETATM    8  C   UNL     1      -8.935   7.382  68.467  1.00  0.00    -0.128 A  
HETATM    9  C   UNL     1      -8.896   8.677  67.834  1.00  0.00    -0.137 C  
HETATM   10  O   UNL     1      -7.926   9.424  67.832  1.00  0.00    -0.092 OA 
HETATM   11  C   UNL     1     -10.266   8.896  67.264  1.00  0.00    -0.326 C  
HETATM   12  C   UNL     1     -10.595   7.455  66.761  1.00  0.00    -0.281 C  
BRANCH   4  13
HETATM   13  O   UNL     1      -8.702   5.738  71.650  1.00  0.00    -0.134 OA 
HETATM   14  C   UNL     1      -7.311   5.567  71.960  1.00  0.00    -0.093 C  
ENDBRANCH   4  13
BRANCH  11  15
HETATM   15  C   UNL     1     -10.409  10.211  66.491  1.00  0.00    -0.270 C  
BRANCH  15  16
HETATM   16  C   UNL     1     -11.259  11.325  67.120  1.00  0.00    -0.344 C  
HETATM   17  C   UNL     1     -10.653  11.813  68.428  1.00  0.00    -0.239 C  
HETATM   18  C   UNL     1      -9.391  12.628  68.175  1.00  0.00    -0.210 C  
HETATM   19  N   UNL     1      -9.689  13.869  67.457  1.00  0.00    -0.228 NA 
HETATM   20  C   UNL     1     -10.312  13.569  66.162  1.00  0.00    -0.296 C  
HETATM   21  C   UNL     1     -11.459  12.540  66.178  1.00  0.00    -0.426 C  
BRANCH  19  22
HETATM   22  C   UNL     1     -10.457  14.824  68.280  1.00  0.00    -0.241 C  
BRANCH  22  23
HETATM   23  C   UNL     1      -9.845  16.218  68.254  1.00  0.00    -0.227 A  
HETATM   24  C   UNL     1      -8.457  16.368  68.123  1.00  0.00    -0.188 A  
HETATM   25  C   UNL     1      -7.864  17.629  68.216  1.00  0.00    -0.256 A  
HETATM   26  C   UNL     1      -8.652  18.756  68.441  1.00  0.00    -0.373 A  
HETATM   27  C   UNL     1     -10.034  18.624  68.569  1.00  0.00    -0.430 A  
HETATM   28  C   UNL     1     -10.630  17.363  68.473  1.00  0.00    -0.340 A  
ENDBRANCH  22  23
ENDBRANCH  19  22
ENDBRANCH  15  16
ENDBRANCH  11  15
ENDBRANCH   2   3
TORSDOF 6
ENDMDL
MODEL       85
REMARK 921   NORMALIZED FREE ENERGY PREDICTED BY IDOCK:   -4.83 KCAL/MOL
REMARK 922        TOTAL FREE ENERGY PREDICTED BY IDOCK:   -7.26 KCAL/MOL
REMARK 923 INTER-LIGAND FREE ENERGY PREDICTED BY IDOCK:   -6.37 KCAL/MOL
REMARK 924 INTRA-LIGAND FREE ENERGY PREDICTED BY IDOCK:   -0.89 KCAL/MOL
REMARK 927      BINDING AFFINITY PREDICTED BY RF-SCORE:    0.00 PKD
ROOT
HETATM    1  C   UNL     1     -10.029   1.805  71.933  1.00  0.00    -0.151 C  
HETATM    2  O   UNL     1     -10.371   3.144  72.263  1.00  0.00    -0.137 OA 
ENDROOT
BRANCH   2   3
HETATM    3  C   UNL     1      -9.859   4.144  71.480  1.00  0.00    -0.184 A  
HETATM    4  C   UNL     1      -9.725   5.408  72.116  1.00  0.00    -0.162 A  
HETATM    5  C   UNL     1      -9.042   6.453  71.508  1.00  0.00    -0.144 A  
HETATM    6  C   UNL     1      -9.535   4.016  70.117  1.00  0.00    -0.258 A  
HETATM    7  C   UNL     1      -9.099   5.149  69.449  1.00  0.00    -0.144 A  
HETATM    8  C   UNL     1      -8.745   6.280  70.181  1.00  0.00    -0.138 A  
HETATM    9  C   UNL     1      -8.424   7.330  69.247  1.00  0.00    -0.133 C  
HETATM   10  O   UNL     1      -7.711   8.294  69.498  1.00  0.00    -0.096 OA 
HETATM   11  C   UNL     1      -9.175   7.005  67.990  1.00  0.00    -0.129 C  
HETATM   12  C   UNL     1      -9.023   5.451  67.966  1.00  0.00    -0.110 C  
BRANCH   4  13
HETATM   13  O   UNL     1     -10.380   5.626  73.310  1.00  0.00    -0.186 OA 
HETATM   14  C   UNL     1     -10.218   6.981  73.757  1.00  0.00    -0.363 C  
ENDBRANCH   4  13
BRANCH  11  15
HETATM   15  C   UNL     1      -8.913   7.988  66.845  1.00  0.00    -0.160 C  
BRANCH  15  16
HETATM   16  C   UNL     1     -10.091   8.839  66.345  1.00  0.00    -0.313 C  
HETATM   17  C   UNL     1     -10.766   9.577  67.492  1.00  0.00    -0.311 C  
HETATM   18  C   UNL     1      -9.888  10.712  68.002  1.00  0.00    -0.160 C  
HETATM   19  N   UNL     1      -9.712  11.753  66.987  1.00  0.00    -0.184 NA 
HETATM   20  C   UNL     1      -9.084  11.188  65.786  1.00  0.00    -0.206 C  
HETATM   21  C   UNL     1      -9.678   9.867  65.261  1.00  0.00    -0.383 C  
BRANCH  19  22
HETATM   22  C   UNL     1     -10.962  12.490  66.715  1.00  0.00    -0.265 C  
BRANCH  22  23
HETATM   23  C   UNL     1     -11.153  13.659  67.672  1.00  0.00    -0.293 A  
HETATM   24  C   UNL     1     -11.869  13.475  68.864  1.00  0.00    -0.384 A  
HETATM   25  C   UNL     1     -12.157  14.558  69.696  1.00  0.00    -0.369 A  
HETATM   26  C   UNL     1     -11.733  15.839  69.348  1.00  0.00    -0.379 A  
HETATM   27  C   UNL     1     -11.016  16.038  68.169  1.00  0.00    -0.339 A  
HETATM   28  C   UNL     1     -10.724  14.954  67.335  1.00  0.00    -0.292 A  
ENDBRANCH  22  23
ENDBRANCH  19  22
ENDBRANCH  15  16
ENDBRANCH  11  15
ENDBRANCH   2   3
TORSDOF 6
ENDMDL
MODEL       86
REMARK 921   NORMALIZED FREE ENERGY PREDICTED BY IDOCK:   -4.82 KCAL/MOL
REMARK 922        TOTAL FREE ENERGY PREDICTED BY IDOCK:   -7.25 KCAL/MOL
REMARK 923 INTER-LIGAND FREE ENERGY PREDICTED BY IDOCK:   -6.72 KCAL/MOL
REMARK 924 INTRA-LIGAND FREE ENERGY PREDICTED BY IDOCK:   -0.53 KCAL/MOL
REMARK 927      BINDING AFFINITY PREDICTED BY RF-SCORE:    0.00 PKD
ROOT
HETATM    1  C   UNL     1      -9.506  20.837  67.342  1.00  0.00    -0.311 C  
HETATM    2  O   UNL     1      -8.404  20.083  66.858  1.00  0.00    -0.303 OA 
ENDROOT
BRANCH   2   3
HETATM    3  C   UNL     1      -8.477  18.717  66.948  1.00  0.00    -0.279 A  
HETATM    4  C   UNL     1      -7.230  18.037  66.911  1.00  0.00    -0.198 A  
HETATM    5  C   UNL     1      -7.141  16.678  67.188  1.00  0.00    -0.221 A  
HETATM    6  C   UNL     1      -9.671  17.975  67.001  1.00  0.00    -0.303 A  
HETATM    7  C   UNL     1      -9.571  16.593  67.011  1.00  0.00    -0.250 A  
HETATM    8  C   UNL     1      -8.331  16.000  67.235  1.00  0.00    -0.205 A  
HETATM    9  C   UNL     1      -8.492  14.573  67.099  1.00  0.00    -0.212 C  
HETATM   10  O   UNL     1      -7.753  13.737  67.602  1.00  0.00    -0.150 OA 
HETATM   11  C   UNL     1      -9.676  14.377  66.201  1.00  0.00    -0.335 C  
HETATM   12  C   UNL     1     -10.604  15.528  66.704  1.00  0.00    -0.307 C  
BRANCH   4  13
HETATM   13  O   UNL     1      -6.110  18.719  66.487  1.00  0.00    -0.159 OA 
HETATM   14  C   UNL     1      -5.798  18.418  65.118  1.00  0.00    -0.195 C  
ENDBRANCH   4  13
BRANCH  11  15
HETATM   15  C   UNL     1     -10.046  12.907  65.980  1.00  0.00    -0.290 C  
BRANCH  15  16
HETATM   16  C   UNL     1     -11.268  12.353  66.729  1.00  0.00    -0.363 C  
HETATM   17  C   UNL     1     -11.128  10.861  66.989  1.00  0.00    -0.271 C  
HETATM   18  C   UNL     1     -10.082  10.590  68.064  1.00  0.00    -0.165 C  
HETATM   19  N   UNL     1     -10.496  11.122  69.363  1.00  0.00    -0.152 NA 
HETATM   20  C   UNL     1     -10.702  12.573  69.274  1.00  0.00     0.072 C  
HETATM   21  C   UNL     1     -11.531  13.074  68.077  1.00  0.00    -0.348 C  
BRANCH  19  22
HETATM   22  C   UNL     1     -11.648  10.392  69.929  1.00  0.00    -0.284 C  
BRANCH  22  23
HETATM   23  C   UNL     1     -11.216   9.136  70.673  1.00  0.00    -0.322 A  
HETATM   24  C   UNL     1     -10.108   9.180  71.532  1.00  0.00    -0.381 A  
HETATM   25  C   UNL     1      -9.624   8.016  72.130  1.00  0.00    -0.277 A  
HETATM   26  C   UNL     1     -10.239   6.792  71.877  1.00  0.00    -0.206 A  
HETATM   27  C   UNL     1     -11.344   6.731  71.029  1.00  0.00    -0.356 A  
HETATM   28  C   UNL     1     -11.833   7.896  70.431  1.00  0.00     0.059 A  
ENDBRANCH  22  23
ENDBRANCH  19  22
ENDBRANCH  15  16
ENDBRANCH  11  15
ENDBRANCH   2   3
TORSDOF 6
ENDMDL
MODEL       87
REMARK 921   NORMALIZED FREE ENERGY PREDICTED BY IDOCK:   -4.79 KCAL/MOL
REMARK 922        TOTAL FREE ENERGY PREDICTED BY IDOCK:   -7.21 KCAL/MOL
REMARK 923 INTER-LIGAND FREE ENERGY PREDICTED BY IDOCK:   -6.79 KCAL/MOL
REMARK 924 INTRA-LIGAND FREE ENERGY PREDICTED BY IDOCK:   -0.42 KCAL/MOL
REMARK 927      BINDING AFFINITY PREDICTED BY RF-SCORE:    0.00 PKD
ROOT
HETATM    1  C   UNL     1     -13.112   8.321  72.087  1.00  0.00    -0.287 C  
HETATM    2  O   UNL     1     -12.382   7.103  72.076  1.00  0.00    -0.304 OA 
ENDROOT
BRANCH   2   3
HETATM    3  C   UNL     1     -11.450   6.927  71.087  1.00  0.00    -0.304 A  
HETATM    4  C   UNL     1     -10.110   7.226  71.452  1.00  0.00    -0.187 A  
HETATM    5  C   UNL     1      -9.046   6.907  70.618  1.00  0.00    -0.155 A  
HETATM    6  C   UNL     1     -11.741   6.550  69.763  1.00  0.00    -0.293 A  
HETATM    7  C   UNL     1     -10.688   6.492  68.864  1.00  0.00    -0.318 A  
HETATM    8  C   UNL     1      -9.380   6.541  69.340  1.00  0.00    -0.143 A  
HETATM    9  C   UNL     1      -8.495   6.559  68.201  1.00  0.00    -0.116 C  
HETATM   10  O   UNL     1      -7.323   6.205  68.222  1.00  0.00    -0.082 OA 
HETATM   11  C   UNL     1      -9.293   7.136  67.070  1.00  0.00    -0.181 C  
HETATM   12  C   UNL     1     -10.685   6.486  67.349  1.00  0.00    -0.412 C  
BRANCH   4  13
HETATM   13  O   UNL     1      -9.877   7.941  72.608  1.00  0.00    -0.204 OA 
HETATM   14  C   UNL     1      -9.211   7.141  73.596  1.00  0.00    -0.198 C  
ENDBRANCH   4  13
BRANCH  11  15
HETATM   15  C   UNL     1      -8.533   7.184  65.741  1.00  0.00    -0.151 C  
BRANCH  15  16
HETATM   16  C   UNL     1      -8.068   8.556  65.229  1.00  0.00    -0.138 C  
HETATM   17  C   UNL     1      -9.251   9.427  64.830  1.00  0.00    -0.246 C  
HETATM   18  C   UNL     1     -10.013   9.908  66.059  1.00  0.00    -0.268 C  
HETATM   19  N   UNL     1      -9.195  10.803  66.881  1.00  0.00    -0.155 NA 
HETATM   20  C   UNL     1      -7.982  10.109  67.333  1.00  0.00    -0.110 C  
HETATM   21  C   UNL     1      -7.203   9.326  66.259  1.00  0.00    -0.088 C  
BRANCH  19  22
HETATM   22  C   UNL     1      -8.930  12.093  66.215  1.00  0.00    -0.094 C  
BRANCH  22  23
HETATM   23  C   UNL     1     -10.214  12.854  65.915  1.00  0.00    -0.299 A  
HETATM   24  C   UNL     1     -11.172  13.029  66.924  1.00  0.00    -0.331 A  
HETATM   25  C   UNL     1     -12.406  13.618  66.641  1.00  0.00    -0.381 A  
HETATM   26  C   UNL     1     -12.697  14.039  65.345  1.00  0.00    -0.499 A  
HETATM   27  C   UNL     1     -11.754  13.876  64.332  1.00  0.00    -0.427 A  
HETATM   28  C   UNL     1     -10.517  13.290  64.614  1.00  0.00    -0.420 A  
ENDBRANCH  22  23
ENDBRANCH  19  22
ENDBRANCH  15  16
ENDBRANCH  11  15
ENDBRANCH   2   3
TORSDOF 6
ENDMDL
MODEL       88
REMARK 921   NORMALIZED FREE ENERGY PREDICTED BY IDOCK:   -4.79 KCAL/MOL
REMARK 922        TOTAL FREE ENERGY PREDICTED BY IDOCK:   -7.21 KCAL/MOL
REMARK 923 INTER-LIGAND FREE ENERGY PREDICTED BY IDOCK:   -6.62 KCAL/MOL
REMARK 924 INTRA-LIGAND FREE ENERGY PREDICTED BY IDOCK:   -0.59 KCAL/MOL
REMARK 927      BINDING AFFINITY PREDICTED BY RF-SCORE:    0.00 PKD
ROOT
HETATM    1  C   UNL     1      -6.053  10.256  66.691  1.00  0.00    -0.064 C  
HETATM    2  O   UNL     1      -5.919   8.859  66.473  1.00  0.00    -0.054 OA 
ENDROOT
BRANCH   2   3
HETATM    3  C   UNL     1      -6.694   8.018  67.227  1.00  0.00    -0.065 A  
HETATM    4  C   UNL     1      -7.861   7.524  66.585  1.00  0.00    -0.106 A  
HETATM    5  C   UNL     1      -8.627   6.516  67.156  1.00  0.00    -0.111 A  
HETATM    6  C   UNL     1      -6.448   7.686  68.572  1.00  0.00    -0.048 A  
HETATM    7  C   UNL     1      -7.375   6.881  69.216  1.00  0.00    -0.092 A  
HETATM    8  C   UNL     1      -8.348   6.225  68.466  1.00  0.00    -0.115 A  
HETATM    9  C   UNL     1      -9.228   5.542  69.382  1.00  0.00    -0.117 C  
HETATM   10  O   UNL     1      -9.921   4.575  69.094  1.00  0.00    -0.178 OA 
HETATM   11  C   UNL     1      -9.136   6.294  70.676  1.00  0.00    -0.153 C  
HETATM   12  C   UNL     1      -7.614   6.640  70.693  1.00  0.00    -0.095 C  
BRANCH   4  13
HETATM   13  O   UNL     1      -8.293   8.134  65.426  1.00  0.00    -0.142 OA 
HETATM   14  C   UNL     1      -9.389   9.026  65.680  1.00  0.00    -0.222 C  
ENDBRANCH   4  13
BRANCH  11  15
HETATM   15  C   UNL     1      -9.968   5.680  71.806  1.00  0.00    -0.222 C  
BRANCH  15  16
HETATM   16  C   UNL     1     -11.316   6.335  72.145  1.00  0.00    -0.343 C  
HETATM   17  C   UNL     1     -11.131   7.541  73.055  1.00  0.00    -0.413 C  
HETATM   18  C   UNL     1     -10.514   8.709  72.295  1.00  0.00    -0.306 C  
HETATM   19  N   UNL     1     -11.413   9.206  71.253  1.00  0.00    -0.306 NA 
HETATM   20  C   UNL     1     -11.715   8.138  70.291  1.00  0.00     0.100 C  
HETATM   21  C   UNL     1     -12.109   6.774  70.887  1.00  0.00    -0.421 C  
BRANCH  19  22
HETATM   22  C   UNL     1     -12.613   9.861  71.810  1.00  0.00    -0.414 C  
BRANCH  22  23
HETATM   23  C   UNL     1     -12.699  11.327  71.409  1.00  0.00    -0.501 A  
HETATM   24  C   UNL     1     -11.989  11.788  70.291  1.00  0.00    -0.429 A  
HETATM   25  C   UNL     1     -11.958  13.147  69.976  1.00  0.00    -0.391 A  
HETATM   26  C   UNL     1     -12.637  14.065  70.775  1.00  0.00    -0.431 A  
HETATM   27  C   UNL     1     -13.352  13.623  71.888  1.00  0.00    -0.510 A  
HETATM   28  C   UNL     1     -13.387  12.261  72.203  1.00  0.00    -0.473 A  
ENDBRANCH  22  23
ENDBRANCH  19  22
ENDBRANCH  15  16
ENDBRANCH  11  15
ENDBRANCH   2   3
TORSDOF 6
ENDMDL
MODEL       89
REMARK 921   NORMALIZED FREE ENERGY PREDICTED BY IDOCK:   -4.78 KCAL/MOL
REMARK 922        TOTAL FREE ENERGY PREDICTED BY IDOCK:   -7.20 KCAL/MOL
REMARK 923 INTER-LIGAND FREE ENERGY PREDICTED BY IDOCK:   -6.33 KCAL/MOL
REMARK 924 INTRA-LIGAND FREE ENERGY PREDICTED BY IDOCK:   -0.86 KCAL/MOL
REMARK 927      BINDING AFFINITY PREDICTED BY RF-SCORE:    0.00 PKD
ROOT
HETATM    1  C   UNL     1      -5.908  17.697  69.399  1.00  0.00    -0.227 C  
HETATM    2  O   UNL     1      -7.211  17.803  68.843  1.00  0.00    -0.263 OA 
ENDROOT
BRANCH   2   3
HETATM    3  C   UNL     1      -7.749  16.685  68.262  1.00  0.00    -0.183 A  
HETATM    4  C   UNL     1      -9.148  16.736  68.024  1.00  0.00    -0.228 A  
HETATM    5  C   UNL     1      -9.788  15.761  67.268  1.00  0.00    -0.230 A  
HETATM    6  C   UNL     1      -7.036  15.509  67.964  1.00  0.00    -0.136 A  
HETATM    7  C   UNL     1      -7.748  14.438  67.448  1.00  0.00    -0.207 A  
HETATM    8  C   UNL     1      -9.051  14.637  67.000  1.00  0.00    -0.254 A  
HETATM    9  C   UNL     1      -9.585  13.356  66.607  1.00  0.00    -0.270 C  
HETATM   10  O   UNL     1     -10.509  13.196  65.819  1.00  0.00    -0.273 OA 
HETATM   11  C   UNL     1      -8.820  12.334  67.395  1.00  0.00    -0.185 C  
HETATM   12  C   UNL     1      -7.393  12.967  67.364  1.00  0.00    -0.132 C  
BRANCH   4  13
HETATM   13  O   UNL     1      -9.896  17.713  68.647  1.00  0.00    -0.314 OA 
HETATM   14  C   UNL     1     -10.592  18.529  67.693  1.00  0.00    -0.414 C  
ENDBRANCH   4  13
BRANCH  11  15
HETATM   15  C   UNL     1      -9.209  10.889  67.069  1.00  0.00    -0.165 C  
BRANCH  15  16
HETATM   16  C   UNL     1     -10.430  10.294  67.788  1.00  0.00    -0.269 C  
HETATM   17  C   UNL     1     -10.511   8.788  67.587  1.00  0.00    -0.310 C  
HETATM   18  C   UNL     1      -9.428   8.072  68.385  1.00  0.00    -0.145 C  
HETATM   19  N   UNL     1      -9.629   8.232  69.826  1.00  0.00    -0.170 NA 
HETATM   20  C   UNL     1      -9.603   9.656  70.187  1.00  0.00    -0.254 C  
HETATM   21  C   UNL     1     -10.447  10.598  69.308  1.00  0.00    -0.252 C  
BRANCH  19  22
HETATM   22  C   UNL     1     -10.827   7.518  70.311  1.00  0.00    -0.246 C  
BRANCH  22  23
HETATM   23  C   UNL     1     -10.464   6.339  71.203  1.00  0.00    -0.271 A  
HETATM   24  C   UNL     1     -10.009   6.566  72.510  1.00  0.00    -0.184 A  
HETATM   25  C   UNL     1      -9.559   5.509  73.302  1.00  0.00    -0.152 A  
HETATM   26  C   UNL     1      -9.558   4.210  72.798  1.00  0.00    -0.170 A  
HETATM   27  C   UNL     1     -10.011   3.966  71.502  1.00  0.00    -0.209 A  
HETATM   28  C   UNL     1     -10.465   5.023  70.708  1.00  0.00    -0.222 A  
ENDBRANCH  22  23
ENDBRANCH  19  22
ENDBRANCH  15  16
ENDBRANCH  11  15
ENDBRANCH   2   3
TORSDOF 6
ENDMDL
MODEL       90
REMARK 921   NORMALIZED FREE ENERGY PREDICTED BY IDOCK:   -4.78 KCAL/MOL
REMARK 922        TOTAL FREE ENERGY PREDICTED BY IDOCK:   -7.19 KCAL/MOL
REMARK 923 INTER-LIGAND FREE ENERGY PREDICTED BY IDOCK:   -6.30 KCAL/MOL
REMARK 924 INTRA-LIGAND FREE ENERGY PREDICTED BY IDOCK:   -0.90 KCAL/MOL
REMARK 927      BINDING AFFINITY PREDICTED BY RF-SCORE:    0.00 PKD
ROOT
HETATM    1  C   UNL     1     -11.311  16.261  68.836  1.00  0.00    -0.317 C  
HETATM    2  O   UNL     1     -10.772  15.901  67.573  1.00  0.00    -0.310 OA 
ENDROOT
BRANCH   2   3
HETATM    3  C   UNL     1     -10.555  14.571  67.328  1.00  0.00    -0.280 A  
HETATM    4  C   UNL     1     -10.733  14.162  65.979  1.00  0.00    -0.299 A  
HETATM    5  C   UNL     1     -10.359  12.893  65.554  1.00  0.00    -0.304 A  
HETATM    6  C   UNL     1     -10.248  13.610  68.309  1.00  0.00    -0.243 A  
HETATM    7  C   UNL     1     -10.136  12.289  67.905  1.00  0.00    -0.200 A  
HETATM    8  C   UNL     1     -10.064  11.995  66.546  1.00  0.00    -0.224 A  
HETATM    9  C   UNL     1     -10.049  10.560  66.403  1.00  0.00    -0.228 C  
HETATM   10  O   UNL     1      -9.601   9.959  65.435  1.00  0.00    -0.244 OA 
HETATM   11  C   UNL     1     -10.726  10.019  67.628  1.00  0.00    -0.340 C  
HETATM   12  C   UNL     1     -10.181  11.005  68.708  1.00  0.00    -0.211 C  
BRANCH   4  13
HETATM   13  O   UNL     1     -11.388  15.006  65.107  1.00  0.00    -0.360 OA 
HETATM   14  C   UNL     1     -12.503  14.352  64.482  1.00  0.00    -0.339 C  
ENDBRANCH   4  13
BRANCH  11  15
HETATM   15  C   UNL     1     -10.757   8.489  67.689  1.00  0.00    -0.189 C  
BRANCH  15  16
HETATM   16  C   UNL     1      -9.500   7.764  68.194  1.00  0.00    -0.152 C  
HETATM   17  C   UNL     1      -9.512   7.628  69.710  1.00  0.00    -0.156 C  
HETATM   18  C   UNL     1     -10.543   6.599  70.157  1.00  0.00    -0.221 C  
HETATM   19  N   UNL     1     -10.193   5.253  69.700  1.00  0.00    -0.259 NA 
HETATM   20  C   UNL     1     -10.115   5.221  68.233  1.00  0.00    -0.155 C  
HETATM   21  C   UNL     1      -9.318   6.358  67.566  1.00  0.00    -0.119 C  
BRANCH  19  22
HETATM   22  C   UNL     1      -8.988   4.726  70.371  1.00  0.00    -0.104 C  
BRANCH  22  23
HETATM   23  C   UNL     1      -9.249   4.403  71.836  1.00  0.00    -0.174 A  
HETATM   24  C   UNL     1     -10.251   3.485  72.180  1.00  0.00    -0.153 A  
HETATM   25  C   UNL     1     -10.586   3.264  73.517  1.00  0.00    -0.286 A  
HETATM   26  C   UNL     1      -9.924   3.959  74.527  1.00  0.00    -0.205 A  
HETATM   27  C   UNL     1      -8.922   4.872  74.202  1.00  0.00    -0.112 A  
HETATM   28  C   UNL     1      -8.583   5.093  72.864  1.00  0.00    -0.115 A  
ENDBRANCH  22  23
ENDBRANCH  19  22
ENDBRANCH  15  16
ENDBRANCH  11  15
ENDBRANCH   2   3
TORSDOF 6
ENDMDL
MODEL       91
REMARK 921   NORMALIZED FREE ENERGY PREDICTED BY IDOCK:   -4.77 KCAL/MOL
REMARK 922        TOTAL FREE ENERGY PREDICTED BY IDOCK:   -7.18 KCAL/MOL
REMARK 923 INTER-LIGAND FREE ENERGY PREDICTED BY IDOCK:   -7.07 KCAL/MOL
REMARK 924 INTRA-LIGAND FREE ENERGY PREDICTED BY IDOCK:   -0.12 KCAL/MOL
REMARK 927      BINDING AFFINITY PREDICTED BY RF-SCORE:    0.00 PKD
ROOT
HETATM    1  C   UNL     1      -6.583  19.416  65.299  1.00  0.00    -0.266 C  
HETATM    2  O   UNL     1      -6.583  18.018  65.554  1.00  0.00    -0.312 OA 
ENDROOT
BRANCH   2   3
HETATM    3  C   UNL     1      -7.551  17.522  66.387  1.00  0.00    -0.294 A  
HETATM    4  C   UNL     1      -7.432  17.896  67.752  1.00  0.00    -0.206 A  
HETATM    5  C   UNL     1      -8.445  17.630  68.665  1.00  0.00    -0.266 A  
HETATM    6  C   UNL     1      -8.577  16.641  65.996  1.00  0.00    -0.229 A  
HETATM    7  C   UNL     1      -9.431  16.170  66.980  1.00  0.00    -0.233 A  
HETATM    8  C   UNL     1      -9.423  16.771  68.236  1.00  0.00    -0.240 A  
HETATM    9  C   UNL     1     -10.326  16.034  69.085  1.00  0.00    -0.247 C  
HETATM   10  O   UNL     1     -10.866  16.485  70.088  1.00  0.00    -0.321 OA 
HETATM   11  C   UNL     1     -10.394  14.651  68.510  1.00  0.00    -0.238 C  
HETATM   12  C   UNL     1     -10.368  14.980  66.984  1.00  0.00    -0.269 C  
BRANCH   4  13
HETATM   13  O   UNL     1      -6.242  18.434  68.195  1.00  0.00    -0.183 OA 
HETATM   14  C   UNL     1      -6.463  19.469  69.165  1.00  0.00    -0.321 C  
ENDBRANCH   4  13
BRANCH  11  15
HETATM   15  C   UNL     1     -11.362  13.723  69.251  1.00  0.00    -0.325 C  
BRANCH  15  16
HETATM   16  C   UNL     1     -11.682  12.362  68.613  1.00  0.00    -0.372 C  
HETATM   17  C   UNL     1     -10.447  11.746  67.973  1.00  0.00    -0.221 C  
HETATM   18  C   UNL     1      -9.469  11.256  69.034  1.00  0.00    -0.013 C  
HETATM   19  N   UNL     1     -10.032  10.152  69.813  1.00  0.00    -0.235 NA 
HETATM   20  C   UNL     1     -11.265  10.583  70.485  1.00  0.00    -0.265 C  
HETATM   21  C   UNL     1     -12.284  11.348  69.619  1.00  0.00    -0.316 C  
BRANCH  19  22
HETATM   22  C   UNL     1     -10.190   8.921  69.013  1.00  0.00    -0.206 C  
BRANCH  22  23
HETATM   23  C   UNL     1     -10.265   7.679  69.890  1.00  0.00    -0.215 A  
HETATM   24  C   UNL     1      -9.254   6.709  69.815  1.00  0.00    -0.146 A  
HETATM   25  C   UNL     1      -9.364   5.510  70.520  1.00  0.00    -0.195 A  
HETATM   26  C   UNL     1     -10.485   5.264  71.311  1.00  0.00    -0.274 A  
HETATM   27  C   UNL     1     -11.496   6.220  71.401  1.00  0.00    -0.352 A  
HETATM   28  C   UNL     1     -11.387   7.423  70.697  1.00  0.00    -0.304 A  
ENDBRANCH  22  23
ENDBRANCH  19  22
ENDBRANCH  15  16
ENDBRANCH  11  15
ENDBRANCH   2   3
TORSDOF 6
ENDMDL
MODEL       92
REMARK 921   NORMALIZED FREE ENERGY PREDICTED BY IDOCK:   -4.72 KCAL/MOL
REMARK 922        TOTAL FREE ENERGY PREDICTED BY IDOCK:   -7.11 KCAL/MOL
REMARK 923 INTER-LIGAND FREE ENERGY PREDICTED BY IDOCK:   -6.46 KCAL/MOL
REMARK 924 INTRA-LIGAND FREE ENERGY PREDICTED BY IDOCK:   -0.65 KCAL/MOL
REMARK 927      BINDING AFFINITY PREDICTED BY RF-SCORE:    0.00 PKD
ROOT
HETATM    1  C   UNL     1      -9.386   2.740  68.193  1.00  0.00    -0.203 C  
HETATM    2  O   UNL     1      -9.769   2.900  69.551  1.00  0.00    -0.072 OA 
ENDROOT
BRANCH   2   3
HETATM    3  C   UNL     1      -9.822   4.173  70.053  1.00  0.00    -0.175 A  
HETATM    4  C   UNL     1      -9.920   4.268  71.468  1.00  0.00    -0.173 A  
HETATM    5  C   UNL     1      -9.784   5.486  72.121  1.00  0.00    -0.186 A  
HETATM    6  C   UNL     1      -9.855   5.346  69.276  1.00  0.00    -0.249 A  
HETATM    7  C   UNL     1      -9.987   6.555  69.939  1.00  0.00    -0.191 A  
HETATM    8  C   UNL     1      -9.817   6.598  71.321  1.00  0.00    -0.190 A  
HETATM    9  C   UNL     1     -10.101   7.942  71.760  1.00  0.00    -0.185 C  
HETATM   10  O   UNL     1      -9.682   8.441  72.797  1.00  0.00    -0.273 OA 
HETATM   11  C   UNL     1     -11.023   8.524  70.731  1.00  0.00    -0.282 C  
HETATM   12  C   UNL     1     -10.410   7.918  69.430  1.00  0.00    -0.220 C  
BRANCH   4  13
HETATM   13  O   UNL     1     -10.263   3.144  72.189  1.00  0.00    -0.154 OA 
HETATM   14  C   UNL     1     -10.985   3.485  73.382  1.00  0.00    -0.210 C  
ENDBRANCH   4  13
BRANCH  11  15
HETATM   15  C   UNL     1     -11.397   9.986  70.995  1.00  0.00    -0.434 C  
BRANCH  15  16
HETATM   16  C   UNL     1     -12.324  10.684  69.988  1.00  0.00    -0.341 C  
HETATM   17  C   UNL     1     -12.852  12.000  70.541  1.00  0.00     0.051 C  
HETATM   18  C   UNL     1     -11.753  13.054  70.583  1.00  0.00     0.219 C  
HETATM   19  N   UNL     1     -11.300  13.411  69.237  1.00  0.00    -0.267 NA 
HETATM   20  C   UNL     1     -10.776  12.225  68.547  1.00  0.00    -0.237 C  
HETATM   21  C   UNL     1     -11.641  10.953  68.622  1.00  0.00    -0.373 C  
BRANCH  19  22
HETATM   22  C   UNL     1     -12.332  14.137  68.470  1.00  0.00     0.005 C  
BRANCH  22  23
HETATM   23  C   UNL     1     -11.885  14.419  67.042  1.00  0.00    -0.437 A  
HETATM   24  C   UNL     1     -10.907  15.392  66.795  1.00  0.00    -0.306 A  
HETATM   25  C   UNL     1     -10.570  15.749  65.489  1.00  0.00    -0.424 A  
HETATM   26  C   UNL     1     -11.206  15.137  64.411  1.00  0.00    -0.181 A  
HETATM   27  C   UNL     1     -12.178  14.164  64.639  1.00  0.00    -0.465 A  
HETATM   28  C   UNL     1     -12.515  13.803  65.946  1.00  0.00    -0.512 A  
ENDBRANCH  22  23
ENDBRANCH  19  22
ENDBRANCH  15  16
ENDBRANCH  11  15
ENDBRANCH   2   3
TORSDOF 6
ENDMDL
MODEL       93
REMARK 921   NORMALIZED FREE ENERGY PREDICTED BY IDOCK:   -4.70 KCAL/MOL
REMARK 922        TOTAL FREE ENERGY PREDICTED BY IDOCK:   -7.09 KCAL/MOL
REMARK 923 INTER-LIGAND FREE ENERGY PREDICTED BY IDOCK:   -6.59 KCAL/MOL
REMARK 924 INTRA-LIGAND FREE ENERGY PREDICTED BY IDOCK:   -0.49 KCAL/MOL
REMARK 927      BINDING AFFINITY PREDICTED BY RF-SCORE:    0.00 PKD
ROOT
HETATM    1  C   UNL     1      -5.620   5.215  65.754  1.00  0.00    -0.014 C  
HETATM    2  O   UNL     1      -5.755   4.362  66.881  1.00  0.00    -0.020 OA 
ENDROOT
BRANCH   2   3
HETATM    3  C   UNL     1      -6.757   4.638  67.773  1.00  0.00    -0.051 A  
HETATM    4  C   UNL     1      -7.288   3.514  68.462  1.00  0.00    -0.050 A  
HETATM    5  C   UNL     1      -8.164   3.669  69.529  1.00  0.00    -0.069 A  
HETATM    6  C   UNL     1      -7.318   5.911  67.988  1.00  0.00    -0.080 A  
HETATM    7  C   UNL     1      -8.381   6.006  68.871  1.00  0.00    -0.107 A  
HETATM    8  C   UNL     1      -8.679   4.927  69.700  1.00  0.00    -0.109 A  
HETATM    9  C   UNL     1      -9.872   5.254  70.441  1.00  0.00    -0.213 C  
HETATM   10  O   UNL     1     -10.190   4.749  71.510  1.00  0.00    -0.200 OA 
HETATM   11  C   UNL     1     -10.611   6.257  69.606  1.00  0.00    -0.323 C  
HETATM   12  C   UNL     1      -9.417   7.097  69.054  1.00  0.00    -0.143 C  
BRANCH   4  13
HETATM   13  O   UNL     1      -7.009   2.250  67.989  1.00  0.00    -0.045 OA 
HETATM   14  C   UNL     1      -6.039   1.583  68.811  1.00  0.00    -0.024 C  
ENDBRANCH   4  13
BRANCH  11  15
HETATM   15  C   UNL     1     -11.895   6.776  70.261  1.00  0.00    -0.359 C  
BRANCH  15  16
HETATM   16  C   UNL     1     -11.757   7.726  71.460  1.00  0.00    -0.312 C  
HETATM   17  C   UNL     1     -11.071   9.025  71.062  1.00  0.00    -0.356 C  
HETATM   18  C   UNL     1     -11.993   9.891  70.213  1.00  0.00    -0.138 C  
HETATM   19  N   UNL     1     -13.158  10.344  70.976  1.00  0.00    -0.388 NA 
HETATM   20  C   UNL     1     -13.926   9.190  71.461  1.00  0.00    -0.244 C  
HETATM   21  C   UNL     1     -13.117   8.062  72.127  1.00  0.00    -0.225 C  
BRANCH  19  22
HETATM   22  C   UNL     1     -12.797  11.306  72.035  1.00  0.00    -0.169 C  
BRANCH  22  23
HETATM   23  C   UNL     1     -13.107  12.741  71.631  1.00  0.00    -0.428 A  
HETATM   24  C   UNL     1     -12.323  13.377  70.657  1.00  0.00    -0.423 A  
HETATM   25  C   UNL     1     -12.515  14.727  70.358  1.00  0.00    -0.405 A  
HETATM   26  C   UNL     1     -13.494  15.458  71.028  1.00  0.00    -0.510 A  
HETATM   27  C   UNL     1     -14.285  14.840  71.995  1.00  0.00    -0.626 A  
HETATM   28  C   UNL     1     -14.097  13.487  72.294  1.00  0.00    -0.564 A  
ENDBRANCH  22  23
ENDBRANCH  19  22
ENDBRANCH  15  16
ENDBRANCH  11  15
ENDBRANCH   2   3
TORSDOF 6
ENDMDL
MODEL       94
REMARK 921   NORMALIZED FREE ENERGY PREDICTED BY IDOCK:   -4.69 KCAL/MOL
REMARK 922        TOTAL FREE ENERGY PREDICTED BY IDOCK:   -7.08 KCAL/MOL
REMARK 923 INTER-LIGAND FREE ENERGY PREDICTED BY IDOCK:   -6.79 KCAL/MOL
REMARK 924 INTRA-LIGAND FREE ENERGY PREDICTED BY IDOCK:   -0.29 KCAL/MOL
REMARK 927      BINDING AFFINITY PREDICTED BY RF-SCORE:    0.00 PKD
ROOT
HETATM    1  C   UNL     1      -6.220   5.584  67.480  1.00  0.00    -0.031 C  
HETATM    2  O   UNL     1      -7.061   6.011  68.541  1.00  0.00    -0.076 OA 
ENDROOT
BRANCH   2   3
HETATM    3  C   UNL     1      -7.932   7.039  68.291  1.00  0.00    -0.123 A  
HETATM    4  C   UNL     1      -9.307   6.729  68.470  1.00  0.00    -0.126 A  
HETATM    5  C   UNL     1     -10.280   7.721  68.443  1.00  0.00    -0.230 A  
HETATM    6  C   UNL     1      -7.563   8.311  67.818  1.00  0.00    -0.102 A  
HETATM    7  C   UNL     1      -8.577   9.214  67.540  1.00  0.00    -0.116 A  
HETATM    8  C   UNL     1      -9.871   8.944  67.979  1.00  0.00    -0.199 A  
HETATM    9  C   UNL     1     -10.735   9.985  67.480  1.00  0.00    -0.281 C  
HETATM   10  O   UNL     1     -11.811  10.296  67.973  1.00  0.00    -0.214 OA 
HETATM   11  C   UNL     1     -10.063  10.522  66.251  1.00  0.00    -0.290 C  
HETATM   12  C   UNL     1      -8.570  10.480  66.707  1.00  0.00    -0.126 C  
BRANCH   4  13
HETATM   13  O   UNL     1      -9.686   5.407  68.564  1.00  0.00    -0.123 OA 
HETATM   14  C   UNL     1     -10.352   5.138  69.807  1.00  0.00    -0.262 C  
ENDBRANCH   4  13
BRANCH  11  15
HETATM   15  C   UNL     1     -10.809  11.691  65.601  1.00  0.00    -0.330 C  
BRANCH  15  16
HETATM   16  C   UNL     1     -11.538  12.680  66.524  1.00  0.00    -0.441 C  
HETATM   17  C   UNL     1     -10.559  13.423  67.421  1.00  0.00    -0.254 C  
HETATM   18  C   UNL     1      -9.749  14.437  66.623  1.00  0.00    -0.278 C  
HETATM   19  N   UNL     1     -10.599  15.505  66.092  1.00  0.00    -0.307 NA 
HETATM   20  C   UNL     1     -11.629  14.941  65.211  1.00  0.00    -0.300 C  
HETATM   21  C   UNL     1     -12.392  13.716  65.748  1.00  0.00    -0.524 C  
BRANCH  19  22
HETATM   22  C   UNL     1     -11.137  16.377  67.155  1.00  0.00     0.026 C  
BRANCH  22  23
HETATM   23  C   UNL     1     -10.300  17.636  67.335  1.00  0.00    -0.360 A  
HETATM   24  C   UNL     1     -10.444  18.411  68.495  1.00  0.00    -0.219 A  
HETATM   25  C   UNL     1      -9.776  19.629  68.627  1.00  0.00    -0.486 A  
HETATM   26  C   UNL     1      -8.954  20.089  67.600  1.00  0.00    -0.420 A  
HETATM   27  C   UNL     1      -8.796  19.329  66.442  1.00  0.00    -0.365 A  
HETATM   28  C   UNL     1      -9.462  18.107  66.309  1.00  0.00    -0.231 A  
ENDBRANCH  22  23
ENDBRANCH  19  22
ENDBRANCH  15  16
ENDBRANCH  11  15
ENDBRANCH   2   3
TORSDOF 6
ENDMDL
MODEL       95
REMARK 921   NORMALIZED FREE ENERGY PREDICTED BY IDOCK:   -4.67 KCAL/MOL
REMARK 922        TOTAL FREE ENERGY PREDICTED BY IDOCK:   -7.04 KCAL/MOL
REMARK 923 INTER-LIGAND FREE ENERGY PREDICTED BY IDOCK:   -6.29 KCAL/MOL
REMARK 924 INTRA-LIGAND FREE ENERGY PREDICTED BY IDOCK:   -0.75 KCAL/MOL
REMARK 927      BINDING AFFINITY PREDICTED BY RF-SCORE:    0.00 PKD
ROOT
HETATM    1  C   UNL     1      -9.623   2.871  65.059  1.00  0.00    -0.049 C  
HETATM    2  O   UNL     1      -8.857   3.695  65.926  1.00  0.00    -0.115 OA 
ENDROOT
BRANCH   2   3
HETATM    3  C   UNL     1      -8.968   5.053  65.778  1.00  0.00    -0.145 A  
HETATM    4  C   UNL     1      -7.989   5.657  64.944  1.00  0.00    -0.117 A  
HETATM    5  C   UNL     1      -8.096   6.984  64.549  1.00  0.00    -0.069 A  
HETATM    6  C   UNL     1      -9.915   5.861  66.433  1.00  0.00    -0.162 A  
HETATM    7  C   UNL     1      -9.842   7.230  66.233  1.00  0.00    -0.029 A  
HETATM    8  C   UNL     1      -9.036   7.729  65.213  1.00  0.00     0.162 A  
HETATM    9  C   UNL     1      -9.069   9.169  65.287  1.00  0.00    -0.195 C  
HETATM   10  O   UNL     1      -8.825   9.922  64.352  1.00  0.00    -0.182 OA 
HETATM   11  C   UNL     1      -9.396   9.500  66.712  1.00  0.00    -0.196 C  
HETATM   12  C   UNL     1     -10.433   8.376  67.030  1.00  0.00    -0.375 C  
BRANCH   4  13
HETATM   13  O   UNL     1      -6.860   4.938  64.613  1.00  0.00    -0.047 OA 
HETATM   14  C   UNL     1      -6.738   4.777  63.191  1.00  0.00    -0.030 C  
ENDBRANCH   4  13
BRANCH  11  15
HETATM   15  C   UNL     1      -9.534  11.001  66.980  1.00  0.00    -0.191 C  
BRANCH  15  16
HETATM   16  C   UNL     1     -10.951  11.577  67.134  1.00  0.00    -0.338 C  
HETATM   17  C   UNL     1     -11.498  11.333  68.533  1.00  0.00    -0.372 C  
HETATM   18  C   UNL     1     -10.798  12.220  69.555  1.00  0.00     0.149 C  
HETATM   19  N   UNL     1     -11.085  13.636  69.323  1.00  0.00    -0.228 NA 
HETATM   20  C   UNL     1     -10.632  14.032  67.982  1.00  0.00    -0.247 C  
HETATM   21  C   UNL     1     -11.025  13.094  66.825  1.00  0.00    -0.298 C  
BRANCH  19  22
HETATM   22  C   UNL     1     -12.494  13.979  69.600  1.00  0.00    -0.157 C  
BRANCH  22  23
HETATM   23  C   UNL     1     -12.651  14.708  70.927  1.00  0.00    -0.410 A  
HETATM   24  C   UNL     1     -11.514  15.134  71.628  1.00  0.00    -0.445 A  
HETATM   25  C   UNL     1     -11.631  15.697  72.900  1.00  0.00    -0.408 A  
HETATM   26  C   UNL     1     -12.886  15.841  73.488  1.00  0.00    -0.702 A  
HETATM   27  C   UNL     1     -14.027  15.427  72.802  1.00  0.00    -0.519 A  
HETATM   28  C   UNL     1     -13.913  14.866  71.527  1.00  0.00    -0.571 A  
ENDBRANCH  22  23
ENDBRANCH  19  22
ENDBRANCH  15  16
ENDBRANCH  11  15
ENDBRANCH   2   3
TORSDOF 6
ENDMDL
MODEL       96
REMARK 921   NORMALIZED FREE ENERGY PREDICTED BY IDOCK:   -4.64 KCAL/MOL
REMARK 922        TOTAL FREE ENERGY PREDICTED BY IDOCK:   -7.00 KCAL/MOL
REMARK 923 INTER-LIGAND FREE ENERGY PREDICTED BY IDOCK:   -6.74 KCAL/MOL
REMARK 924 INTRA-LIGAND FREE ENERGY PREDICTED BY IDOCK:   -0.26 KCAL/MOL
REMARK 927      BINDING AFFINITY PREDICTED BY RF-SCORE:    0.00 PKD
ROOT
HETATM    1  C   UNL     1     -11.087   5.980  69.934  1.00  0.00    -0.399 C  
HETATM    2  O   UNL     1     -10.163   6.519  69.000  1.00  0.00    -0.160 OA 
ENDROOT
BRANCH   2   3
HETATM    3  C   UNL     1     -10.352   7.812  68.590  1.00  0.00    -0.199 A  
HETATM    4  C   UNL     1      -9.837   8.125  67.303  1.00  0.00    -0.197 A  
HETATM    5  C   UNL     1     -10.129   9.334  66.683  1.00  0.00    -0.341 A  
HETATM    6  C   UNL     1     -10.940   8.827  69.367  1.00  0.00    -0.046 A  
HETATM    7  C   UNL     1     -10.986  10.104  68.831  1.00  0.00    -0.261 A  
HETATM    8  C   UNL     1     -10.705  10.288  67.480  1.00  0.00    -0.348 A  
HETATM    9  C   UNL     1     -10.731  11.705  67.211  1.00  0.00    -0.238 C  
HETATM   10  O   UNL     1     -10.926  12.203  66.110  1.00  0.00    -0.274 OA 
HETATM   11  C   UNL     1     -10.420  12.375  68.516  1.00  0.00    -0.244 C  
HETATM   12  C   UNL     1     -11.199  11.447  69.501  1.00  0.00    -0.322 C  
BRANCH   4  13
HETATM   13  O   UNL     1      -8.947   7.254  66.711  1.00  0.00    -0.126 OA 
HETATM   14  C   UNL     1      -8.134   7.920  65.732  1.00  0.00    -0.123 C  
ENDBRANCH   4  13
BRANCH  11  15
HETATM   15  C   UNL     1     -10.458  13.905  68.446  1.00  0.00    -0.250 C  
BRANCH  15  16
HETATM   16  C   UNL     1      -9.118  14.656  68.422  1.00  0.00    -0.192 C  
HETATM   17  C   UNL     1      -8.452  14.556  67.058  1.00  0.00    -0.222 C  
HETATM   18  C   UNL     1      -9.188  15.404  66.027  1.00  0.00    -0.298 C  
HETATM   19  N   UNL     1      -9.098  16.831  66.343  1.00  0.00    -0.272 NA 
HETATM   20  C   UNL     1      -9.685  17.096  67.663  1.00  0.00    -0.263 C  
HETATM   21  C   UNL     1      -9.256  16.153  68.803  1.00  0.00    -0.224 C  
BRANCH  19  22
HETATM   22  C   UNL     1      -7.727  17.357  66.185  1.00  0.00    -0.276 C  
BRANCH  22  23
HETATM   23  C   UNL     1      -7.332  18.268  67.339  1.00  0.00    -0.218 A  
HETATM   24  C   UNL     1      -7.688  19.624  67.311  1.00  0.00    -0.288 A  
HETATM   25  C   UNL     1      -7.234  20.500  68.298  1.00  0.00    -0.126 A  
HETATM   26  C   UNL     1      -6.418  20.033  69.326  1.00  0.00    -0.360 A  
HETATM   27  C   UNL     1      -6.058  18.687  69.371  1.00  0.00    -0.274 A  
HETATM   28  C   UNL     1      -6.514  17.806  68.385  1.00  0.00    -0.199 A  
ENDBRANCH  22  23
ENDBRANCH  19  22
ENDBRANCH  15  16
ENDBRANCH  11  15
ENDBRANCH   2   3
TORSDOF 6
ENDMDL
MODEL       97
REMARK 921   NORMALIZED FREE ENERGY PREDICTED BY IDOCK:   -4.61 KCAL/MOL
REMARK 922        TOTAL FREE ENERGY PREDICTED BY IDOCK:   -6.97 KCAL/MOL
REMARK 923 INTER-LIGAND FREE ENERGY PREDICTED BY IDOCK:   -6.03 KCAL/MOL
REMARK 924 INTRA-LIGAND FREE ENERGY PREDICTED BY IDOCK:   -0.94 KCAL/MOL
REMARK 927      BINDING AFFINITY PREDICTED BY RF-SCORE:    0.00 PKD
ROOT
HETATM    1  C   UNL     1     -10.826   3.496  73.611  1.00  0.00    -0.235 C  
HETATM    2  O   UNL     1     -11.404   4.519  72.813  1.00  0.00    -0.101 OA 
ENDROOT
BRANCH   2   3
HETATM    3  C   UNL     1     -10.563   5.273  72.037  1.00  0.00    -0.216 A  
HETATM    4  C   UNL     1     -10.793   6.675  72.074  1.00  0.00    -0.233 A  
HETATM    5  C   UNL     1      -9.900   7.568  71.496  1.00  0.00    -0.185 A  
HETATM    6  C   UNL     1      -9.571   4.755  71.184  1.00  0.00    -0.235 A  
HETATM    7  C   UNL     1      -8.858   5.653  70.406  1.00  0.00    -0.143 A  
HETATM    8  C   UNL     1      -8.949   7.016  70.678  1.00  0.00    -0.154 A  
HETATM    9  C   UNL     1      -8.193   7.720  69.672  1.00  0.00    -0.127 C  
HETATM   10  O   UNL     1      -7.725   8.843  69.810  1.00  0.00    -0.072 OA 
HETATM   11  C   UNL     1      -8.169   6.821  68.472  1.00  0.00    -0.120 C  
HETATM   12  C   UNL     1      -8.016   5.431  69.166  1.00  0.00    -0.094 C  
BRANCH   4  13
HETATM   13  O   UNL     1     -11.978   7.143  72.600  1.00  0.00    -0.144 OA 
HETATM   14  C   UNL     1     -12.221   8.505  72.218  1.00  0.00    -0.389 C  
ENDBRANCH   4  13
BRANCH  11  15
HETATM   15  C   UNL     1      -7.352   7.378  67.302  1.00  0.00    -0.098 C  
BRANCH  15  16
HETATM   16  C   UNL     1      -8.053   7.524  65.942  1.00  0.00    -0.127 C  
HETATM   17  C   UNL     1      -9.478   8.030  66.106  1.00  0.00    -0.193 C  
HETATM   18  C   UNL     1      -9.493   9.499  66.510  1.00  0.00    -0.182 C  
HETATM   19  N   UNL     1      -8.951  10.352  65.451  1.00  0.00    -0.173 NA 
HETATM   20  C   UNL     1      -7.565   9.970  65.151  1.00  0.00    -0.138 C  
HETATM   21  C   UNL     1      -7.296   8.464  64.969  1.00  0.00    -0.086 C  
BRANCH  19  22
HETATM   22  C   UNL     1      -9.825  10.399  64.262  1.00  0.00    -0.322 C  
BRANCH  22  23
HETATM   23  C   UNL     1     -10.610  11.701  64.184  1.00  0.00    -0.411 A  
HETATM   24  C   UNL     1     -10.074  12.873  64.736  1.00  0.00    -0.242 A  
HETATM   25  C   UNL     1     -10.826  14.048  64.781  1.00  0.00    -0.430 A  
HETATM   26  C   UNL     1     -12.124  14.067  64.274  1.00  0.00    -0.476 A  
HETATM   27  C   UNL     1     -12.670  12.911  63.717  1.00  0.00    -0.214 A  
HETATM   28  C   UNL     1     -11.918  11.734  63.669  1.00  0.00    -0.490 A  
ENDBRANCH  22  23
ENDBRANCH  19  22
ENDBRANCH  15  16
ENDBRANCH  11  15
ENDBRANCH   2   3
TORSDOF 6
ENDMDL
MODEL       98
REMARK 921   NORMALIZED FREE ENERGY PREDICTED BY IDOCK:   -4.59 KCAL/MOL
REMARK 922        TOTAL FREE ENERGY PREDICTED BY IDOCK:   -6.94 KCAL/MOL
REMARK 923 INTER-LIGAND FREE ENERGY PREDICTED BY IDOCK:   -6.19 KCAL/MOL
REMARK 924 INTRA-LIGAND FREE ENERGY PREDICTED BY IDOCK:   -0.75 KCAL/MOL
REMARK 927      BINDING AFFINITY PREDICTED BY RF-SCORE:    0.00 PKD
ROOT
HETATM    1  C   UNL     1      -5.318   3.617  69.732  1.00  0.00    -0.008 C  
HETATM    2  O   UNL     1      -6.336   2.981  70.492  1.00  0.00    -0.023 OA 
ENDROOT
BRANCH   2   3
HETATM    3  C   UNL     1      -7.435   3.724  70.834  1.00  0.00    -0.040 A  
HETATM    4  C   UNL     1      -8.681   3.047  70.741  1.00  0.00    -0.075 A  
HETATM    5  C   UNL     1      -9.848   3.612  71.241  1.00  0.00    -0.211 A  
HETATM    6  C   UNL     1      -7.410   5.085  71.189  1.00  0.00    -0.073 A  
HETATM    7  C   UNL     1      -8.622   5.711  71.430  1.00  0.00    -0.132 A  
HETATM    8  C   UNL     1      -9.772   4.938  71.577  1.00  0.00    -0.233 A  
HETATM    9  C   UNL     1     -10.892   5.834  71.723  1.00  0.00    -0.252 C  
HETATM   10  O   UNL     1     -11.955   5.542  72.256  1.00  0.00    -0.126 OA 
HETATM   11  C   UNL     1     -10.485   7.112  71.052  1.00  0.00    -0.230 C  
HETATM   12  C   UNL     1      -8.982   7.182  71.470  1.00  0.00    -0.135 C  
BRANCH   4  13
HETATM   13  O   UNL     1      -8.744   1.858  70.046  1.00  0.00    -0.048 OA 
HETATM   14  C   UNL     1      -9.349   2.035  68.756  1.00  0.00    -0.159 C  
ENDBRANCH   4  13
BRANCH  11  15
HETATM   15  C   UNL     1     -11.536   8.223  71.153  1.00  0.00    -0.307 C  
BRANCH  15  16
HETATM   16  C   UNL     1     -11.041   9.676  71.225  1.00  0.00    -0.426 C  
HETATM   17  C   UNL     1     -10.174  10.025  70.025  1.00  0.00    -0.306 C  
HETATM   18  C   UNL     1     -11.017  10.152  68.762  1.00  0.00    -0.223 C  
HETATM   19  N   UNL     1     -11.946  11.280  68.847  1.00  0.00    -0.462 NA 
HETATM   20  C   UNL     1     -12.852  11.105  69.990  1.00  0.00     0.056 C  
HETATM   21  C   UNL     1     -12.197  10.705  71.326  1.00  0.00    -0.447 C  
BRANCH  19  22
HETATM   22  C   UNL     1     -11.253  12.583  68.832  1.00  0.00    -0.281 C  
BRANCH  22  23
HETATM   23  C   UNL     1     -10.979  13.065  67.414  1.00  0.00    -0.284 A  
HETATM   24  C   UNL     1      -9.835  13.830  67.145  1.00  0.00    -0.242 A  
HETATM   25  C   UNL     1      -9.627  14.381  65.880  1.00  0.00    -0.252 A  
HETATM   26  C   UNL     1     -10.560  14.174  64.866  1.00  0.00    -0.449 A  
HETATM   27  C   UNL     1     -11.701  13.412  65.115  1.00  0.00    -0.345 A  
HETATM   28  C   UNL     1     -11.910  12.857  66.381  1.00  0.00    -0.478 A  
ENDBRANCH  22  23
ENDBRANCH  19  22
ENDBRANCH  15  16
ENDBRANCH  11  15
ENDBRANCH   2   3
TORSDOF 6
ENDMDL
MODEL       99
REMARK 921   NORMALIZED FREE ENERGY PREDICTED BY IDOCK:   -4.59 KCAL/MOL
REMARK 922        TOTAL FREE ENERGY PREDICTED BY IDOCK:   -6.93 KCAL/MOL
REMARK 923 INTER-LIGAND FREE ENERGY PREDICTED BY IDOCK:   -6.12 KCAL/MOL
REMARK 924 INTRA-LIGAND FREE ENERGY PREDICTED BY IDOCK:   -0.82 KCAL/MOL
REMARK 927      BINDING AFFINITY PREDICTED BY RF-SCORE:    0.00 PKD
ROOT
HETATM    1  C   UNL     1      -6.780   4.364  62.923  1.00  0.00    -0.031 C  
HETATM    2  O   UNL     1      -7.090   3.792  64.186  1.00  0.00    -0.048 OA 
ENDROOT
BRANCH   2   3
HETATM    3  C   UNL     1      -7.779   4.564  65.084  1.00  0.00    -0.085 A  
HETATM    4  C   UNL     1      -9.107   4.141  65.359  1.00  0.00    -0.139 A  
HETATM    5  C   UNL     1      -9.847   4.710  66.388  1.00  0.00    -0.242 A  
HETATM    6  C   UNL     1      -7.291   5.746  65.672  1.00  0.00    -0.076 A  
HETATM    7  C   UNL     1      -8.146   6.453  66.502  1.00  0.00    -0.111 A  
HETATM    8  C   UNL     1      -9.329   5.856  66.933  1.00  0.00    -0.136 A  
HETATM    9  C   UNL     1     -10.066   6.832  67.696  1.00  0.00    -0.161 C  
HETATM   10  O   UNL     1     -10.915   6.565  68.537  1.00  0.00    -0.278 OA 
HETATM   11  C   UNL     1      -9.608   8.171  67.199  1.00  0.00    -0.227 C  
HETATM   12  C   UNL     1      -8.088   7.888  66.986  1.00  0.00    -0.116 C  
BRANCH   4  13
HETATM   13  O   UNL     1      -9.703   3.226  64.518  1.00  0.00    -0.158 OA 
HETATM   14  C   UNL     1     -10.759   3.827  63.752  1.00  0.00    -0.232 C  
ENDBRANCH   4  13
BRANCH  11  15
HETATM   15  C   UNL     1     -10.244   9.353  67.938  1.00  0.00    -0.259 C  
BRANCH  15  16
HETATM   16  C   UNL     1     -11.160  10.292  67.139  1.00  0.00    -0.165 C  
HETATM   17  C   UNL     1     -11.738  11.387  68.024  1.00  0.00    -0.324 C  
HETATM   18  C   UNL     1     -10.670  12.405  68.401  1.00  0.00    -0.235 C  
HETATM   19  N   UNL     1     -10.188  13.137  67.228  1.00  0.00    -0.241 NA 
HETATM   20  C   UNL     1      -9.613  12.206  66.249  1.00  0.00    -0.237 C  
HETATM   21  C   UNL     1     -10.446  10.950  65.930  1.00  0.00    -0.285 C  
BRANCH  19  22
HETATM   22  C   UNL     1     -11.217  14.034  66.663  1.00  0.00    -0.323 C  
BRANCH  22  23
HETATM   23  C   UNL     1     -10.930  15.496  66.975  1.00  0.00    -0.283 A  
HETATM   24  C   UNL     1     -10.382  16.326  65.986  1.00  0.00    -0.363 A  
HETATM   25  C   UNL     1     -10.002  17.635  66.286  1.00  0.00    -0.324 A  
HETATM   26  C   UNL     1     -10.164  18.132  67.577  1.00  0.00    -0.382 A  
HETATM   27  C   UNL     1     -10.712  17.321  68.571  1.00  0.00    -0.305 A  
HETATM   28  C   UNL     1     -11.096  16.011  68.272  1.00  0.00    -0.351 A  
ENDBRANCH  22  23
ENDBRANCH  19  22
ENDBRANCH  15  16
ENDBRANCH  11  15
ENDBRANCH   2   3
TORSDOF 6
ENDMDL
MODEL      100
REMARK 921   NORMALIZED FREE ENERGY PREDICTED BY IDOCK:   -4.58 KCAL/MOL
REMARK 922        TOTAL FREE ENERGY PREDICTED BY IDOCK:   -6.92 KCAL/MOL
REMARK 923 INTER-LIGAND FREE ENERGY PREDICTED BY IDOCK:   -6.78 KCAL/MOL
REMARK 924 INTRA-LIGAND FREE ENERGY PREDICTED BY IDOCK:   -0.14 KCAL/MOL
REMARK 927      BINDING AFFINITY PREDICTED BY RF-SCORE:    0.00 PKD
ROOT
HETATM    1  C   UNL     1      -7.999   8.195  63.124  1.00  0.00    -0.151 C  
HETATM    2  O   UNL     1      -7.725   6.930  63.708  1.00  0.00    -0.109 OA 
ENDROOT
BRANCH   2   3
HETATM    3  C   UNL     1      -8.279   6.659  64.932  1.00  0.00    -0.085 A  
HETATM    4  C   UNL     1      -8.682   5.311  65.133  1.00  0.00    -0.146 A  
HETATM    5  C   UNL     1      -9.074   4.855  66.386  1.00  0.00    -0.127 A  
HETATM    6  C   UNL     1      -8.527   7.614  65.934  1.00  0.00    -0.150 A  
HETATM    7  C   UNL     1      -9.167   7.188  67.087  1.00  0.00    -0.153 A  
HETATM    8  C   UNL     1      -9.298   5.822  67.330  1.00  0.00    -0.113 A  
HETATM    9  C   UNL     1     -10.075   5.659  68.533  1.00  0.00    -0.182 C  
HETATM   10  O   UNL     1     -10.052   4.667  69.250  1.00  0.00    -0.193 OA 
HETATM   11  C   UNL     1     -10.910   6.899  68.653  1.00  0.00    -0.236 C  
HETATM   12  C   UNL     1      -9.890   7.974  68.161  1.00  0.00    -0.195 C  
BRANCH   4  13
HETATM   13  O   UNL     1      -8.786   4.475  64.042  1.00  0.00    -0.138 OA 
HETATM   14  C   UNL     1      -8.567   3.104  64.407  1.00  0.00    -0.094 C  
ENDBRANCH   4  13
BRANCH  11  15
HETATM   15  C   UNL     1     -11.775   6.940  69.917  1.00  0.00    -0.199 C  
BRANCH  15  16
HETATM   16  C   UNL     1     -11.361   7.905  71.039  1.00  0.00    -0.292 C  
HETATM   17  C   UNL     1     -11.090   9.300  70.497  1.00  0.00    -0.317 C  
HETATM   18  C   UNL     1     -12.386   9.991  70.092  1.00  0.00    -0.000 C  
HETATM   19  N   UNL     1     -13.246  10.240  71.251  1.00  0.00    -0.374 NA 
HETATM   20  C   UNL     1     -13.585   8.973  71.913  1.00  0.00    -0.431 C  
HETATM   21  C   UNL     1     -12.416   8.004  72.172  1.00  0.00    -0.335 C  
BRANCH  19  22
HETATM   22  C   UNL     1     -12.682  11.255  72.163  1.00  0.00     0.196 C  
BRANCH  22  23
HETATM   23  C   UNL     1     -13.012  12.671  71.711  1.00  0.00    -0.417 A  
HETATM   24  C   UNL     1     -12.237  13.285  70.717  1.00  0.00    -0.390 A  
HETATM   25  C   UNL     1     -12.447  14.621  70.374  1.00  0.00    -0.410 A  
HETATM   26  C   UNL     1     -13.435  15.361  71.019  1.00  0.00    -0.510 A  
HETATM   27  C   UNL     1     -14.218  14.764  72.007  1.00  0.00    -0.626 A  
HETATM   28  C   UNL     1     -14.011  13.425  72.350  1.00  0.00    -0.605 A  
ENDBRANCH  22  23
ENDBRANCH  19  22
ENDBRANCH  15  16
ENDBRANCH  11  15
ENDBRANCH   2   3
TORSDOF 6
ENDMDL
MODEL      101
REMARK 921   NORMALIZED FREE ENERGY PREDICTED BY IDOCK:   -4.56 KCAL/MOL
REMARK 922        TOTAL FREE ENERGY PREDICTED BY IDOCK:   -6.89 KCAL/MOL
REMARK 923 INTER-LIGAND FREE ENERGY PREDICTED BY IDOCK:   -6.29 KCAL/MOL
REMARK 924 INTRA-LIGAND FREE ENERGY PREDICTED BY IDOCK:   -0.61 KCAL/MOL
REMARK 927      BINDING AFFINITY PREDICTED BY RF-SCORE:    0.00 PKD
ROOT
HETATM    1  C   UNL     1      -5.511   3.189  67.165  1.00  0.00    -0.020 C  
HETATM    2  O   UNL     1      -6.799   3.323  66.581  1.00  0.00    -0.051 OA 
ENDROOT
BRANCH   2   3
HETATM    3  C   UNL     1      -7.723   4.088  67.243  1.00  0.00    -0.084 A  
HETATM    4  C   UNL     1      -8.884   4.424  66.495  1.00  0.00    -0.114 A  
HETATM    5  C   UNL     1      -9.982   5.023  67.099  1.00  0.00    -0.226 A  
HETATM    6  C   UNL     1      -7.563   4.600  68.544  1.00  0.00    -0.069 A  
HETATM    7  C   UNL     1      -8.562   5.424  69.039  1.00  0.00    -0.102 A  
HETATM    8  C   UNL     1      -9.779   5.501  68.367  1.00  0.00    -0.168 A  
HETATM    9  C   UNL     1     -10.591   6.489  69.034  1.00  0.00    -0.245 C  
HETATM   10  O   UNL     1     -11.813   6.537  68.984  1.00  0.00     0.016 OA 
HETATM   11  C   UNL     1      -9.630   7.419  69.713  1.00  0.00    -0.163 C  
HETATM   12  C   UNL     1      -8.549   6.402  70.196  1.00  0.00    -0.135 C  
BRANCH   4  13
HETATM   13  O   UNL     1      -8.871   4.248  65.128  1.00  0.00    -0.124 OA 
HETATM   14  C   UNL     1     -10.135   3.766  64.648  1.00  0.00    -0.191 C  
ENDBRANCH   4  13
BRANCH  11  15
HETATM   15  C   UNL     1     -10.313   8.518  70.533  1.00  0.00    -0.226 C  
BRANCH  15  16
HETATM   16  C   UNL     1     -10.046   9.979  70.139  1.00  0.00    -0.266 C  
HETATM   17  C   UNL     1      -9.738  10.105  68.654  1.00  0.00    -0.167 C  
HETATM   18  C   UNL     1     -10.992   9.886  67.816  1.00  0.00    -0.217 C  
HETATM   19  N   UNL     1     -11.982  10.940  68.047  1.00  0.00    -0.535 NA 
HETATM   20  C   UNL     1     -12.372  10.969  69.463  1.00  0.00    -0.197 C  
HETATM   21  C   UNL     1     -11.223  10.926  70.488  1.00  0.00    -0.084 C  
BRANCH  19  22
HETATM   22  C   UNL     1     -11.542  12.249  67.524  1.00  0.00    -0.353 C  
BRANCH  22  23
HETATM   23  C   UNL     1     -11.412  12.241  66.008  1.00  0.00    -0.434 A  
HETATM   24  C   UNL     1     -12.482  12.680  65.213  1.00  0.00    -0.483 A  
HETATM   25  C   UNL     1     -12.429  12.570  63.823  1.00  0.00    -0.552 A  
HETATM   26  C   UNL     1     -11.306  12.019  63.208  1.00  0.00    -0.396 A  
HETATM   27  C   UNL     1     -10.233  11.583  63.983  1.00  0.00    -0.394 A  
HETATM   28  C   UNL     1     -10.282  11.695  65.375  1.00  0.00    -0.306 A  
ENDBRANCH  22  23
ENDBRANCH  19  22
ENDBRANCH  15  16
ENDBRANCH  11  15
ENDBRANCH   2   3
TORSDOF 6
ENDMDL
MODEL      102
REMARK 921   NORMALIZED FREE ENERGY PREDICTED BY IDOCK:   -4.55 KCAL/MOL
REMARK 922        TOTAL FREE ENERGY PREDICTED BY IDOCK:   -6.89 KCAL/MOL
REMARK 923 INTER-LIGAND FREE ENERGY PREDICTED BY IDOCK:   -6.26 KCAL/MOL
REMARK 924 INTRA-LIGAND FREE ENERGY PREDICTED BY IDOCK:   -0.63 KCAL/MOL
REMARK 927      BINDING AFFINITY PREDICTED BY RF-SCORE:    0.00 PKD
ROOT
HETATM    1  C   UNL     1     -11.270   6.342  68.280  1.00  0.00    -0.176 C  
HETATM    2  O   UNL     1     -11.008   6.981  67.039  1.00  0.00    -0.375 OA 
ENDROOT
BRANCH   2   3
HETATM    3  C   UNL     1     -10.125   8.028  67.035  1.00  0.00    -0.279 A  
HETATM    4  C   UNL     1      -8.818   7.721  66.568  1.00  0.00    -0.153 A  
HETATM    5  C   UNL     1      -7.885   8.721  66.325  1.00  0.00    -0.102 A  
HETATM    6  C   UNL     1     -10.404   9.321  67.513  1.00  0.00    -0.323 A  
HETATM    7  C   UNL     1      -9.373  10.247  67.510  1.00  0.00    -0.164 A  
HETATM    8  C   UNL     1      -8.204   9.964  66.806  1.00  0.00    -0.124 A  
HETATM    9  C   UNL     1      -7.273  11.039  67.045  1.00  0.00    -0.123 C  
HETATM   10  O   UNL     1      -6.341  11.332  66.307  1.00  0.00    -0.125 OA 
HETATM   11  C   UNL     1      -7.664  11.635  68.364  1.00  0.00    -0.130 C  
HETATM   12  C   UNL     1      -9.220  11.555  68.258  1.00  0.00    -0.186 C  
BRANCH   4  13
HETATM   13  O   UNL     1      -8.442   6.399  66.458  1.00  0.00    -0.112 OA 
HETATM   14  C   UNL     1      -7.538   6.022  67.508  1.00  0.00    -0.090 C  
ENDBRANCH   4  13
BRANCH  11  15
HETATM   15  C   UNL     1      -6.815  12.844  68.769  1.00  0.00    -0.099 C  
BRANCH  15  16
HETATM   16  C   UNL     1      -6.605  13.956  67.729  1.00  0.00    -0.186 C  
HETATM   17  C   UNL     1      -7.868  14.784  67.541  1.00  0.00    -0.208 C  
HETATM   18  C   UNL     1      -8.123  15.673  68.752  1.00  0.00    -0.169 C  
HETATM   19  N   UNL     1      -7.076  16.684  68.905  1.00  0.00    -0.193 NA 
HETATM   20  C   UNL     1      -5.768  16.039  69.074  1.00  0.00    -0.114 C  
HETATM   21  C   UNL     1      -5.433  14.906  68.086  1.00  0.00    -0.123 C  
BRANCH  19  22
HETATM   22  C   UNL     1      -7.106  17.693  67.827  1.00  0.00    -0.185 C  
BRANCH  22  23
HETATM   23  C   UNL     1      -8.480  18.333  67.685  1.00  0.00    -0.260 A  
HETATM   24  C   UNL     1      -9.173  18.237  66.470  1.00  0.00    -0.298 A  
HETATM   25  C   UNL     1     -10.378  18.916  66.281  1.00  0.00    -0.512 A  
HETATM   26  C   UNL     1     -10.906  19.700  67.304  1.00  0.00    -0.519 A  
HETATM   27  C   UNL     1     -10.232  19.802  68.521  1.00  0.00    -0.547 A  
HETATM   28  C   UNL     1      -9.027  19.121  68.713  1.00  0.00    -0.388 A  
ENDBRANCH  22  23
ENDBRANCH  19  22
ENDBRANCH  15  16
ENDBRANCH  11  15
ENDBRANCH   2   3
TORSDOF 6
ENDMDL
MODEL      103
REMARK 921   NORMALIZED FREE ENERGY PREDICTED BY IDOCK:   -4.54 KCAL/MOL
REMARK 922        TOTAL FREE ENERGY PREDICTED BY IDOCK:   -6.87 KCAL/MOL
REMARK 923 INTER-LIGAND FREE ENERGY PREDICTED BY IDOCK:   -6.46 KCAL/MOL
REMARK 924 INTRA-LIGAND FREE ENERGY PREDICTED BY IDOCK:   -0.41 KCAL/MOL
REMARK 927      BINDING AFFINITY PREDICTED BY RF-SCORE:    0.00 PKD
ROOT
HETATM    1  C   UNL     1      -8.687  10.993  62.453  1.00  0.00    -0.303 C  
HETATM    2  O   UNL     1      -9.759  11.766  62.973  1.00  0.00    -0.394 OA 
ENDROOT
BRANCH   2   3
HETATM    3  C   UNL     1     -10.189  11.486  64.244  1.00  0.00    -0.311 A  
HETATM    4  C   UNL     1     -10.953  12.508  64.868  1.00  0.00    -0.300 A  
HETATM    5  C   UNL     1     -11.615  12.284  66.069  1.00  0.00    -0.451 A  
HETATM    6  C   UNL     1      -9.871  10.319  64.964  1.00  0.00    -0.397 A  
HETATM    7  C   UNL     1     -10.323  10.226  66.270  1.00  0.00    -0.256 A  
HETATM    8  C   UNL     1     -11.275  11.132  66.730  1.00  0.00    -0.215 A  
HETATM    9  C   UNL     1     -11.494  10.872  68.132  1.00  0.00    -0.295 C  
HETATM   10  O   UNL     1     -12.506  11.179  68.749  1.00  0.00    -0.468 OA 
HETATM   11  C   UNL     1     -10.236  10.226  68.630  1.00  0.00    -0.196 C  
HETATM   12  C   UNL     1      -9.877   9.326  67.405  1.00  0.00    -0.229 C  
BRANCH   4  13
HETATM   13  O   UNL     1     -10.945  13.774  64.322  1.00  0.00    -0.367 OA 
HETATM   14  C   UNL     1     -10.065  14.651  65.042  1.00  0.00    -0.282 C  
ENDBRANCH   4  13
BRANCH  11  15
HETATM   15  C   UNL     1     -10.297   9.816  70.105  1.00  0.00    -0.335 C  
BRANCH  15  16
HETATM   16  C   UNL     1     -10.574   8.340  70.430  1.00  0.00    -0.231 C  
HETATM   17  C   UNL     1      -9.326   7.489  70.244  1.00  0.00    -0.161 C  
HETATM   18  C   UNL     1      -8.310   7.761  71.347  1.00  0.00    -0.111 C  
HETATM   19  N   UNL     1      -8.814   7.341  72.656  1.00  0.00    -0.124 NA 
HETATM   20  C   UNL     1     -10.051   8.064  72.979  1.00  0.00    -0.281 C  
HETATM   21  C   UNL     1     -11.115   8.128  71.867  1.00  0.00    -0.346 C  
BRANCH  19  22
HETATM   22  C   UNL     1      -8.936   5.873  72.768  1.00  0.00    -0.123 C  
BRANCH  22  23
HETATM   23  C   UNL     1      -7.614   5.220  73.142  1.00  0.00    -0.096 A  
HETATM   24  C   UNL     1      -7.598   3.903  73.625  1.00  0.00    -0.071 A  
HETATM   25  C   UNL     1      -6.412   3.327  74.085  1.00  0.00    -0.029 A  
HETATM   26  C   UNL     1      -5.227   4.060  74.069  1.00  0.00    -0.004 A  
HETATM   27  C   UNL     1      -5.225   5.369  73.588  1.00  0.00    -0.022 A  
HETATM   28  C   UNL     1      -6.410   5.946  73.124  1.00  0.00    -0.063 A  
ENDBRANCH  22  23
ENDBRANCH  19  22
ENDBRANCH  15  16
ENDBRANCH  11  15
ENDBRANCH   2   3
TORSDOF 6
ENDMDL
MODEL      104
REMARK 921   NORMALIZED FREE ENERGY PREDICTED BY IDOCK:   -4.54 KCAL/MOL
REMARK 922        TOTAL FREE ENERGY PREDICTED BY IDOCK:   -6.87 KCAL/MOL
REMARK 923 INTER-LIGAND FREE ENERGY PREDICTED BY IDOCK:   -6.12 KCAL/MOL
REMARK 924 INTRA-LIGAND FREE ENERGY PREDICTED BY IDOCK:   -0.75 KCAL/MOL
REMARK 927      BINDING AFFINITY PREDICTED BY RF-SCORE:    0.00 PKD
ROOT
HETATM    1  C   UNL     1     -10.529  19.721  66.256  1.00  0.00    -0.506 C  
HETATM    2  O   UNL     1      -9.229  19.192  66.037  1.00  0.00    -0.440 OA 
ENDROOT
BRANCH   2   3
HETATM    3  C   UNL     1      -8.971  17.924  66.488  1.00  0.00    -0.261 A  
HETATM    4  C   UNL     1      -7.659  17.442  66.235  1.00  0.00    -0.313 A  
HETATM    5  C   UNL     1      -7.202  16.260  66.805  1.00  0.00    -0.221 A  
HETATM    6  C   UNL     1      -9.915  17.079  67.100  1.00  0.00    -0.281 A  
HETATM    7  C   UNL     1      -9.512  15.794  67.428  1.00  0.00    -0.213 A  
HETATM    8  C   UNL     1      -8.157  15.474  67.393  1.00  0.00    -0.201 A  
HETATM    9  C   UNL     1      -8.027  14.067  67.682  1.00  0.00    -0.178 C  
HETATM   10  O   UNL     1      -7.016  13.535  68.122  1.00  0.00    -0.090 OA 
HETATM   11  C   UNL     1      -9.332  13.444  67.282  1.00  0.00    -0.233 C  
HETATM   12  C   UNL     1     -10.327  14.556  67.742  1.00  0.00    -0.237 C  
BRANCH   4  13
HETATM   13  O   UNL     1      -6.868  18.107  65.322  1.00  0.00    -0.465 OA 
HETATM   14  C   UNL     1      -5.716  18.688  65.950  1.00  0.00    -0.171 C  
ENDBRANCH   4  13
BRANCH  11  15
HETATM   15  C   UNL     1      -9.411  11.942  67.569  1.00  0.00    -0.177 C  
BRANCH  15  16
HETATM   16  C   UNL     1      -9.018  10.973  66.443  1.00  0.00    -0.190 C  
HETATM   17  C   UNL     1      -7.750  10.207  66.788  1.00  0.00    -0.105 C  
HETATM   18  C   UNL     1      -8.016   9.171  67.874  1.00  0.00    -0.101 C  
HETATM   19  N   UNL     1      -8.926   8.124  67.405  1.00  0.00    -0.136 NA 
HETATM   20  C   UNL     1     -10.210   8.712  67.002  1.00  0.00    -0.290 C  
HETATM   21  C   UNL     1     -10.138   9.957  66.099  1.00  0.00    -0.315 C  
BRANCH  19  22
HETATM   22  C   UNL     1      -8.313   7.268  66.370  1.00  0.00    -0.124 C  
BRANCH  22  23
HETATM   23  C   UNL     1      -8.507   5.788  66.669  1.00  0.00    -0.113 A  
HETATM   24  C   UNL     1      -8.175   4.831  65.699  1.00  0.00    -0.113 A  
HETATM   25  C   UNL     1      -8.456   3.479  65.906  1.00  0.00    -0.112 A  
HETATM   26  C   UNL     1      -9.072   3.067  67.086  1.00  0.00    -0.200 A  
HETATM   27  C   UNL     1      -9.403   4.005  68.063  1.00  0.00    -0.220 A  
HETATM   28  C   UNL     1      -9.120   5.359  67.859  1.00  0.00    -0.112 A  
ENDBRANCH  22  23
ENDBRANCH  19  22
ENDBRANCH  15  16
ENDBRANCH  11  15
ENDBRANCH   2   3
TORSDOF 6
ENDMDL
MODEL      105
REMARK 921   NORMALIZED FREE ENERGY PREDICTED BY IDOCK:   -4.52 KCAL/MOL
REMARK 922        TOTAL FREE ENERGY PREDICTED BY IDOCK:   -6.84 KCAL/MOL
REMARK 923 INTER-LIGAND FREE ENERGY PREDICTED BY IDOCK:   -6.51 KCAL/MOL
REMARK 924 INTRA-LIGAND FREE ENERGY PREDICTED BY IDOCK:   -0.33 KCAL/MOL
REMARK 927      BINDING AFFINITY PREDICTED BY RF-SCORE:    0.00 PKD
ROOT
HETATM    1  C   UNL     1     -12.868  12.350  63.937  1.00  0.00    -0.262 C  
HETATM    2  O   UNL     1     -11.512  12.570  64.297  1.00  0.00    -0.321 OA 
ENDROOT
BRANCH   2   3
HETATM    3  C   UNL     1     -11.100  12.135  65.529  1.00  0.00    -0.316 A  
HETATM    4  C   UNL     1      -9.967  11.278  65.525  1.00  0.00    -0.247 A  
HETATM    5  C   UNL     1      -9.326  10.923  66.706  1.00  0.00    -0.185 A  
HETATM    6  C   UNL     1     -11.752  12.419  66.744  1.00  0.00    -0.430 A  
HETATM    7  C   UNL     1     -11.249  11.835  67.896  1.00  0.00    -0.331 A  
HETATM    8  C   UNL     1      -9.998  11.225  67.862  1.00  0.00    -0.189 A  
HETATM    9  C   UNL     1      -9.763  10.624  69.152  1.00  0.00    -0.189 C  
HETATM   10  O   UNL     1      -8.658  10.366  69.611  1.00  0.00    -0.145 OA 
HETATM   11  C   UNL     1     -11.120  10.356  69.732  1.00  0.00    -0.352 C  
HETATM   12  C   UNL     1     -11.886  11.630  69.255  1.00  0.00    -0.396 C  
BRANCH   4  13
HETATM   13  O   UNL     1      -9.566  10.707  64.336  1.00  0.00    -0.241 OA 
HETATM   14  C   UNL     1      -8.300  10.044  64.472  1.00  0.00    -0.167 C  
ENDBRANCH   4  13
BRANCH  11  15
HETATM   15  C   UNL     1     -11.080   9.763  71.144  1.00  0.00    -0.414 C  
BRANCH  15  16
HETATM   16  C   UNL     1     -11.541   8.309  71.326  1.00  0.00    -0.318 C  
HETATM   17  C   UNL     1     -11.630   7.585  69.990  1.00  0.00     0.029 C  
HETATM   18  C   UNL     1     -10.242   7.298  69.432  1.00  0.00    -0.192 C  
HETATM   19  N   UNL     1      -9.507   6.356  70.278  1.00  0.00    -0.161 NA 
HETATM   20  C   UNL     1      -9.355   6.903  71.633  1.00  0.00    -0.154 C  
HETATM   21  C   UNL     1     -10.623   7.496  72.276  1.00  0.00    -0.280 C  
BRANCH  19  22
HETATM   22  C   UNL     1     -10.089   4.999  70.247  1.00  0.00    -0.269 C  
BRANCH  22  23
HETATM   23  C   UNL     1      -9.732   4.257  68.966  1.00  0.00    -0.209 A  
HETATM   24  C   UNL     1      -8.880   3.144  69.019  1.00  0.00    -0.161 A  
HETATM   25  C   UNL     1      -8.445   2.524  67.846  1.00  0.00    -0.100 A  
HETATM   26  C   UNL     1      -8.858   3.007  66.606  1.00  0.00    -0.155 A  
HETATM   27  C   UNL     1      -9.709   4.109  66.537  1.00  0.00    -0.228 A  
HETATM   28  C   UNL     1     -10.147   4.731  67.710  1.00  0.00    -0.129 A  
ENDBRANCH  22  23
ENDBRANCH  19  22
ENDBRANCH  15  16
ENDBRANCH  11  15
ENDBRANCH   2   3
TORSDOF 6
ENDMDL
MODEL      106
REMARK 921   NORMALIZED FREE ENERGY PREDICTED BY IDOCK:   -4.52 KCAL/MOL
REMARK 922        TOTAL FREE ENERGY PREDICTED BY IDOCK:   -6.84 KCAL/MOL
REMARK 923 INTER-LIGAND FREE ENERGY PREDICTED BY IDOCK:   -6.19 KCAL/MOL
REMARK 924 INTRA-LIGAND FREE ENERGY PREDICTED BY IDOCK:   -0.65 KCAL/MOL
REMARK 927      BINDING AFFINITY PREDICTED BY RF-SCORE:    0.00 PKD
ROOT
HETATM    1  C   UNL     1      -6.645  19.487  67.942  1.00  0.00    -0.230 C  
HETATM    2  O   UNL     1      -7.555  19.561  66.855  1.00  0.00    -0.235 OA 
ENDROOT
BRANCH   2   3
HETATM    3  C   UNL     1      -8.347  18.470  66.611  1.00  0.00    -0.272 A  
HETATM    4  C   UNL     1      -9.745  18.723  66.588  1.00  0.00    -0.344 A  
HETATM    5  C   UNL     1     -10.647  17.757  66.161  1.00  0.00    -0.235 A  
HETATM    6  C   UNL     1      -7.878  17.152  66.457  1.00  0.00    -0.325 A  
HETATM    7  C   UNL     1      -8.820  16.148  66.293  1.00  0.00    -0.371 A  
HETATM    8  C   UNL     1     -10.142  16.490  66.022  1.00  0.00    -0.368 A  
HETATM    9  C   UNL     1     -10.917  15.275  65.993  1.00  0.00    -0.317 C  
HETATM   10  O   UNL     1     -11.985  15.141  65.410  1.00  0.00    -0.119 OA 
HETATM   11  C   UNL     1     -10.171  14.293  66.847  1.00  0.00    -0.266 C  
HETATM   12  C   UNL     1      -8.700  14.647  66.463  1.00  0.00    -0.115 C  
BRANCH   4  13
HETATM   13  O   UNL     1     -10.215  19.913  67.103  1.00  0.00    -0.396 OA 
HETATM   14  C   UNL     1     -10.261  19.883  68.538  1.00  0.00    -0.409 C  
ENDBRANCH   4  13
BRANCH  11  15
HETATM   15  C   UNL     1     -10.816  12.904  66.895  1.00  0.00    -0.278 C  
BRANCH  15  16
HETATM   16  C   UNL     1     -10.753  12.128  68.219  1.00  0.00    -0.248 C  
HETATM   17  C   UNL     1     -11.578  10.851  68.152  1.00  0.00    -0.317 C  
HETATM   18  C   UNL     1     -10.902   9.811  67.266  1.00  0.00    -0.177 C  
HETATM   19  N   UNL     1      -9.631   9.363  67.838  1.00  0.00    -0.133 NA 
HETATM   20  C   UNL     1      -8.716  10.501  67.993  1.00  0.00    -0.128 C  
HETATM   21  C   UNL     1      -9.306  11.768  68.642  1.00  0.00    -0.096 C  
BRANCH  19  22
HETATM   22  C   UNL     1      -9.816   8.575  69.073  1.00  0.00    -0.183 C  
BRANCH  22  23
HETATM   23  C   UNL     1      -8.505   8.374  69.820  1.00  0.00    -0.127 A  
HETATM   24  C   UNL     1      -7.488   7.595  69.249  1.00  0.00    -0.094 A  
HETATM   25  C   UNL     1      -6.328   7.300  69.967  1.00  0.00    -0.028 A  
HETATM   26  C   UNL     1      -6.169   7.780  71.265  1.00  0.00    -0.035 A  
HETATM   27  C   UNL     1      -7.168   8.560  71.845  1.00  0.00    -0.113 A  
HETATM   28  C   UNL     1      -8.329   8.859  71.128  1.00  0.00    -0.232 A  
ENDBRANCH  22  23
ENDBRANCH  19  22
ENDBRANCH  15  16
ENDBRANCH  11  15
ENDBRANCH   2   3
TORSDOF 6
ENDMDL
MODEL      107
REMARK 921   NORMALIZED FREE ENERGY PREDICTED BY IDOCK:   -4.50 KCAL/MOL
REMARK 922        TOTAL FREE ENERGY PREDICTED BY IDOCK:   -6.81 KCAL/MOL
REMARK 923 INTER-LIGAND FREE ENERGY PREDICTED BY IDOCK:   -6.30 KCAL/MOL
REMARK 924 INTRA-LIGAND FREE ENERGY PREDICTED BY IDOCK:   -0.51 KCAL/MOL
REMARK 927      BINDING AFFINITY PREDICTED BY RF-SCORE:    0.00 PKD
ROOT
HETATM    1  C   UNL     1      -6.286  19.306  68.680  1.00  0.00    -0.249 C  
HETATM    2  O   UNL     1      -7.009  19.331  67.458  1.00  0.00    -0.207 OA 
ENDROOT
BRANCH   2   3
HETATM    3  C   UNL     1      -7.716  18.209  67.113  1.00  0.00    -0.219 A  
HETATM    4  C   UNL     1      -9.078  18.427  66.772  1.00  0.00    -0.292 A  
HETATM    5  C   UNL     1      -9.854  17.417  66.217  1.00  0.00    -0.291 A  
HETATM    6  C   UNL     1      -7.210  16.896  67.143  1.00  0.00    -0.215 A  
HETATM    7  C   UNL     1      -8.081  15.863  66.837  1.00  0.00    -0.285 A  
HETATM    8  C   UNL     1      -9.316  16.158  66.265  1.00  0.00    -0.351 A  
HETATM    9  C   UNL     1     -10.052  14.924  66.140  1.00  0.00    -0.298 C  
HETATM   10  O   UNL     1     -10.965  14.733  65.347  1.00  0.00    -0.321 OA 
HETATM   11  C   UNL     1      -9.500  14.009  67.192  1.00  0.00    -0.241 C  
HETATM   12  C   UNL     1      -7.984  14.377  67.117  1.00  0.00    -0.147 C  
BRANCH   4  13
HETATM   13  O   UNL     1      -9.663  19.631  67.101  1.00  0.00    -0.320 OA 
HETATM   14  C   UNL     1     -10.494  20.119  66.036  1.00  0.00    -0.337 C  
ENDBRANCH   4  13
BRANCH  11  15
HETATM   15  C   UNL     1     -10.123  12.609  67.180  1.00  0.00    -0.224 C  
BRANCH  15  16
HETATM   16  C   UNL     1      -9.374  11.483  67.908  1.00  0.00    -0.171 C  
HETATM   17  C   UNL     1     -10.207  10.210  67.963  1.00  0.00    -0.205 C  
HETATM   18  C   UNL     1     -10.293   9.554  66.591  1.00  0.00    -0.210 C  
HETATM   19  N   UNL     1      -8.983   9.081  66.139  1.00  0.00    -0.165 NA 
HETATM   20  C   UNL     1      -8.040  10.204  66.055  1.00  0.00    -0.129 C  
HETATM   21  C   UNL     1      -8.001  11.155  67.267  1.00  0.00    -0.137 C  
BRANCH  19  22
HETATM   22  C   UNL     1      -8.486   7.946  66.942  1.00  0.00    -0.128 C  
BRANCH  22  23
HETATM   23  C   UNL     1      -8.966   6.609  66.393  1.00  0.00    -0.161 A  
HETATM   24  C   UNL     1      -8.336   6.048  65.273  1.00  0.00    -0.148 A  
HETATM   25  C   UNL     1      -8.835   4.885  64.684  1.00  0.00    -0.139 A  
HETATM   26  C   UNL     1      -9.970   4.268  65.206  1.00  0.00    -0.229 A  
HETATM   27  C   UNL     1     -10.605   4.811  66.323  1.00  0.00    -0.246 A  
HETATM   28  C   UNL     1     -10.106   5.974  66.916  1.00  0.00    -0.229 A  
ENDBRANCH  22  23
ENDBRANCH  19  22
ENDBRANCH  15  16
ENDBRANCH  11  15
ENDBRANCH   2   3
TORSDOF 6
ENDMDL
MODEL      108
REMARK 921   NORMALIZED FREE ENERGY PREDICTED BY IDOCK:   -4.45 KCAL/MOL
REMARK 922        TOTAL FREE ENERGY PREDICTED BY IDOCK:   -6.74 KCAL/MOL
REMARK 923 INTER-LIGAND FREE ENERGY PREDICTED BY IDOCK:   -6.02 KCAL/MOL
REMARK 924 INTRA-LIGAND FREE ENERGY PREDICTED BY IDOCK:   -0.73 KCAL/MOL
REMARK 927      BINDING AFFINITY PREDICTED BY RF-SCORE:    0.00 PKD
ROOT
HETATM    1  C   UNL     1      -9.651   2.147  70.407  1.00  0.00    -0.036 C  
HETATM    2  O   UNL     1      -8.501   2.980  70.446  1.00  0.00    -0.057 OA 
ENDROOT
BRANCH   2   3
HETATM    3  C   UNL     1      -8.697   4.332  70.550  1.00  0.00    -0.079 A  
HETATM    4  C   UNL     1      -7.911   4.988  71.535  1.00  0.00    -0.112 A  
HETATM    5  C   UNL     1      -7.862   6.374  71.614  1.00  0.00    -0.101 A  
HETATM    6  C   UNL     1      -9.644   5.068  69.815  1.00  0.00    -0.240 A  
HETATM    7  C   UNL     1      -9.769   6.419  70.096  1.00  0.00    -0.185 A  
HETATM    8  C   UNL     1      -8.801   7.046  70.877  1.00  0.00    -0.148 A  
HETATM    9  C   UNL     1      -9.220   8.410  71.091  1.00  0.00    -0.174 C  
HETATM   10  O   UNL     1      -8.468   9.335  71.370  1.00  0.00    -0.325 OA 
HETATM   11  C   UNL     1     -10.713   8.406  70.955  1.00  0.00    -0.260 C  
HETATM   12  C   UNL     1     -10.886   7.393  69.779  1.00  0.00    -0.246 C  
BRANCH   4  13
HETATM   13  O   UNL     1      -7.274   4.229  72.494  1.00  0.00    -0.062 OA 
HETATM   14  C   UNL     1      -8.112   4.020  73.641  1.00  0.00    -0.089 C  
ENDBRANCH   4  13
BRANCH  11  15
HETATM   15  C   UNL     1     -11.348   9.794  71.094  1.00  0.00    -0.459 C  
BRANCH  15  16
HETATM   16  C   UNL     1     -12.130  10.350  69.894  1.00  0.00    -0.252 C  
HETATM   17  C   UNL     1     -12.744  11.705  70.213  1.00  0.00    -0.043 C  
HETATM   18  C   UNL     1     -11.672  12.786  70.286  1.00  0.00    -0.107 C  
HETATM   19  N   UNL     1     -11.037  13.001  68.985  1.00  0.00    -0.248 NA 
HETATM   20  C   UNL     1     -10.409  11.759  68.515  1.00  0.00    -0.217 C  
HETATM   21  C   UNL     1     -11.263  10.482  68.614  1.00  0.00    -0.328 C  
BRANCH  19  22
HETATM   22  C   UNL     1     -11.958  13.609  68.003  1.00  0.00    -0.350 C  
BRANCH  22  23
HETATM   23  C   UNL     1     -11.341  14.824  67.323  1.00  0.00    -0.366 A  
HETATM   24  C   UNL     1     -10.686  14.677  66.091  1.00  0.00    -0.314 A  
HETATM   25  C   UNL     1     -10.012  15.752  65.510  1.00  0.00    -0.341 A  
HETATM   26  C   UNL     1      -9.985  16.989  66.151  1.00  0.00    -0.314 A  
HETATM   27  C   UNL     1     -10.636  17.153  67.373  1.00  0.00    -0.297 A  
HETATM   28  C   UNL     1     -11.313  16.078  67.956  1.00  0.00    -0.266 A  
ENDBRANCH  22  23
ENDBRANCH  19  22
ENDBRANCH  15  16
ENDBRANCH  11  15
ENDBRANCH   2   3
TORSDOF 6
ENDMDL
MODEL      109
REMARK 921   NORMALIZED FREE ENERGY PREDICTED BY IDOCK:   -4.42 KCAL/MOL
REMARK 922        TOTAL FREE ENERGY PREDICTED BY IDOCK:   -6.71 KCAL/MOL
REMARK 923 INTER-LIGAND FREE ENERGY PREDICTED BY IDOCK:   -6.44 KCAL/MOL
REMARK 924 INTRA-LIGAND FREE ENERGY PREDICTED BY IDOCK:   -0.27 KCAL/MOL
REMARK 927      BINDING AFFINITY PREDICTED BY RF-SCORE:    0.00 PKD
ROOT
HETATM    1  C   UNL     1     -12.454  15.626  74.548  1.00  0.00    -0.588 C  
HETATM    2  O   UNL     1     -12.893  14.617  73.651  1.00  0.00    -0.508 OA 
ENDROOT
BRANCH   2   3
HETATM    3  C   UNL     1     -12.611  14.780  72.320  1.00  0.00    -0.335 A  
HETATM    4  C   UNL     1     -12.770  13.620  71.516  1.00  0.00    -0.332 A  
HETATM    5  C   UNL     1     -12.710  13.688  70.130  1.00  0.00    -0.111 A  
HETATM    6  C   UNL     1     -12.124  15.966  71.739  1.00  0.00    -0.567 A  
HETATM    7  C   UNL     1     -11.815  15.941  70.388  1.00  0.00    -0.358 A  
HETATM    8  C   UNL     1     -12.235  14.864  69.611  1.00  0.00    -0.299 A  
HETATM    9  C   UNL     1     -11.704  15.043  68.282  1.00  0.00    -0.314 C  
HETATM   10  O   UNL     1     -12.174  14.540  67.269  1.00  0.00    -0.347 OA 
HETATM   11  C   UNL     1     -10.479  15.893  68.441  1.00  0.00    -0.254 C  
HETATM   12  C   UNL     1     -10.962  16.875  69.555  1.00  0.00    -0.053 C  
BRANCH   4  13
HETATM   13  O   UNL     1     -12.879  12.391  72.133  1.00  0.00    -0.238 OA 
HETATM   14  C   UNL     1     -12.862  11.320  71.176  1.00  0.00    -0.352 C  
ENDBRANCH   4  13
BRANCH  11  15
HETATM   15  C   UNL     1      -9.798  16.246  67.115  1.00  0.00    -0.243 C  
BRANCH  15  16
HETATM   16  C   UNL     1      -8.616  15.375  66.661  1.00  0.00    -0.318 C  
HETATM   17  C   UNL     1      -7.595  15.203  67.775  1.00  0.00    -0.171 C  
HETATM   18  C   UNL     1      -8.127  14.283  68.867  1.00  0.00    -0.063 C  
HETATM   19  N   UNL     1      -8.320  12.919  68.371  1.00  0.00    -0.146 NA 
HETATM   20  C   UNL     1      -9.276  12.914  67.257  1.00  0.00    -0.208 C  
HETATM   21  C   UNL     1      -9.053  13.974  66.161  1.00  0.00     0.043 C  
BRANCH  19  22
HETATM   22  C   UNL     1      -7.042  12.246  68.062  1.00  0.00    -0.099 C  
BRANCH  22  23
HETATM   23  C   UNL     1      -7.258  10.853  67.487  1.00  0.00    -0.095 A  
HETATM   24  C   UNL     1      -7.699   9.815  68.320  1.00  0.00    -0.085 A  
HETATM   25  C   UNL     1      -7.789   8.507  67.841  1.00  0.00    -0.103 A  
HETATM   26  C   UNL     1      -7.438   8.219  66.523  1.00  0.00    -0.081 A  
HETATM   27  C   UNL     1      -7.002   9.241  65.681  1.00  0.00    -0.082 A  
HETATM   28  C   UNL     1      -6.915  10.552  66.157  1.00  0.00    -0.131 A  
ENDBRANCH  22  23
ENDBRANCH  19  22
ENDBRANCH  15  16
ENDBRANCH  11  15
ENDBRANCH   2   3
TORSDOF 6
ENDMDL
MODEL      110
REMARK 921   NORMALIZED FREE ENERGY PREDICTED BY IDOCK:   -4.41 KCAL/MOL
REMARK 922        TOTAL FREE ENERGY PREDICTED BY IDOCK:   -6.70 KCAL/MOL
REMARK 923 INTER-LIGAND FREE ENERGY PREDICTED BY IDOCK:   -6.10 KCAL/MOL
REMARK 924 INTRA-LIGAND FREE ENERGY PREDICTED BY IDOCK:   -0.60 KCAL/MOL
REMARK 927      BINDING AFFINITY PREDICTED BY RF-SCORE:    0.00 PKD
ROOT
HETATM    1  C   UNL     1      -8.064   3.410  74.536  1.00  0.00    -0.069 C  
HETATM    2  O   UNL     1      -8.757   3.013  73.362  1.00  0.00    -0.076 OA 
ENDROOT
BRANCH   2   3
HETATM    3  C   UNL     1      -9.452   3.974  72.676  1.00  0.00    -0.128 A  
HETATM    4  C   UNL     1      -9.388   3.879  71.260  1.00  0.00    -0.143 A  
HETATM    5  C   UNL     1     -10.198   4.661  70.446  1.00  0.00    -0.208 A  
HETATM    6  C   UNL     1     -10.139   5.050  73.268  1.00  0.00    -0.190 A  
HETATM    7  C   UNL     1     -10.727   5.981  72.427  1.00  0.00    -0.267 A  
HETATM    8  C   UNL     1     -10.851   5.693  71.070  1.00  0.00    -0.289 A  
HETATM    9  C   UNL     1     -11.402   6.855  70.419  1.00  0.00    -0.328 C  
HETATM   10  O   UNL     1     -12.005   6.838  69.353  1.00  0.00     0.014 OA 
HETATM   11  C   UNL     1     -11.030   8.024  71.281  1.00  0.00    -0.269 C  
HETATM   12  C   UNL     1     -11.204   7.393  72.699  1.00  0.00    -0.379 C  
BRANCH   4  13
HETATM   13  O   UNL     1      -8.428   3.071  70.688  1.00  0.00    -0.055 OA 
HETATM   14  C   UNL     1      -9.010   1.892  70.110  1.00  0.00    -0.084 C  
ENDBRANCH   4  13
BRANCH  11  15
HETATM   15  C   UNL     1     -11.583   9.361  70.779  1.00  0.00    -0.364 C  
BRANCH  15  16
HETATM   16  C   UNL     1     -10.609  10.327  70.087  1.00  0.00    -0.303 C  
HETATM   17  C   UNL     1      -9.923   9.666  68.900  1.00  0.00    -0.186 C  
HETATM   18  C   UNL     1     -10.896   9.482  67.742  1.00  0.00    -0.195 C  
HETATM   19  N   UNL     1     -11.338  10.769  67.203  1.00  0.00    -0.371 NA 
HETATM   20  C   UNL     1     -12.009  11.553  68.248  1.00  0.00    -0.169 C  
HETATM   21  C   UNL     1     -11.290  11.635  69.608  1.00  0.00    -0.308 C  
BRANCH  19  22
HETATM   22  C   UNL     1     -10.251  11.497  66.519  1.00  0.00    -0.218 C  
BRANCH  22  23
HETATM   23  C   UNL     1      -9.697  10.714  65.337  1.00  0.00    -0.306 A  
HETATM   24  C   UNL     1      -8.612   9.845  65.522  1.00  0.00    -0.157 A  
HETATM   25  C   UNL     1      -8.014   9.209  64.433  1.00  0.00    -0.137 A  
HETATM   26  C   UNL     1      -8.494   9.433  63.144  1.00  0.00    -0.205 A  
HETATM   27  C   UNL     1      -9.575  10.290  62.943  1.00  0.00    -0.290 A  
HETATM   28  C   UNL     1     -10.177  10.925  64.033  1.00  0.00    -0.422 A  
ENDBRANCH  22  23
ENDBRANCH  19  22
ENDBRANCH  15  16
ENDBRANCH  11  15
ENDBRANCH   2   3
TORSDOF 6
ENDMDL
MODEL      111
REMARK 921   NORMALIZED FREE ENERGY PREDICTED BY IDOCK:   -4.41 KCAL/MOL
REMARK 922        TOTAL FREE ENERGY PREDICTED BY IDOCK:   -6.70 KCAL/MOL
REMARK 923 INTER-LIGAND FREE ENERGY PREDICTED BY IDOCK:   -6.25 KCAL/MOL
REMARK 924 INTRA-LIGAND FREE ENERGY PREDICTED BY IDOCK:   -0.44 KCAL/MOL
REMARK 927      BINDING AFFINITY PREDICTED BY RF-SCORE:    0.00 PKD
ROOT
HETATM    1  C   UNL     1      -6.221   2.350  67.466  1.00  0.00    -0.028 C  
HETATM    2  O   UNL     1      -7.557   2.555  67.030  1.00  0.00    -0.068 OA 
ENDROOT
BRANCH   2   3
HETATM    3  C   UNL     1      -8.360   3.362  67.792  1.00  0.00    -0.085 A  
HETATM    4  C   UNL     1      -9.229   4.219  67.065  1.00  0.00    -0.149 A  
HETATM    5  C   UNL     1     -10.229   4.942  67.703  1.00  0.00    -0.135 A  
HETATM    6  C   UNL     1      -8.325   3.439  69.197  1.00  0.00    -0.084 A  
HETATM    7  C   UNL     1      -9.151   4.366  69.812  1.00  0.00    -0.174 A  
HETATM    8  C   UNL     1     -10.155   4.984  69.071  1.00  0.00    -0.238 A  
HETATM    9  C   UNL     1     -10.795   5.959  69.918  1.00  0.00    -0.369 C  
HETATM   10  O   UNL     1     -11.931   6.388  69.756  1.00  0.00    -0.257 OA 
HETATM   11  C   UNL     1      -9.774   6.340  70.949  1.00  0.00    -0.197 C  
HETATM   12  C   UNL     1      -9.106   4.953  71.208  1.00  0.00    -0.179 C  
BRANCH   4  13
HETATM   13  O   UNL     1      -9.001   4.414  65.719  1.00  0.00    -0.121 OA 
HETATM   14  C   UNL     1      -8.270   5.626  65.481  1.00  0.00    -0.129 C  
ENDBRANCH   4  13
BRANCH  11  15
HETATM   15  C   UNL     1     -10.292   7.338  71.989  1.00  0.00    -0.217 C  
BRANCH  15  16
HETATM   16  C   UNL     1      -9.912   8.816  71.818  1.00  0.00    -0.396 C  
HETATM   17  C   UNL     1      -8.704   8.976  70.907  1.00  0.00    -0.280 C  
HETATM   18  C   UNL     1      -9.072   8.683  69.457  1.00  0.00    -0.146 C  
HETATM   19  N   UNL     1     -10.021   9.668  68.936  1.00  0.00    -0.172 NA 
HETATM   20  C   UNL     1     -11.253   9.659  69.735  1.00  0.00    -0.174 C  
HETATM   21  C   UNL     1     -11.074   9.681  71.265  1.00  0.00    -0.426 C  
BRANCH  19  22
HETATM   22  C   UNL     1      -9.418  11.008  68.788  1.00  0.00    -0.183 C  
BRANCH  22  23
HETATM   23  C   UNL     1     -10.349  11.975  68.069  1.00  0.00    -0.206 A  
HETATM   24  C   UNL     1     -10.810  13.122  68.731  1.00  0.00    -0.278 A  
HETATM   25  C   UNL     1     -11.756  13.957  68.134  1.00  0.00    -0.388 A  
HETATM   26  C   UNL     1     -12.253  13.656  66.868  1.00  0.00    -0.398 A  
HETATM   27  C   UNL     1     -11.801  12.522  66.194  1.00  0.00    -0.459 A  
HETATM   28  C   UNL     1     -10.852  11.686  66.789  1.00  0.00    -0.322 A  
ENDBRANCH  22  23
ENDBRANCH  19  22
ENDBRANCH  15  16
ENDBRANCH  11  15
ENDBRANCH   2   3
TORSDOF 6
ENDMDL
MODEL      112
REMARK 921   NORMALIZED FREE ENERGY PREDICTED BY IDOCK:   -4.36 KCAL/MOL
REMARK 922        TOTAL FREE ENERGY PREDICTED BY IDOCK:   -6.62 KCAL/MOL
REMARK 923 INTER-LIGAND FREE ENERGY PREDICTED BY IDOCK:   -6.52 KCAL/MOL
REMARK 924 INTRA-LIGAND FREE ENERGY PREDICTED BY IDOCK:   -0.11 KCAL/MOL
REMARK 927      BINDING AFFINITY PREDICTED BY RF-SCORE:    0.00 PKD
ROOT
HETATM    1  C   UNL     1      -7.000  18.423  66.019  1.00  0.00    -0.275 C  
HETATM    2  O   UNL     1      -8.409  18.429  65.833  1.00  0.00    -0.502 OA 
ENDROOT
BRANCH   2   3
HETATM    3  C   UNL     1      -9.124  17.378  66.345  1.00  0.00    -0.248 A  
HETATM    4  C   UNL     1      -9.549  17.528  67.692  1.00  0.00    -0.266 A  
HETATM    5  C   UNL     1     -10.443  16.636  68.270  1.00  0.00    -0.321 A  
HETATM    6  C   UNL     1      -9.389  16.176  65.663  1.00  0.00    -0.081 A  
HETATM    7  C   UNL     1     -10.061  15.180  66.353  1.00  0.00    -0.286 A  
HETATM    8  C   UNL     1     -10.673  15.483  67.567  1.00  0.00    -0.300 A  
HETATM    9  C   UNL     1     -11.211  14.259  68.109  1.00  0.00    -0.275 C  
HETATM   10  O   UNL     1     -12.127  14.198  68.919  1.00  0.00    -0.345 OA 
HETATM   11  C   UNL     1     -10.387  13.153  67.520  1.00  0.00    -0.225 C  
HETATM   12  C   UNL     1     -10.183  13.696  66.071  1.00  0.00    -0.312 C  
BRANCH   4  13
HETATM   13  O   UNL     1      -8.979  18.517  68.465  1.00  0.00    -0.316 OA 
HETATM   14  C   UNL     1      -9.974  19.394  69.014  1.00  0.00    -0.406 C  
ENDBRANCH   4  13
BRANCH  11  15
HETATM   15  C   UNL     1     -10.848  11.753  67.938  1.00  0.00    -0.255 C  
BRANCH  15  16
HETATM   16  C   UNL     1     -10.136  10.545  67.311  1.00  0.00    -0.242 C  
HETATM   17  C   UNL     1      -8.626  10.647  67.474  1.00  0.00    -0.122 C  
HETATM   18  C   UNL     1      -8.216  10.405  68.921  1.00  0.00    -0.132 C  
HETATM   19  N   UNL     1      -8.509   9.033  69.340  1.00  0.00    -0.114 NA 
HETATM   20  C   UNL     1      -9.947   8.762  69.217  1.00  0.00    -0.194 C  
HETATM   21  C   UNL     1     -10.612   9.190  67.895  1.00  0.00    -0.272 C  
BRANCH  19  22
HETATM   22  C   UNL     1      -7.656   8.041  68.656  1.00  0.00    -0.100 C  
BRANCH  22  23
HETATM   23  C   UNL     1      -8.445   6.812  68.228  1.00  0.00    -0.125 A  
HETATM   24  C   UNL     1      -8.724   5.801  69.159  1.00  0.00    -0.113 A  
HETATM   25  C   UNL     1      -9.341   4.615  68.760  1.00  0.00    -0.197 A  
HETATM   26  C   UNL     1      -9.687   4.423  67.424  1.00  0.00    -0.217 A  
HETATM   27  C   UNL     1      -9.422   5.420  66.486  1.00  0.00    -0.158 A  
HETATM   28  C   UNL     1      -8.807   6.610  66.884  1.00  0.00    -0.118 A  
ENDBRANCH  22  23
ENDBRANCH  19  22
ENDBRANCH  15  16
ENDBRANCH  11  15
ENDBRANCH   2   3
TORSDOF 6
ENDMDL
MODEL      113
REMARK 921   NORMALIZED FREE ENERGY PREDICTED BY IDOCK:   -4.35 KCAL/MOL
REMARK 922        TOTAL FREE ENERGY PREDICTED BY IDOCK:   -6.61 KCAL/MOL
REMARK 923 INTER-LIGAND FREE ENERGY PREDICTED BY IDOCK:   -5.64 KCAL/MOL
REMARK 924 INTRA-LIGAND FREE ENERGY PREDICTED BY IDOCK:   -0.97 KCAL/MOL
REMARK 927      BINDING AFFINITY PREDICTED BY RF-SCORE:    0.00 PKD
ROOT
HETATM    1  C   UNL     1      -7.077  16.938  69.282  1.00  0.00    -0.192 C  
HETATM    2  O   UNL     1      -8.436  16.996  68.875  1.00  0.00    -0.253 OA 
ENDROOT
BRANCH   2   3
HETATM    3  C   UNL     1      -9.036  15.826  68.490  1.00  0.00    -0.194 A  
HETATM    4  C   UNL     1     -10.427  15.734  68.766  1.00  0.00    -0.228 A  
HETATM    5  C   UNL     1     -11.197  14.696  68.257  1.00  0.00    -0.301 A  
HETATM    6  C   UNL     1      -8.368  14.725  67.923  1.00  0.00    -0.151 A  
HETATM    7  C   UNL     1      -9.111  13.585  67.662  1.00  0.00    -0.205 A  
HETATM    8  C   UNL     1     -10.501  13.650  67.711  1.00  0.00    -0.241 A  
HETATM    9  C   UNL     1     -11.014  12.319  67.495  1.00  0.00    -0.254 C  
HETATM   10  O   UNL     1     -12.138  12.063  67.082  1.00  0.00    -0.587 OA 
HETATM   11  C   UNL     1      -9.925  11.384  67.928  1.00  0.00    -0.190 C  
HETATM   12  C   UNL     1      -8.670  12.157  67.412  1.00  0.00    -0.177 C  
BRANCH   4  13
HETATM   13  O   UNL     1     -10.994  16.635  69.643  1.00  0.00    -0.318 OA 
HETATM   14  C   UNL     1     -11.575  15.971  70.775  1.00  0.00    -0.400 C  
ENDBRANCH   4  13
BRANCH  11  15
HETATM   15  C   UNL     1     -10.263   9.905  67.719  1.00  0.00    -0.241 C  
BRANCH  15  16
HETATM   16  C   UNL     1     -10.776   9.107  68.928  1.00  0.00    -0.167 C  
HETATM   17  C   UNL     1     -10.295   7.664  68.883  1.00  0.00    -0.222 C  
HETATM   18  C   UNL     1      -8.805   7.576  69.188  1.00  0.00    -0.136 C  
HETATM   19  N   UNL     1      -8.514   7.986  70.563  1.00  0.00    -0.123 NA 
HETATM   20  C   UNL     1      -8.948   9.372  70.782  1.00  0.00    -0.191 C  
HETATM   21  C   UNL     1     -10.362   9.731  70.285  1.00  0.00    -0.348 C  
BRANCH  19  22
HETATM   22  C   UNL     1      -9.043   7.033  71.559  1.00  0.00    -0.139 C  
BRANCH  22  23
HETATM   23  C   UNL     1      -7.941   6.177  72.168  1.00  0.00    -0.109 A  
HETATM   24  C   UNL     1      -6.757   6.779  72.617  1.00  0.00    -0.063 A  
HETATM   25  C   UNL     1      -5.689   6.002  73.068  1.00  0.00    -0.037 A  
HETATM   26  C   UNL     1      -5.791   4.612  73.076  1.00  0.00    -0.013 A  
HETATM   27  C   UNL     1      -6.963   3.998  72.638  1.00  0.00    -0.052 A  
HETATM   28  C   UNL     1      -8.035   4.775  72.189  1.00  0.00    -0.106 A  
ENDBRANCH  22  23
ENDBRANCH  19  22
ENDBRANCH  15  16
ENDBRANCH  11  15
ENDBRANCH   2   3
TORSDOF 6
ENDMDL
MODEL      114
REMARK 921   NORMALIZED FREE ENERGY PREDICTED BY IDOCK:   -4.35 KCAL/MOL
REMARK 922        TOTAL FREE ENERGY PREDICTED BY IDOCK:   -6.61 KCAL/MOL
REMARK 923 INTER-LIGAND FREE ENERGY PREDICTED BY IDOCK:   -5.80 KCAL/MOL
REMARK 924 INTRA-LIGAND FREE ENERGY PREDICTED BY IDOCK:   -0.81 KCAL/MOL
REMARK 927      BINDING AFFINITY PREDICTED BY RF-SCORE:    0.00 PKD
ROOT
HETATM    1  C   UNL     1     -10.747  19.980  66.650  1.00  0.00    -0.244 C  
HETATM    2  O   UNL     1     -10.565  19.442  67.952  1.00  0.00    -0.422 OA 
ENDROOT
BRANCH   2   3
HETATM    3  C   UNL     1     -10.109  18.153  68.051  1.00  0.00    -0.367 A  
HETATM    4  C   UNL     1      -8.713  18.017  68.277  1.00  0.00    -0.283 A  
HETATM    5  C   UNL     1      -8.150  16.787  68.592  1.00  0.00    -0.251 A  
HETATM    6  C   UNL     1     -10.900  17.002  67.878  1.00  0.00    -0.302 A  
HETATM    7  C   UNL     1     -10.266  15.771  67.934  1.00  0.00    -0.242 A  
HETATM    8  C   UNL     1      -8.960  15.697  68.412  1.00  0.00    -0.185 A  
HETATM    9  C   UNL     1      -8.515  14.332  68.274  1.00  0.00    -0.167 C  
HETATM   10  O   UNL     1      -7.617  13.820  68.931  1.00  0.00    -0.113 OA 
HETATM   11  C   UNL     1      -9.331  13.745  67.161  1.00  0.00    -0.240 C  
HETATM   12  C   UNL     1     -10.715  14.408  67.447  1.00  0.00    -0.280 C  
BRANCH   4  13
HETATM   13  O   UNL     1      -7.895  19.108  68.072  1.00  0.00    -0.273 OA 
HETATM   14  C   UNL     1      -6.889  19.208  69.092  1.00  0.00    -0.326 C  
ENDBRANCH   4  13
BRANCH  11  15
HETATM   15  C   UNL     1      -9.041  12.264  66.899  1.00  0.00    -0.208 C  
BRANCH  15  16
HETATM   16  C   UNL     1      -9.582  11.236  67.905  1.00  0.00    -0.182 C  
HETATM   17  C   UNL     1     -10.591  10.302  67.253  1.00  0.00    -0.324 C  
HETATM   18  C   UNL     1      -9.900   9.327  66.307  1.00  0.00    -0.291 C  
HETATM   19  N   UNL     1      -9.012   8.415  67.031  1.00  0.00    -0.138 NA 
HETATM   20  C   UNL     1      -7.979   9.174  67.747  1.00  0.00    -0.101 C  
HETATM   21  C   UNL     1      -8.465  10.387  68.564  1.00  0.00    -0.129 C  
BRANCH  19  22
HETATM   22  C   UNL     1      -9.755   7.468  67.887  1.00  0.00    -0.146 C  
BRANCH  22  23
HETATM   23  C   UNL     1      -8.821   6.541  68.652  1.00  0.00    -0.121 A  
HETATM   24  C   UNL     1      -8.066   5.583  67.959  1.00  0.00    -0.096 A  
HETATM   25  C   UNL     1      -7.296   4.647  68.651  1.00  0.00    -0.061 A  
HETATM   26  C   UNL     1      -7.270   4.655  70.044  1.00  0.00    -0.053 A  
HETATM   27  C   UNL     1      -8.011   5.604  70.748  1.00  0.00    -0.112 A  
HETATM   28  C   UNL     1      -8.780   6.544  70.058  1.00  0.00    -0.140 A  
ENDBRANCH  22  23
ENDBRANCH  19  22
ENDBRANCH  15  16
ENDBRANCH  11  15
ENDBRANCH   2   3
TORSDOF 6
ENDMDL
MODEL      115
REMARK 921   NORMALIZED FREE ENERGY PREDICTED BY IDOCK:   -4.33 KCAL/MOL
REMARK 922        TOTAL FREE ENERGY PREDICTED BY IDOCK:   -6.59 KCAL/MOL
REMARK 923 INTER-LIGAND FREE ENERGY PREDICTED BY IDOCK:   -6.01 KCAL/MOL
REMARK 924 INTRA-LIGAND FREE ENERGY PREDICTED BY IDOCK:   -0.57 KCAL/MOL
REMARK 927      BINDING AFFINITY PREDICTED BY RF-SCORE:    0.00 PKD
ROOT
HETATM    1  C   UNL     1     -11.784   6.255  71.652  1.00  0.00    -0.284 C  
HETATM    2  O   UNL     1     -11.253   6.011  70.358  1.00  0.00    -0.337 OA 
ENDROOT
BRANCH   2   3
HETATM    3  C   UNL     1     -10.391   6.940  69.836  1.00  0.00    -0.205 A  
HETATM    4  C   UNL     1      -9.066   6.480  69.605  1.00  0.00    -0.141 A  
HETATM    5  C   UNL     1      -8.148   7.250  68.903  1.00  0.00    -0.128 A  
HETATM    6  C   UNL     1     -10.710   8.288  69.593  1.00  0.00    -0.196 A  
HETATM    7  C   UNL     1      -9.698   9.117  69.135  1.00  0.00    -0.163 A  
HETATM    8  C   UNL     1      -8.505   8.555  68.686  1.00  0.00    -0.131 A  
HETATM    9  C   UNL     1      -7.603   9.632  68.361  1.00  0.00    -0.081 C  
HETATM   10  O   UNL     1      -6.657   9.541  67.588  1.00  0.00    -0.062 OA 
HETATM   11  C   UNL     1      -8.042  10.799  69.193  1.00  0.00    -0.133 C  
HETATM   12  C   UNL     1      -9.592  10.628  69.122  1.00  0.00    -0.193 C  
BRANCH   4  13
HETATM   13  O   UNL     1      -8.661   5.296  70.184  1.00  0.00    -0.112 OA 
HETATM   14  C   UNL     1      -7.593   5.507  71.120  1.00  0.00    -0.102 C  
ENDBRANCH   4  13
BRANCH  11  15
HETATM   15  C   UNL     1      -7.229  12.074  68.943  1.00  0.00    -0.089 C  
BRANCH  15  16
HETATM   16  C   UNL     1      -7.403  12.783  67.591  1.00  0.00    -0.144 C  
HETATM   17  C   UNL     1      -8.860  13.144  67.340  1.00  0.00    -0.204 C  
HETATM   18  C   UNL     1      -9.301  14.292  68.239  1.00  0.00    -0.208 C  
HETATM   19  N   UNL     1      -8.586  15.530  67.919  1.00  0.00    -0.154 NA 
HETATM   20  C   UNL     1      -7.140  15.339  68.091  1.00  0.00    -0.119 C  
HETATM   21  C   UNL     1      -6.541  14.065  67.465  1.00  0.00    -0.101 C  
BRANCH  19  22
HETATM   22  C   UNL     1      -8.962  16.072  66.598  1.00  0.00    -0.260 C  
BRANCH  22  23
HETATM   23  C   UNL     1      -9.276  17.560  66.663  1.00  0.00    -0.277 A  
HETATM   24  C   UNL     1      -8.258  18.499  66.441  1.00  0.00    -0.289 A  
HETATM   25  C   UNL     1      -8.497  19.863  66.613  1.00  0.00    -0.381 A  
HETATM   26  C   UNL     1      -9.757  20.307  67.008  1.00  0.00    -0.598 A  
HETATM   27  C   UNL     1     -10.781  19.388  67.228  1.00  0.00    -0.603 A  
HETATM   28  C   UNL     1     -10.545  18.021  67.055  1.00  0.00    -0.320 A  
ENDBRANCH  22  23
ENDBRANCH  19  22
ENDBRANCH  15  16
ENDBRANCH  11  15
ENDBRANCH   2   3
TORSDOF 6
ENDMDL
MODEL      116
REMARK 921   NORMALIZED FREE ENERGY PREDICTED BY IDOCK:   -4.33 KCAL/MOL
REMARK 922        TOTAL FREE ENERGY PREDICTED BY IDOCK:   -6.58 KCAL/MOL
REMARK 923 INTER-LIGAND FREE ENERGY PREDICTED BY IDOCK:   -5.66 KCAL/MOL
REMARK 924 INTRA-LIGAND FREE ENERGY PREDICTED BY IDOCK:   -0.93 KCAL/MOL
REMARK 927      BINDING AFFINITY PREDICTED BY RF-SCORE:    0.00 PKD
ROOT
HETATM    1  C   UNL     1     -10.845  16.907  67.668  1.00  0.00    -0.244 C  
HETATM    2  O   UNL     1     -11.107  16.086  66.539  1.00  0.00    -0.156 OA 
ENDROOT
BRANCH   2   3
HETATM    3  C   UNL     1     -10.545  14.837  66.515  1.00  0.00    -0.299 A  
HETATM    4  C   UNL     1     -10.840  14.057  65.364  1.00  0.00    -0.328 A  
HETATM    5  C   UNL     1     -10.184  12.859  65.116  1.00  0.00    -0.288 A  
HETATM    6  C   UNL     1      -9.780  14.276  67.555  1.00  0.00    -0.223 A  
HETATM    7  C   UNL     1      -9.349  12.968  67.404  1.00  0.00    -0.209 A  
HETATM    8  C   UNL     1      -9.448  12.356  66.157  1.00  0.00    -0.201 A  
HETATM    9  C   UNL     1      -9.023  10.985  66.302  1.00  0.00    -0.185 C  
HETATM   10  O   UNL     1      -8.604  10.284  65.390  1.00  0.00    -0.146 OA 
HETATM   11  C   UNL     1      -9.259  10.632  67.740  1.00  0.00    -0.151 C  
HETATM   12  C   UNL     1      -8.847  11.971  68.429  1.00  0.00    -0.149 C  
BRANCH   4  13
HETATM   13  O   UNL     1     -11.874  14.450  64.540  1.00  0.00    -0.422 OA 
HETATM   14  C   UNL     1     -12.226  13.415  63.610  1.00  0.00    -0.414 C  
ENDBRANCH   4  13
BRANCH  11  15
HETATM   15  C   UNL     1      -8.810   9.215  68.108  1.00  0.00    -0.129 C  
BRANCH  15  16
HETATM   16  C   UNL     1      -9.870   8.103  68.111  1.00  0.00    -0.194 C  
HETATM   17  C   UNL     1     -10.098   7.552  66.711  1.00  0.00    -0.313 C  
HETATM   18  C   UNL     1      -8.912   6.711  66.256  1.00  0.00    -0.152 C  
HETATM   19  N   UNL     1      -8.764   5.505  67.074  1.00  0.00    -0.109 NA 
HETATM   20  C   UNL     1      -8.558   5.870  68.482  1.00  0.00    -0.110 C  
HETATM   21  C   UNL     1      -9.515   6.929  69.060  1.00  0.00    -0.137 C  
BRANCH  19  22
HETATM   22  C   UNL     1      -9.864   4.543  66.863  1.00  0.00    -0.213 C  
BRANCH  22  23
HETATM   23  C   UNL     1      -9.771   3.862  65.505  1.00  0.00    -0.176 A  
HETATM   24  C   UNL     1      -8.622   3.132  65.167  1.00  0.00    -0.104 A  
HETATM   25  C   UNL     1      -8.467   2.601  63.886  1.00  0.00    -0.086 A  
HETATM   26  C   UNL     1      -9.458   2.793  62.925  1.00  0.00    -0.093 A  
HETATM   27  C   UNL     1     -10.608   3.512  63.246  1.00  0.00    -0.246 A  
HETATM   28  C   UNL     1     -10.767   4.043  64.530  1.00  0.00    -0.181 A  
ENDBRANCH  22  23
ENDBRANCH  19  22
ENDBRANCH  15  16
ENDBRANCH  11  15
ENDBRANCH   2   3
TORSDOF 6
ENDMDL
MODEL      117
REMARK 921   NORMALIZED FREE ENERGY PREDICTED BY IDOCK:   -4.32 KCAL/MOL
REMARK 922        TOTAL FREE ENERGY PREDICTED BY IDOCK:   -6.57 KCAL/MOL
REMARK 923 INTER-LIGAND FREE ENERGY PREDICTED BY IDOCK:   -5.76 KCAL/MOL
REMARK 924 INTRA-LIGAND FREE ENERGY PREDICTED BY IDOCK:   -0.82 KCAL/MOL
REMARK 927      BINDING AFFINITY PREDICTED BY RF-SCORE:    0.00 PKD
ROOT
HETATM    1  C   UNL     1     -11.147  16.409  68.886  1.00  0.00    -0.328 C  
HETATM    2  O   UNL     1     -11.569  15.337  69.718  1.00  0.00    -0.270 OA 
ENDROOT
BRANCH   2   3
HETATM    3  C   UNL     1     -11.278  14.062  69.311  1.00  0.00    -0.261 A  
HETATM    4  C   UNL     1     -11.996  13.031  69.975  1.00  0.00    -0.312 A  
HETATM    5  C   UNL     1     -11.947  11.716  69.531  1.00  0.00    -0.383 A  
HETATM    6  C   UNL     1     -10.297  13.722  68.361  1.00  0.00    -0.247 A  
HETATM    7  C   UNL     1     -10.073  12.377  68.118  1.00  0.00    -0.224 A  
HETATM    8  C   UNL     1     -10.978  11.436  68.602  1.00  0.00    -0.267 A  
HETATM    9  C   UNL     1     -10.462  10.125  68.295  1.00  0.00    -0.211 C  
HETATM   10  O   UNL     1     -11.142   9.111  68.203  1.00  0.00    -0.030 OA 
HETATM   11  C   UNL     1      -8.975  10.286  68.180  1.00  0.00    -0.130 C  
HETATM   12  C   UNL     1      -8.898  11.674  67.469  1.00  0.00    -0.158 C  
BRANCH   4  13
HETATM   13  O   UNL     1     -12.665  13.330  71.143  1.00  0.00    -0.357 OA 
HETATM   14  C   UNL     1     -13.097  12.140  71.820  1.00  0.00    -0.352 C  
ENDBRANCH   4  13
BRANCH  11  15
HETATM   15  C   UNL     1      -8.243   8.997  67.796  1.00  0.00    -0.109 C  
BRANCH  15  16
HETATM   16  C   UNL     1      -7.398   8.302  68.874  1.00  0.00    -0.090 C  
HETATM   17  C   UNL     1      -8.127   8.263  70.210  1.00  0.00    -0.104 C  
HETATM   18  C   UNL     1      -9.280   7.269  70.173  1.00  0.00    -0.152 C  
HETATM   19  N   UNL     1      -8.800   5.895  70.010  1.00  0.00    -0.136 NA 
HETATM   20  C   UNL     1      -8.041   5.768  68.759  1.00  0.00    -0.102 C  
HETATM   21  C   UNL     1      -6.988   6.858  68.486  1.00  0.00    -0.076 C  
BRANCH  19  22
HETATM   22  C   UNL     1      -8.072   5.409  71.199  1.00  0.00    -0.111 C  
BRANCH  22  23
HETATM   23  C   UNL     1      -8.980   4.633  72.143  1.00  0.00    -0.143 A  
HETATM   24  C   UNL     1      -9.370   3.325  71.819  1.00  0.00    -0.201 A  
HETATM   25  C   UNL     1     -10.295   2.641  72.609  1.00  0.00    -0.226 A  
HETATM   26  C   UNL     1     -10.841   3.254  73.735  1.00  0.00    -0.310 A  
HETATM   27  C   UNL     1     -10.460   4.552  74.074  1.00  0.00    -0.319 A  
HETATM   28  C   UNL     1      -9.532   5.238  73.285  1.00  0.00    -0.148 A  
ENDBRANCH  22  23
ENDBRANCH  19  22
ENDBRANCH  15  16
ENDBRANCH  11  15
ENDBRANCH   2   3
TORSDOF 6
ENDMDL
MODEL      118
REMARK 921   NORMALIZED FREE ENERGY PREDICTED BY IDOCK:   -4.30 KCAL/MOL
REMARK 922        TOTAL FREE ENERGY PREDICTED BY IDOCK:   -6.55 KCAL/MOL
REMARK 923 INTER-LIGAND FREE ENERGY PREDICTED BY IDOCK:   -6.03 KCAL/MOL
REMARK 924 INTRA-LIGAND FREE ENERGY PREDICTED BY IDOCK:   -0.52 KCAL/MOL
REMARK 927      BINDING AFFINITY PREDICTED BY RF-SCORE:    0.00 PKD
ROOT
HETATM    1  C   UNL     1     -11.474  16.131  68.361  1.00  0.00    -0.298 C  
HETATM    2  O   UNL     1     -10.942  15.667  67.129  1.00  0.00    -0.319 OA 
ENDROOT
BRANCH   2   3
HETATM    3  C   UNL     1     -10.606  14.342  67.038  1.00  0.00    -0.274 A  
HETATM    4  C   UNL     1     -10.513  13.826  65.718  1.00  0.00    -0.299 A  
HETATM    5  C   UNL     1      -9.993  12.561  65.472  1.00  0.00    -0.248 A  
HETATM    6  C   UNL     1     -10.423  13.479  68.135  1.00  0.00    -0.249 A  
HETATM    7  C   UNL     1     -10.162  12.145  67.868  1.00  0.00    -0.203 A  
HETATM    8  C   UNL     1      -9.830  11.760  66.572  1.00  0.00    -0.228 A  
HETATM    9  C   UNL     1      -9.704  10.323  66.555  1.00  0.00    -0.193 C  
HETATM   10  O   UNL     1      -9.054   9.689  65.734  1.00  0.00    -0.160 OA 
HETATM   11  C   UNL     1     -10.557   9.824  67.683  1.00  0.00    -0.333 C  
HETATM   12  C   UNL     1     -10.275  10.922  68.756  1.00  0.00    -0.210 C  
BRANCH   4  13
HETATM   13  O   UNL     1     -11.050  14.554  64.677  1.00  0.00    -0.382 OA 
HETATM   14  C   UNL     1     -12.210  13.911  64.129  1.00  0.00    -0.393 C  
ENDBRANCH   4  13
BRANCH  11  15
HETATM   15  C   UNL     1     -10.508   8.304  67.866  1.00  0.00    -0.259 C  
BRANCH  15  16
HETATM   16  C   UNL     1      -9.530   7.736  68.906  1.00  0.00    -0.150 C  
HETATM   17  C   UNL     1     -10.150   7.718  70.296  1.00  0.00    -0.195 C  
HETATM   18  C   UNL     1     -11.220   6.639  70.402  1.00  0.00    -0.344 C  
HETATM   19  N   UNL     1     -10.646   5.299  70.270  1.00  0.00    -0.260 NA 
HETATM   20  C   UNL     1      -9.978   5.159  68.970  1.00  0.00    -0.195 C  
HETATM   21  C   UNL     1      -9.038   6.307  68.558  1.00  0.00    -0.125 C  
BRANCH  19  22
HETATM   22  C   UNL     1      -9.794   4.936  71.419  1.00  0.00    -0.186 C  
BRANCH  22  23
HETATM   23  C   UNL     1      -8.835   3.803  71.081  1.00  0.00    -0.135 A  
HETATM   24  C   UNL     1      -7.452   3.994  71.217  1.00  0.00    -0.051 A  
HETATM   25  C   UNL     1      -6.553   3.012  70.800  1.00  0.00    -0.032 A  
HETATM   26  C   UNL     1      -7.023   1.825  70.242  1.00  0.00    -0.033 A  
HETATM   27  C   UNL     1      -8.395   1.617  70.104  1.00  0.00    -0.065 A  
HETATM   28  C   UNL     1      -9.298   2.598  70.523  1.00  0.00    -0.213 A  
ENDBRANCH  22  23
ENDBRANCH  19  22
ENDBRANCH  15  16
ENDBRANCH  11  15
ENDBRANCH   2   3
TORSDOF 6
ENDMDL
MODEL      119
REMARK 921   NORMALIZED FREE ENERGY PREDICTED BY IDOCK:   -4.28 KCAL/MOL
REMARK 922        TOTAL FREE ENERGY PREDICTED BY IDOCK:   -6.52 KCAL/MOL
REMARK 923 INTER-LIGAND FREE ENERGY PREDICTED BY IDOCK:   -5.94 KCAL/MOL
REMARK 924 INTRA-LIGAND FREE ENERGY PREDICTED BY IDOCK:   -0.58 KCAL/MOL
REMARK 927      BINDING AFFINITY PREDICTED BY RF-SCORE:    0.00 PKD
ROOT
HETATM    1  C   UNL     1      -8.176   3.304  74.097  1.00  0.00    -0.070 C  
HETATM    2  O   UNL     1      -8.445   2.883  72.767  1.00  0.00    -0.070 OA 
ENDROOT
BRANCH   2   3
HETATM    3  C   UNL     1      -9.100   3.758  71.942  1.00  0.00    -0.113 A  
HETATM    4  C   UNL     1      -8.765   3.663  70.564  1.00  0.00    -0.074 A  
HETATM    5  C   UNL     1      -9.489   4.348  69.596  1.00  0.00    -0.252 A  
HETATM    6  C   UNL     1      -9.997   4.754  72.370  1.00  0.00    -0.226 A  
HETATM    7  C   UNL     1     -10.515   5.610  71.412  1.00  0.00    -0.300 A  
HETATM    8  C   UNL     1     -10.353   5.303  70.063  1.00  0.00    -0.365 A  
HETATM    9  C   UNL     1     -10.896   6.395  69.293  1.00  0.00    -0.327 C  
HETATM   10  O   UNL     1     -11.286   6.306  68.135  1.00  0.00    -0.327 OA 
HETATM   11  C   UNL     1     -10.819   7.601  70.180  1.00  0.00    -0.255 C  
HETATM   12  C   UNL     1     -11.184   6.962  71.556  1.00  0.00    -0.290 C  
BRANCH   4  13
HETATM   13  O   UNL     1      -7.634   2.964  70.199  1.00  0.00    -0.043 OA 
HETATM   14  C   UNL     1      -6.530   3.846  69.944  1.00  0.00    -0.032 C  
ENDBRANCH   4  13
BRANCH  11  15
HETATM   15  C   UNL     1     -11.410   8.867  69.551  1.00  0.00     0.206 C  
BRANCH  15  16
HETATM   16  C   UNL     1     -10.936  10.226  70.088  1.00  0.00    -0.377 C  
HETATM   17  C   UNL     1      -9.515  10.533  69.638  1.00  0.00    -0.029 C  
HETATM   18  C   UNL     1      -9.474  10.869  68.152  1.00  0.00    -0.165 C  
HETATM   19  N   UNL     1     -10.197  12.108  67.862  1.00  0.00    -0.193 NA 
HETATM   20  C   UNL     1     -11.603  11.983  68.268  1.00  0.00    -0.334 C  
HETATM   21  C   UNL     1     -11.859  11.399  69.670  1.00  0.00    -0.431 C  
BRANCH  19  22
HETATM   22  C   UNL     1      -9.521  13.298  68.418  1.00  0.00    -0.172 C  
BRANCH  22  23
HETATM   23  C   UNL     1      -9.846  14.558  67.628  1.00  0.00    -0.223 A  
HETATM   24  C   UNL     1     -10.528  14.459  66.406  1.00  0.00    -0.295 A  
HETATM   25  C   UNL     1     -10.731  15.588  65.610  1.00  0.00    -0.378 A  
HETATM   26  C   UNL     1     -10.255  16.830  66.025  1.00  0.00    -0.361 A  
HETATM   27  C   UNL     1      -9.579  16.946  67.239  1.00  0.00    -0.246 A  
HETATM   28  C   UNL     1      -9.377  15.818  68.039  1.00  0.00    -0.197 A  
ENDBRANCH  22  23
ENDBRANCH  19  22
ENDBRANCH  15  16
ENDBRANCH  11  15
ENDBRANCH   2   3
TORSDOF 6
ENDMDL
MODEL      120
REMARK 921   NORMALIZED FREE ENERGY PREDICTED BY IDOCK:   -4.21 KCAL/MOL
REMARK 922        TOTAL FREE ENERGY PREDICTED BY IDOCK:   -6.42 KCAL/MOL
REMARK 923 INTER-LIGAND FREE ENERGY PREDICTED BY IDOCK:   -5.51 KCAL/MOL
REMARK 924 INTRA-LIGAND FREE ENERGY PREDICTED BY IDOCK:   -0.91 KCAL/MOL
REMARK 927      BINDING AFFINITY PREDICTED BY RF-SCORE:    0.00 PKD
ROOT
HETATM    1  C   UNL     1     -11.644   4.567  73.228  1.00  0.00    -0.157 C  
HETATM    2  O   UNL     1     -10.366   5.030  72.816  1.00  0.00    -0.179 OA 
ENDROOT
BRANCH   2   3
HETATM    3  C   UNL     1     -10.172   5.264  71.480  1.00  0.00    -0.212 A  
HETATM    4  C   UNL     1      -9.007   4.675  70.921  1.00  0.00    -0.120 A  
HETATM    5  C   UNL     1      -8.791   4.665  69.548  1.00  0.00    -0.121 A  
HETATM    6  C   UNL     1     -10.991   6.080  70.678  1.00  0.00    -0.376 A  
HETATM    7  C   UNL     1     -10.611   6.276  69.360  1.00  0.00    -0.330 A  
HETATM    8  C   UNL     1      -9.616   5.471  68.809  1.00  0.00    -0.175 A  
HETATM    9  C   UNL     1      -9.353   5.945  67.472  1.00  0.00    -0.110 C  
HETATM   10  O   UNL     1      -8.861   5.270  66.577  1.00  0.00    -0.114 OA 
HETATM   11  C   UNL     1      -9.750   7.391  67.464  1.00  0.00    -0.186 C  
HETATM   12  C   UNL     1     -11.027   7.337  68.361  1.00  0.00    -0.028 C  
BRANCH   4  13
HETATM   13  O   UNL     1      -8.026   4.203  71.767  1.00  0.00    -0.079 OA 
HETATM   14  C   UNL     1      -6.730   4.258  71.152  1.00  0.00    -0.031 C  
ENDBRANCH   4  13
BRANCH  11  15
HETATM   15  C   UNL     1      -9.596   8.064  66.096  1.00  0.00    -0.159 C  
BRANCH  15  16
HETATM   16  C   UNL     1      -8.705   9.312  66.006  1.00  0.00    -0.175 C  
HETATM   17  C   UNL     1      -9.344  10.387  65.140  1.00  0.00    -0.271 C  
HETATM   18  C   UNL     1     -10.531  11.026  65.850  1.00  0.00    -0.240 C  
HETATM   19  N   UNL     1     -10.109  11.761  67.044  1.00  0.00    -0.207 NA 
HETATM   20  C   UNL     1      -9.440  10.855  67.987  1.00  0.00    -0.163 C  
HETATM   21  C   UNL     1      -8.370   9.919  67.393  1.00  0.00    -0.118 C  
BRANCH  19  22
HETATM   22  C   UNL     1      -9.321  12.965  66.715  1.00  0.00    -0.243 C  
BRANCH  22  23
HETATM   23  C   UNL     1      -9.967  14.233  67.256  1.00  0.00    -0.252 A  
HETATM   24  C   UNL     1      -9.260  15.444  67.226  1.00  0.00    -0.217 A  
HETATM   25  C   UNL     1      -9.786  16.591  67.824  1.00  0.00    -0.240 A  
HETATM   26  C   UNL     1     -11.026  16.542  68.458  1.00  0.00    -0.350 A  
HETATM   27  C   UNL     1     -11.743  15.347  68.492  1.00  0.00    -0.355 A  
HETATM   28  C   UNL     1     -11.220  14.198  67.892  1.00  0.00    -0.299 A  
ENDBRANCH  22  23
ENDBRANCH  19  22
ENDBRANCH  15  16
ENDBRANCH  11  15
ENDBRANCH   2   3
TORSDOF 6
ENDMDL
MODEL      121
REMARK 921   NORMALIZED FREE ENERGY PREDICTED BY IDOCK:   -4.20 KCAL/MOL
REMARK 922        TOTAL FREE ENERGY PREDICTED BY IDOCK:   -6.42 KCAL/MOL
REMARK 923 INTER-LIGAND FREE ENERGY PREDICTED BY IDOCK:   -5.44 KCAL/MOL
REMARK 924 INTRA-LIGAND FREE ENERGY PREDICTED BY IDOCK:   -0.97 KCAL/MOL
REMARK 927      BINDING AFFINITY PREDICTED BY RF-SCORE:    0.00 PKD
ROOT
HETATM    1  C   UNL     1      -9.516   1.641  62.920  1.00  0.00    -0.090 C  
HETATM    2  O   UNL     1      -8.978   1.857  64.217  1.00  0.00    -0.098 OA 
ENDROOT
BRANCH   2   3
HETATM    3  C   UNL     1      -8.869   3.150  64.655  1.00  0.00    -0.115 A  
HETATM    4  C   UNL     1      -7.584   3.738  64.508  1.00  0.00    -0.080 A  
HETATM    5  C   UNL     1      -7.381   5.095  64.725  1.00  0.00    -0.067 A  
HETATM    6  C   UNL     1      -9.897   3.879  65.282  1.00  0.00    -0.178 A  
HETATM    7  C   UNL     1      -9.599   5.153  65.736  1.00  0.00    -0.138 A  
HETATM    8  C   UNL     1      -8.412   5.761  65.334  1.00  0.00    -0.151 A  
HETATM    9  C   UNL     1      -8.308   7.026  66.019  1.00  0.00    -0.134 C  
HETATM   10  O   UNL     1      -7.642   7.977  65.632  1.00  0.00    -0.078 OA 
HETATM   11  C   UNL     1      -9.118   6.881  67.273  1.00  0.00    -0.127 C  
HETATM   12  C   UNL     1     -10.316   6.036  66.737  1.00  0.00    -0.296 C  
BRANCH   4  13
HETATM   13  O   UNL     1      -6.503   2.921  64.250  1.00  0.00    -0.029 OA 
HETATM   14  C   UNL     1      -5.899   3.233  62.986  1.00  0.00    -0.013 C  
ENDBRANCH   4  13
BRANCH  11  15
HETATM   15  C   UNL     1      -9.177   8.156  68.119  1.00  0.00    -0.136 C  
BRANCH  15  16
HETATM   16  C   UNL     1     -10.456   9.005  68.050  1.00  0.00    -0.270 C  
HETATM   17  C   UNL     1     -10.438  10.119  69.087  1.00  0.00    -0.242 C  
HETATM   18  C   UNL     1      -9.442  11.206  68.703  1.00  0.00    -0.193 C  
HETATM   19  N   UNL     1      -9.846  11.894  67.475  1.00  0.00    -0.186 NA 
HETATM   20  C   UNL     1      -9.937  10.938  66.364  1.00  0.00    -0.221 C  
HETATM   21  C   UNL     1     -10.695   9.628  66.651  1.00  0.00    -0.102 C  
BRANCH  19  22
HETATM   22  C   UNL     1     -11.064  12.707  67.660  1.00  0.00    -0.263 C  
BRANCH  22  23
HETATM   23  C   UNL     1     -11.136  13.859  66.667  1.00  0.00    -0.310 A  
HETATM   24  C   UNL     1     -12.081  13.829  65.631  1.00  0.00    -0.444 A  
HETATM   25  C   UNL     1     -12.085  14.813  64.642  1.00  0.00    -0.437 A  
HETATM   26  C   UNL     1     -11.144  15.841  64.674  1.00  0.00    -0.376 A  
HETATM   27  C   UNL     1     -10.201  15.887  65.700  1.00  0.00    -0.406 A  
HETATM   28  C   UNL     1     -10.197  14.904  66.693  1.00  0.00    -0.264 A  
ENDBRANCH  22  23
ENDBRANCH  19  22
ENDBRANCH  15  16
ENDBRANCH  11  15
ENDBRANCH   2   3
TORSDOF 6
ENDMDL
MODEL      122
REMARK 921   NORMALIZED FREE ENERGY PREDICTED BY IDOCK:   -4.17 KCAL/MOL
REMARK 922        TOTAL FREE ENERGY PREDICTED BY IDOCK:   -6.37 KCAL/MOL
REMARK 923 INTER-LIGAND FREE ENERGY PREDICTED BY IDOCK:   -5.95 KCAL/MOL
REMARK 924 INTRA-LIGAND FREE ENERGY PREDICTED BY IDOCK:   -0.42 KCAL/MOL
REMARK 927      BINDING AFFINITY PREDICTED BY RF-SCORE:    0.00 PKD
ROOT
HETATM    1  C   UNL     1     -12.012  16.200  72.918  1.00  0.00    -0.520 C  
HETATM    2  O   UNL     1     -12.609  14.947  72.618  1.00  0.00    -0.337 OA 
ENDROOT
BRANCH   2   3
HETATM    3  C   UNL     1     -12.278  14.351  71.430  1.00  0.00    -0.352 A  
HETATM    4  C   UNL     1     -12.830  13.058  71.221  1.00  0.00    -0.281 A  
HETATM    5  C   UNL     1     -12.741  12.426  69.988  1.00  0.00     0.279 A  
HETATM    6  C   UNL     1     -11.401  14.893  70.472  1.00  0.00    -0.280 A  
HETATM    7  C   UNL     1     -11.111  14.125  69.356  1.00  0.00    -0.261 A  
HETATM    8  C   UNL     1     -11.878  12.994  69.087  1.00  0.00    -0.360 A  
HETATM    9  C   UNL     1     -11.309  12.336  67.937  1.00  0.00    -0.298 C  
HETATM   10  O   UNL     1     -11.919  11.577  67.194  1.00  0.00    -0.581 OA 
HETATM   11  C   UNL     1      -9.865  12.738  67.908  1.00  0.00    -0.223 C  
HETATM   12  C   UNL     1      -9.978  14.229  68.355  1.00  0.00    -0.240 C  
BRANCH   4  13
HETATM   13  O   UNL     1     -13.368  12.382  72.295  1.00  0.00    -0.522 OA 
HETATM   14  C   UNL     1     -13.557  10.990  71.998  1.00  0.00    -0.044 C  
ENDBRANCH   4  13
BRANCH  11  15
HETATM   15  C   UNL     1      -9.094  12.178  66.708  1.00  0.00    -0.205 C  
BRANCH  15  16
HETATM   16  C   UNL     1      -8.186  10.961  66.942  1.00  0.00    -0.135 C  
HETATM   17  C   UNL     1      -7.489  11.042  68.292  1.00  0.00    -0.092 C  
HETATM   18  C   UNL     1      -8.471  10.794  69.430  1.00  0.00     0.016 C  
HETATM   19  N   UNL     1      -8.992   9.425  69.400  1.00  0.00    -0.148 NA 
HETATM   20  C   UNL     1      -9.684   9.173  68.129  1.00  0.00    -0.154 C  
HETATM   21  C   UNL     1      -8.945   9.612  66.851  1.00  0.00    -0.151 C  
BRANCH  19  22
HETATM   22  C   UNL     1      -7.958   8.422  69.723  1.00  0.00    -0.104 C  
BRANCH  22  23
HETATM   23  C   UNL     1      -8.434   7.004  69.443  1.00  0.00    -0.133 A  
HETATM   24  C   UNL     1      -9.344   6.388  70.315  1.00  0.00    -0.165 A  
HETATM   25  C   UNL     1      -9.702   5.050  70.143  1.00  0.00    -0.280 A  
HETATM   26  C   UNL     1      -9.154   4.309  69.098  1.00  0.00    -0.185 A  
HETATM   27  C   UNL     1      -8.252   4.908  68.219  1.00  0.00    -0.085 A  
HETATM   28  C   UNL     1      -7.895   6.249  68.387  1.00  0.00    -0.105 A  
ENDBRANCH  22  23
ENDBRANCH  19  22
ENDBRANCH  15  16
ENDBRANCH  11  15
ENDBRANCH   2   3
TORSDOF 6
ENDMDL
MODEL      123
REMARK 921   NORMALIZED FREE ENERGY PREDICTED BY IDOCK:   -4.15 KCAL/MOL
REMARK 922        TOTAL FREE ENERGY PREDICTED BY IDOCK:   -6.34 KCAL/MOL
REMARK 923 INTER-LIGAND FREE ENERGY PREDICTED BY IDOCK:   -5.55 KCAL/MOL
REMARK 924 INTRA-LIGAND FREE ENERGY PREDICTED BY IDOCK:   -0.79 KCAL/MOL
REMARK 927      BINDING AFFINITY PREDICTED BY RF-SCORE:    0.00 PKD
ROOT
HETATM    1  C   UNL     1      -9.424   1.776  71.099  1.00  0.00    -0.133 C  
HETATM    2  O   UNL     1      -8.463   2.599  71.745  1.00  0.00    -0.062 OA 
ENDROOT
BRANCH   2   3
HETATM    3  C   UNL     1      -8.629   3.957  71.662  1.00  0.00    -0.093 A  
HETATM    4  C   UNL     1      -9.070   4.591  72.854  1.00  0.00    -0.120 A  
HETATM    5  C   UNL     1      -9.090   5.975  72.971  1.00  0.00    -0.130 A  
HETATM    6  C   UNL     1      -8.462   4.719  70.491  1.00  0.00    -0.106 A  
HETATM    7  C   UNL     1      -8.745   6.074  70.559  1.00  0.00    -0.138 A  
HETATM    8  C   UNL     1      -8.918   6.674  71.804  1.00  0.00    -0.140 A  
HETATM    9  C   UNL     1      -9.291   8.050  71.585  1.00  0.00    -0.160 C  
HETATM   10  O   UNL     1      -9.135   8.953  72.397  1.00  0.00    -0.372 OA 
HETATM   11  C   UNL     1      -9.929   8.090  70.229  1.00  0.00    -0.189 C  
HETATM   12  C   UNL     1      -9.020   7.080  69.460  1.00  0.00    -0.143 C  
BRANCH   4  13
HETATM   13  O   UNL     1      -9.586   3.815  73.870  1.00  0.00    -0.101 OA 
HETATM   14  C   UNL     1     -11.021   3.772  73.821  1.00  0.00    -0.227 C  
ENDBRANCH   4  13
BRANCH  11  15
HETATM   15  C   UNL     1     -10.347   9.496  69.787  1.00  0.00    -0.251 C  
BRANCH  15  16
HETATM   16  C   UNL     1     -10.154   9.871  68.309  1.00  0.00    -0.185 C  
HETATM   17  C   UNL     1     -11.110  10.979  67.890  1.00  0.00    -0.347 C  
HETATM   18  C   UNL     1     -10.701  12.313  68.502  1.00  0.00    -0.237 C  
HETATM   19  N   UNL     1      -9.409  12.768  67.984  1.00  0.00    -0.207 NA 
HETATM   20  C   UNL     1      -8.365  11.781  68.289  1.00  0.00    -0.159 C  
HETATM   21  C   UNL     1      -8.704  10.310  67.980  1.00  0.00    -0.122 C  
BRANCH  19  22
HETATM   22  C   UNL     1      -9.475  13.142  66.557  1.00  0.00    -0.243 C  
BRANCH  22  23
HETATM   23  C   UNL     1      -9.604  14.648  66.370  1.00  0.00    -0.323 A  
HETATM   24  C   UNL     1      -8.748  15.513  67.066  1.00  0.00    -0.258 A  
HETATM   25  C   UNL     1      -8.926  16.896  67.001  1.00  0.00    -0.232 A  
HETATM   26  C   UNL     1      -9.963  17.432  66.240  1.00  0.00    -0.306 A  
HETATM   27  C   UNL     1     -10.820  16.585  65.538  1.00  0.00    -0.196 A  
HETATM   28  C   UNL     1     -10.641  15.200  65.599  1.00  0.00    -0.370 A  
ENDBRANCH  22  23
ENDBRANCH  19  22
ENDBRANCH  15  16
ENDBRANCH  11  15
ENDBRANCH   2   3
TORSDOF 6
ENDMDL
MODEL      124
REMARK 921   NORMALIZED FREE ENERGY PREDICTED BY IDOCK:   -4.09 KCAL/MOL
REMARK 922        TOTAL FREE ENERGY PREDICTED BY IDOCK:   -6.26 KCAL/MOL
REMARK 923 INTER-LIGAND FREE ENERGY PREDICTED BY IDOCK:   -5.97 KCAL/MOL
REMARK 924 INTRA-LIGAND FREE ENERGY PREDICTED BY IDOCK:   -0.29 KCAL/MOL
REMARK 927      BINDING AFFINITY PREDICTED BY RF-SCORE:    0.00 PKD
ROOT
HETATM    1  C   UNL     1      -6.426   3.620  62.347  1.00  0.00    -0.022 C  
HETATM    2  O   UNL     1      -7.415   3.009  63.163  1.00  0.00    -0.052 OA 
ENDROOT
BRANCH   2   3
HETATM    3  C   UNL     1      -8.024   3.784  64.115  1.00  0.00    -0.086 A  
HETATM    4  C   UNL     1      -9.439   3.873  64.015  1.00  0.00    -0.157 A  
HETATM    5  C   UNL     1     -10.198   4.458  65.020  1.00  0.00    -0.166 A  
HETATM    6  C   UNL     1      -7.351   4.524  65.104  1.00  0.00    -0.072 A  
HETATM    7  C   UNL     1      -8.113   5.321  65.943  1.00  0.00    -0.110 A  
HETATM    8  C   UNL     1      -9.497   5.164  65.963  1.00  0.00    -0.170 A  
HETATM    9  C   UNL     1     -10.044   6.169  66.841  1.00  0.00    -0.183 C  
HETATM   10  O   UNL     1     -11.130   6.089  67.402  1.00  0.00    -0.302 OA 
HETATM   11  C   UNL     1      -9.048   7.290  66.852  1.00  0.00    -0.162 C  
HETATM   12  C   UNL     1      -7.714   6.480  66.834  1.00  0.00    -0.100 C  
BRANCH   4  13
HETATM   13  O   UNL     1     -10.052   3.466  62.849  1.00  0.00    -0.124 OA 
HETATM   14  C   UNL     1     -11.008   2.424  63.094  1.00  0.00    -0.241 C  
ENDBRANCH   4  13
BRANCH  11  15
HETATM   15  C   UNL     1      -9.429   8.442  67.786  1.00  0.00    -0.171 C  
BRANCH  15  16
HETATM   16  C   UNL     1     -10.605   9.342  67.374  1.00  0.00    -0.326 C  
HETATM   17  C   UNL     1     -11.271   9.973  68.588  1.00  0.00    -0.175 C  
HETATM   18  C   UNL     1     -10.383  11.051  69.199  1.00  0.00    -0.188 C  
HETATM   19  N   UNL     1     -10.206  12.181  68.285  1.00  0.00    -0.204 NA 
HETATM   20  C   UNL     1      -9.587  11.729  67.033  1.00  0.00    -0.187 C  
HETATM   21  C   UNL     1     -10.191  10.466  66.390  1.00  0.00    -0.292 C  
BRANCH  19  22
HETATM   22  C   UNL     1     -11.453  12.948  68.089  1.00  0.00    -0.315 C  
BRANCH  22  23
HETATM   23  C   UNL     1     -11.546  13.532  66.687  1.00  0.00    -0.396 A  
HETATM   24  C   UNL     1     -10.949  14.769  66.405  1.00  0.00    -0.331 A  
HETATM   25  C   UNL     1     -11.124  15.378  65.161  1.00  0.00    -0.402 A  
HETATM   26  C   UNL     1     -11.898  14.757  64.182  1.00  0.00    -0.235 A  
HETATM   27  C   UNL     1     -12.494  13.524  64.445  1.00  0.00    -0.324 A  
HETATM   28  C   UNL     1     -12.318  12.912  65.689  1.00  0.00    -0.482 A  
ENDBRANCH  22  23
ENDBRANCH  19  22
ENDBRANCH  15  16
ENDBRANCH  11  15
ENDBRANCH   2   3
TORSDOF 6
ENDMDL
MODEL      125
REMARK 921   NORMALIZED FREE ENERGY PREDICTED BY IDOCK:   -4.09 KCAL/MOL
REMARK 922        TOTAL FREE ENERGY PREDICTED BY IDOCK:   -6.26 KCAL/MOL
REMARK 923 INTER-LIGAND FREE ENERGY PREDICTED BY IDOCK:   -5.51 KCAL/MOL
REMARK 924 INTRA-LIGAND FREE ENERGY PREDICTED BY IDOCK:   -0.74 KCAL/MOL
REMARK 927      BINDING AFFINITY PREDICTED BY RF-SCORE:    0.00 PKD
ROOT
HETATM    1  C   UNL     1      -9.106   1.677  71.348  1.00  0.00    -0.078 C  
HETATM    2  O   UNL     1      -8.628   2.319  72.521  1.00  0.00    -0.061 OA 
ENDROOT
BRANCH   2   3
HETATM    3  C   UNL     1      -8.507   3.684  72.497  1.00  0.00    -0.086 A  
HETATM    4  C   UNL     1      -9.324   4.384  73.425  1.00  0.00    -0.115 A  
HETATM    5  C   UNL     1      -9.162   5.746  73.645  1.00  0.00    -0.130 A  
HETATM    6  C   UNL     1      -7.707   4.407  71.593  1.00  0.00    -0.078 A  
HETATM    7  C   UNL     1      -7.758   5.790  71.651  1.00  0.00    -0.101 A  
HETATM    8  C   UNL     1      -8.369   6.406  72.741  1.00  0.00    -0.118 A  
HETATM    9  C   UNL     1      -8.368   7.828  72.505  1.00  0.00    -0.129 C  
HETATM   10  O   UNL     1      -8.444   8.681  73.380  1.00  0.00    -0.385 OA 
HETATM   11  C   UNL     1      -8.311   7.997  71.016  1.00  0.00    -0.120 C  
HETATM   12  C   UNL     1      -7.338   6.836  70.639  1.00  0.00    -0.075 C  
BRANCH   4  13
HETATM   13  O   UNL     1     -10.364   3.716  74.035  1.00  0.00    -0.146 OA 
HETATM   14  C   UNL     1     -11.637   4.189  73.569  1.00  0.00    -0.055 C  
ENDBRANCH   4  13
BRANCH  11  15
HETATM   15  C   UNL     1      -8.243   9.459  70.564  1.00  0.00    -0.221 C  
BRANCH  15  16
HETATM   16  C   UNL     1      -7.907   9.740  69.091  1.00  0.00    -0.095 C  
HETATM   17  C   UNL     1      -8.887   9.045  68.157  1.00  0.00    -0.133 C  
HETATM   18  C   UNL     1     -10.251   9.722  68.196  1.00  0.00    -0.186 C  
HETATM   19  N   UNL     1     -10.189  11.085  67.666  1.00  0.00    -0.177 NA 
HETATM   20  C   UNL     1      -9.251  11.894  68.455  1.00  0.00    -0.134 C  
HETATM   21  C   UNL     1      -7.882  11.253  68.754  1.00  0.00    -0.139 C  
BRANCH  19  22
HETATM   22  C   UNL     1      -9.923  11.114  66.214  1.00  0.00    -0.219 C  
BRANCH  22  23
HETATM   23  C   UNL     1     -10.909  12.006  65.473  1.00  0.00    -0.336 A  
HETATM   24  C   UNL     1     -11.125  11.818  64.100  1.00  0.00    -0.442 A  
HETATM   25  C   UNL     1     -11.932  12.699  63.378  1.00  0.00    -0.613 A  
HETATM   26  C   UNL     1     -12.534  13.780  64.019  1.00  0.00    -0.280 A  
HETATM   27  C   UNL     1     -12.333  13.978  65.385  1.00  0.00    -0.495 A  
HETATM   28  C   UNL     1     -11.528  13.096  66.110  1.00  0.00    -0.366 A  
ENDBRANCH  22  23
ENDBRANCH  19  22
ENDBRANCH  15  16
ENDBRANCH  11  15
ENDBRANCH   2   3
TORSDOF 6
ENDMDL
MODEL      126
REMARK 921   NORMALIZED FREE ENERGY PREDICTED BY IDOCK:   -4.08 KCAL/MOL
REMARK 922        TOTAL FREE ENERGY PREDICTED BY IDOCK:   -6.24 KCAL/MOL
REMARK 923 INTER-LIGAND FREE ENERGY PREDICTED BY IDOCK:   -5.52 KCAL/MOL
REMARK 924 INTRA-LIGAND FREE ENERGY PREDICTED BY IDOCK:   -0.72 KCAL/MOL
REMARK 927      BINDING AFFINITY PREDICTED BY RF-SCORE:    0.00 PKD
ROOT
HETATM    1  C   UNL     1      -5.646   3.516  67.030  1.00  0.00    -0.022 C  
HETATM    2  O   UNL     1      -6.701   3.646  67.972  1.00  0.00    -0.044 OA 
ENDROOT
BRANCH   2   3
HETATM    3  C   UNL     1      -7.429   4.806  67.958  1.00  0.00    -0.074 A  
HETATM    4  C   UNL     1      -8.590   4.808  68.778  1.00  0.00    -0.088 A  
HETATM    5  C   UNL     1      -9.307   5.975  69.011  1.00  0.00    -0.134 A  
HETATM    6  C   UNL     1      -7.145   5.927  67.155  1.00  0.00    -0.070 A  
HETATM    7  C   UNL     1      -8.029   6.993  67.202  1.00  0.00    -0.113 A  
HETATM    8  C   UNL     1      -8.991   7.039  68.208  1.00  0.00    -0.128 A  
HETATM    9  C   UNL     1      -9.827   8.190  67.969  1.00  0.00    -0.168 C  
HETATM   10  O   UNL     1     -10.490   8.761  68.825  1.00  0.00    -0.214 OA 
HETATM   11  C   UNL     1      -9.738   8.463  66.497  1.00  0.00    -0.330 C  
HETATM   12  C   UNL     1      -8.229   8.150  66.244  1.00  0.00    -0.114 C  
BRANCH   4  13
HETATM   13  O   UNL     1      -9.067   3.608  69.260  1.00  0.00    -0.105 OA 
HETATM   14  C   UNL     1      -9.618   3.753  70.578  1.00  0.00    -0.192 C  
ENDBRANCH   4  13
BRANCH  11  15
HETATM   15  C   UNL     1     -10.523   9.700  66.051  1.00  0.00    -0.047 C  
BRANCH  15  16
HETATM   16  C   UNL     1      -9.739  10.859  65.417  1.00  0.00    -0.287 C  
HETATM   17  C   UNL     1     -10.670  11.978  64.972  1.00  0.00    -0.341 C  
HETATM   18  C   UNL     1     -11.229  12.733  66.171  1.00  0.00    -0.298 C  
HETATM   19  N   UNL     1     -10.174  13.440  66.900  1.00  0.00    -0.249 NA 
HETATM   20  C   UNL     1      -9.165  12.488  67.383  1.00  0.00    -0.186 C  
HETATM   21  C   UNL     1      -8.662  11.450  66.362  1.00  0.00    -0.185 C  
BRANCH  19  22
HETATM   22  C   UNL     1      -9.609  14.562  66.124  1.00  0.00    -0.297 C  
BRANCH  22  23
HETATM   23  C   UNL     1      -9.806  15.897  66.829  1.00  0.00    -0.254 A  
HETATM   24  C   UNL     1     -10.239  15.924  68.163  1.00  0.00    -0.232 A  
HETATM   25  C   UNL     1     -10.540  17.135  68.789  1.00  0.00    -0.336 A  
HETATM   26  C   UNL     1     -10.410  18.334  68.091  1.00  0.00    -0.393 A  
HETATM   27  C   UNL     1      -9.975  18.324  66.767  1.00  0.00    -0.359 A  
HETATM   28  C   UNL     1      -9.671  17.114  66.138  1.00  0.00    -0.263 A  
ENDBRANCH  22  23
ENDBRANCH  19  22
ENDBRANCH  15  16
ENDBRANCH  11  15
ENDBRANCH   2   3
TORSDOF 6
ENDMDL
MODEL      127
REMARK 921   NORMALIZED FREE ENERGY PREDICTED BY IDOCK:   -4.07 KCAL/MOL
REMARK 922        TOTAL FREE ENERGY PREDICTED BY IDOCK:   -6.24 KCAL/MOL
REMARK 923 INTER-LIGAND FREE ENERGY PREDICTED BY IDOCK:   -5.66 KCAL/MOL
REMARK 924 INTRA-LIGAND FREE ENERGY PREDICTED BY IDOCK:   -0.57 KCAL/MOL
REMARK 927      BINDING AFFINITY PREDICTED BY RF-SCORE:    0.00 PKD
ROOT
HETATM    1  C   UNL     1      -5.464   7.717  67.203  1.00  0.00    -0.031 C  
HETATM    2  O   UNL     1      -6.337   7.443  68.289  1.00  0.00    -0.038 OA 
ENDROOT
BRANCH   2   3
HETATM    3  C   UNL     1      -7.444   8.237  68.432  1.00  0.00    -0.096 A  
HETATM    4  C   UNL     1      -8.693   7.573  68.291  1.00  0.00    -0.123 A  
HETATM    5  C   UNL     1      -9.888   8.209  68.604  1.00  0.00    -0.191 A  
HETATM    6  C   UNL     1      -7.418   9.630  68.631  1.00  0.00    -0.075 A  
HETATM    7  C   UNL     1      -8.631  10.297  68.677  1.00  0.00    -0.128 A  
HETATM    8  C   UNL     1      -9.810   9.564  68.794  1.00  0.00    -0.177 A  
HETATM    9  C   UNL     1     -10.915  10.488  68.724  1.00  0.00    -0.251 C  
HETATM   10  O   UNL     1     -12.032  10.276  69.178  1.00  0.00    -0.073 OA 
HETATM   11  C   UNL     1     -10.410  11.674  67.958  1.00  0.00    -0.208 C  
HETATM   12  C   UNL     1      -8.954  11.769  68.514  1.00  0.00    -0.132 C  
BRANCH   4  13
HETATM   13  O   UNL     1      -8.719   6.313  67.733  1.00  0.00    -0.115 OA 
HETATM   14  C   UNL     1      -9.226   6.344  66.390  1.00  0.00    -0.155 C  
ENDBRANCH   4  13
BRANCH  11  15
HETATM   15  C   UNL     1     -11.436  12.804  67.826  1.00  0.00    -0.376 C  
BRANCH  15  16
HETATM   16  C   UNL     1     -11.242  13.822  66.691  1.00  0.00    -0.327 C  
HETATM   17  C   UNL     1     -11.750  15.200  67.090  1.00  0.00    -0.141 C  
HETATM   18  C   UNL     1     -10.824  15.847  68.113  1.00  0.00    -0.317 C  
HETATM   19  N   UNL     1      -9.505  16.124  67.543  1.00  0.00    -0.222 NA 
HETATM   20  C   UNL     1      -8.880  14.879  67.079  1.00  0.00    -0.232 C  
HETATM   21  C   UNL     1      -9.766  13.945  66.233  1.00  0.00    -0.304 C  
BRANCH  19  22
HETATM   22  C   UNL     1      -9.546  17.187  66.519  1.00  0.00    -0.279 C  
BRANCH  22  23
HETATM   23  C   UNL     1      -8.402  18.177  66.680  1.00  0.00    -0.283 A  
HETATM   24  C   UNL     1      -8.568  19.310  67.490  1.00  0.00    -0.325 A  
HETATM   25  C   UNL     1      -7.577  20.290  67.556  1.00  0.00    -0.341 A  
HETATM   26  C   UNL     1      -6.405  20.150  66.815  1.00  0.00    -0.224 A  
HETATM   27  C   UNL     1      -6.222  19.028  66.009  1.00  0.00    -0.220 A  
HETATM   28  C   UNL     1      -7.213  18.044  65.942  1.00  0.00    -0.278 A  
ENDBRANCH  22  23
ENDBRANCH  19  22
ENDBRANCH  15  16
ENDBRANCH  11  15
ENDBRANCH   2   3
TORSDOF 6
ENDMDL
MODEL      128
REMARK 921   NORMALIZED FREE ENERGY PREDICTED BY IDOCK:   -4.06 KCAL/MOL
REMARK 922        TOTAL FREE ENERGY PREDICTED BY IDOCK:   -6.22 KCAL/MOL
REMARK 923 INTER-LIGAND FREE ENERGY PREDICTED BY IDOCK:   -5.44 KCAL/MOL
REMARK 924 INTRA-LIGAND FREE ENERGY PREDICTED BY IDOCK:   -0.78 KCAL/MOL
REMARK 927      BINDING AFFINITY PREDICTED BY RF-SCORE:    0.00 PKD
ROOT
HETATM    1  C   UNL     1      -5.125  14.091  70.620  1.00  0.00    -0.105 C  
HETATM    2  O   UNL     1      -5.948  14.753  69.670  1.00  0.00    -0.101 OA 
ENDROOT
BRANCH   2   3
HETATM    3  C   UNL     1      -6.703  13.977  68.831  1.00  0.00    -0.105 A  
HETATM    4  C   UNL     1      -8.052  14.392  68.667  1.00  0.00    -0.146 A  
HETATM    5  C   UNL     1      -8.871  13.821  67.701  1.00  0.00    -0.189 A  
HETATM    6  C   UNL     1      -6.258  12.800  68.202  1.00  0.00    -0.088 A  
HETATM    7  C   UNL     1      -7.174  12.088  67.444  1.00  0.00    -0.144 A  
HETATM    8  C   UNL     1      -8.392  12.679  67.113  1.00  0.00    -0.172 A  
HETATM    9  C   UNL     1      -9.183  11.698  66.411  1.00  0.00    -0.212 C  
HETATM   10  O   UNL     1     -10.100  11.961  65.644  1.00  0.00    -0.229 OA 
HETATM   11  C   UNL     1      -8.679  10.362  66.867  1.00  0.00    -0.130 C  
HETATM   12  C   UNL     1      -7.148  10.655  66.955  1.00  0.00    -0.109 C  
BRANCH   4  13
HETATM   13  O   UNL     1      -8.583  15.303  69.556  1.00  0.00    -0.246 OA 
HETATM   14  C   UNL     1      -9.758  15.933  69.024  1.00  0.00    -0.243 C  
ENDBRANCH   4  13
BRANCH  11  15
HETATM   15  C   UNL     1      -9.366   9.177  66.180  1.00  0.00    -0.288 C  
BRANCH  15  16
HETATM   16  C   UNL     1     -10.628   8.599  66.838  1.00  0.00    -0.270 C  
HETATM   17  C   UNL     1     -10.434   7.138  67.219  1.00  0.00    -0.372 C  
HETATM   18  C   UNL     1      -9.494   7.005  68.411  1.00  0.00    -0.133 C  
HETATM   19  N   UNL     1     -10.073   7.595  69.619  1.00  0.00    -0.190 NA 
HETATM   20  C   UNL     1     -10.348   9.022  69.405  1.00  0.00    -0.213 C  
HETATM   21  C   UNL     1     -11.072   9.389  68.096  1.00  0.00    -0.000 C  
BRANCH  19  22
HETATM   22  C   UNL     1     -11.237   6.833  70.115  1.00  0.00    -0.335 C  
BRANCH  22  23
HETATM   23  C   UNL     1     -10.949   6.162  71.452  1.00  0.00    -0.334 A  
HETATM   24  C   UNL     1     -10.736   6.946  72.595  1.00  0.00    -0.275 A  
HETATM   25  C   UNL     1     -10.354   6.358  73.801  1.00  0.00    -0.326 A  
HETATM   26  C   UNL     1     -10.180   4.978  73.881  1.00  0.00    -0.259 A  
HETATM   27  C   UNL     1     -10.393   4.183  72.755  1.00  0.00    -0.243 A  
HETATM   28  C   UNL     1     -10.778   4.770  71.547  1.00  0.00     0.018 A  
ENDBRANCH  22  23
ENDBRANCH  19  22
ENDBRANCH  15  16
ENDBRANCH  11  15
ENDBRANCH   2   3
TORSDOF 6
ENDMDL
MODEL      129
REMARK 921   NORMALIZED FREE ENERGY PREDICTED BY IDOCK:   -4.03 KCAL/MOL
REMARK 922        TOTAL FREE ENERGY PREDICTED BY IDOCK:   -6.19 KCAL/MOL
REMARK 923 INTER-LIGAND FREE ENERGY PREDICTED BY IDOCK:   -5.35 KCAL/MOL
REMARK 924 INTRA-LIGAND FREE ENERGY PREDICTED BY IDOCK:   -0.84 KCAL/MOL
REMARK 927      BINDING AFFINITY PREDICTED BY RF-SCORE:    0.00 PKD
ROOT
HETATM    1  C   UNL     1      -5.848  20.856  64.832  1.00  0.00    -0.253 C  
HETATM    2  O   UNL     1      -6.256  20.918  66.192  1.00  0.00    -0.233 OA 
ENDROOT
BRANCH   2   3
HETATM    3  C   UNL     1      -7.023  19.891  66.675  1.00  0.00    -0.221 A  
HETATM    4  C   UNL     1      -7.098  19.799  68.091  1.00  0.00    -0.292 A  
HETATM    5  C   UNL     1      -7.991  18.935  68.712  1.00  0.00    -0.352 A  
HETATM    6  C   UNL     1      -7.659  18.918  65.882  1.00  0.00    -0.209 A  
HETATM    7  C   UNL     1      -8.335  17.898  66.533  1.00  0.00    -0.290 A  
HETATM    8  C   UNL     1      -8.588  18.009  67.898  1.00  0.00    -0.258 A  
HETATM    9  C   UNL     1      -9.212  16.784  68.334  1.00  0.00    -0.229 C  
HETATM   10  O   UNL     1      -9.916  16.675  69.330  1.00  0.00    -0.259 OA 
HETATM   11  C   UNL     1      -8.768  15.730  67.364  1.00  0.00    -0.199 C  
HETATM   12  C   UNL     1      -8.796  16.544  66.032  1.00  0.00    -0.267 C  
BRANCH   4  13
HETATM   13  O   UNL     1      -6.190  20.504  68.853  1.00  0.00    -0.328 OA 
HETATM   14  C   UNL     1      -6.227  20.092  70.228  1.00  0.00    -0.351 C  
ENDBRANCH   4  13
BRANCH  11  15
HETATM   15  C   UNL     1      -9.380  14.351  67.630  1.00  0.00    -0.200 C  
BRANCH  15  16
HETATM   16  C   UNL     1      -8.740  13.136  66.940  1.00  0.00    -0.156 C  
HETATM   17  C   UNL     1      -7.280  12.980  67.338  1.00  0.00    -0.123 C  
HETATM   18  C   UNL     1      -7.155  12.496  68.777  1.00  0.00    -0.092 C  
HETATM   19  N   UNL     1      -7.695  11.144  68.938  1.00  0.00    -0.138 NA 
HETATM   20  C   UNL     1      -9.115  11.119  68.564  1.00  0.00    -0.175 C  
HETATM   21  C   UNL     1      -9.485  11.809  67.238  1.00  0.00    -0.173 C  
BRANCH  19  22
HETATM   22  C   UNL     1      -6.880  10.126  68.247  1.00  0.00    -0.062 C  
BRANCH  22  23
HETATM   23  C   UNL     1      -7.078   8.739  68.842  1.00  0.00    -0.066 A  
HETATM   24  C   UNL     1      -7.590   7.704  68.046  1.00  0.00    -0.110 A  
HETATM   25  C   UNL     1      -7.891   6.459  68.601  1.00  0.00    -0.102 A  
HETATM   26  C   UNL     1      -7.684   6.233  69.961  1.00  0.00    -0.101 A  
HETATM   27  C   UNL     1      -7.172   7.250  70.766  1.00  0.00    -0.069 A  
HETATM   28  C   UNL     1      -6.867   8.496  70.211  1.00  0.00    -0.039 A  
ENDBRANCH  22  23
ENDBRANCH  19  22
ENDBRANCH  15  16
ENDBRANCH  11  15
ENDBRANCH   2   3
TORSDOF 6
ENDMDL
MODEL      130
REMARK 921   NORMALIZED FREE ENERGY PREDICTED BY IDOCK:   -4.02 KCAL/MOL
REMARK 922        TOTAL FREE ENERGY PREDICTED BY IDOCK:   -6.17 KCAL/MOL
REMARK 923 INTER-LIGAND FREE ENERGY PREDICTED BY IDOCK:   -5.39 KCAL/MOL
REMARK 924 INTRA-LIGAND FREE ENERGY PREDICTED BY IDOCK:   -0.78 KCAL/MOL
REMARK 927      BINDING AFFINITY PREDICTED BY RF-SCORE:    0.00 PKD
ROOT
HETATM    1  C   UNL     1     -10.565  19.603  67.034  1.00  0.00    -0.480 C  
HETATM    2  O   UNL     1     -10.107  18.613  66.126  1.00  0.00    -0.386 OA 
ENDROOT
BRANCH   2   3
HETATM    3  C   UNL     1      -9.285  17.631  66.613  1.00  0.00    -0.271 A  
HETATM    4  C   UNL     1      -7.894  17.857  66.437  1.00  0.00    -0.272 A  
HETATM    5  C   UNL     1      -6.947  17.047  67.052  1.00  0.00    -0.228 A  
HETATM    6  C   UNL     1      -9.724  16.426  67.193  1.00  0.00    -0.241 A  
HETATM    7  C   UNL     1      -8.762  15.502  67.565  1.00  0.00    -0.183 A  
HETATM    8  C   UNL     1      -7.424  15.888  67.606  1.00  0.00    -0.174 A  
HETATM    9  C   UNL     1      -6.636  14.723  67.928  1.00  0.00    -0.161 C  
HETATM   10  O   UNL     1      -5.520  14.752  68.428  1.00  0.00    -0.096 OA 
HETATM   11  C   UNL     1      -7.444  13.544  67.474  1.00  0.00    -0.177 C  
HETATM   12  C   UNL     1      -8.879  14.020  67.862  1.00  0.00    -0.185 C  
BRANCH   4  13
HETATM   13  O   UNL     1      -7.483  18.832  65.552  1.00  0.00    -0.493 OA 
HETATM   14  C   UNL     1      -6.082  18.720  65.261  1.00  0.00    -0.278 C  
ENDBRANCH   4  13
BRANCH  11  15
HETATM   15  C   UNL     1      -6.791  12.194  67.786  1.00  0.00    -0.106 C  
BRANCH  15  16
HETATM   16  C   UNL     1      -7.211  11.473  69.076  1.00  0.00    -0.106 C  
HETATM   17  C   UNL     1      -8.469  10.644  68.863  1.00  0.00    -0.154 C  
HETATM   18  C   UNL     1      -8.173   9.410  68.019  1.00  0.00    -0.114 C  
HETATM   19  N   UNL     1      -7.274   8.488  68.715  1.00  0.00    -0.077 NA 
HETATM   20  C   UNL     1      -6.001   9.154  69.021  1.00  0.00    -0.043 C  
HETATM   21  C   UNL     1      -6.099  10.557  69.648  1.00  0.00    -0.056 C  
BRANCH  19  22
HETATM   22  C   UNL     1      -7.912   7.857  69.887  1.00  0.00    -0.109 C  
BRANCH  22  23
HETATM   23  C   UNL     1      -8.383   6.441  69.585  1.00  0.00    -0.126 A  
HETATM   24  C   UNL     1      -7.600   5.602  68.778  1.00  0.00    -0.088 A  
HETATM   25  C   UNL     1      -8.068   4.345  68.392  1.00  0.00    -0.082 A  
HETATM   26  C   UNL     1      -9.325   3.910  68.808  1.00  0.00    -0.231 A  
HETATM   27  C   UNL     1     -10.113   4.729  69.615  1.00  0.00    -0.275 A  
HETATM   28  C   UNL     1      -9.645   5.987  70.005  1.00  0.00    -0.194 A  
ENDBRANCH  22  23
ENDBRANCH  19  22
ENDBRANCH  15  16
ENDBRANCH  11  15
ENDBRANCH   2   3
TORSDOF 6
ENDMDL
MODEL      131
REMARK 921   NORMALIZED FREE ENERGY PREDICTED BY IDOCK:   -4.02 KCAL/MOL
REMARK 922        TOTAL FREE ENERGY PREDICTED BY IDOCK:   -6.17 KCAL/MOL
REMARK 923 INTER-LIGAND FREE ENERGY PREDICTED BY IDOCK:   -5.39 KCAL/MOL
REMARK 924 INTRA-LIGAND FREE ENERGY PREDICTED BY IDOCK:   -0.78 KCAL/MOL
REMARK 927      BINDING AFFINITY PREDICTED BY RF-SCORE:    0.00 PKD
ROOT
HETATM    1  C   UNL     1      -9.298   1.799  70.515  1.00  0.00    -0.106 C  
HETATM    2  O   UNL     1      -8.316   1.976  69.504  1.00  0.00    -0.044 OA 
ENDROOT
BRANCH   2   3
HETATM    3  C   UNL     1      -8.115   3.244  69.025  1.00  0.00    -0.059 A  
HETATM    4  C   UNL     1      -7.008   3.938  69.582  1.00  0.00    -0.042 A  
HETATM    5  C   UNL     1      -6.572   5.146  69.052  1.00  0.00    -0.051 A  
HETATM    6  C   UNL     1      -8.951   3.899  68.101  1.00  0.00    -0.158 A  
HETATM    7  C   UNL     1      -8.650   5.212  67.779  1.00  0.00    -0.103 A  
HETATM    8  C   UNL     1      -7.418   5.742  68.154  1.00  0.00    -0.078 A  
HETATM    9  C   UNL     1      -7.403   7.136  67.783  1.00  0.00    -0.097 C  
HETATM   10  O   UNL     1      -6.391   7.796  67.589  1.00  0.00    -0.048 OA 
HETATM   11  C   UNL     1      -8.840   7.566  67.750  1.00  0.00    -0.132 C  
HETATM   12  C   UNL     1      -9.501   6.291  67.140  1.00  0.00    -0.136 C  
BRANCH   4  13
HETATM   13  O   UNL     1      -6.428   3.452  70.735  1.00  0.00    -0.029 OA 
HETATM   14  C   UNL     1      -6.692   4.308  71.857  1.00  0.00    -0.027 C  
ENDBRANCH   4  13
BRANCH  11  15
HETATM   15  C   UNL     1      -9.037   9.021  67.313  1.00  0.00    -0.151 C  
BRANCH  15  16
HETATM   16  C   UNL     1     -10.455   9.607  67.384  1.00  0.00    -0.319 C  
HETATM   17  C   UNL     1     -10.943   9.705  68.822  1.00  0.00    -0.153 C  
HETATM   18  C   UNL     1     -10.218  10.818  69.569  1.00  0.00    -0.113 C  
HETATM   19  N   UNL     1     -10.538  12.134  69.013  1.00  0.00    -0.139 NA 
HETATM   20  C   UNL     1     -10.146  12.196  67.599  1.00  0.00    -0.199 C  
HETATM   21  C   UNL     1     -10.568  11.003  66.720  1.00  0.00    -0.317 C  
BRANCH  19  22
HETATM   22  C   UNL     1     -11.940  12.524  69.259  1.00  0.00    -0.250 C  
BRANCH  22  23
HETATM   23  C   UNL     1     -12.056  13.565  70.363  1.00  0.00    -0.415 A  
HETATM   24  C   UNL     1     -12.871  13.315  71.477  1.00  0.00    -0.419 A  
HETATM   25  C   UNL     1     -13.084  14.302  72.440  1.00  0.00    -0.519 A  
HETATM   26  C   UNL     1     -12.486  15.552  72.304  1.00  0.00    -0.477 A  
HETATM   27  C   UNL     1     -11.669  15.816  71.205  1.00  0.00    -0.496 A  
HETATM   28  C   UNL     1     -11.451  14.828  70.240  1.00  0.00    -0.309 A  
ENDBRANCH  22  23
ENDBRANCH  19  22
ENDBRANCH  15  16
ENDBRANCH  11  15
ENDBRANCH   2   3
TORSDOF 6
ENDMDL
MODEL      132
REMARK 921   NORMALIZED FREE ENERGY PREDICTED BY IDOCK:   -4.02 KCAL/MOL
REMARK 922        TOTAL FREE ENERGY PREDICTED BY IDOCK:   -6.17 KCAL/MOL
REMARK 923 INTER-LIGAND FREE ENERGY PREDICTED BY IDOCK:   -5.87 KCAL/MOL
REMARK 924 INTRA-LIGAND FREE ENERGY PREDICTED BY IDOCK:   -0.30 KCAL/MOL
REMARK 927      BINDING AFFINITY PREDICTED BY RF-SCORE:    0.00 PKD
ROOT
HETATM    1  C   UNL     1     -11.380  15.745  64.408  1.00  0.00    -0.265 C  
HETATM    2  O   UNL     1     -10.593  15.531  65.571  1.00  0.00    -0.343 OA 
ENDROOT
BRANCH   2   3
HETATM    3  C   UNL     1     -10.821  14.390  66.294  1.00  0.00    -0.313 A  
HETATM    4  C   UNL     1     -10.776  14.543  67.706  1.00  0.00    -0.256 A  
HETATM    5  C   UNL     1     -11.180  13.521  68.556  1.00  0.00    -0.310 A  
HETATM    6  C   UNL     1     -11.020  13.111  65.740  1.00  0.00    -0.295 A  
HETATM    7  C   UNL     1     -11.159  12.045  66.615  1.00  0.00    -0.358 A  
HETATM    8  C   UNL     1     -11.365  12.296  67.969  1.00  0.00    -0.348 A  
HETATM    9  C   UNL     1     -11.381  11.028  68.657  1.00  0.00    -0.281 C  
HETATM   10  O   UNL     1     -11.919  10.828  69.739  1.00  0.00    -0.294 OA 
HETATM   11  C   UNL     1     -10.580  10.090  67.805  1.00  0.00    -0.311 C  
HETATM   12  C   UNL     1     -11.023  10.554  66.382  1.00  0.00    -0.019 C  
BRANCH   4  13
HETATM   13  O   UNL     1     -10.220  15.688  68.235  1.00  0.00    -0.219 OA 
HETATM   14  C   UNL     1     -10.259  15.676  69.670  1.00  0.00    -0.291 C  
ENDBRANCH   4  13
BRANCH  11  15
HETATM   15  C   UNL     1     -10.528   8.658  68.347  1.00  0.00    -0.220 C  
BRANCH  15  16
HETATM   16  C   UNL     1     -10.333   8.468  69.859  1.00  0.00    -0.210 C  
HETATM   17  C   UNL     1     -11.080   7.243  70.364  1.00  0.00    -0.291 C  
HETATM   18  C   UNL     1     -10.401   5.960  69.901  1.00  0.00    -0.242 C  
HETATM   19  N   UNL     1      -9.070   5.813  70.495  1.00  0.00    -0.145 NA 
HETATM   20  C   UNL     1      -8.218   6.948  70.117  1.00  0.00    -0.133 C  
HETATM   21  C   UNL     1      -8.841   8.349  70.267  1.00  0.00    -0.142 C  
BRANCH  19  22
HETATM   22  C   UNL     1      -9.126   5.570  71.950  1.00  0.00    -0.138 C  
BRANCH  22  23
HETATM   23  C   UNL     1      -8.726   4.144  72.304  1.00  0.00    -0.118 A  
HETATM   24  C   UNL     1      -8.367   3.827  73.622  1.00  0.00    -0.087 A  
HETATM   25  C   UNL     1      -7.883   2.557  73.943  1.00  0.00    -0.055 A  
HETATM   26  C   UNL     1      -7.752   1.588  72.950  1.00  0.00    -0.033 A  
HETATM   27  C   UNL     1      -8.109   1.886  71.636  1.00  0.00    -0.045 A  
HETATM   28  C   UNL     1      -8.597   3.156  71.313  1.00  0.00    -0.106 A  
ENDBRANCH  22  23
ENDBRANCH  19  22
ENDBRANCH  15  16
ENDBRANCH  11  15
ENDBRANCH   2   3
TORSDOF 6
ENDMDL
MODEL      133
REMARK 921   NORMALIZED FREE ENERGY PREDICTED BY IDOCK:   -4.01 KCAL/MOL
REMARK 922        TOTAL FREE ENERGY PREDICTED BY IDOCK:   -6.15 KCAL/MOL
REMARK 923 INTER-LIGAND FREE ENERGY PREDICTED BY IDOCK:   -7.29 KCAL/MOL
REMARK 924 INTRA-LIGAND FREE ENERGY PREDICTED BY IDOCK:    1.14 KCAL/MOL
REMARK 927      BINDING AFFINITY PREDICTED BY RF-SCORE:    0.00 PKD
ROOT
HETATM    1  C   UNL     1      -7.656  17.816  65.970  1.00  0.00    -0.220 C  
HETATM    2  O   UNL     1      -8.935  17.387  65.524  1.00  0.00    -0.253 OA 
ENDROOT
BRANCH   2   3
HETATM    3  C   UNL     1      -9.719  16.694  66.409  1.00  0.00    -0.286 A  
HETATM    4  C   UNL     1     -10.154  17.430  67.544  1.00  0.00    -0.322 A  
HETATM    5  C   UNL     1     -11.107  16.917  68.414  1.00  0.00    -0.216 A  
HETATM    6  C   UNL     1     -10.046  15.330  66.299  1.00  0.00    -0.297 A  
HETATM    7  C   UNL     1     -10.787  14.761  67.323  1.00  0.00    -0.309 A  
HETATM    8  C   UNL     1     -11.396  15.586  68.265  1.00  0.00    -0.360 A  
HETATM    9  C   UNL     1     -12.014  14.742  69.258  1.00  0.00    -0.294 C  
HETATM   10  O   UNL     1     -12.943  15.080  69.980  1.00  0.00    -0.150 OA 
HETATM   11  C   UNL     1     -11.250  13.452  69.233  1.00  0.00    -0.275 C  
HETATM   12  C   UNL     1     -10.993  13.308  67.700  1.00  0.00    -0.281 C  
BRANCH   4  13
HETATM   13  O   UNL     1      -9.536  18.627  67.840  1.00  0.00    -0.294 OA 
HETATM   14  C   UNL     1     -10.039  19.189  69.061  1.00  0.00    -0.298 C  
ENDBRANCH   4  13
BRANCH  11  15
HETATM   15  C   UNL     1     -11.800  12.392  70.193  1.00  0.00    -0.341 C  
BRANCH  15  16
HETATM   16  C   UNL     1     -12.242  11.046  69.599  1.00  0.00    -0.370 C  
HETATM   17  C   UNL     1     -11.045  10.201  69.189  1.00  0.00    -0.257 C  
HETATM   18  C   UNL     1     -10.313   9.662  70.411  1.00  0.00    -0.291 C  
HETATM   19  N   UNL     1     -11.146   8.724  71.165  1.00  0.00    -0.258 NA 
HETATM   20  C   UNL     1     -12.375   9.388  71.619  1.00  0.00    -0.385 C  
HETATM   21  C   UNL     1     -13.130  10.220  70.565  1.00  0.00    -0.198 C  
BRANCH  19  22
HETATM   22  C   UNL     1     -11.387   7.467  70.428  1.00  0.00    -0.249 C  
BRANCH  22  23
HETATM   23  C   UNL     1     -10.465   7.329  69.224  1.00  0.00    -0.221 A  
HETATM   24  C   UNL     1     -11.006   7.060  67.959  1.00  0.00    -0.185 A  
HETATM   25  C   UNL     1     -10.173   6.812  66.866  1.00  0.00    -0.300 A  
HETATM   26  C   UNL     1      -8.789   6.829  67.025  1.00  0.00    -0.115 A  
HETATM   27  C   UNL     1      -8.235   7.099  68.276  1.00  0.00    -0.124 A  
HETATM   28  C   UNL     1      -9.067   7.351  69.370  1.00  0.00    -0.139 A  
ENDBRANCH  22  23
ENDBRANCH  19  22
ENDBRANCH  15  16
ENDBRANCH  11  15
ENDBRANCH   2   3
TORSDOF 6
ENDMDL
MODEL      134
REMARK 921   NORMALIZED FREE ENERGY PREDICTED BY IDOCK:   -3.99 KCAL/MOL
REMARK 922        TOTAL FREE ENERGY PREDICTED BY IDOCK:   -6.13 KCAL/MOL
REMARK 923 INTER-LIGAND FREE ENERGY PREDICTED BY IDOCK:   -5.48 KCAL/MOL
REMARK 924 INTRA-LIGAND FREE ENERGY PREDICTED BY IDOCK:   -0.65 KCAL/MOL
REMARK 927      BINDING AFFINITY PREDICTED BY RF-SCORE:    0.00 PKD
ROOT
HETATM    1  C   UNL     1     -13.856   7.463  71.694  1.00  0.00    -0.382 C  
HETATM    2  O   UNL     1     -12.758   6.574  71.843  1.00  0.00    -0.325 OA 
ENDROOT
BRANCH   2   3
HETATM    3  C   UNL     1     -11.543   6.975  71.354  1.00  0.00    -0.292 A  
HETATM    4  C   UNL     1     -10.558   7.270  72.334  1.00  0.00    -0.237 A  
HETATM    5  C   UNL     1      -9.233   7.495  71.982  1.00  0.00    -0.163 A  
HETATM    6  C   UNL     1     -11.247   7.171  69.992  1.00  0.00    -0.271 A  
HETATM    7  C   UNL     1      -9.989   7.655  69.670  1.00  0.00    -0.185 A  
HETATM    8  C   UNL     1      -8.995   7.676  70.645  1.00  0.00    -0.153 A  
HETATM    9  C   UNL     1      -7.829   8.307  70.076  1.00  0.00    -0.104 C  
HETATM   10  O   UNL     1      -6.683   8.146  70.475  1.00  0.00    -0.037 OA 
HETATM   11  C   UNL     1      -8.339   9.199  68.983  1.00  0.00    -0.127 C  
HETATM   12  C   UNL     1      -9.479   8.306  68.400  1.00  0.00    -0.144 C  
BRANCH   4  13
HETATM   13  O   UNL     1     -10.952   7.440  73.645  1.00  0.00    -0.306 OA 
HETATM   14  C   UNL     1     -10.284   6.516  74.518  1.00  0.00    -0.249 C  
ENDBRANCH   4  13
BRANCH  11  15
HETATM   15  C   UNL     1      -7.231   9.922  68.212  1.00  0.00    -0.078 C  
BRANCH  15  16
HETATM   16  C   UNL     1      -7.644  10.836  67.048  1.00  0.00    -0.114 C  
HETATM   17  C   UNL     1      -8.985  11.502  67.317  1.00  0.00    -0.162 C  
HETATM   18  C   UNL     1      -8.857  12.575  68.392  1.00  0.00    -0.123 C  
HETATM   19  N   UNL     1      -8.012  13.684  67.944  1.00  0.00    -0.145 NA 
HETATM   20  C   UNL     1      -6.666  13.196  67.616  1.00  0.00    -0.160 C  
HETATM   21  C   UNL     1      -6.594  11.933  66.736  1.00  0.00    -0.020 C  
BRANCH  19  22
HETATM   22  C   UNL     1      -8.640  14.470  66.864  1.00  0.00    -0.179 C  
BRANCH  22  23
HETATM   23  C   UNL     1      -9.202  15.790  67.373  1.00  0.00    -0.208 A  
HETATM   24  C   UNL     1     -10.185  16.462  66.633  1.00  0.00    -0.296 A  
HETATM   25  C   UNL     1     -10.626  17.729  67.020  1.00  0.00    -0.266 A  
HETATM   26  C   UNL     1     -10.091  18.340  68.152  1.00  0.00    -0.397 A  
HETATM   27  C   UNL     1      -9.116  17.682  68.902  1.00  0.00    -0.134 A  
HETATM   28  C   UNL     1      -8.675  16.413  68.518  1.00  0.00    -0.223 A  
ENDBRANCH  22  23
ENDBRANCH  19  22
ENDBRANCH  15  16
ENDBRANCH  11  15
ENDBRANCH   2   3
TORSDOF 6
ENDMDL
MODEL      135
REMARK 921   NORMALIZED FREE ENERGY PREDICTED BY IDOCK:   -3.92 KCAL/MOL
REMARK 922        TOTAL FREE ENERGY PREDICTED BY IDOCK:   -6.04 KCAL/MOL
REMARK 923 INTER-LIGAND FREE ENERGY PREDICTED BY IDOCK:   -5.13 KCAL/MOL
REMARK 924 INTRA-LIGAND FREE ENERGY PREDICTED BY IDOCK:   -0.91 KCAL/MOL
REMARK 927      BINDING AFFINITY PREDICTED BY RF-SCORE:    0.00 PKD
ROOT
HETATM    1  C   UNL     1     -11.352  16.522  64.947  1.00  0.00    -0.031 C  
HETATM    2  O   UNL     1     -10.170  15.800  64.633  1.00  0.00    -0.296 OA 
ENDROOT
BRANCH   2   3
HETATM    3  C   UNL     1      -9.856  14.720  65.416  1.00  0.00    -0.260 A  
HETATM    4  C   UNL     1      -8.844  14.945  66.388  1.00  0.00    -0.161 A  
HETATM    5  C   UNL     1      -8.567  14.005  67.372  1.00  0.00    -0.211 A  
HETATM    6  C   UNL     1     -10.405  13.432  65.272  1.00  0.00    -0.330 A  
HETATM    7  C   UNL     1      -9.920  12.429  66.096  1.00  0.00    -0.267 A  
HETATM    8  C   UNL     1      -9.128  12.768  67.190  1.00  0.00    -0.219 A  
HETATM    9  C   UNL     1      -8.687  11.545  67.814  1.00  0.00    -0.142 C  
HETATM   10  O   UNL     1      -8.331  11.445  68.981  1.00  0.00    -0.084 OA 
HETATM   11  C   UNL     1      -8.714  10.502  66.736  1.00  0.00    -0.136 C  
HETATM   12  C   UNL     1     -10.010  10.922  65.972  1.00  0.00    -0.290 C  
BRANCH   4  13
HETATM   13  O   UNL     1      -8.056  16.071  66.281  1.00  0.00    -0.270 OA 
HETATM   14  C   UNL     1      -6.827  15.923  67.008  1.00  0.00    -0.095 C  
ENDBRANCH   4  13
BRANCH  11  15
HETATM   15  C   UNL     1      -8.328   9.102  67.223  1.00  0.00    -0.121 C  
BRANCH  15  16
HETATM   16  C   UNL     1      -9.427   8.029  67.270  1.00  0.00    -0.196 C  
HETATM   17  C   UNL     1      -8.838   6.644  67.491  1.00  0.00    -0.116 C  
HETATM   18  C   UNL     1      -8.330   6.488  68.919  1.00  0.00    -0.122 C  
HETATM   19  N   UNL     1      -9.426   6.548  69.888  1.00  0.00    -0.155 NA 
HETATM   20  C   UNL     1     -10.124   7.836  69.785  1.00  0.00    -0.194 C  
HETATM   21  C   UNL     1     -10.492   8.301  68.363  1.00  0.00    -0.206 C  
BRANCH  19  22
HETATM   22  C   UNL     1     -10.321   5.378  69.800  1.00  0.00    -0.305 C  
BRANCH  22  23
HETATM   23  C   UNL     1      -9.571   4.071  70.018  1.00  0.00    -0.274 A  
HETATM   24  C   UNL     1      -9.429   3.163  68.959  1.00  0.00    -0.177 A  
HETATM   25  C   UNL     1      -8.851   1.909  69.168  1.00  0.00    -0.131 A  
HETATM   26  C   UNL     1      -8.407   1.548  70.438  1.00  0.00    -0.062 A  
HETATM   27  C   UNL     1      -8.537   2.441  71.501  1.00  0.00    -0.097 A  
HETATM   28  C   UNL     1      -9.113   3.698  71.293  1.00  0.00    -0.180 A  
ENDBRANCH  22  23
ENDBRANCH  19  22
ENDBRANCH  15  16
ENDBRANCH  11  15
ENDBRANCH   2   3
TORSDOF 6
ENDMDL
MODEL      136
REMARK 921   NORMALIZED FREE ENERGY PREDICTED BY IDOCK:   -3.91 KCAL/MOL
REMARK 922        TOTAL FREE ENERGY PREDICTED BY IDOCK:   -6.02 KCAL/MOL
REMARK 923 INTER-LIGAND FREE ENERGY PREDICTED BY IDOCK:   -5.33 KCAL/MOL
REMARK 924 INTRA-LIGAND FREE ENERGY PREDICTED BY IDOCK:   -0.69 KCAL/MOL
REMARK 927      BINDING AFFINITY PREDICTED BY RF-SCORE:    0.00 PKD
ROOT
HETATM    1  C   UNL     1      -8.867   3.870  70.030  1.00  0.00    -0.085 C  
HETATM    2  O   UNL     1     -10.033   4.462  69.476  1.00  0.00    -0.211 OA 
ENDROOT
BRANCH   2   3
HETATM    3  C   UNL     1      -9.912   5.707  68.916  1.00  0.00    -0.166 A  
HETATM    4  C   UNL     1     -10.062   5.757  67.504  1.00  0.00    -0.171 A  
HETATM    5  C   UNL     1     -10.158   6.968  66.831  1.00  0.00    -0.296 A  
HETATM    6  C   UNL     1      -9.589   6.881  69.622  1.00  0.00    -0.146 A  
HETATM    7  C   UNL     1      -9.427   8.047  68.891  1.00  0.00    -0.151 A  
HETATM    8  C   UNL     1      -9.839   8.083  67.562  1.00  0.00    -0.224 A  
HETATM    9  C   UNL     1      -9.472   9.368  67.018  1.00  0.00    -0.155 C  
HETATM   10  O   UNL     1     -10.007   9.895  66.051  1.00  0.00    -0.247 OA 
HETATM   11  C   UNL     1      -8.311   9.843  67.840  1.00  0.00    -0.114 C  
HETATM   12  C   UNL     1      -8.749   9.352  69.256  1.00  0.00    -0.145 C  
BRANCH   4  13
HETATM   13  O   UNL     1     -10.002   4.582  66.785  1.00  0.00    -0.209 OA 
HETATM   14  C   UNL     1     -10.728   4.684  65.551  1.00  0.00    -0.134 C  
ENDBRANCH   4  13
BRANCH  11  15
HETATM   15  C   UNL     1      -7.809  11.236  67.448  1.00  0.00    -0.128 C  
BRANCH  15  16
HETATM   16  C   UNL     1      -8.012  12.382  68.451  1.00  0.00    -0.149 C  
HETATM   17  C   UNL     1      -6.680  12.969  68.897  1.00  0.00    -0.096 C  
HETATM   18  C   UNL     1      -6.038  13.779  67.778  1.00  0.00    -0.132 C  
HETATM   19  N   UNL     1      -6.835  14.962  67.447  1.00  0.00    -0.248 NA 
HETATM   20  C   UNL     1      -8.180  14.563  67.014  1.00  0.00    -0.135 C  
HETATM   21  C   UNL     1      -8.901  13.524  67.895  1.00  0.00    -0.190 C  
BRANCH  19  22
HETATM   22  C   UNL     1      -6.832  15.964  68.532  1.00  0.00    -0.124 C  
BRANCH  22  23
HETATM   23  C   UNL     1      -7.878  17.047  68.308  1.00  0.00    -0.216 A  
HETATM   24  C   UNL     1      -9.103  16.986  68.988  1.00  0.00    -0.146 A  
HETATM   25  C   UNL     1     -10.120  17.900  68.708  1.00  0.00    -0.384 A  
HETATM   26  C   UNL     1      -9.925  18.889  67.745  1.00  0.00    -0.411 A  
HETATM   27  C   UNL     1      -8.711  18.967  67.064  1.00  0.00    -0.305 A  
HETATM   28  C   UNL     1      -7.691  18.054  67.344  1.00  0.00    -0.216 A  
ENDBRANCH  22  23
ENDBRANCH  19  22
ENDBRANCH  15  16
ENDBRANCH  11  15
ENDBRANCH   2   3
TORSDOF 6
ENDMDL
MODEL      137
REMARK 921   NORMALIZED FREE ENERGY PREDICTED BY IDOCK:   -3.91 KCAL/MOL
REMARK 922        TOTAL FREE ENERGY PREDICTED BY IDOCK:   -6.02 KCAL/MOL
REMARK 923 INTER-LIGAND FREE ENERGY PREDICTED BY IDOCK:   -5.17 KCAL/MOL
REMARK 924 INTRA-LIGAND FREE ENERGY PREDICTED BY IDOCK:   -0.84 KCAL/MOL
REMARK 927      BINDING AFFINITY PREDICTED BY RF-SCORE:    0.00 PKD
ROOT
HETATM    1  C   UNL     1      -7.214   2.530  67.111  1.00  0.00    -0.056 C  
HETATM    2  O   UNL     1      -6.569   2.848  68.336  1.00  0.00    -0.035 OA 
ENDROOT
BRANCH   2   3
HETATM    3  C   UNL     1      -6.988   3.967  69.005  1.00  0.00    -0.047 A  
HETATM    4  C   UNL     1      -7.584   3.732  70.273  1.00  0.00    -0.044 A  
HETATM    5  C   UNL     1      -7.873   4.778  71.141  1.00  0.00    -0.083 A  
HETATM    6  C   UNL     1      -6.929   5.279  68.499  1.00  0.00    -0.057 A  
HETATM    7  C   UNL     1      -7.468   6.293  69.274  1.00  0.00    -0.094 A  
HETATM    8  C   UNL     1      -7.796   6.036  70.603  1.00  0.00    -0.106 A  
HETATM    9  C   UNL     1      -8.418   7.220  71.143  1.00  0.00    -0.116 C  
HETATM   10  O   UNL     1      -8.467   7.502  72.333  1.00  0.00    -0.102 OA 
HETATM   11  C   UNL     1      -9.004   7.947  69.969  1.00  0.00    -0.145 C  
HETATM   12  C   UNL     1      -7.892   7.699  68.902  1.00  0.00    -0.123 C  
BRANCH   4  13
HETATM   13  O   UNL     1      -7.979   2.451  70.597  1.00  0.00    -0.042 OA 
HETATM   14  C   UNL     1      -9.409   2.330  70.612  1.00  0.00    -0.135 C  
ENDBRANCH   4  13
BRANCH  11  15
HETATM   15  C   UNL     1      -9.667   9.278  70.337  1.00  0.00    -0.293 C  
BRANCH  15  16
HETATM   16  C   UNL     1     -10.946   9.676  69.586  1.00  0.00    -0.253 C  
HETATM   17  C   UNL     1     -11.330  11.120  69.872  1.00  0.00    -0.348 C  
HETATM   18  C   UNL     1     -10.373  12.086  69.185  1.00  0.00     0.089 C  
HETATM   19  N   UNL     1     -10.471  11.992  67.727  1.00  0.00    -0.199 NA 
HETATM   20  C   UNL     1     -10.150  10.630  67.283  1.00  0.00    -0.199 C  
HETATM   21  C   UNL     1     -10.832   9.483  68.052  1.00  0.00    -0.225 C  
BRANCH  19  22
HETATM   22  C   UNL     1     -11.763  12.495  67.217  1.00  0.00    -0.362 C  
BRANCH  22  23
HETATM   23  C   UNL     1     -11.575  13.600  66.186  1.00  0.00    -0.369 A  
HETATM   24  C   UNL     1     -10.577  14.567  66.373  1.00  0.00    -0.302 A  
HETATM   25  C   UNL     1     -10.467  15.654  65.504  1.00  0.00    -0.426 A  
HETATM   26  C   UNL     1     -11.352  15.788  64.436  1.00  0.00    -0.274 A  
HETATM   27  C   UNL     1     -12.347  14.832  64.233  1.00  0.00    -0.345 A  
HETATM   28  C   UNL     1     -12.458  13.741  65.100  1.00  0.00    -0.483 A  
ENDBRANCH  22  23
ENDBRANCH  19  22
ENDBRANCH  15  16
ENDBRANCH  11  15
ENDBRANCH   2   3
TORSDOF 6
ENDMDL
MODEL      138
REMARK 921   NORMALIZED FREE ENERGY PREDICTED BY IDOCK:   -3.89 KCAL/MOL
REMARK 922        TOTAL FREE ENERGY PREDICTED BY IDOCK:   -6.00 KCAL/MOL
REMARK 923 INTER-LIGAND FREE ENERGY PREDICTED BY IDOCK:   -6.31 KCAL/MOL
REMARK 924 INTRA-LIGAND FREE ENERGY PREDICTED BY IDOCK:    0.31 KCAL/MOL
REMARK 927      BINDING AFFINITY PREDICTED BY RF-SCORE:    0.00 PKD
ROOT
HETATM    1  C   UNL     1      -9.403   2.008  71.363  1.00  0.00    -0.116 C  
HETATM    2  O   UNL     1      -8.219   2.771  71.543  1.00  0.00    -0.061 OA 
ENDROOT
BRANCH   2   3
HETATM    3  C   UNL     1      -8.320   4.135  71.455  1.00  0.00    -0.090 A  
HETATM    4  C   UNL     1      -7.538   4.865  72.390  1.00  0.00    -0.091 A  
HETATM    5  C   UNL     1      -7.392   6.243  72.288  1.00  0.00    -0.092 A  
HETATM    6  C   UNL     1      -9.173   4.825  70.575  1.00  0.00    -0.195 A  
HETATM    7  C   UNL     1      -9.213   6.207  70.667  1.00  0.00    -0.163 A  
HETATM    8  C   UNL     1      -8.242   6.869  71.414  1.00  0.00    -0.110 A  
HETATM    9  C   UNL     1      -8.570   8.274  71.421  1.00  0.00    -0.149 C  
HETATM   10  O   UNL     1      -7.768   9.177  71.619  1.00  0.00    -0.338 OA 
HETATM   11  C   UNL     1     -10.051   8.350  71.199  1.00  0.00    -0.248 C  
HETATM   12  C   UNL     1     -10.239   7.200  70.160  1.00  0.00    -0.204 C  
BRANCH   4  13
HETATM   13  O   UNL     1      -7.006   4.203  73.476  1.00  0.00    -0.055 OA 
HETATM   14  C   UNL     1      -8.007   3.936  74.470  1.00  0.00    -0.085 C  
ENDBRANCH   4  13
BRANCH  11  15
HETATM   15  C   UNL     1     -10.589   9.782  71.116  1.00  0.00    -0.215 C  
BRANCH  15  16
HETATM   16  C   UNL     1     -11.642  10.093  70.041  1.00  0.00    -0.323 C  
HETATM   17  C   UNL     1     -12.143  11.525  70.156  1.00  0.00    -0.432 C  
HETATM   18  C   UNL     1     -11.078  12.515  69.700  1.00  0.00     0.083 C  
HETATM   19  N   UNL     1     -10.788  12.371  68.272  1.00  0.00    -0.226 NA 
HETATM   20  C   UNL     1     -10.309  11.013  67.985  1.00  0.00    -0.185 C  
HETATM   21  C   UNL     1     -11.123   9.858  68.599  1.00  0.00    -0.182 C  
BRANCH  19  22
HETATM   22  C   UNL     1     -11.920  12.794  67.422  1.00  0.00    -0.272 C  
BRANCH  22  23
HETATM   23  C   UNL     1     -11.583  12.705  65.941  1.00  0.00    -0.443 A  
HETATM   24  C   UNL     1     -12.578  12.949  64.983  1.00  0.00    -0.538 A  
HETATM   25  C   UNL     1     -12.321  12.758  63.624  1.00  0.00    -0.553 A  
HETATM   26  C   UNL     1     -11.066  12.320  63.205  1.00  0.00    -0.389 A  
HETATM   27  C   UNL     1     -10.065  12.077  64.144  1.00  0.00    -0.340 A  
HETATM   28  C   UNL     1     -10.319  12.272  65.505  1.00  0.00    -0.296 A  
ENDBRANCH  22  23
ENDBRANCH  19  22
ENDBRANCH  15  16
ENDBRANCH  11  15
ENDBRANCH   2   3
TORSDOF 6
ENDMDL
MODEL      139
REMARK 921   NORMALIZED FREE ENERGY PREDICTED BY IDOCK:   -3.89 KCAL/MOL
REMARK 922        TOTAL FREE ENERGY PREDICTED BY IDOCK:   -6.00 KCAL/MOL
REMARK 923 INTER-LIGAND FREE ENERGY PREDICTED BY IDOCK:   -5.57 KCAL/MOL
REMARK 924 INTRA-LIGAND FREE ENERGY PREDICTED BY IDOCK:   -0.43 KCAL/MOL
REMARK 927      BINDING AFFINITY PREDICTED BY RF-SCORE:    0.00 PKD
ROOT
HETATM    1  C   UNL     1      -6.425  19.618  68.000  1.00  0.00    -0.237 C  
HETATM    2  O   UNL     1      -6.692  19.077  66.715  1.00  0.00    -0.190 OA 
ENDROOT
BRANCH   2   3
HETATM    3  C   UNL     1      -7.546  18.007  66.638  1.00  0.00    -0.233 A  
HETATM    4  C   UNL     1      -8.892  18.324  66.315  1.00  0.00    -0.178 A  
HETATM    5  C   UNL     1      -9.815  17.331  66.013  1.00  0.00    -0.219 A  
HETATM    6  C   UNL     1      -7.195  16.674  66.920  1.00  0.00    -0.261 A  
HETATM    7  C   UNL     1      -8.198  15.720  66.871  1.00  0.00    -0.288 A  
HETATM    8  C   UNL     1      -9.426  16.048  66.301  1.00  0.00    -0.347 A  
HETATM    9  C   UNL     1     -10.307  14.919  66.465  1.00  0.00    -0.293 C  
HETATM   10  O   UNL     1     -11.286  14.690  65.766  1.00  0.00    -0.335 OA 
HETATM   11  C   UNL     1      -9.797  14.171  67.661  1.00  0.00    -0.229 C  
HETATM   12  C   UNL     1      -8.257  14.321  67.450  1.00  0.00    -0.217 C  
BRANCH   4  13
HETATM   13  O   UNL     1      -9.311  19.635  66.410  1.00  0.00    -0.351 OA 
HETATM   14  C   UNL     1     -10.742  19.734  66.363  1.00  0.00    -0.391 C  
ENDBRANCH   4  13
BRANCH  11  15
HETATM   15  C   UNL     1     -10.579  12.889  67.965  1.00  0.00    -0.238 C  
BRANCH  15  16
HETATM   16  C   UNL     1     -10.522  11.751  66.934  1.00  0.00    -0.256 C  
HETATM   17  C   UNL     1      -9.086  11.405  66.570  1.00  0.00    -0.193 C  
HETATM   18  C   UNL     1      -8.390  10.685  67.717  1.00  0.00    -0.115 C  
HETATM   19  N   UNL     1      -8.996   9.378  67.977  1.00  0.00    -0.128 NA 
HETATM   20  C   UNL     1     -10.414   9.537  68.325  1.00  0.00    -0.223 C  
HETATM   21  C   UNL     1     -11.241  10.464  67.413  1.00  0.00    -0.205 C  
BRANCH  19  22
HETATM   22  C   UNL     1      -8.757   8.418  66.881  1.00  0.00    -0.130 C  
BRANCH  22  23
HETATM   23  C   UNL     1      -7.512   7.577  67.124  1.00  0.00    -0.099 A  
HETATM   24  C   UNL     1      -6.346   7.825  66.385  1.00  0.00    -0.046 A  
HETATM   25  C   UNL     1      -5.234   6.991  66.507  1.00  0.00    -0.022 A  
HETATM   26  C   UNL     1      -5.271   5.898  67.370  1.00  0.00    -0.005 A  
HETATM   27  C   UNL     1      -6.421   5.640  68.116  1.00  0.00    -0.043 A  
HETATM   28  C   UNL     1      -7.535   6.475  67.998  1.00  0.00    -0.095 A  
ENDBRANCH  22  23
ENDBRANCH  19  22
ENDBRANCH  15  16
ENDBRANCH  11  15
ENDBRANCH   2   3
TORSDOF 6
ENDMDL
MODEL      140
REMARK 921   NORMALIZED FREE ENERGY PREDICTED BY IDOCK:   -3.85 KCAL/MOL
REMARK 922        TOTAL FREE ENERGY PREDICTED BY IDOCK:   -5.94 KCAL/MOL
REMARK 923 INTER-LIGAND FREE ENERGY PREDICTED BY IDOCK:   -5.54 KCAL/MOL
REMARK 924 INTRA-LIGAND FREE ENERGY PREDICTED BY IDOCK:   -0.40 KCAL/MOL
REMARK 927      BINDING AFFINITY PREDICTED BY RF-SCORE:    0.00 PKD
ROOT
HETATM    1  C   UNL     1      -5.226  10.864  65.097  1.00  0.00    -0.092 C  
HETATM    2  O   UNL     1      -6.093   9.803  64.723  1.00  0.00    -0.080 OA 
ENDROOT
BRANCH   2   3
HETATM    3  C   UNL     1      -7.055   9.420  65.620  1.00  0.00    -0.090 A  
HETATM    4  C   UNL     1      -8.190   8.776  65.058  1.00  0.00    -0.155 A  
HETATM    5  C   UNL     1      -9.144   8.163  65.861  1.00  0.00    -0.183 A  
HETATM    6  C   UNL     1      -7.018   9.679  67.002  1.00  0.00    -0.085 A  
HETATM    7  C   UNL     1      -8.112   9.292  67.760  1.00  0.00    -0.104 A  
HETATM    8  C   UNL     1      -9.063   8.443  67.200  1.00  0.00    -0.162 A  
HETATM    9  C   UNL     1     -10.128   8.278  68.159  1.00  0.00    -0.200 C  
HETATM   10  O   UNL     1     -10.901   7.329  68.188  1.00  0.00    -0.161 OA 
HETATM   11  C   UNL     1     -10.096   9.504  69.022  1.00  0.00    -0.201 C  
HETATM   12  C   UNL     1      -8.555   9.722  69.143  1.00  0.00    -0.153 C  
BRANCH   4  13
HETATM   13  O   UNL     1      -8.398   8.858  63.697  1.00  0.00    -0.174 OA 
HETATM   14  C   UNL     1      -8.973  10.121  63.329  1.00  0.00    -0.247 C  
ENDBRANCH   4  13
BRANCH  11  15
HETATM   15  C   UNL     1     -11.130   9.489  70.152  1.00  0.00    -0.294 C  
BRANCH  15  16
HETATM   16  C   UNL     1     -10.644   9.136  71.566  1.00  0.00    -0.428 C  
HETATM   17  C   UNL     1     -11.755   8.503  72.391  1.00  0.00    -0.429 C  
HETATM   18  C   UNL     1     -12.053   7.088  71.911  1.00  0.00    -0.323 C  
HETATM   19  N   UNL     1     -10.914   6.195  72.135  1.00  0.00    -0.249 NA 
HETATM   20  C   UNL     1      -9.733   6.688  71.414  1.00  0.00    -0.172 C  
HETATM   21  C   UNL     1      -9.418   8.188  71.566  1.00  0.00    -0.222 C  
BRANCH  19  22
HETATM   22  C   UNL     1     -10.672   5.940  73.569  1.00  0.00    -0.259 C  
BRANCH  22  23
HETATM   23  C   UNL     1     -10.339   4.479  73.838  1.00  0.00    -0.273 A  
HETATM   24  C   UNL     1      -9.104   4.138  74.408  1.00  0.00    -0.108 A  
HETATM   25  C   UNL     1      -8.731   2.800  74.553  1.00  0.00    -0.080 A  
HETATM   26  C   UNL     1      -9.588   1.786  74.131  1.00  0.00    -0.089 A  
HETATM   27  C   UNL     1     -10.822   2.108  73.566  1.00  0.00    -0.272 A  
HETATM   28  C   UNL     1     -11.199   3.447  73.423  1.00  0.00    -0.255 A  
ENDBRANCH  22  23
ENDBRANCH  19  22
ENDBRANCH  15  16
ENDBRANCH  11  15
ENDBRANCH   2   3
TORSDOF 6
ENDMDL
MODEL      141
REMARK 921   NORMALIZED FREE ENERGY PREDICTED BY IDOCK:   -3.84 KCAL/MOL
REMARK 922        TOTAL FREE ENERGY PREDICTED BY IDOCK:   -5.93 KCAL/MOL
REMARK 923 INTER-LIGAND FREE ENERGY PREDICTED BY IDOCK:   -6.44 KCAL/MOL
REMARK 924 INTRA-LIGAND FREE ENERGY PREDICTED BY IDOCK:    0.51 KCAL/MOL
REMARK 927      BINDING AFFINITY PREDICTED BY RF-SCORE:    0.00 PKD
ROOT
HETATM    1  C   UNL     1     -10.445  17.889  65.811  1.00  0.00    -0.196 C  
HETATM    2  O   UNL     1     -11.041  16.635  65.515  1.00  0.00    -0.107 OA 
ENDROOT
BRANCH   2   3
HETATM    3  C   UNL     1     -10.932  15.640  66.451  1.00  0.00    -0.197 A  
HETATM    4  C   UNL     1     -10.357  14.427  65.988  1.00  0.00    -0.309 A  
HETATM    5  C   UNL     1     -10.008  13.411  66.868  1.00  0.00    -0.252 A  
HETATM    6  C   UNL     1     -11.403  15.724  67.775  1.00  0.00    -0.240 A  
HETATM    7  C   UNL     1     -11.284  14.598  68.573  1.00  0.00    -0.288 A  
HETATM    8  C   UNL     1     -10.486  13.539  68.146  1.00  0.00    -0.249 A  
HETATM    9  C   UNL     1     -10.614  12.472  69.108  1.00  0.00     0.042 C  
HETATM   10  O   UNL     1      -9.788  11.584  69.280  1.00  0.00     0.025 OA 
HETATM   11  C   UNL     1     -11.948  12.669  69.764  1.00  0.00    -0.365 C  
HETATM   12  C   UNL     1     -11.984  14.227  69.865  1.00  0.00    -0.397 C  
BRANCH   4  13
HETATM   13  O   UNL     1     -10.247  14.217  64.629  1.00  0.00    -0.387 OA 
HETATM   14  C   UNL     1     -10.682  12.899  64.264  1.00  0.00    -0.406 C  
ENDBRANCH   4  13
BRANCH  11  15
HETATM   15  C   UNL     1     -12.246  11.653  70.871  1.00  0.00    -0.401 C  
BRANCH  15  16
HETATM   16  C   UNL     1     -12.850  10.301  70.462  1.00  0.00    -0.293 C  
HETATM   17  C   UNL     1     -12.004   9.617  69.398  1.00  0.00     0.516 C  
HETATM   18  C   UNL     1     -10.700   9.095  69.989  1.00  0.00    -0.232 C  
HETATM   19  N   UNL     1     -10.941   8.031  70.965  1.00  0.00    -0.236 NA 
HETATM   20  C   UNL     1     -11.778   8.531  72.063  1.00  0.00    -0.362 C  
HETATM   21  C   UNL     1     -13.030   9.331  71.658  1.00  0.00    -0.447 C  
BRANCH  19  22
HETATM   22  C   UNL     1     -11.456   6.798  70.338  1.00  0.00    -0.365 C  
BRANCH  22  23
HETATM   23  C   UNL     1     -10.608   6.368  69.149  1.00  0.00    -0.305 A  
HETATM   24  C   UNL     1      -9.320   5.854  69.359  1.00  0.00    -0.150 A  
HETATM   25  C   UNL     1      -8.483   5.566  68.280  1.00  0.00    -0.097 A  
HETATM   26  C   UNL     1      -8.922   5.787  66.977  1.00  0.00    -0.114 A  
HETATM   27  C   UNL     1     -10.201   6.293  66.750  1.00  0.00    -0.262 A  
HETATM   28  C   UNL     1     -11.043   6.580  67.829  1.00  0.00    -0.366 A  
ENDBRANCH  22  23
ENDBRANCH  19  22
ENDBRANCH  15  16
ENDBRANCH  11  15
ENDBRANCH   2   3
TORSDOF 6
ENDMDL
MODEL      142
REMARK 921   NORMALIZED FREE ENERGY PREDICTED BY IDOCK:   -3.84 KCAL/MOL
REMARK 922        TOTAL FREE ENERGY PREDICTED BY IDOCK:   -5.93 KCAL/MOL
REMARK 923 INTER-LIGAND FREE ENERGY PREDICTED BY IDOCK:   -5.02 KCAL/MOL
REMARK 924 INTRA-LIGAND FREE ENERGY PREDICTED BY IDOCK:   -0.90 KCAL/MOL
REMARK 927      BINDING AFFINITY PREDICTED BY RF-SCORE:    0.00 PKD
ROOT
HETATM    1  C   UNL     1      -5.924  14.259  70.280  1.00  0.00    -0.157 C  
HETATM    2  O   UNL     1      -6.513  14.759  69.088  1.00  0.00    -0.098 OA 
ENDROOT
BRANCH   2   3
HETATM    3  C   UNL     1      -7.290  13.902  68.353  1.00  0.00    -0.115 A  
HETATM    4  C   UNL     1      -8.672  14.226  68.300  1.00  0.00    -0.179 A  
HETATM    5  C   UNL     1      -9.536  13.563  67.438  1.00  0.00    -0.227 A  
HETATM    6  C   UNL     1      -6.828  12.727  67.732  1.00  0.00    -0.135 A  
HETATM    7  C   UNL     1      -7.761  11.928  67.091  1.00  0.00    -0.163 A  
HETATM    8  C   UNL     1      -9.039  12.428  66.853  1.00  0.00    -0.211 A  
HETATM    9  C   UNL     1      -9.826  11.371  66.266  1.00  0.00    -0.218 C  
HETATM   10  O   UNL     1     -10.824  11.543  65.578  1.00  0.00    -0.282 OA 
HETATM   11  C   UNL     1      -9.196  10.089  66.724  1.00  0.00    -0.173 C  
HETATM   12  C   UNL     1      -7.686  10.478  66.657  1.00  0.00    -0.123 C  
BRANCH   4  13
HETATM   13  O   UNL     1      -9.178  15.141  69.199  1.00  0.00    -0.206 OA 
HETATM   14  C   UNL     1     -10.579  15.368  68.985  1.00  0.00    -0.247 C  
ENDBRANCH   4  13
BRANCH  11  15
HETATM   15  C   UNL     1      -9.865   8.836  66.150  1.00  0.00    -0.297 C  
BRANCH  15  16
HETATM   16  C   UNL     1     -10.758   8.006  67.085  1.00  0.00    -0.285 C  
HETATM   17  C   UNL     1     -10.447   6.521  66.974  1.00  0.00    -0.364 C  
HETATM   18  C   UNL     1      -9.106   6.194  67.619  1.00  0.00    -0.109 C  
HETATM   19  N   UNL     1      -9.135   6.426  69.065  1.00  0.00    -0.131 NA 
HETATM   20  C   UNL     1      -9.452   7.832  69.346  1.00  0.00    -0.156 C  
HETATM   21  C   UNL     1     -10.640   8.432  68.571  1.00  0.00    -0.149 C  
BRANCH  19  22
HETATM   22  C   UNL     1     -10.007   5.466  69.771  1.00  0.00    -0.224 C  
BRANCH  22  23
HETATM   23  C   UNL     1      -9.207   4.499  70.633  1.00  0.00    -0.199 A  
HETATM   24  C   UNL     1      -9.612   3.161  70.740  1.00  0.00    -0.219 A  
HETATM   25  C   UNL     1      -8.964   2.288  71.616  1.00  0.00    -0.133 A  
HETATM   26  C   UNL     1      -7.903   2.743  72.397  1.00  0.00    -0.054 A  
HETATM   27  C   UNL     1      -7.485   4.069  72.299  1.00  0.00    -0.062 A  
HETATM   28  C   UNL     1      -8.131   4.944  71.420  1.00  0.00    -0.110 A  
ENDBRANCH  22  23
ENDBRANCH  19  22
ENDBRANCH  15  16
ENDBRANCH  11  15
ENDBRANCH   2   3
TORSDOF 6
ENDMDL
MODEL      143
REMARK 921   NORMALIZED FREE ENERGY PREDICTED BY IDOCK:   -3.79 KCAL/MOL
REMARK 922        TOTAL FREE ENERGY PREDICTED BY IDOCK:   -5.86 KCAL/MOL
REMARK 923 INTER-LIGAND FREE ENERGY PREDICTED BY IDOCK:   -5.13 KCAL/MOL
REMARK 924 INTRA-LIGAND FREE ENERGY PREDICTED BY IDOCK:   -0.73 KCAL/MOL
REMARK 927      BINDING AFFINITY PREDICTED BY RF-SCORE:    0.00 PKD
ROOT
HETATM    1  C   UNL     1      -6.834   3.245  67.976  1.00  0.00    -0.049 C  
HETATM    2  O   UNL     1      -7.020   3.625  69.332  1.00  0.00    -0.041 OA 
ENDROOT
BRANCH   2   3
HETATM    3  C   UNL     1      -7.387   4.920  69.587  1.00  0.00    -0.056 A  
HETATM    4  C   UNL     1      -8.254   5.101  70.698  1.00  0.00    -0.107 A  
HETATM    5  C   UNL     1      -8.545   6.368  71.188  1.00  0.00    -0.128 A  
HETATM    6  C   UNL     1      -7.026   6.030  68.801  1.00  0.00    -0.072 A  
HETATM    7  C   UNL     1      -7.546   7.265  69.153  1.00  0.00    -0.102 A  
HETATM    8  C   UNL     1      -8.170   7.416  70.389  1.00  0.00    -0.121 A  
HETATM    9  C   UNL     1      -8.697   8.757  70.458  1.00  0.00    -0.174 C  
HETATM   10  O   UNL     1      -8.939   9.359  71.497  1.00  0.00    -0.268 OA 
HETATM   11  C   UNL     1      -8.916   9.185  69.038  1.00  0.00    -0.143 C  
HETATM   12  C   UNL     1      -7.665   8.548  68.356  1.00  0.00    -0.101 C  
BRANCH   4  13
HETATM   13  O   UNL     1      -8.898   4.002  71.227  1.00  0.00    -0.094 OA 
HETATM   14  C   UNL     1     -10.026   4.390  72.027  1.00  0.00    -0.185 C  
ENDBRANCH   4  13
BRANCH  11  15
HETATM   15  C   UNL     1      -9.426  10.623  68.900  1.00  0.00    -0.199 C  
BRANCH  15  16
HETATM   16  C   UNL     1      -9.300  11.302  67.527  1.00  0.00    -0.166 C  
HETATM   17  C   UNL     1     -10.372  12.364  67.335  1.00  0.00    -0.217 C  
HETATM   18  C   UNL     1     -10.092  13.586  68.200  1.00  0.00    -0.250 C  
HETATM   19  N   UNL     1      -8.863  14.267  67.786  1.00  0.00    -0.176 NA 
HETATM   20  C   UNL     1      -7.717  13.354  67.892  1.00  0.00    -0.153 C  
HETATM   21  C   UNL     1      -7.909  11.946  67.296  1.00  0.00    -0.168 C  
BRANCH  19  22
HETATM   22  C   UNL     1      -8.993  14.907  66.462  1.00  0.00    -0.253 C  
BRANCH  22  23
HETATM   23  C   UNL     1      -9.165  16.416  66.575  1.00  0.00    -0.306 A  
HETATM   24  C   UNL     1      -8.275  17.163  67.361  1.00  0.00    -0.197 A  
HETATM   25  C   UNL     1      -8.485  18.526  67.573  1.00  0.00    -0.272 A  
HETATM   26  C   UNL     1      -9.587  19.161  67.004  1.00  0.00    -0.378 A  
HETATM   27  C   UNL     1     -10.479  18.434  66.216  1.00  0.00    -0.421 A  
HETATM   28  C   UNL     1     -10.269  17.069  66.000  1.00  0.00    -0.337 A  
ENDBRANCH  22  23
ENDBRANCH  19  22
ENDBRANCH  15  16
ENDBRANCH  11  15
ENDBRANCH   2   3
TORSDOF 6
ENDMDL
MODEL      144
REMARK 921   NORMALIZED FREE ENERGY PREDICTED BY IDOCK:   -3.79 KCAL/MOL
REMARK 922        TOTAL FREE ENERGY PREDICTED BY IDOCK:   -5.85 KCAL/MOL
REMARK 923 INTER-LIGAND FREE ENERGY PREDICTED BY IDOCK:   -4.87 KCAL/MOL
REMARK 924 INTRA-LIGAND FREE ENERGY PREDICTED BY IDOCK:   -0.98 KCAL/MOL
REMARK 927      BINDING AFFINITY PREDICTED BY RF-SCORE:    0.00 PKD
ROOT
HETATM    1  C   UNL     1     -10.089   1.558  63.358  1.00  0.00    -0.124 C  
HETATM    2  O   UNL     1      -9.095   1.855  64.329  1.00  0.00    -0.103 OA 
ENDROOT
BRANCH   2   3
HETATM    3  C   UNL     1      -8.986   3.153  64.752  1.00  0.00    -0.130 A  
HETATM    4  C   UNL     1      -7.660   3.656  64.841  1.00  0.00    -0.077 A  
HETATM    5  C   UNL     1      -7.412   5.005  65.064  1.00  0.00    -0.076 A  
HETATM    6  C   UNL     1     -10.063   3.963  65.157  1.00  0.00    -0.145 A  
HETATM    7  C   UNL     1      -9.772   5.231  65.633  1.00  0.00    -0.031 A  
HETATM    8  C   UNL     1      -8.493   5.753  65.451  1.00  0.00    -0.151 A  
HETATM    9  C   UNL     1      -8.437   7.030  66.118  1.00  0.00    -0.135 C  
HETATM   10  O   UNL     1      -7.648   7.926  65.844  1.00  0.00    -0.079 OA 
HETATM   11  C   UNL     1      -9.476   6.976  67.197  1.00  0.00    -0.176 C  
HETATM   12  C   UNL     1     -10.606   6.189  66.461  1.00  0.00    -0.214 C  
BRANCH   4  13
HETATM   13  O   UNL     1      -6.606   2.767  64.810  1.00  0.00    -0.036 OA 
HETATM   14  C   UNL     1      -5.642   3.060  65.832  1.00  0.00    -0.018 C  
ENDBRANCH   4  13
BRANCH  11  15
HETATM   15  C   UNL     1      -9.610   8.280  67.990  1.00  0.00    -0.171 C  
BRANCH  15  16
HETATM   16  C   UNL     1     -10.729   9.253  67.589  1.00  0.00    -0.276 C  
HETATM   17  C   UNL     1     -11.045  10.227  68.715  1.00  0.00    -0.276 C  
HETATM   18  C   UNL     1      -9.927  11.249  68.882  1.00  0.00    -0.155 C  
HETATM   19  N   UNL     1      -9.812  12.116  67.708  1.00  0.00    -0.194 NA 
HETATM   20  C   UNL     1      -9.528  11.313  66.511  1.00  0.00    -0.193 C  
HETATM   21  C   UNL     1     -10.400  10.060  66.306  1.00  0.00    -0.235 C  
BRANCH  19  22
HETATM   22  C   UNL     1     -10.971  13.018  67.558  1.00  0.00    -0.259 C  
BRANCH  22  23
HETATM   23  C   UNL     1     -11.004  14.086  68.641  1.00  0.00    -0.281 A  
HETATM   24  C   UNL     1      -9.918  14.960  68.794  1.00  0.00    -0.228 A  
HETATM   25  C   UNL     1      -9.876  15.867  69.854  1.00  0.00    -0.079 A  
HETATM   26  C   UNL     1     -10.920  15.913  70.776  1.00  0.00    -0.271 A  
HETATM   27  C   UNL     1     -12.010  15.055  70.635  1.00  0.00    -0.370 A  
HETATM   28  C   UNL     1     -12.055  14.148  69.573  1.00  0.00    -0.388 A  
ENDBRANCH  22  23
ENDBRANCH  19  22
ENDBRANCH  15  16
ENDBRANCH  11  15
ENDBRANCH   2   3
TORSDOF 6
ENDMDL
MODEL      145
REMARK 921   NORMALIZED FREE ENERGY PREDICTED BY IDOCK:   -3.77 KCAL/MOL
REMARK 922        TOTAL FREE ENERGY PREDICTED BY IDOCK:   -5.83 KCAL/MOL
REMARK 923 INTER-LIGAND FREE ENERGY PREDICTED BY IDOCK:   -6.31 KCAL/MOL
REMARK 924 INTRA-LIGAND FREE ENERGY PREDICTED BY IDOCK:    0.48 KCAL/MOL
REMARK 927      BINDING AFFINITY PREDICTED BY RF-SCORE:    0.00 PKD
ROOT
HETATM    1  C   UNL     1      -9.592   5.052  70.785  1.00  0.00    -0.180 C  
HETATM    2  O   UNL     1      -9.342   5.849  69.636  1.00  0.00    -0.137 OA 
ENDROOT
BRANCH   2   3
HETATM    3  C   UNL     1      -9.999   7.048  69.536  1.00  0.00    -0.162 A  
HETATM    4  C   UNL     1      -9.745   7.784  68.348  1.00  0.00    -0.159 A  
HETATM    5  C   UNL     1     -10.488   8.913  68.027  1.00  0.00    -0.263 A  
HETATM    6  C   UNL     1     -10.821   7.602  70.534  1.00  0.00    -0.249 A  
HETATM    7  C   UNL     1     -11.349   8.863  70.307  1.00  0.00    -0.179 A  
HETATM    8  C   UNL     1     -11.277   9.413  69.029  1.00  0.00     0.079 A  
HETATM    9  C   UNL     1     -11.808  10.752  69.093  1.00  0.00    -0.275 C  
HETATM   10  O   UNL     1     -12.265  11.368  68.138  1.00  0.00    -0.602 OA 
HETATM   11  C   UNL     1     -11.624  11.199  70.512  1.00  0.00    -0.287 C  
HETATM   12  C   UNL     1     -11.942   9.872  71.269  1.00  0.00    -0.489 C  
BRANCH   4  13
HETATM   13  O   UNL     1      -8.671   7.429  67.560  1.00  0.00    -0.124 OA 
HETATM   14  C   UNL     1      -7.544   8.288  67.789  1.00  0.00    -0.102 C  
ENDBRANCH   4  13
BRANCH  11  15
HETATM   15  C   UNL     1     -12.186  12.596  70.796  1.00  0.00    -0.331 C  
BRANCH  15  16
HETATM   16  C   UNL     1     -12.147  13.631  69.661  1.00  0.00    -0.378 C  
HETATM   17  C   UNL     1     -12.761  14.953  70.097  1.00  0.00    -0.262 C  
HETATM   18  C   UNL     1     -11.849  15.681  71.078  1.00  0.00    -0.400 C  
HETATM   19  N   UNL     1     -10.592  16.084  70.444  1.00  0.00    -0.206 NA 
HETATM   20  C   UNL     1      -9.878  14.904  69.939  1.00  0.00     0.144 C  
HETATM   21  C   UNL     1     -10.714  13.894  69.130  1.00  0.00    -0.175 C  
BRANCH  19  22
HETATM   22  C   UNL     1     -10.785  17.141  69.432  1.00  0.00    -0.086 C  
BRANCH  22  23
HETATM   23  C   UNL     1      -9.872  16.950  68.229  1.00  0.00    -0.266 A  
HETATM   24  C   UNL     1      -8.504  17.240  68.339  1.00  0.00    -0.254 A  
HETATM   25  C   UNL     1      -7.672  17.186  67.219  1.00  0.00    -0.198 A  
HETATM   26  C   UNL     1      -8.197  16.842  65.975  1.00  0.00    -0.178 A  
HETATM   27  C   UNL     1      -9.554  16.547  65.850  1.00  0.00    -0.284 A  
HETATM   28  C   UNL     1     -10.388  16.597  66.970  1.00  0.00    -0.301 A  
ENDBRANCH  22  23
ENDBRANCH  19  22
ENDBRANCH  15  16
ENDBRANCH  11  15
ENDBRANCH   2   3
TORSDOF 6
ENDMDL
MODEL      146
REMARK 921   NORMALIZED FREE ENERGY PREDICTED BY IDOCK:   -3.75 KCAL/MOL
REMARK 922        TOTAL FREE ENERGY PREDICTED BY IDOCK:   -5.81 KCAL/MOL
REMARK 923 INTER-LIGAND FREE ENERGY PREDICTED BY IDOCK:   -4.92 KCAL/MOL
REMARK 924 INTRA-LIGAND FREE ENERGY PREDICTED BY IDOCK:   -0.88 KCAL/MOL
REMARK 927      BINDING AFFINITY PREDICTED BY RF-SCORE:    0.00 PKD
ROOT
HETATM    1  C   UNL     1     -11.571  15.348  69.238  1.00  0.00    -0.339 C  
HETATM    2  O   UNL     1     -11.771  14.101  69.888  1.00  0.00    -0.280 OA 
ENDROOT
BRANCH   2   3
HETATM    3  C   UNL     1     -11.377  12.967  69.227  1.00  0.00    -0.243 A  
HETATM    4  C   UNL     1     -11.904  11.750  69.737  1.00  0.00    -0.349 A  
HETATM    5  C   UNL     1     -11.748  10.552  69.051  1.00  0.00    -0.242 A  
HETATM    6  C   UNL     1     -10.461  12.933  68.160  1.00  0.00    -0.245 A  
HETATM    7  C   UNL     1     -10.109  11.692  67.652  1.00  0.00    -0.204 A  
HETATM    8  C   UNL     1     -10.849  10.570  68.017  1.00  0.00    -0.312 A  
HETATM    9  C   UNL     1     -10.218   9.414  67.430  1.00  0.00    -0.239 C  
HETATM   10  O   UNL     1     -10.783   8.352  67.200  1.00  0.00    -0.291 OA 
HETATM   11  C   UNL     1      -8.779   9.786  67.237  1.00  0.00    -0.135 C  
HETATM   12  C   UNL     1      -8.930  11.276  66.796  1.00  0.00    -0.173 C  
BRANCH   4  13
HETATM   13  O   UNL     1     -12.486  11.747  70.987  1.00  0.00    -0.372 OA 
HETATM   14  C   UNL     1     -12.547  10.421  71.535  1.00  0.00    -0.439 C  
ENDBRANCH   4  13
BRANCH  11  15
HETATM   15  C   UNL     1      -7.945   8.692  66.563  1.00  0.00    -0.099 C  
BRANCH  15  16
HETATM   16  C   UNL     1      -6.844   8.014  67.393  1.00  0.00    -0.070 C  
HETATM   17  C   UNL     1      -7.381   7.526  68.731  1.00  0.00    -0.095 C  
HETATM   18  C   UNL     1      -8.284   6.313  68.548  1.00  0.00    -0.112 C  
HETATM   19  N   UNL     1      -7.537   5.159  68.042  1.00  0.00    -0.083 NA 
HETATM   20  C   UNL     1      -6.925   5.479  66.746  1.00  0.00    -0.065 C  
HETATM   21  C   UNL     1      -6.177   6.823  66.657  1.00  0.00    -0.044 C  
BRANCH  19  22
HETATM   22  C   UNL     1      -6.583   4.628  69.035  1.00  0.00    -0.045 C  
BRANCH  22  23
HETATM   23  C   UNL     1      -7.287   3.871  70.153  1.00  0.00    -0.042 A  
HETATM   24  C   UNL     1      -6.681   3.762  71.413  1.00  0.00    -0.027 A  
HETATM   25  C   UNL     1      -7.252   2.974  72.413  1.00  0.00    -0.043 A  
HETATM   26  C   UNL     1      -8.438   2.284  72.167  1.00  0.00    -0.067 A  
HETATM   27  C   UNL     1      -9.056   2.386  70.921  1.00  0.00    -0.180 A  
HETATM   28  C   UNL     1      -8.487   3.176  69.919  1.00  0.00    -0.093 A  
ENDBRANCH  22  23
ENDBRANCH  19  22
ENDBRANCH  15  16
ENDBRANCH  11  15
ENDBRANCH   2   3
TORSDOF 6
ENDMDL
MODEL      147
REMARK 921   NORMALIZED FREE ENERGY PREDICTED BY IDOCK:   -3.72 KCAL/MOL
REMARK 922        TOTAL FREE ENERGY PREDICTED BY IDOCK:   -5.76 KCAL/MOL
REMARK 923 INTER-LIGAND FREE ENERGY PREDICTED BY IDOCK:   -5.37 KCAL/MOL
REMARK 924 INTRA-LIGAND FREE ENERGY PREDICTED BY IDOCK:   -0.39 KCAL/MOL
REMARK 927      BINDING AFFINITY PREDICTED BY RF-SCORE:    0.00 PKD
ROOT
HETATM    1  C   UNL     1      -9.167   2.197  68.666  1.00  0.00    -0.169 C  
HETATM    2  O   UNL     1      -9.828   3.438  68.462  1.00  0.00    -0.033 OA 
ENDROOT
BRANCH   2   3
HETATM    3  C   UNL     1      -9.055   4.566  68.383  1.00  0.00    -0.124 A  
HETATM    4  C   UNL     1      -8.807   5.223  69.618  1.00  0.00    -0.107 A  
HETATM    5  C   UNL     1      -7.885   6.257  69.713  1.00  0.00    -0.110 A  
HETATM    6  C   UNL     1      -8.572   5.131  67.188  1.00  0.00    -0.105 A  
HETATM    7  C   UNL     1      -7.869   6.321  67.276  1.00  0.00    -0.108 A  
HETATM    8  C   UNL     1      -7.440   6.770  68.523  1.00  0.00    -0.092 A  
HETATM    9  C   UNL     1      -6.825   8.062  68.341  1.00  0.00    -0.068 C  
HETATM   10  O   UNL     1      -6.006   8.559  69.104  1.00  0.00    -0.041 OA 
HETATM   11  C   UNL     1      -7.438   8.636  67.098  1.00  0.00    -0.088 C  
HETATM   12  C   UNL     1      -7.539   7.353  66.216  1.00  0.00    -0.088 C  
BRANCH   4  13
HETATM   13  O   UNL     1      -9.576   4.894  70.715  1.00  0.00    -0.160 OA 
HETATM   14  C   UNL     1      -9.582   5.950  71.687  1.00  0.00    -0.152 C  
ENDBRANCH   4  13
BRANCH  11  15
HETATM   15  C   UNL     1      -6.864  10.000  66.702  1.00  0.00    -0.082 C  
BRANCH  15  16
HETATM   16  C   UNL     1      -7.720  11.247  66.974  1.00  0.00    -0.147 C  
HETATM   17  C   UNL     1      -9.007  11.221  66.164  1.00  0.00    -0.210 C  
HETATM   18  C   UNL     1      -9.975  10.178  66.709  1.00  0.00    -0.211 C  
HETATM   19  N   UNL     1     -10.431  10.522  68.057  1.00  0.00    -0.184 NA 
HETATM   20  C   UNL     1      -9.285  10.612  68.972  1.00  0.00    -0.167 C  
HETATM   21  C   UNL     1      -8.075  11.423  68.473  1.00  0.00    -0.149 C  
BRANCH  19  22
HETATM   22  C   UNL     1     -11.298  11.716  68.071  1.00  0.00    -0.296 C  
BRANCH  22  23
HETATM   23  C   UNL     1     -12.016  11.883  69.403  1.00  0.00    -0.350 A  
HETATM   24  C   UNL     1     -12.126  13.156  69.982  1.00  0.00    -0.375 A  
HETATM   25  C   UNL     1     -12.673  13.314  71.256  1.00  0.00    -0.411 A  
HETATM   26  C   UNL     1     -13.118  12.202  71.969  1.00  0.00    -0.462 A  
HETATM   27  C   UNL     1     -13.019  10.930  71.405  1.00  0.00    -0.527 A  
HETATM   28  C   UNL     1     -12.474  10.770  70.128  1.00  0.00    -0.357 A  
ENDBRANCH  22  23
ENDBRANCH  19  22
ENDBRANCH  15  16
ENDBRANCH  11  15
ENDBRANCH   2   3
TORSDOF 6
ENDMDL
MODEL      148
REMARK 921   NORMALIZED FREE ENERGY PREDICTED BY IDOCK:   -3.71 KCAL/MOL
REMARK 922        TOTAL FREE ENERGY PREDICTED BY IDOCK:   -5.75 KCAL/MOL
REMARK 923 INTER-LIGAND FREE ENERGY PREDICTED BY IDOCK:   -4.84 KCAL/MOL
REMARK 924 INTRA-LIGAND FREE ENERGY PREDICTED BY IDOCK:   -0.91 KCAL/MOL
REMARK 927      BINDING AFFINITY PREDICTED BY RF-SCORE:    0.00 PKD
ROOT
HETATM    1  C   UNL     1      -9.373   2.474  70.595  1.00  0.00    -0.142 C  
HETATM    2  O   UNL     1      -8.698   2.298  69.357  1.00  0.00    -0.066 OA 
ENDROOT
BRANCH   2   3
HETATM    3  C   UNL     1      -8.569   3.390  68.540  1.00  0.00    -0.092 A  
HETATM    4  C   UNL     1      -7.254   3.919  68.434  1.00  0.00    -0.055 A  
HETATM    5  C   UNL     1      -6.943   4.895  67.496  1.00  0.00    -0.061 A  
HETATM    6  C   UNL     1      -9.632   4.036  67.883  1.00  0.00    -0.199 A  
HETATM    7  C   UNL     1      -9.340   5.178  67.155  1.00  0.00    -0.129 A  
HETATM    8  C   UNL     1      -8.011   5.491  66.879  1.00  0.00    -0.101 A  
HETATM    9  C   UNL     1      -7.987   6.763  66.199  1.00  0.00    -0.110 C  
HETATM   10  O   UNL     1      -7.081   7.149  65.471  1.00  0.00    -0.061 OA 
HETATM   11  C   UNL     1      -9.237   7.476  66.620  1.00  0.00    -0.201 C  
HETATM   12  C   UNL     1     -10.245   6.284  66.651  1.00  0.00    -0.226 C  
BRANCH   4  13
HETATM   13  O   UNL     1      -6.302   3.530  69.353  1.00  0.00    -0.028 OA 
HETATM   14  C   UNL     1      -6.170   4.491  70.411  1.00  0.00    -0.022 C  
ENDBRANCH   4  13
BRANCH  11  15
HETATM   15  C   UNL     1      -9.423   8.841  65.950  1.00  0.00    -0.278 C  
BRANCH  15  16
HETATM   16  C   UNL     1     -10.560   9.742  66.457  1.00  0.00    -0.150 C  
HETATM   17  C   UNL     1     -10.493   9.919  67.967  1.00  0.00    -0.266 C  
HETATM   18  C   UNL     1      -9.323  10.813  68.360  1.00  0.00    -0.167 C  
HETATM   19  N   UNL     1      -9.503  12.180  67.867  1.00  0.00    -0.188 NA 
HETATM   20  C   UNL     1      -9.611  12.180  66.402  1.00  0.00    -0.234 C  
HETATM   21  C   UNL     1     -10.568  11.141  65.788  1.00  0.00    -0.289 C  
BRANCH  19  22
HETATM   22  C   UNL     1     -10.610  12.883  68.546  1.00  0.00    -0.253 C  
BRANCH  22  23
HETATM   23  C   UNL     1     -10.447  14.395  68.481  1.00  0.00    -0.254 A  
HETATM   24  C   UNL     1      -9.214  14.979  68.803  1.00  0.00    -0.200 A  
HETATM   25  C   UNL     1      -9.077  16.367  68.865  1.00  0.00    -0.256 A  
HETATM   26  C   UNL     1     -10.172  17.189  68.607  1.00  0.00    -0.336 A  
HETATM   27  C   UNL     1     -11.404  16.624  68.281  1.00  0.00    -0.121 A  
HETATM   28  C   UNL     1     -11.543  15.235  68.215  1.00  0.00    -0.357 A  
ENDBRANCH  22  23
ENDBRANCH  19  22
ENDBRANCH  15  16
ENDBRANCH  11  15
ENDBRANCH   2   3
TORSDOF 6
ENDMDL
MODEL      149
REMARK 921   NORMALIZED FREE ENERGY PREDICTED BY IDOCK:   -3.71 KCAL/MOL
REMARK 922        TOTAL FREE ENERGY PREDICTED BY IDOCK:   -5.75 KCAL/MOL
REMARK 923 INTER-LIGAND FREE ENERGY PREDICTED BY IDOCK:   -5.29 KCAL/MOL
REMARK 924 INTRA-LIGAND FREE ENERGY PREDICTED BY IDOCK:   -0.46 KCAL/MOL
REMARK 927      BINDING AFFINITY PREDICTED BY RF-SCORE:    0.00 PKD
ROOT
HETATM    1  C   UNL     1      -8.640   2.355  70.352  1.00  0.00    -0.054 C  
HETATM    2  O   UNL     1      -9.566   2.712  69.336  1.00  0.00    -0.113 OA 
ENDROOT
BRANCH   2   3
HETATM    3  C   UNL     1      -9.773   4.046  69.101  1.00  0.00    -0.107 A  
HETATM    4  C   UNL     1      -9.840   4.421  67.732  1.00  0.00    -0.094 A  
HETATM    5  C   UNL     1     -10.238   5.696  67.352  1.00  0.00    -0.249 A  
HETATM    6  C   UNL     1      -9.849   5.037  70.097  1.00  0.00    -0.303 A  
HETATM    7  C   UNL     1      -9.984   6.354  69.685  1.00  0.00    -0.193 A  
HETATM    8  C   UNL     1     -10.302   6.625  68.357  1.00  0.00    -0.220 A  
HETATM    9  C   UNL     1     -10.287   8.056  68.181  1.00  0.00    -0.200 C  
HETATM   10  O   UNL     1     -10.887   8.658  67.300  1.00  0.00    -0.217 OA 
HETATM   11  C   UNL     1      -9.368   8.590  69.240  1.00  0.00    -0.154 C  
HETATM   12  C   UNL     1      -9.736   7.650  70.431  1.00  0.00    -0.179 C  
BRANCH   4  13
HETATM   13  O   UNL     1      -9.397   3.532  66.775  1.00  0.00    -0.175 OA 
HETATM   14  C   UNL     1      -8.092   3.887  66.294  1.00  0.00    -0.097 C  
ENDBRANCH   4  13
BRANCH  11  15
HETATM   15  C   UNL     1      -9.265  10.118  69.252  1.00  0.00    -0.220 C  
BRANCH  15  16
HETATM   16  C   UNL     1      -8.793  10.817  67.968  1.00  0.00    -0.132 C  
HETATM   17  C   UNL     1      -9.879  11.718  67.397  1.00  0.00    -0.189 C  
HETATM   18  C   UNL     1     -10.065  12.961  68.258  1.00  0.00    -0.242 C  
HETATM   19  N   UNL     1      -8.874  13.812  68.236  1.00  0.00    -0.183 NA 
HETATM   20  C   UNL     1      -7.712  13.071  68.742  1.00  0.00     0.004 C  
HETATM   21  C   UNL     1      -7.505  11.655  68.173  1.00  0.00    -0.103 C  
BRANCH  19  22
HETATM   22  C   UNL     1      -8.653  14.437  66.917  1.00  0.00    -0.164 C  
BRANCH  22  23
HETATM   23  C   UNL     1      -9.010  15.917  66.922  1.00  0.00    -0.257 A  
HETATM   24  C   UNL     1     -10.055  16.387  66.113  1.00  0.00    -0.364 A  
HETATM   25  C   UNL     1     -10.320  17.753  66.013  1.00  0.00    -0.304 A  
HETATM   26  C   UNL     1      -9.544  18.669  66.720  1.00  0.00    -0.332 A  
HETATM   27  C   UNL     1      -8.504  18.219  67.533  1.00  0.00    -0.252 A  
HETATM   28  C   UNL     1      -8.239  16.851  67.637  1.00  0.00    -0.196 A  
ENDBRANCH  22  23
ENDBRANCH  19  22
ENDBRANCH  15  16
ENDBRANCH  11  15
ENDBRANCH   2   3
TORSDOF 6
ENDMDL
MODEL      150
REMARK 921   NORMALIZED FREE ENERGY PREDICTED BY IDOCK:   -3.70 KCAL/MOL
REMARK 922        TOTAL FREE ENERGY PREDICTED BY IDOCK:   -5.74 KCAL/MOL
REMARK 923 INTER-LIGAND FREE ENERGY PREDICTED BY IDOCK:   -5.32 KCAL/MOL
REMARK 924 INTRA-LIGAND FREE ENERGY PREDICTED BY IDOCK:   -0.42 KCAL/MOL
REMARK 927      BINDING AFFINITY PREDICTED BY RF-SCORE:    0.00 PKD
ROOT
HETATM    1  C   UNL     1      -5.660  10.663  64.712  1.00  0.00    -0.089 C  
HETATM    2  O   UNL     1      -6.435   9.645  64.096  1.00  0.00    -0.099 OA 
ENDROOT
BRANCH   2   3
HETATM    3  C   UNL     1      -6.857   8.603  64.878  1.00  0.00    -0.072 A  
HETATM    4  C   UNL     1      -8.264   8.491  65.037  1.00  0.00    -0.158 A  
HETATM    5  C   UNL     1      -8.836   7.376  65.637  1.00  0.00    -0.056 A  
HETATM    6  C   UNL     1      -6.008   7.715  65.565  1.00  0.00    -0.038 A  
HETATM    7  C   UNL     1      -6.597   6.761  66.379  1.00  0.00    -0.048 A  
HETATM    8  C   UNL     1      -7.969   6.538  66.288  1.00  0.00    -0.111 A  
HETATM    9  C   UNL     1      -8.330   5.575  67.299  1.00  0.00    -0.104 C  
HETATM   10  O   UNL     1      -9.323   4.861  67.260  1.00  0.00    -0.120 OA 
HETATM   11  C   UNL     1      -7.288   5.696  68.371  1.00  0.00    -0.076 C  
HETATM   12  C   UNL     1      -6.013   5.924  67.499  1.00  0.00    -0.018 C  
BRANCH   4  13
HETATM   13  O   UNL     1      -9.062   9.559  64.685  1.00  0.00    -0.227 OA 
HETATM   14  C   UNL     1      -9.961   9.915  65.746  1.00  0.00    -0.277 C  
ENDBRANCH   4  13
BRANCH  11  15
HETATM   15  C   UNL     1      -7.468   4.700  69.521  1.00  0.00    -0.052 C  
BRANCH  15  16
HETATM   16  C   UNL     1      -8.016   5.234  70.854  1.00  0.00    -0.099 C  
HETATM   17  C   UNL     1      -7.952   6.753  70.910  1.00  0.00    -0.106 C  
HETATM   18  C   UNL     1      -8.994   7.377  69.990  1.00  0.00    -0.144 C  
HETATM   19  N   UNL     1     -10.355   7.079  70.439  1.00  0.00    -0.200 NA 
HETATM   20  C   UNL     1     -10.573   5.627  70.466  1.00  0.00    -0.284 C  
HETATM   21  C   UNL     1      -9.472   4.783  71.135  1.00  0.00    -0.218 C  
BRANCH  19  22
HETATM   22  C   UNL     1     -10.689   7.754  71.709  1.00  0.00    -0.223 C  
BRANCH  22  23
HETATM   23  C   UNL     1     -11.542   8.994  71.486  1.00  0.00    -0.413 A  
HETATM   24  C   UNL     1     -11.135   9.965  70.560  1.00  0.00    -0.398 A  
HETATM   25  C   UNL     1     -11.838  11.163  70.427  1.00  0.00    -0.462 A  
HETATM   26  C   UNL     1     -12.959  11.407  71.218  1.00  0.00    -0.415 A  
HETATM   27  C   UNL     1     -13.380  10.450  72.141  1.00  0.00    -0.374 A  
HETATM   28  C   UNL     1     -12.679   9.248  72.274  1.00  0.00    -0.435 A  
ENDBRANCH  22  23
ENDBRANCH  19  22
ENDBRANCH  15  16
ENDBRANCH  11  15
ENDBRANCH   2   3
TORSDOF 6
ENDMDL
MODEL      151
REMARK 921   NORMALIZED FREE ENERGY PREDICTED BY IDOCK:   -3.70 KCAL/MOL
REMARK 922        TOTAL FREE ENERGY PREDICTED BY IDOCK:   -5.73 KCAL/MOL
REMARK 923 INTER-LIGAND FREE ENERGY PREDICTED BY IDOCK:   -4.93 KCAL/MOL
REMARK 924 INTRA-LIGAND FREE ENERGY PREDICTED BY IDOCK:   -0.80 KCAL/MOL
REMARK 927      BINDING AFFINITY PREDICTED BY RF-SCORE:    0.00 PKD
ROOT
HETATM    1  C   UNL     1     -11.612   4.059  73.227  1.00  0.00     0.002 C  
HETATM    2  O   UNL     1     -10.696   5.134  73.380  1.00  0.00    -0.226 OA 
ENDROOT
BRANCH   2   3
HETATM    3  C   UNL     1      -9.907   5.457  72.308  1.00  0.00    -0.163 A  
HETATM    4  C   UNL     1      -8.518   5.206  72.475  1.00  0.00    -0.121 A  
HETATM    5  C   UNL     1      -7.634   5.301  71.407  1.00  0.00    -0.098 A  
HETATM    6  C   UNL     1     -10.365   6.064  71.124  1.00  0.00    -0.267 A  
HETATM    7  C   UNL     1      -9.422   6.398  70.165  1.00  0.00    -0.170 A  
HETATM    8  C   UNL     1      -8.128   5.895  70.275  1.00  0.00    -0.107 A  
HETATM    9  C   UNL     1      -7.338   6.467  69.213  1.00  0.00    -0.093 C  
HETATM   10  O   UNL     1      -6.313   5.973  68.762  1.00  0.00    -0.037 OA 
HETATM   11  C   UNL     1      -8.005   7.763  68.858  1.00  0.00    -0.124 C  
HETATM   12  C   UNL     1      -9.506   7.351  68.990  1.00  0.00    -0.148 C  
BRANCH   4  13
HETATM   13  O   UNL     1      -8.031   4.971  73.743  1.00  0.00    -0.101 OA 
HETATM   14  C   UNL     1      -6.698   5.482  73.896  1.00  0.00    -0.079 C  
ENDBRANCH   4  13
BRANCH  11  15
HETATM   15  C   UNL     1      -7.337   8.501  67.694  1.00  0.00    -0.089 C  
BRANCH  15  16
HETATM   16  C   UNL     1      -7.049  10.000  67.865  1.00  0.00    -0.085 C  
HETATM   17  C   UNL     1      -7.676  10.816  66.744  1.00  0.00    -0.136 C  
HETATM   18  C   UNL     1      -9.191  10.874  66.893  1.00  0.00    -0.161 C  
HETATM   19  N   UNL     1      -9.584  11.602  68.100  1.00  0.00    -0.184 NA 
HETATM   20  C   UNL     1      -9.028  10.947  69.291  1.00  0.00     0.031 C  
HETATM   21  C   UNL     1      -7.538  10.560  69.225  1.00  0.00    -0.134 C  
BRANCH  19  22
HETATM   22  C   UNL     1      -9.273  13.043  68.015  1.00  0.00    -0.212 C  
BRANCH  22  23
HETATM   23  C   UNL     1     -10.122  13.747  66.965  1.00  0.00    -0.256 A  
HETATM   24  C   UNL     1     -11.455  13.355  66.769  1.00  0.00    -0.376 A  
HETATM   25  C   UNL     1     -12.213  13.904  65.733  1.00  0.00    -0.488 A  
HETATM   26  C   UNL     1     -11.650  14.852  64.881  1.00  0.00    -0.395 A  
HETATM   27  C   UNL     1     -10.328  15.255  65.066  1.00  0.00    -0.375 A  
HETATM   28  C   UNL     1      -9.567  14.709  66.104  1.00  0.00    -0.336 A  
ENDBRANCH  22  23
ENDBRANCH  19  22
ENDBRANCH  15  16
ENDBRANCH  11  15
ENDBRANCH   2   3
TORSDOF 6
ENDMDL
MODEL      152
REMARK 921   NORMALIZED FREE ENERGY PREDICTED BY IDOCK:   -3.69 KCAL/MOL
REMARK 922        TOTAL FREE ENERGY PREDICTED BY IDOCK:   -5.72 KCAL/MOL
REMARK 923 INTER-LIGAND FREE ENERGY PREDICTED BY IDOCK:   -4.98 KCAL/MOL
REMARK 924 INTRA-LIGAND FREE ENERGY PREDICTED BY IDOCK:   -0.74 KCAL/MOL
REMARK 927      BINDING AFFINITY PREDICTED BY RF-SCORE:    0.00 PKD
ROOT
HETATM    1  C   UNL     1      -6.728  10.031  62.490  1.00  0.00    -0.120 C  
HETATM    2  O   UNL     1      -6.810  10.346  63.873  1.00  0.00    -0.094 OA 
ENDROOT
BRANCH   2   3
HETATM    3  C   UNL     1      -7.076   9.323  64.745  1.00  0.00    -0.095 A  
HETATM    4  C   UNL     1      -8.449   9.126  65.054  1.00  0.00    -0.171 A  
HETATM    5  C   UNL     1      -8.877   8.010  65.762  1.00  0.00    -0.170 A  
HETATM    6  C   UNL     1      -6.102   8.532  65.382  1.00  0.00    -0.049 A  
HETATM    7  C   UNL     1      -6.536   7.588  66.298  1.00  0.00    -0.049 A  
HETATM    8  C   UNL     1      -7.891   7.270  66.360  1.00  0.00    -0.106 A  
HETATM    9  C   UNL     1      -8.079   6.342  67.449  1.00  0.00    -0.116 C  
HETATM   10  O   UNL     1      -9.017   5.562  67.547  1.00  0.00    -0.110 OA 
HETATM   11  C   UNL     1      -6.946   6.592  68.400  1.00  0.00    -0.080 C  
HETATM   12  C   UNL     1      -5.784   6.855  67.390  1.00  0.00    -0.017 C  
BRANCH   4  13
HETATM   13  O   UNL     1      -9.353  10.117  64.735  1.00  0.00    -0.222 OA 
HETATM   14  C   UNL     1     -10.364  10.250  65.745  1.00  0.00    -0.165 C  
ENDBRANCH   4  13
BRANCH  11  15
HETATM   15  C   UNL     1      -6.939   5.651  69.609  1.00  0.00    -0.063 C  
BRANCH  15  16
HETATM   16  C   UNL     1      -7.373   6.224  70.967  1.00  0.00    -0.084 C  
HETATM   17  C   UNL     1      -8.518   7.213  70.810  1.00  0.00    -0.133 C  
HETATM   18  C   UNL     1      -9.816   6.495  70.459  1.00  0.00    -0.179 C  
HETATM   19  N   UNL     1     -10.264   5.631  71.553  1.00  0.00    -0.201 NA 
HETATM   20  C   UNL     1      -9.242   4.619  71.850  1.00  0.00    -0.137 C  
HETATM   21  C   UNL     1      -7.794   5.128  71.980  1.00  0.00    -0.111 C  
BRANCH  19  22
HETATM   22  C   UNL     1     -10.701   6.400  72.735  1.00  0.00    -0.239 C  
BRANCH  22  23
HETATM   23  C   UNL     1     -11.877   7.312  72.417  1.00  0.00    -0.247 A  
HETATM   24  C   UNL     1     -13.113   6.757  72.053  1.00  0.00    -0.122 A  
HETATM   25  C   UNL     1     -14.168   7.573  71.643  1.00  0.00    -0.592 A  
HETATM   26  C   UNL     1     -14.002   8.956  71.591  1.00  0.00    -0.417 A  
HETATM   27  C   UNL     1     -12.782   9.524  71.953  1.00  0.00    -0.496 A  
HETATM   28  C   UNL     1     -11.725   8.709  72.367  1.00  0.00    -0.393 A  
ENDBRANCH  22  23
ENDBRANCH  19  22
ENDBRANCH  15  16
ENDBRANCH  11  15
ENDBRANCH   2   3
TORSDOF 6
ENDMDL
MODEL      153
REMARK 921   NORMALIZED FREE ENERGY PREDICTED BY IDOCK:   -3.67 KCAL/MOL
REMARK 922        TOTAL FREE ENERGY PREDICTED BY IDOCK:   -5.69 KCAL/MOL
REMARK 923 INTER-LIGAND FREE ENERGY PREDICTED BY IDOCK:   -4.98 KCAL/MOL
REMARK 924 INTRA-LIGAND FREE ENERGY PREDICTED BY IDOCK:   -0.71 KCAL/MOL
REMARK 927      BINDING AFFINITY PREDICTED BY RF-SCORE:    0.00 PKD
ROOT
HETATM    1  C   UNL     1     -12.092  15.320  69.807  1.00  0.00    -0.328 C  
HETATM    2  O   UNL     1     -11.954  14.014  70.348  1.00  0.00    -0.305 OA 
ENDROOT
BRANCH   2   3
HETATM    3  C   UNL     1     -11.513  13.021  69.513  1.00  0.00    -0.222 A  
HETATM    4  C   UNL     1     -12.076  11.737  69.743  1.00  0.00    -0.269 A  
HETATM    5  C   UNL     1     -11.871  10.690  68.853  1.00  0.00    -0.216 A  
HETATM    6  C   UNL     1     -10.523  13.179  68.526  1.00  0.00    -0.262 A  
HETATM    7  C   UNL     1     -10.135  12.053  67.818  1.00  0.00    -0.199 A  
HETATM    8  C   UNL     1     -10.899  10.892  67.908  1.00  0.00    -0.295 A  
HETATM    9  C   UNL     1     -10.227   9.860  67.158  1.00  0.00    -0.228 C  
HETATM   10  O   UNL     1     -10.774   8.869  66.690  1.00  0.00    -0.161 OA 
HETATM   11  C   UNL     1      -8.777  10.242  67.142  1.00  0.00    -0.131 C  
HETATM   12  C   UNL     1      -8.897  11.791  66.984  1.00  0.00    -0.182 C  
BRANCH   4  13
HETATM   13  O   UNL     1     -12.746  11.504  70.925  1.00  0.00    -0.334 OA 
HETATM   14  C   UNL     1     -13.182  10.140  71.021  1.00  0.00    -0.335 C  
ENDBRANCH   4  13
BRANCH  11  15
HETATM   15  C   UNL     1      -7.897   9.285  66.333  1.00  0.00    -0.103 C  
BRANCH  15  16
HETATM   16  C   UNL     1      -6.874   8.430  67.097  1.00  0.00    -0.070 C  
HETATM   17  C   UNL     1      -6.533   9.048  68.445  1.00  0.00    -0.055 C  
HETATM   18  C   UNL     1      -7.695   8.908  69.420  1.00  0.00    -0.093 C  
HETATM   19  N   UNL     1      -7.954   7.504  69.747  1.00  0.00    -0.121 NA 
HETATM   20  C   UNL     1      -8.280   6.751  68.529  1.00  0.00    -0.120 C  
HETATM   21  C   UNL     1      -7.351   6.971  67.321  1.00  0.00    -0.091 C  
BRANCH  19  22
HETATM   22  C   UNL     1      -6.868   6.903  70.546  1.00  0.00    -0.058 C  
BRANCH  22  23
HETATM   23  C   UNL     1      -6.835   7.452  71.965  1.00  0.00    -0.062 A  
HETATM   24  C   UNL     1      -7.978   7.369  72.773  1.00  0.00    -0.118 A  
HETATM   25  C   UNL     1      -8.007   7.972  74.032  1.00  0.00    -0.285 A  
HETATM   26  C   UNL     1      -6.892   8.665  74.500  1.00  0.00    -0.176 A  
HETATM   27  C   UNL     1      -5.745   8.752  73.712  1.00  0.00    -0.119 A  
HETATM   28  C   UNL     1      -5.714   8.147  72.452  1.00  0.00    -0.045 A  
ENDBRANCH  22  23
ENDBRANCH  19  22
ENDBRANCH  15  16
ENDBRANCH  11  15
ENDBRANCH   2   3
TORSDOF 6
ENDMDL
MODEL      154
REMARK 921   NORMALIZED FREE ENERGY PREDICTED BY IDOCK:   -3.62 KCAL/MOL
REMARK 922        TOTAL FREE ENERGY PREDICTED BY IDOCK:   -5.63 KCAL/MOL
REMARK 923 INTER-LIGAND FREE ENERGY PREDICTED BY IDOCK:   -6.04 KCAL/MOL
REMARK 924 INTRA-LIGAND FREE ENERGY PREDICTED BY IDOCK:    0.41 KCAL/MOL
REMARK 927      BINDING AFFINITY PREDICTED BY RF-SCORE:    0.00 PKD
ROOT
HETATM    1  C   UNL     1      -9.855   3.169  71.502  1.00  0.00    -0.130 C  
HETATM    2  O   UNL     1     -10.024   4.476  72.032  1.00  0.00    -0.176 OA 
ENDROOT
BRANCH   2   3
HETATM    3  C   UNL     1     -10.276   5.494  71.150  1.00  0.00    -0.222 A  
HETATM    4  C   UNL     1      -9.339   5.628  70.090  1.00  0.00    -0.154 A  
HETATM    5  C   UNL     1      -9.577   6.483  69.021  1.00  0.00    -0.135 A  
HETATM    6  C   UNL     1     -11.328   6.421  71.268  1.00  0.00    -0.361 A  
HETATM    7  C   UNL     1     -11.397   7.439  70.330  1.00  0.00    -0.273 A  
HETATM    8  C   UNL     1     -10.614   7.364  69.181  1.00  0.00    -0.213 A  
HETATM    9  C   UNL     1     -10.806   8.582  68.433  1.00  0.00     0.076 C  
HETATM   10  O   UNL     1     -10.613   8.701  67.230  1.00  0.00    -0.291 OA 
HETATM   11  C   UNL     1     -11.218   9.618  69.436  1.00  0.00    -0.112 C  
HETATM   12  C   UNL     1     -12.137   8.761  70.364  1.00  0.00     0.219 C  
BRANCH   4  13
HETATM   13  O   UNL     1      -8.128   4.976  70.184  1.00  0.00    -0.079 OA 
HETATM   14  C   UNL     1      -7.088   5.862  70.626  1.00  0.00    -0.074 C  
ENDBRANCH   4  13
BRANCH  11  15
HETATM   15  C   UNL     1     -11.528  10.985  68.818  1.00  0.00    -0.372 C  
BRANCH  15  16
HETATM   16  C   UNL     1     -10.452  11.635  67.936  1.00  0.00    -0.217 C  
HETATM   17  C   UNL     1     -10.903  11.722  66.485  1.00  0.00    -0.323 C  
HETATM   18  C   UNL     1     -11.985  12.781  66.313  1.00  0.00    -0.395 C  
HETATM   19  N   UNL     1     -11.471  14.124  66.587  1.00  0.00    -0.350 NA 
HETATM   20  C   UNL     1     -10.964  14.201  67.964  1.00  0.00    -0.255 C  
HETATM   21  C   UNL     1     -10.046  13.051  68.419  1.00  0.00    -0.225 C  
BRANCH  19  22
HETATM   22  C   UNL     1     -10.499  14.573  65.570  1.00  0.00    -0.356 C  
BRANCH  22  23
HETATM   23  C   UNL     1      -9.624  15.708  66.083  1.00  0.00    -0.362 A  
HETATM   24  C   UNL     1      -8.309  15.445  66.493  1.00  0.00    -0.184 A  
HETATM   25  C   UNL     1      -7.531  16.447  67.076  1.00  0.00    -0.250 A  
HETATM   26  C   UNL     1      -8.056  17.724  67.256  1.00  0.00    -0.223 A  
HETATM   27  C   UNL     1      -9.361  18.004  66.849  1.00  0.00    -0.276 A  
HETATM   28  C   UNL     1     -10.141  17.003  66.263  1.00  0.00    -0.330 A  
ENDBRANCH  22  23
ENDBRANCH  19  22
ENDBRANCH  15  16
ENDBRANCH  11  15
ENDBRANCH   2   3
TORSDOF 6
ENDMDL
MODEL      155
REMARK 921   NORMALIZED FREE ENERGY PREDICTED BY IDOCK:   -3.61 KCAL/MOL
REMARK 922        TOTAL FREE ENERGY PREDICTED BY IDOCK:   -5.61 KCAL/MOL
REMARK 923 INTER-LIGAND FREE ENERGY PREDICTED BY IDOCK:   -4.71 KCAL/MOL
REMARK 924 INTRA-LIGAND FREE ENERGY PREDICTED BY IDOCK:   -0.90 KCAL/MOL
REMARK 927      BINDING AFFINITY PREDICTED BY RF-SCORE:    0.00 PKD
ROOT
HETATM    1  C   UNL     1      -7.904   1.511  68.882  1.00  0.00    -0.045 C  
HETATM    2  O   UNL     1      -8.826   2.539  69.215  1.00  0.00    -0.075 OA 
ENDROOT
BRANCH   2   3
HETATM    3  C   UNL     1      -8.319   3.772  69.530  1.00  0.00    -0.056 A  
HETATM    4  C   UNL     1      -8.678   4.268  70.812  1.00  0.00    -0.087 A  
HETATM    5  C   UNL     1      -8.080   5.407  71.338  1.00  0.00    -0.116 A  
HETATM    6  C   UNL     1      -7.553   4.575  68.665  1.00  0.00    -0.064 A  
HETATM    7  C   UNL     1      -7.183   5.833  69.112  1.00  0.00    -0.074 A  
HETATM    8  C   UNL     1      -7.341   6.153  70.458  1.00  0.00    -0.085 A  
HETATM    9  C   UNL     1      -6.972   7.536  70.631  1.00  0.00    -0.051 C  
HETATM   10  O   UNL     1      -6.607   8.035  71.688  1.00  0.00    -0.047 OA 
HETATM   11  C   UNL     1      -7.187   8.187  69.297  1.00  0.00    -0.072 C  
HETATM   12  C   UNL     1      -6.700   7.048  68.347  1.00  0.00    -0.064 C  
BRANCH   4  13
HETATM   13  O   UNL     1      -9.714   3.667  71.495  1.00  0.00    -0.154 OA 
HETATM   14  C   UNL     1     -10.235   4.525  72.521  1.00  0.00    -0.186 C  
ENDBRANCH   4  13
BRANCH  11  15
HETATM   15  C   UNL     1      -6.791   9.667  69.263  1.00  0.00    -0.050 C  
BRANCH  15  16
HETATM   16  C   UNL     1      -7.904  10.713  69.424  1.00  0.00    -0.126 C  
HETATM   17  C   UNL     1      -7.595  11.976  68.634  1.00  0.00    -0.112 C  
HETATM   18  C   UNL     1      -7.747  11.735  67.137  1.00  0.00    -0.162 C  
HETATM   19  N   UNL     1      -9.136  11.444  66.778  1.00  0.00    -0.171 NA 
HETATM   20  C   UNL     1      -9.603  10.246  67.488  1.00  0.00    -0.156 C  
HETATM   21  C   UNL     1      -9.298  10.184  68.997  1.00  0.00    -0.192 C  
BRANCH  19  22
HETATM   22  C   UNL     1     -10.018  12.616  66.946  1.00  0.00    -0.230 C  
BRANCH  22  23
HETATM   23  C   UNL     1     -10.734  12.978  65.652  1.00  0.00    -0.293 A  
HETATM   24  C   UNL     1     -11.422  14.196  65.553  1.00  0.00    -0.324 A  
HETATM   25  C   UNL     1     -12.183  14.494  64.421  1.00  0.00    -0.480 A  
HETATM   26  C   UNL     1     -12.266  13.579  63.374  1.00  0.00    -0.338 A  
HETATM   27  C   UNL     1     -11.584  12.365  63.455  1.00  0.00    -0.541 A  
HETATM   28  C   UNL     1     -10.819  12.066  64.586  1.00  0.00    -0.357 A  
ENDBRANCH  22  23
ENDBRANCH  19  22
ENDBRANCH  15  16
ENDBRANCH  11  15
ENDBRANCH   2   3
TORSDOF 6
ENDMDL
MODEL      156
REMARK 921   NORMALIZED FREE ENERGY PREDICTED BY IDOCK:   -3.61 KCAL/MOL
REMARK 922        TOTAL FREE ENERGY PREDICTED BY IDOCK:   -5.61 KCAL/MOL
REMARK 923 INTER-LIGAND FREE ENERGY PREDICTED BY IDOCK:   -7.39 KCAL/MOL
REMARK 924 INTRA-LIGAND FREE ENERGY PREDICTED BY IDOCK:    1.78 KCAL/MOL
REMARK 927      BINDING AFFINITY PREDICTED BY RF-SCORE:    0.00 PKD
ROOT
HETATM    1  C   UNL     1     -10.829   8.634  72.381  1.00  0.00    -0.242 C  
HETATM    2  O   UNL     1     -11.448   8.599  71.104  1.00  0.00    -0.262 OA 
ENDROOT
BRANCH   2   3
HETATM    3  C   UNL     1     -11.554   9.777  70.413  1.00  0.00    -0.258 A  
HETATM    4  C   UNL     1     -10.903   9.805  69.151  1.00  0.00    -0.207 A  
HETATM    5  C   UNL     1     -11.091  10.857  68.264  1.00  0.00    -0.324 A  
HETATM    6  C   UNL     1     -12.185  10.939  70.894  1.00  0.00    -0.485 A  
HETATM    7  C   UNL     1     -12.135  12.074  70.100  1.00  0.00    -0.377 A  
HETATM    8  C   UNL     1     -11.715  11.965  68.777  1.00  0.00    -0.379 A  
HETATM    9  C   UNL     1     -11.667  13.292  68.216  1.00  0.00    -0.353 C  
HETATM   10  O   UNL     1     -11.735  13.548  67.020  1.00  0.00    -0.341 OA 
HETATM   11  C   UNL     1     -11.469  14.221  69.376  1.00  0.00    -0.337 C  
HETATM   12  C   UNL     1     -12.372  13.531  70.447  1.00  0.00    -0.397 C  
BRANCH   4  13
HETATM   13  O   UNL     1      -9.985   8.820  68.852  1.00  0.00    -0.180 OA 
HETATM   14  C   UNL     1      -8.638   9.303  68.972  1.00  0.00    -0.134 C  
ENDBRANCH   4  13
BRANCH  11  15
HETATM   15  C   UNL     1     -11.451  15.702  68.984  1.00  0.00    -0.369 C  
BRANCH  15  16
HETATM   16  C   UNL     1     -10.132  16.473  69.149  1.00  0.00    -0.287 C  
HETATM   17  C   UNL     1      -8.942  15.636  68.702  1.00  0.00    -0.202 C  
HETATM   18  C   UNL     1      -8.915  15.493  67.185  1.00  0.00    -0.214 C  
HETATM   19  N   UNL     1      -8.687  16.782  66.529  1.00  0.00    -0.251 NA 
HETATM   20  C   UNL     1      -9.754  17.727  66.884  1.00  0.00    -0.300 C  
HETATM   21  C   UNL     1     -10.116  17.818  68.378  1.00  0.00    -0.376 C  
BRANCH  19  22
HETATM   22  C   UNL     1      -7.327  17.303  66.768  1.00  0.00    -0.213 C  
BRANCH  22  23
HETATM   23  C   UNL     1      -6.593  16.508  67.838  1.00  0.00    -0.155 A  
HETATM   24  C   UNL     1      -6.299  15.153  67.623  1.00  0.00    -0.164 A  
HETATM   25  C   UNL     1      -5.735  14.377  68.637  1.00  0.00    -0.088 A  
HETATM   26  C   UNL     1      -5.457  14.944  69.879  1.00  0.00    -0.102 A  
HETATM   27  C   UNL     1      -5.739  16.290  70.107  1.00  0.00    -0.178 A  
HETATM   28  C   UNL     1      -6.301  17.071  69.093  1.00  0.00    -0.211 A  
ENDBRANCH  22  23
ENDBRANCH  19  22
ENDBRANCH  15  16
ENDBRANCH  11  15
ENDBRANCH   2   3
TORSDOF 6
ENDMDL
MODEL      157
REMARK 921   NORMALIZED FREE ENERGY PREDICTED BY IDOCK:   -3.49 KCAL/MOL
REMARK 922        TOTAL FREE ENERGY PREDICTED BY IDOCK:   -5.46 KCAL/MOL
REMARK 923 INTER-LIGAND FREE ENERGY PREDICTED BY IDOCK:   -4.67 KCAL/MOL
REMARK 924 INTRA-LIGAND FREE ENERGY PREDICTED BY IDOCK:   -0.78 KCAL/MOL
REMARK 927      BINDING AFFINITY PREDICTED BY RF-SCORE:    0.00 PKD
ROOT
HETATM    1  C   UNL     1      -5.137   8.544  67.888  1.00  0.00    -0.034 C  
HETATM    2  O   UNL     1      -5.737   7.361  68.394  1.00  0.00    -0.022 OA 
ENDROOT
BRANCH   2   3
HETATM    3  C   UNL     1      -7.002   7.458  68.912  1.00  0.00    -0.078 A  
HETATM    4  C   UNL     1      -8.026   6.851  68.137  1.00  0.00    -0.115 A  
HETATM    5  C   UNL     1      -9.315   6.702  68.633  1.00  0.00    -0.129 A  
HETATM    6  C   UNL     1      -7.341   8.158  70.084  1.00  0.00    -0.060 A  
HETATM    7  C   UNL     1      -8.682   8.225  70.429  1.00  0.00    -0.139 A  
HETATM    8  C   UNL     1      -9.596   7.399  69.779  1.00  0.00    -0.163 A  
HETATM    9  C   UNL     1     -10.915   7.736  70.256  1.00  0.00    -0.247 C  
HETATM   10  O   UNL     1     -11.882   6.987  70.223  1.00  0.00    -0.275 OA 
HETATM   11  C   UNL     1     -10.831   9.160  70.721  1.00  0.00    -0.331 C  
HETATM   12  C   UNL     1      -9.412   9.160  71.372  1.00  0.00    -0.279 C  
BRANCH   4  13
HETATM   13  O   UNL     1      -7.756   6.503  66.830  1.00  0.00    -0.097 OA 
HETATM   14  C   UNL     1      -8.515   5.353  66.425  1.00  0.00    -0.114 C  
ENDBRANCH   4  13
BRANCH  11  15
HETATM   15  C   UNL     1     -12.136   9.689  71.324  1.00  0.00    -0.457 C  
BRANCH  15  16
HETATM   16  C   UNL     1     -12.954  10.693  70.498  1.00  0.00    -0.277 C  
HETATM   17  C   UNL     1     -13.112  12.016  71.234  1.00  0.00    -0.209 C  
HETATM   18  C   UNL     1     -11.798  12.786  71.262  1.00  0.00     0.981 C  
HETATM   19  N   UNL     1     -11.387  13.195  69.918  1.00  0.00    -0.071 NA 
HETATM   20  C   UNL     1     -11.212  12.015  69.060  1.00  0.00    -0.258 C  
HETATM   21  C   UNL     1     -12.342  10.969  69.100  1.00  0.00    -0.079 C  
BRANCH  19  22
HETATM   22  C   UNL     1     -12.280  14.221  69.344  1.00  0.00    -0.278 C  
BRANCH  22  23
HETATM   23  C   UNL     1     -11.539  15.154  68.396  1.00  0.00    -0.356 A  
HETATM   24  C   UNL     1     -11.090  16.401  68.854  1.00  0.00    -0.328 A  
HETATM   25  C   UNL     1     -10.515  17.319  67.973  1.00  0.00    -0.375 A  
HETATM   26  C   UNL     1     -10.381  17.002  66.623  1.00  0.00    -0.299 A  
HETATM   27  C   UNL     1     -10.818  15.764  66.153  1.00  0.00    -0.240 A  
HETATM   28  C   UNL     1     -11.391  14.842  67.033  1.00  0.00    -0.345 A  
ENDBRANCH  22  23
ENDBRANCH  19  22
ENDBRANCH  15  16
ENDBRANCH  11  15
ENDBRANCH   2   3
TORSDOF 6
ENDMDL
MODEL      158
REMARK 921   NORMALIZED FREE ENERGY PREDICTED BY IDOCK:   -3.49 KCAL/MOL
REMARK 922        TOTAL FREE ENERGY PREDICTED BY IDOCK:   -5.45 KCAL/MOL
REMARK 923 INTER-LIGAND FREE ENERGY PREDICTED BY IDOCK:   -4.65 KCAL/MOL
REMARK 924 INTRA-LIGAND FREE ENERGY PREDICTED BY IDOCK:   -0.81 KCAL/MOL
REMARK 927      BINDING AFFINITY PREDICTED BY RF-SCORE:    0.00 PKD
ROOT
HETATM    1  C   UNL     1      -9.773  18.114  68.506  1.00  0.00    -0.362 C  
HETATM    2  O   UNL     1      -9.104  17.610  67.359  1.00  0.00    -0.236 OA 
ENDROOT
BRANCH   2   3
HETATM    3  C   UNL     1      -8.890  16.259  67.287  1.00  0.00    -0.188 A  
HETATM    4  C   UNL     1      -9.711  15.559  66.362  1.00  0.00    -0.283 A  
HETATM    5  C   UNL     1      -9.469  14.228  66.046  1.00  0.00    -0.213 A  
HETATM    6  C   UNL     1      -7.990  15.541  68.096  1.00  0.00    -0.132 A  
HETATM    7  C   UNL     1      -7.950  14.164  67.951  1.00  0.00    -0.157 A  
HETATM    8  C   UNL     1      -8.581  13.574  66.859  1.00  0.00    -0.114 A  
HETATM    9  C   UNL     1      -8.468  12.143  67.001  1.00  0.00    -0.183 C  
HETATM   10  O   UNL     1      -8.538  11.342  66.078  1.00  0.00    -0.175 OA 
HETATM   11  C   UNL     1      -8.312  11.889  68.471  1.00  0.00    -0.118 C  
HETATM   12  C   UNL     1      -7.399  13.091  68.869  1.00  0.00    -0.017 C  
BRANCH   4  13
HETATM   13  O   UNL     1     -10.829  16.187  65.855  1.00  0.00    -0.277 OA 
HETATM   14  C   UNL     1     -11.770  15.239  65.330  1.00  0.00    -0.058 C  
ENDBRANCH   4  13
BRANCH  11  15
HETATM   15  C   UNL     1      -8.116  10.410  68.823  1.00  0.00    -0.125 C  
BRANCH  15  16
HETATM   16  C   UNL     1      -9.372   9.543  69.004  1.00  0.00    -0.155 C  
HETATM   17  C   UNL     1      -9.302   8.284  68.152  1.00  0.00    -0.140 C  
HETATM   18  C   UNL     1      -8.283   7.300  68.714  1.00  0.00    -0.129 C  
HETATM   19  N   UNL     1      -8.690   6.798  70.027  1.00  0.00    -0.141 NA 
HETATM   20  C   UNL     1      -8.829   7.911  70.976  1.00  0.00    -0.141 C  
HETATM   21  C   UNL     1      -9.619   9.136  70.479  1.00  0.00    -0.293 C  
BRANCH  19  22
HETATM   22  C   UNL     1      -9.881   5.928  69.953  1.00  0.00    -0.174 C  
BRANCH  22  23
HETATM   23  C   UNL     1      -9.541   4.542  69.423  1.00  0.00    -0.264 A  
HETATM   24  C   UNL     1      -8.760   3.671  70.197  1.00  0.00    -0.122 A  
HETATM   25  C   UNL     1      -8.337   2.445  69.682  1.00  0.00    -0.076 A  
HETATM   26  C   UNL     1      -8.690   2.072  68.387  1.00  0.00    -0.121 A  
HETATM   27  C   UNL     1      -9.470   2.924  67.606  1.00  0.00    -0.169 A  
HETATM   28  C   UNL     1      -9.897   4.151  68.120  1.00  0.00    -0.084 A  
ENDBRANCH  22  23
ENDBRANCH  19  22
ENDBRANCH  15  16
ENDBRANCH  11  15
ENDBRANCH   2   3
TORSDOF 6
ENDMDL
MODEL      159
REMARK 921   NORMALIZED FREE ENERGY PREDICTED BY IDOCK:   -3.46 KCAL/MOL
REMARK 922        TOTAL FREE ENERGY PREDICTED BY IDOCK:   -5.41 KCAL/MOL
REMARK 923 INTER-LIGAND FREE ENERGY PREDICTED BY IDOCK:   -4.67 KCAL/MOL
REMARK 924 INTRA-LIGAND FREE ENERGY PREDICTED BY IDOCK:   -0.74 KCAL/MOL
REMARK 927      BINDING AFFINITY PREDICTED BY RF-SCORE:    0.00 PKD
ROOT
HETATM    1  C   UNL     1      -5.190  14.157  72.047  1.00  0.00    -0.199 C  
HETATM    2  O   UNL     1      -6.253  14.187  71.105  1.00  0.00    -0.171 OA 
ENDROOT
BRANCH   2   3
HETATM    3  C   UNL     1      -6.146  13.389  69.997  1.00  0.00    -0.125 A  
HETATM    4  C   UNL     1      -6.579  13.977  68.778  1.00  0.00    -0.096 A  
HETATM    5  C   UNL     1      -6.346  13.359  67.556  1.00  0.00    -0.112 A  
HETATM    6  C   UNL     1      -5.715  12.049  70.006  1.00  0.00    -0.140 A  
HETATM    7  C   UNL     1      -5.739  11.356  68.807  1.00  0.00    -0.042 A  
HETATM    8  C   UNL     1      -5.923  12.057  67.617  1.00  0.00    -0.093 A  
HETATM    9  C   UNL     1      -6.001  11.096  66.544  1.00  0.00    -0.143 C  
HETATM   10  O   UNL     1      -5.761  11.340  65.369  1.00  0.00    -0.091 OA 
HETATM   11  C   UNL     1      -6.475   9.819  67.172  1.00  0.00    -0.069 C  
HETATM   12  C   UNL     1      -5.702   9.868  68.527  1.00  0.00    -0.042 C  
BRANCH   4  13
HETATM   13  O   UNL     1      -7.338  15.127  68.825  1.00  0.00    -0.117 OA 
HETATM   14  C   UNL     1      -8.697  14.877  68.434  1.00  0.00    -0.172 C  
ENDBRANCH   4  13
BRANCH  11  15
HETATM   15  C   UNL     1      -6.568   8.647  66.190  1.00  0.00    -0.061 C  
BRANCH  15  16
HETATM   16  C   UNL     1      -7.906   7.899  66.087  1.00  0.00    -0.094 C  
HETATM   17  C   UNL     1      -7.879   6.605  66.888  1.00  0.00    -0.108 C  
HETATM   18  C   UNL     1      -7.910   6.889  68.384  1.00  0.00    -0.121 C  
HETATM   19  N   UNL     1      -9.173   7.509  68.787  1.00  0.00    -0.145 NA 
HETATM   20  C   UNL     1      -9.365   8.778  68.073  1.00  0.00    -0.142 C  
HETATM   21  C   UNL     1      -9.114   8.752  66.554  1.00  0.00    -0.203 C  
BRANCH  19  22
HETATM   22  C   UNL     1     -10.318   6.583  68.672  1.00  0.00    -0.191 C  
BRANCH  22  23
HETATM   23  C   UNL     1     -10.828   6.138  70.035  1.00  0.00    -0.408 A  
HETATM   24  C   UNL     1     -11.928   6.788  70.615  1.00  0.00    -0.418 A  
HETATM   25  C   UNL     1     -12.337   6.476  71.912  1.00  0.00    -0.339 A  
HETATM   26  C   UNL     1     -11.653   5.510  72.648  1.00  0.00    -0.293 A  
HETATM   27  C   UNL     1     -10.561   4.851  72.084  1.00  0.00    -0.232 A  
HETATM   28  C   UNL     1     -10.151   5.160  70.784  1.00  0.00    -0.303 A  
ENDBRANCH  22  23
ENDBRANCH  19  22
ENDBRANCH  15  16
ENDBRANCH  11  15
ENDBRANCH   2   3
TORSDOF 6
ENDMDL
MODEL      160
REMARK 921   NORMALIZED FREE ENERGY PREDICTED BY IDOCK:   -3.30 KCAL/MOL
REMARK 922        TOTAL FREE ENERGY PREDICTED BY IDOCK:   -5.19 KCAL/MOL
REMARK 923 INTER-LIGAND FREE ENERGY PREDICTED BY IDOCK:   -4.43 KCAL/MOL
REMARK 924 INTRA-LIGAND FREE ENERGY PREDICTED BY IDOCK:   -0.77 KCAL/MOL
REMARK 927      BINDING AFFINITY PREDICTED BY RF-SCORE:    0.00 PKD
ROOT
HETATM    1  C   UNL     1     -11.493  16.871  65.291  1.00  0.00     0.693 C  
HETATM    2  O   UNL     1     -10.442  16.108  64.717  1.00  0.00    -0.592 OA 
ENDROOT
BRANCH   2   3
HETATM    3  C   UNL     1      -9.949  15.055  65.442  1.00  0.00    -0.330 A  
HETATM    4  C   UNL     1      -8.837  15.357  66.274  1.00  0.00    -0.267 A  
HETATM    5  C   UNL     1      -8.363  14.441  67.206  1.00  0.00    -0.228 A  
HETATM    6  C   UNL     1     -10.415  13.730  65.361  1.00  0.00    -0.342 A  
HETATM    7  C   UNL     1      -9.753  12.768  66.106  1.00  0.00    -0.246 A  
HETATM    8  C   UNL     1      -8.851  13.166  67.089  1.00  0.00    -0.222 A  
HETATM    9  C   UNL     1      -8.242  11.980  67.638  1.00  0.00    -0.155 C  
HETATM   10  O   UNL     1      -7.728  11.908  68.748  1.00  0.00    -0.127 OA 
HETATM   11  C   UNL     1      -8.334  10.937  66.565  1.00  0.00    -0.155 C  
HETATM   12  C   UNL     1      -9.746  11.257  65.982  1.00  0.00    -0.253 C  
BRANCH   4  13
HETATM   13  O   UNL     1      -8.155  16.538  66.074  1.00  0.00    -0.301 OA 
HETATM   14  C   UNL     1      -7.109  16.711  67.042  1.00  0.00    -0.203 C  
ENDBRANCH   4  13
BRANCH  11  15
HETATM   15  C   UNL     1      -7.785   9.570  66.985  1.00  0.00    -0.091 C  
BRANCH  15  16
HETATM   16  C   UNL     1      -8.761   8.566  67.617  1.00  0.00    -0.136 C  
HETATM   17  C   UNL     1      -8.296   7.133  67.406  1.00  0.00    -0.119 C  
HETATM   18  C   UNL     1      -7.082   6.820  68.272  1.00  0.00    -0.086 C  
HETATM   19  N   UNL     1      -7.414   6.861  69.697  1.00  0.00    -0.096 NA 
HETATM   20  C   UNL     1      -7.912   8.193  70.064  1.00  0.00    -0.105 C  
HETATM   21  C   UNL     1      -8.977   8.804  69.134  1.00  0.00    -0.137 C  
BRANCH  19  22
HETATM   22  C   UNL     1      -8.313   5.759  70.097  1.00  0.00    -0.117 C  
BRANCH  22  23
HETATM   23  C   UNL     1      -8.560   5.745  71.599  1.00  0.00    -0.132 A  
HETATM   24  C   UNL     1      -7.666   5.075  72.448  1.00  0.00    -0.096 A  
HETATM   25  C   UNL     1      -7.936   4.948  73.811  1.00  0.00    -0.102 A  
HETATM   26  C   UNL     1      -9.104   5.489  74.345  1.00  0.00    -0.122 A  
HETATM   27  C   UNL     1     -10.001   6.162  73.516  1.00  0.00    -0.196 A  
HETATM   28  C   UNL     1      -9.731   6.293  72.151  1.00  0.00    -0.164 A  
ENDBRANCH  22  23
ENDBRANCH  19  22
ENDBRANCH  15  16
ENDBRANCH  11  15
ENDBRANCH   2   3
TORSDOF 6
ENDMDL
MODEL      161
REMARK 921   NORMALIZED FREE ENERGY PREDICTED BY IDOCK:   -3.27 KCAL/MOL
REMARK 922        TOTAL FREE ENERGY PREDICTED BY IDOCK:   -5.15 KCAL/MOL
REMARK 923 INTER-LIGAND FREE ENERGY PREDICTED BY IDOCK:   -5.46 KCAL/MOL
REMARK 924 INTRA-LIGAND FREE ENERGY PREDICTED BY IDOCK:    0.31 KCAL/MOL
REMARK 927      BINDING AFFINITY PREDICTED BY RF-SCORE:    0.00 PKD
ROOT
HETATM    1  C   UNL     1     -12.597  15.618  70.183  1.00  0.00    -0.206 C  
HETATM    2  O   UNL     1     -11.771  15.818  69.045  1.00  0.00    -0.379 OA 
ENDROOT
BRANCH   2   3
HETATM    3  C   UNL     1     -11.112  14.731  68.536  1.00  0.00    -0.264 A  
HETATM    4  C   UNL     1     -10.062  15.025  67.625  1.00  0.00    -0.231 A  
HETATM    5  C   UNL     1      -9.188  14.038  67.187  1.00  0.00    -0.240 A  
HETATM    6  C   UNL     1     -11.448  13.389  68.797  1.00  0.00    -0.344 A  
HETATM    7  C   UNL     1     -10.728  12.405  68.139  1.00  0.00    -0.243 A  
HETATM    8  C   UNL     1      -9.556  12.748  67.470  1.00  0.00    -0.192 A  
HETATM    9  C   UNL     1      -9.065  11.568  66.801  1.00  0.00    -0.181 C  
HETATM   10  O   UNL     1      -7.901  11.387  66.469  1.00  0.00    -0.153 OA 
HETATM   11  C   UNL     1     -10.264  10.697  66.575  1.00  0.00    -0.288 C  
HETATM   12  C   UNL     1     -11.044  10.942  67.905  1.00  0.00    -0.362 C  
BRANCH   4  13
HETATM   13  O   UNL     1      -9.981  16.292  67.087  1.00  0.00    -0.246 OA 
HETATM   14  C   UNL     1      -8.835  16.428  66.233  1.00  0.00    -0.332 C  
ENDBRANCH   4  13
BRANCH  11  15
HETATM   15  C   UNL     1      -9.934   9.352  65.919  1.00  0.00    -0.327 C  
BRANCH  15  16
HETATM   16  C   UNL     1      -8.617   8.666  66.311  1.00  0.00    -0.151 C  
HETATM   17  C   UNL     1      -8.859   7.513  67.275  1.00  0.00    -0.124 C  
HETATM   18  C   UNL     1      -9.507   6.333  66.562  1.00  0.00    -0.152 C  
HETATM   19  N   UNL     1      -8.612   5.753  65.559  1.00  0.00    -0.150 NA 
HETATM   20  C   UNL     1      -8.256   6.762  64.552  1.00  0.00    -0.008 C  
HETATM   21  C   UNL     1      -7.821   8.139  65.089  1.00  0.00    -0.118 C  
BRANCH  19  22
HETATM   22  C   UNL     1      -7.445   5.083  66.167  1.00  0.00    -0.086 C  
BRANCH  22  23
HETATM   23  C   UNL     1      -7.837   3.800  66.887  1.00  0.00    -0.084 A  
HETATM   24  C   UNL     1      -9.174   3.585  67.250  1.00  0.00    -0.221 A  
HETATM   25  C   UNL     1      -9.535   2.474  68.014  1.00  0.00    -0.203 A  
HETATM   26  C   UNL     1      -8.563   1.563  68.424  1.00  0.00    -0.090 A  
HETATM   27  C   UNL     1      -7.230   1.760  68.067  1.00  0.00    -0.043 A  
HETATM   28  C   UNL     1      -6.867   2.871  67.300  1.00  0.00    -0.045 A  
ENDBRANCH  22  23
ENDBRANCH  19  22
ENDBRANCH  15  16
ENDBRANCH  11  15
ENDBRANCH   2   3
TORSDOF 6
ENDMDL
MODEL      162
REMARK 921   NORMALIZED FREE ENERGY PREDICTED BY IDOCK:   -3.25 KCAL/MOL
REMARK 922        TOTAL FREE ENERGY PREDICTED BY IDOCK:   -5.13 KCAL/MOL
REMARK 923 INTER-LIGAND FREE ENERGY PREDICTED BY IDOCK:   -4.16 KCAL/MOL
REMARK 924 INTRA-LIGAND FREE ENERGY PREDICTED BY IDOCK:   -0.97 KCAL/MOL
REMARK 927      BINDING AFFINITY PREDICTED BY RF-SCORE:    0.00 PKD
ROOT
HETATM    1  C   UNL     1      -6.332   1.870  67.297  1.00  0.00    -0.024 C  
HETATM    2  O   UNL     1      -5.615   2.140  68.493  1.00  0.00    -0.017 OA 
ENDROOT
BRANCH   2   3
HETATM    3  C   UNL     1      -6.032   3.195  69.262  1.00  0.00    -0.024 A  
HETATM    4  C   UNL     1      -6.676   2.844  70.479  1.00  0.00    -0.033 A  
HETATM    5  C   UNL     1      -6.972   3.801  71.441  1.00  0.00    -0.032 A  
HETATM    6  C   UNL     1      -5.927   4.550  68.898  1.00  0.00    -0.026 A  
HETATM    7  C   UNL     1      -6.470   5.491  69.757  1.00  0.00    -0.041 A  
HETATM    8  C   UNL     1      -6.850   5.106  71.040  1.00  0.00    -0.047 A  
HETATM    9  C   UNL     1      -7.464   6.243  71.681  1.00  0.00    -0.094 C  
HETATM   10  O   UNL     1      -7.548   6.402  72.892  1.00  0.00    -0.094 OA 
HETATM   11  C   UNL     1      -7.993   7.102  70.571  1.00  0.00    -0.105 C  
HETATM   12  C   UNL     1      -6.851   6.939  69.520  1.00  0.00    -0.051 C  
BRANCH   4  13
HETATM   13  O   UNL     1      -7.110   1.547  70.655  1.00  0.00    -0.032 OA 
HETATM   14  C   UNL     1      -8.543   1.467  70.654  1.00  0.00    -0.051 C  
ENDBRANCH   4  13
BRANCH  11  15
HETATM   15  C   UNL     1      -8.640   8.404  71.055  1.00  0.00    -0.181 C  
BRANCH  15  16
HETATM   16  C   UNL     1     -10.011   8.784  70.477  1.00  0.00    -0.227 C  
HETATM   17  C   UNL     1      -9.988  10.177  69.865  1.00  0.00    -0.250 C  
HETATM   18  C   UNL     1      -9.200  10.188  68.562  1.00  0.00    -0.144 C  
HETATM   19  N   UNL     1      -9.853   9.378  67.532  1.00  0.00    -0.164 NA 
HETATM   20  C   UNL     1      -9.977   7.987  67.984  1.00  0.00    -0.179 C  
HETATM   21  C   UNL     1     -10.519   7.778  69.411  1.00  0.00    -0.221 C  
BRANCH  19  22
HETATM   22  C   UNL     1     -11.126   9.970  67.074  1.00  0.00     0.065 C  
BRANCH  22  23
HETATM   23  C   UNL     1     -10.901  11.110  66.089  1.00  0.00    -0.247 A  
HETATM   24  C   UNL     1     -11.325  12.407  66.414  1.00  0.00    -0.392 A  
HETATM   25  C   UNL     1     -11.237  13.440  65.480  1.00  0.00    -0.303 A  
HETATM   26  C   UNL     1     -10.722  13.191  64.209  1.00  0.00    -0.431 A  
HETATM   27  C   UNL     1     -10.292  11.908  63.872  1.00  0.00    -0.426 A  
HETATM   28  C   UNL     1     -10.377  10.873  64.807  1.00  0.00    -0.391 A  
ENDBRANCH  22  23
ENDBRANCH  19  22
ENDBRANCH  15  16
ENDBRANCH  11  15
ENDBRANCH   2   3
TORSDOF 6
ENDMDL
MODEL      163
REMARK 921   NORMALIZED FREE ENERGY PREDICTED BY IDOCK:   -3.21 KCAL/MOL
REMARK 922        TOTAL FREE ENERGY PREDICTED BY IDOCK:   -5.07 KCAL/MOL
REMARK 923 INTER-LIGAND FREE ENERGY PREDICTED BY IDOCK:   -5.18 KCAL/MOL
REMARK 924 INTRA-LIGAND FREE ENERGY PREDICTED BY IDOCK:    0.10 KCAL/MOL
REMARK 927      BINDING AFFINITY PREDICTED BY RF-SCORE:    0.00 PKD
ROOT
HETATM    1  C   UNL     1     -12.866  12.266  64.023  1.00  0.00    -0.279 C  
HETATM    2  O   UNL     1     -12.624  11.975  65.392  1.00  0.00    -0.340 OA 
ENDROOT
BRANCH   2   3
HETATM    3  C   UNL     1     -11.439  12.398  65.934  1.00  0.00    -0.374 A  
HETATM    4  C   UNL     1     -10.386  11.445  65.917  1.00  0.00    -0.250 A  
HETATM    5  C   UNL     1      -9.085  11.800  66.251  1.00  0.00    -0.209 A  
HETATM    6  C   UNL     1     -11.233  13.648  66.547  1.00  0.00    -0.321 A  
HETATM    7  C   UNL     1      -9.994  13.890  67.117  1.00  0.00    -0.239 A  
HETATM    8  C   UNL     1      -8.935  13.028  66.840  1.00  0.00    -0.210 A  
HETATM    9  C   UNL     1      -7.802  13.451  67.626  1.00  0.00    -0.173 C  
HETATM   10  O   UNL     1      -6.634  13.202  67.357  1.00  0.00    -0.166 OA 
HETATM   11  C   UNL     1      -8.372  14.175  68.810  1.00  0.00    -0.069 C  
HETATM   12  C   UNL     1      -9.561  14.927  68.133  1.00  0.00    -0.210 C  
BRANCH   4  13
HETATM   13  O   UNL     1     -10.688  10.122  65.668  1.00  0.00    -0.018 OA 
HETATM   14  C   UNL     1      -9.535   9.397  65.214  1.00  0.00    -0.227 C  
ENDBRANCH   4  13
BRANCH  11  15
HETATM   15  C   UNL     1      -7.308  14.757  69.745  1.00  0.00    -0.063 C  
BRANCH  15  16
HETATM   16  C   UNL     1      -6.129  15.511  69.112  1.00  0.00    -0.110 C  
HETATM   17  C   UNL     1      -6.612  16.614  68.182  1.00  0.00    -0.148 C  
HETATM   18  C   UNL     1      -7.203  17.774  68.973  1.00  0.00    -0.207 C  
HETATM   19  N   UNL     1      -6.186  18.441  69.789  1.00  0.00    -0.224 NA 
HETATM   20  C   UNL     1      -5.594  17.490  70.738  1.00  0.00    -0.015 C  
HETATM   21  C   UNL     1      -5.168  16.126  70.162  1.00  0.00    -0.156 C  
BRANCH  19  22
HETATM   22  C   UNL     1      -5.191  19.162  68.970  1.00  0.00    -0.193 C  
BRANCH  22  23
HETATM   23  C   UNL     1      -5.813  19.759  67.715  1.00  0.00    -0.214 A  
HETATM   24  C   UNL     1      -6.979  20.531  67.814  1.00  0.00    -0.355 A  
HETATM   25  C   UNL     1      -7.631  20.988  66.667  1.00  0.00     0.062 A  
HETATM   26  C   UNL     1      -7.125  20.678  65.406  1.00  0.00    -0.063 A  
HETATM   27  C   UNL     1      -5.963  19.915  65.291  1.00  0.00    -0.241 A  
HETATM   28  C   UNL     1      -5.307  19.460  66.438  1.00  0.00    -0.164 A  
ENDBRANCH  22  23
ENDBRANCH  19  22
ENDBRANCH  15  16
ENDBRANCH  11  15
ENDBRANCH   2   3
TORSDOF 6
ENDMDL
MODEL      164
REMARK 921   NORMALIZED FREE ENERGY PREDICTED BY IDOCK:   -3.20 KCAL/MOL
REMARK 922        TOTAL FREE ENERGY PREDICTED BY IDOCK:   -5.06 KCAL/MOL
REMARK 923 INTER-LIGAND FREE ENERGY PREDICTED BY IDOCK:   -4.19 KCAL/MOL
REMARK 924 INTRA-LIGAND FREE ENERGY PREDICTED BY IDOCK:   -0.87 KCAL/MOL
REMARK 927      BINDING AFFINITY PREDICTED BY RF-SCORE:    0.00 PKD
ROOT
HETATM    1  C   UNL     1      -7.031   9.850  63.265  1.00  0.00    -0.126 C  
HETATM    2  O   UNL     1      -7.757  10.143  64.451  1.00  0.00    -0.143 OA 
ENDROOT
BRANCH   2   3
HETATM    3  C   UNL     1      -8.361   9.100  65.102  1.00  0.00    -0.154 A  
HETATM    4  C   UNL     1      -9.195   9.464  66.194  1.00  0.00    -0.190 A  
HETATM    5  C   UNL     1     -10.018   8.533  66.815  1.00  0.00    -0.351 A  
HETATM    6  C   UNL     1      -8.156   7.739  64.809  1.00  0.00    -0.131 A  
HETATM    7  C   UNL     1      -8.785   6.804  65.616  1.00  0.00    -0.086 A  
HETATM    8  C   UNL     1      -9.783   7.221  66.494  1.00  0.00    -0.207 A  
HETATM    9  C   UNL     1     -10.196   6.078  67.270  1.00  0.00    -0.195 C  
HETATM   10  O   UNL     1     -11.281   5.968  67.828  1.00  0.00    -0.236 OA 
HETATM   11  C   UNL     1      -9.024   5.142  67.277  1.00  0.00    -0.112 C  
HETATM   12  C   UNL     1      -8.508   5.328  65.815  1.00  0.00    -0.128 C  
BRANCH   4  13
HETATM   13  O   UNL     1      -9.100  10.739  66.709  1.00  0.00    -0.151 OA 
HETATM   14  C   UNL     1     -10.395  11.335  66.877  1.00  0.00    -0.234 C  
ENDBRANCH   4  13
BRANCH  11  15
HETATM   15  C   UNL     1      -9.292   3.826  68.014  1.00  0.00    -0.232 C  
BRANCH  15  16
HETATM   16  C   UNL     1      -8.367   3.457  69.184  1.00  0.00    -0.084 C  
HETATM   17  C   UNL     1      -7.665   4.686  69.743  1.00  0.00    -0.058 C  
HETATM   18  C   UNL     1      -8.638   5.569  70.513  1.00  0.00    -0.124 C  
HETATM   19  N   UNL     1      -9.142   4.894  71.711  1.00  0.00    -0.138 NA 
HETATM   20  C   UNL     1      -9.838   3.655  71.340  1.00  0.00    -0.149 C  
HETATM   21  C   UNL     1      -9.110   2.737  70.339  1.00  0.00    -0.185 C  
BRANCH  19  22
HETATM   22  C   UNL     1      -8.094   4.705  72.734  1.00  0.00    -0.100 C  
BRANCH  22  23
HETATM   23  C   UNL     1      -7.457   6.025  73.146  1.00  0.00    -0.097 A  
HETATM   24  C   UNL     1      -8.263   7.073  73.615  1.00  0.00    -0.134 A  
HETATM   25  C   UNL     1      -7.715   8.328  73.885  1.00  0.00    -0.228 A  
HETATM   26  C   UNL     1      -6.354   8.552  73.689  1.00  0.00    -0.124 A  
HETATM   27  C   UNL     1      -5.538   7.520  73.227  1.00  0.00    -0.044 A  
HETATM   28  C   UNL     1      -6.084   6.262  72.959  1.00  0.00    -0.054 A  
ENDBRANCH  22  23
ENDBRANCH  19  22
ENDBRANCH  15  16
ENDBRANCH  11  15
ENDBRANCH   2   3
TORSDOF 6
ENDMDL
MODEL      165
REMARK 921   NORMALIZED FREE ENERGY PREDICTED BY IDOCK:   -3.15 KCAL/MOL
REMARK 922        TOTAL FREE ENERGY PREDICTED BY IDOCK:   -4.99 KCAL/MOL
REMARK 923 INTER-LIGAND FREE ENERGY PREDICTED BY IDOCK:   -4.31 KCAL/MOL
REMARK 924 INTRA-LIGAND FREE ENERGY PREDICTED BY IDOCK:   -0.67 KCAL/MOL
REMARK 927      BINDING AFFINITY PREDICTED BY RF-SCORE:    0.00 PKD
ROOT
HETATM    1  C   UNL     1      -8.053  10.819  63.099  1.00  0.00     0.029 C  
HETATM    2  O   UNL     1      -7.648   9.852  64.057  1.00  0.00    -0.129 OA 
ENDROOT
BRANCH   2   3
HETATM    3  C   UNL     1      -8.350   9.785  65.231  1.00  0.00    -0.142 A  
HETATM    4  C   UNL     1      -7.938  10.695  66.241  1.00  0.00    -0.149 A  
HETATM    5  C   UNL     1      -8.682  10.872  67.401  1.00  0.00    -0.130 A  
HETATM    6  C   UNL     1      -9.370   8.855  65.509  1.00  0.00    -0.214 A  
HETATM    7  C   UNL     1      -9.928   8.871  66.777  1.00  0.00    -0.338 A  
HETATM    8  C   UNL     1      -9.666   9.945  67.625  1.00  0.00    -0.183 A  
HETATM    9  C   UNL     1     -10.283   9.666  68.898  1.00  0.00    -0.201 C  
HETATM   10  O   UNL     1     -10.602  10.514  69.721  1.00  0.00    -0.247 OA 
HETATM   11  C   UNL     1     -10.381   8.172  68.987  1.00  0.00    -0.229 C  
HETATM   12  C   UNL     1     -10.744   7.825  67.509  1.00  0.00    -0.265 C  
BRANCH   4  13
HETATM   13  O   UNL     1      -6.721  11.331  66.109  1.00  0.00    -0.068 OA 
HETATM   14  C   UNL     1      -6.117  11.578  67.388  1.00  0.00    -0.083 C  
ENDBRANCH   4  13
BRANCH  11  15
HETATM   15  C   UNL     1     -11.072   7.674  70.261  1.00  0.00    -0.256 C  
BRANCH  15  16
HETATM   16  C   UNL     1     -10.212   7.497  71.522  1.00  0.00    -0.208 C  
HETATM   17  C   UNL     1     -11.055   7.048  72.707  1.00  0.00    -0.320 C  
HETATM   18  C   UNL     1     -11.496   5.599  72.546  1.00  0.00    -0.279 C  
HETATM   19  N   UNL     1     -10.353   4.684  72.578  1.00  0.00    -0.194 NA 
HETATM   20  C   UNL     1      -9.416   5.004  71.494  1.00  0.00    -0.153 C  
HETATM   21  C   UNL     1      -9.049   6.490  71.325  1.00  0.00    -0.148 C  
BRANCH  19  22
HETATM   22  C   UNL     1      -9.721   4.619  73.911  1.00  0.00    -0.135 C  
BRANCH  22  23
HETATM   23  C   UNL     1      -8.365   3.929  73.864  1.00  0.00    -0.091 A  
HETATM   24  C   UNL     1      -7.192   4.684  74.015  1.00  0.00    -0.077 A  
HETATM   25  C   UNL     1      -5.938   4.092  73.856  1.00  0.00    -0.011 A  
HETATM   26  C   UNL     1      -5.840   2.737  73.545  1.00  0.00     0.000 A  
HETATM   27  C   UNL     1      -6.996   1.972  73.396  1.00  0.00    -0.027 A  
HETATM   28  C   UNL     1      -8.252   2.562  73.557  1.00  0.00    -0.063 A  
ENDBRANCH  22  23
ENDBRANCH  19  22
ENDBRANCH  15  16
ENDBRANCH  11  15
ENDBRANCH   2   3
TORSDOF 6
ENDMDL
MODEL      166
REMARK 921   NORMALIZED FREE ENERGY PREDICTED BY IDOCK:   -3.04 KCAL/MOL
REMARK 922        TOTAL FREE ENERGY PREDICTED BY IDOCK:   -4.84 KCAL/MOL
REMARK 923 INTER-LIGAND FREE ENERGY PREDICTED BY IDOCK:   -4.71 KCAL/MOL
REMARK 924 INTRA-LIGAND FREE ENERGY PREDICTED BY IDOCK:   -0.13 KCAL/MOL
REMARK 927      BINDING AFFINITY PREDICTED BY RF-SCORE:    0.00 PKD
ROOT
HETATM    1  C   UNL     1      -6.722  10.159  64.552  1.00  0.00    -0.117 C  
HETATM    2  O   UNL     1      -7.738  10.937  65.168  1.00  0.00     0.026 OA 
ENDROOT
BRANCH   2   3
HETATM    3  C   UNL     1      -8.505  10.335  66.131  1.00  0.00    -0.141 A  
HETATM    4  C   UNL     1      -8.464  10.946  67.413  1.00  0.00    -0.120 A  
HETATM    5  C   UNL     1      -9.337  10.563  68.424  1.00  0.00    -0.158 A  
HETATM    6  C   UNL     1      -9.247   9.153  65.949  1.00  0.00    -0.286 A  
HETATM    7  C   UNL     1      -9.908   8.632  67.050  1.00  0.00    -0.284 A  
HETATM    8  C   UNL     1     -10.040   9.409  68.198  1.00  0.00    -0.215 A  
HETATM    9  C   UNL     1     -10.677   8.601  69.209  1.00  0.00    -0.136 C  
HETATM   10  O   UNL     1     -11.298   9.043  70.167  1.00  0.00    -0.222 OA 
HETATM   11  C   UNL     1     -10.362   7.178  68.854  1.00  0.00    -0.202 C  
HETATM   12  C   UNL     1     -10.468   7.246  67.298  1.00  0.00    -0.380 C  
BRANCH   4  13
HETATM   13  O   UNL     1      -7.466  11.858  67.686  1.00  0.00    -0.110 OA 
HETATM   14  C   UNL     1      -6.959  11.699  69.019  1.00  0.00    -0.111 C  
ENDBRANCH   4  13
BRANCH  11  15
HETATM   15  C   UNL     1     -11.008   6.153  69.791  1.00  0.00    -0.459 C  
BRANCH  15  16
HETATM   16  C   UNL     1     -10.084   5.332  70.704  1.00  0.00    -0.310 C  
HETATM   17  C   UNL     1      -9.069   6.221  71.408  1.00  0.00    -0.143 C  
HETATM   18  C   UNL     1      -9.737   7.064  72.487  1.00  0.00    -0.149 C  
HETATM   19  N   UNL     1     -10.264   6.230  73.569  1.00  0.00    -0.217 NA 
HETATM   20  C   UNL     1     -11.256   5.283  73.043  1.00  0.00    -0.324 C  
HETATM   21  C   UNL     1     -10.857   4.513  71.771  1.00  0.00     0.192 C  
BRANCH  19  22
HETATM   22  C   UNL     1      -9.194   5.592  74.361  1.00  0.00    -0.124 C  
BRANCH  22  23
HETATM   23  C   UNL     1      -7.885   6.365  74.276  1.00  0.00    -0.104 A  
HETATM   24  C   UNL     1      -6.675   5.675  74.116  1.00  0.00    -0.080 A  
HETATM   25  C   UNL     1      -5.457   6.355  74.156  1.00  0.00    -0.050 A  
HETATM   26  C   UNL     1      -5.432   7.733  74.356  1.00  0.00    -0.065 A  
HETATM   27  C   UNL     1      -6.626   8.435  74.512  1.00  0.00    -0.167 A  
HETATM   28  C   UNL     1      -7.848   7.757  74.470  1.00  0.00    -0.250 A  
ENDBRANCH  22  23
ENDBRANCH  19  22
ENDBRANCH  15  16
ENDBRANCH  11  15
ENDBRANCH   2   3
TORSDOF 6
ENDMDL
MODEL      167
REMARK 921   NORMALIZED FREE ENERGY PREDICTED BY IDOCK:   -3.01 KCAL/MOL
REMARK 922        TOTAL FREE ENERGY PREDICTED BY IDOCK:   -4.81 KCAL/MOL
REMARK 923 INTER-LIGAND FREE ENERGY PREDICTED BY IDOCK:   -3.97 KCAL/MOL
REMARK 924 INTRA-LIGAND FREE ENERGY PREDICTED BY IDOCK:   -0.84 KCAL/MOL
REMARK 927      BINDING AFFINITY PREDICTED BY RF-SCORE:    0.00 PKD
ROOT
HETATM    1  C   UNL     1      -5.543  12.834  70.318  1.00  0.00    -0.151 C  
HETATM    2  O   UNL     1      -5.550  12.908  68.899  1.00  0.00    -0.069 OA 
ENDROOT
BRANCH   2   3
HETATM    3  C   UNL     1      -6.396  12.071  68.221  1.00  0.00    -0.052 A  
HETATM    4  C   UNL     1      -7.522  12.697  67.622  1.00  0.00    -0.143 A  
HETATM    5  C   UNL     1      -8.350  12.007  66.745  1.00  0.00    -0.135 A  
HETATM    6  C   UNL     1      -6.259  10.673  68.146  1.00  0.00    -0.057 A  
HETATM    7  C   UNL     1      -7.247   9.962  67.484  1.00  0.00    -0.089 A  
HETATM    8  C   UNL     1      -8.175  10.648  66.704  1.00  0.00    -0.134 A  
HETATM    9  C   UNL     1      -9.134   9.691  66.212  1.00  0.00    -0.160 C  
HETATM   10  O   UNL     1      -9.824   9.845  65.212  1.00  0.00    -0.302 OA 
HETATM   11  C   UNL     1      -9.123   8.558  67.194  1.00  0.00    -0.164 C  
HETATM   12  C   UNL     1      -7.600   8.489  67.527  1.00  0.00    -0.098 C  
BRANCH   4  13
HETATM   13  O   UNL     1      -7.855  13.979  68.004  1.00  0.00    -0.125 OA 
HETATM   14  C   UNL     1      -9.021  14.449  67.310  1.00  0.00    -0.212 C  
ENDBRANCH   4  13
BRANCH  11  15
HETATM   15  C   UNL     1     -10.049   7.400  66.809  1.00  0.00    -0.305 C  
BRANCH  15  16
HETATM   16  C   UNL     1     -10.942   6.798  67.905  1.00  0.00    -0.309 C  
HETATM   17  C   UNL     1     -10.706   5.302  68.052  1.00  0.00     0.012 C  
HETATM   18  C   UNL     1      -9.357   5.023  68.702  1.00  0.00    -0.130 C  
HETATM   19  N   UNL     1      -9.316   5.509  70.083  1.00  0.00    -0.143 NA 
HETATM   20  C   UNL     1      -9.555   6.957  70.118  1.00  0.00    -0.161 C  
HETATM   21  C   UNL     1     -10.744   7.474  69.287  1.00  0.00    -0.185 C  
BRANCH  19  22
HETATM   22  C   UNL     1     -10.203   4.738  70.977  1.00  0.00    -0.168 C  
BRANCH  22  23
HETATM   23  C   UNL     1      -9.424   4.027  72.075  1.00  0.00    -0.198 A  
HETATM   24  C   UNL     1      -8.033   3.882  71.962  1.00  0.00    -0.076 A  
HETATM   25  C   UNL     1      -7.317   3.131  72.897  1.00  0.00    -0.046 A  
HETATM   26  C   UNL     1      -7.982   2.517  73.956  1.00  0.00    -0.055 A  
HETATM   27  C   UNL     1      -9.363   2.656  74.085  1.00  0.00    -0.098 A  
HETATM   28  C   UNL     1     -10.082   3.409  73.153  1.00  0.00    -0.215 A  
ENDBRANCH  22  23
ENDBRANCH  19  22
ENDBRANCH  15  16
ENDBRANCH  11  15
ENDBRANCH   2   3
TORSDOF 6
ENDMDL
MODEL      168
REMARK 921   NORMALIZED FREE ENERGY PREDICTED BY IDOCK:   -2.90 KCAL/MOL
REMARK 922        TOTAL FREE ENERGY PREDICTED BY IDOCK:   -4.66 KCAL/MOL
REMARK 923 INTER-LIGAND FREE ENERGY PREDICTED BY IDOCK:   -4.63 KCAL/MOL
REMARK 924 INTRA-LIGAND FREE ENERGY PREDICTED BY IDOCK:   -0.03 KCAL/MOL
REMARK 927      BINDING AFFINITY PREDICTED BY RF-SCORE:    0.00 PKD
ROOT
HETATM    1  C   UNL     1     -10.657   4.100  65.626  1.00  0.00     0.085 C  
HETATM    2  O   UNL     1      -9.658   4.564  66.523  1.00  0.00    -0.157 OA 
ENDROOT
BRANCH   2   3
HETATM    3  C   UNL     1      -9.366   5.903  66.514  1.00  0.00    -0.153 A  
HETATM    4  C   UNL     1      -8.063   6.239  66.060  1.00  0.00    -0.119 A  
HETATM    5  C   UNL     1      -7.703   7.558  65.814  1.00  0.00    -0.098 A  
HETATM    6  C   UNL     1     -10.223   6.918  66.979  1.00  0.00    -0.317 A  
HETATM    7  C   UNL     1      -9.743   8.218  66.973  1.00  0.00    -0.274 A  
HETATM    8  C   UNL     1      -8.571   8.510  66.280  1.00  0.00    -0.143 A  
HETATM    9  C   UNL     1      -8.252   9.897  66.515  1.00  0.00    -0.121 C  
HETATM   10  O   UNL     1      -7.557  10.587  65.781  1.00  0.00    -0.143 OA 
HETATM   11  C   UNL     1      -8.890  10.248  67.826  1.00  0.00    -0.125 C  
HETATM   12  C   UNL     1     -10.227   9.450  67.710  1.00  0.00    -0.273 C  
BRANCH   4  13
HETATM   13  O   UNL     1      -7.112   5.245  65.966  1.00  0.00    -0.065 OA 
HETATM   14  C   UNL     1      -6.791   4.953  64.597  1.00  0.00    -0.049 C  
ENDBRANCH   4  13
BRANCH  11  15
HETATM   15  C   UNL     1      -8.709  11.716  68.225  1.00  0.00    -0.163 C  
BRANCH  15  16
HETATM   16  C   UNL     1      -7.683  12.552  67.445  1.00  0.00    -0.167 C  
HETATM   17  C   UNL     1      -8.254  13.906  67.053  1.00  0.00    -0.069 C  
HETATM   18  C   UNL     1      -8.387  14.815  68.269  1.00  0.00    -0.148 C  
HETATM   19  N   UNL     1      -7.078  15.151  68.832  1.00  0.00    -0.117 NA 
HETATM   20  C   UNL     1      -6.374  13.930  69.244  1.00  0.00    -0.112 C  
HETATM   21  C   UNL     1      -6.362  12.773  68.227  1.00  0.00    -0.078 C  
BRANCH  19  22
HETATM   22  C   UNL     1      -6.286  16.021  67.939  1.00  0.00    -0.138 C  
BRANCH  22  23
HETATM   23  C   UNL     1      -6.922  17.394  67.774  1.00  0.00    -0.173 A  
HETATM   24  C   UNL     1      -7.029  17.965  66.497  1.00  0.00    -0.263 A  
HETATM   25  C   UNL     1      -7.498  19.270  66.336  1.00  0.00    -0.271 A  
HETATM   26  C   UNL     1      -7.867  20.021  67.450  1.00  0.00    -0.330 A  
HETATM   27  C   UNL     1      -7.772  19.467  68.726  1.00  0.00    -0.397 A  
HETATM   28  C   UNL     1      -7.305  18.160  68.889  1.00  0.00    -0.253 A  
ENDBRANCH  22  23
ENDBRANCH  19  22
ENDBRANCH  15  16
ENDBRANCH  11  15
ENDBRANCH   2   3
TORSDOF 6
ENDMDL
MODEL      169
REMARK 921   NORMALIZED FREE ENERGY PREDICTED BY IDOCK:   -2.82 KCAL/MOL
REMARK 922        TOTAL FREE ENERGY PREDICTED BY IDOCK:   -4.55 KCAL/MOL
REMARK 923 INTER-LIGAND FREE ENERGY PREDICTED BY IDOCK:   -4.21 KCAL/MOL
REMARK 924 INTRA-LIGAND FREE ENERGY PREDICTED BY IDOCK:   -0.35 KCAL/MOL
REMARK 927      BINDING AFFINITY PREDICTED BY RF-SCORE:    0.00 PKD
ROOT
HETATM    1  C   UNL     1      -7.088   7.647  63.352  1.00  0.00    -0.071 C  
HETATM    2  O   UNL     1      -8.387   8.195  63.528  1.00  0.00    -0.104 OA 
ENDROOT
BRANCH   2   3
HETATM    3  C   UNL     1      -8.820   8.409  64.809  1.00  0.00     0.120 A  
HETATM    4  C   UNL     1      -9.644   9.552  64.991  1.00  0.00    -0.148 A  
HETATM    5  C   UNL     1     -10.311   9.778  66.189  1.00  0.00    -0.215 A  
HETATM    6  C   UNL     1      -8.454   7.634  65.925  1.00  0.00    -0.150 A  
HETATM    7  C   UNL     1      -8.919   8.032  67.168  1.00  0.00    -0.150 A  
HETATM    8  C   UNL     1      -9.922   8.995  67.244  1.00  0.00    -0.275 A  
HETATM    9  C   UNL     1     -10.148   9.289  68.638  1.00  0.00    -0.189 C  
HETATM   10  O   UNL     1     -11.183   9.759  69.094  1.00  0.00    -0.172 OA 
HETATM   11  C   UNL     1      -8.866   8.956  69.341  1.00  0.00    -0.143 C  
HETATM   12  C   UNL     1      -8.444   7.671  68.561  1.00  0.00    -0.129 C  
BRANCH   4  13
HETATM   13  O   UNL     1      -9.693  10.504  63.995  1.00  0.00    -0.280 OA 
HETATM   14  C   UNL     1     -10.963  11.174  63.971  1.00  0.00    -0.197 C  
ENDBRANCH   4  13
BRANCH  11  15
HETATM   15  C   UNL     1      -8.927   9.150  70.859  1.00  0.00    -0.298 C  
BRANCH  15  16
HETATM   16  C   UNL     1      -9.857   8.230  71.664  1.00  0.00    -0.263 C  
HETATM   17  C   UNL     1      -9.645   6.769  71.294  1.00  0.00    -0.172 C  
HETATM   18  C   UNL     1      -8.317   6.255  71.837  1.00  0.00    -0.117 C  
HETATM   19  N   UNL     1      -8.306   6.238  73.301  1.00  0.00    -0.116 NA 
HETATM   20  C   UNL     1      -8.526   7.592  73.826  1.00  0.00    -0.192 C  
HETATM   21  C   UNL     1      -9.686   8.387  73.197  1.00  0.00    -0.084 C  
BRANCH  19  22
HETATM   22  C   UNL     1      -9.227   5.227  73.859  1.00  0.00    -0.125 C  
BRANCH  22  23
HETATM   23  C   UNL     1      -9.058   3.872  73.186  1.00  0.00    -0.117 A  
HETATM   24  C   UNL     1      -7.845   3.179  73.304  1.00  0.00    -0.064 A  
HETATM   25  C   UNL     1      -7.628   1.995  72.599  1.00  0.00    -0.040 A  
HETATM   26  C   UNL     1      -8.623   1.486  71.765  1.00  0.00    -0.069 A  
HETATM   27  C   UNL     1      -9.837   2.160  71.640  1.00  0.00    -0.217 A  
HETATM   28  C   UNL     1     -10.057   3.345  72.348  1.00  0.00    -0.229 A  
ENDBRANCH  22  23
ENDBRANCH  19  22
ENDBRANCH  15  16
ENDBRANCH  11  15
ENDBRANCH   2   3
TORSDOF 6
ENDMDL
MODEL      170
REMARK 921   NORMALIZED FREE ENERGY PREDICTED BY IDOCK:   -2.74 KCAL/MOL
REMARK 922        TOTAL FREE ENERGY PREDICTED BY IDOCK:   -4.44 KCAL/MOL
REMARK 923 INTER-LIGAND FREE ENERGY PREDICTED BY IDOCK:   -4.31 KCAL/MOL
REMARK 924 INTRA-LIGAND FREE ENERGY PREDICTED BY IDOCK:   -0.13 KCAL/MOL
REMARK 927      BINDING AFFINITY PREDICTED BY RF-SCORE:    0.00 PKD
ROOT
HETATM    1  C   UNL     1     -11.431  12.302  63.609  1.00  0.00    -0.490 C  
HETATM    2  O   UNL     1     -10.060  12.232  63.972  1.00  0.00    -0.340 OA 
ENDROOT
BRANCH   2   3
HETATM    3  C   UNL     1      -9.750  11.694  65.193  1.00  0.00    -0.219 A  
HETATM    4  C   UNL     1      -8.547  10.940  65.240  1.00  0.00    -0.100 A  
HETATM    5  C   UNL     1      -8.013  10.506  66.447  1.00  0.00    -0.137 A  
HETATM    6  C   UNL     1     -10.559  11.781  66.341  1.00  0.00    -0.293 A  
HETATM    7  C   UNL     1     -10.137  11.113  67.479  1.00  0.00    -0.210 A  
HETATM    8  C   UNL     1      -8.837  10.617  67.537  1.00  0.00    -0.132 A  
HETATM    9  C   UNL     1      -8.693   9.893  68.776  1.00  0.00    -0.132 C  
HETATM   10  O   UNL     1      -7.627   9.677  69.339  1.00  0.00    -0.082 OA 
HETATM   11  C   UNL     1     -10.075   9.449  69.154  1.00  0.00    -0.200 C  
HETATM   12  C   UNL     1     -10.901  10.702  68.722  1.00  0.00    -0.269 C  
BRANCH   4  13
HETATM   13  O   UNL     1      -7.962  10.543  64.056  1.00  0.00    -0.111 OA 
HETATM   14  C   UNL     1      -6.772   9.775  64.290  1.00  0.00    -0.120 C  
ENDBRANCH   4  13
BRANCH  11  15
HETATM   15  C   UNL     1     -10.138   8.704  70.491  1.00  0.00    -0.228 C  
BRANCH  15  16
HETATM   16  C   UNL     1     -10.322   7.179  70.455  1.00  0.00    -0.215 C  
HETATM   17  C   UNL     1      -9.156   6.497  69.754  1.00  0.00    -0.142 C  
HETATM   18  C   UNL     1      -7.901   6.538  70.617  1.00  0.00    -0.106 C  
HETATM   19  N   UNL     1      -8.065   5.752  71.841  1.00  0.00    -0.111 NA 
HETATM   20  C   UNL     1      -9.187   6.275  72.633  1.00  0.00    -0.142 C  
HETATM   21  C   UNL     1     -10.492   6.556  71.865  1.00  0.00    -0.233 C  
BRANCH  19  22
HETATM   22  C   UNL     1      -8.152   4.303  71.573  1.00  0.00    -0.087 C  
BRANCH  22  23
HETATM   23  C   UNL     1      -7.441   3.920  70.282  1.00  0.00    -0.045 A  
HETATM   24  C   UNL     1      -8.049   3.027  69.388  1.00  0.00    -0.062 A  
HETATM   25  C   UNL     1      -7.365   2.571  68.260  1.00  0.00    -0.048 A  
HETATM   26  C   UNL     1      -6.065   3.004  68.010  1.00  0.00    -0.028 A  
HETATM   27  C   UNL     1      -5.447   3.896  68.885  1.00  0.00    -0.013 A  
HETATM   28  C   UNL     1      -6.131   4.355  70.014  1.00  0.00    -0.019 A  
ENDBRANCH  22  23
ENDBRANCH  19  22
ENDBRANCH  15  16
ENDBRANCH  11  15
ENDBRANCH   2   3
TORSDOF 6
ENDMDL
MODEL      171
REMARK 921   NORMALIZED FREE ENERGY PREDICTED BY IDOCK:   -2.49 KCAL/MOL
REMARK 922        TOTAL FREE ENERGY PREDICTED BY IDOCK:   -4.10 KCAL/MOL
REMARK 923 INTER-LIGAND FREE ENERGY PREDICTED BY IDOCK:   -3.69 KCAL/MOL
REMARK 924 INTRA-LIGAND FREE ENERGY PREDICTED BY IDOCK:   -0.41 KCAL/MOL
REMARK 927      BINDING AFFINITY PREDICTED BY RF-SCORE:    0.00 PKD
ROOT
HETATM    1  C   UNL     1      -5.133   8.431  66.879  1.00  0.00    -0.028 C  
HETATM    2  O   UNL     1      -5.346   7.119  67.379  1.00  0.00    -0.018 OA 
ENDROOT
BRANCH   2   3
HETATM    3  C   UNL     1      -6.593   6.814  67.860  1.00  0.00    -0.059 A  
HETATM    4  C   UNL     1      -7.575   6.535  66.872  1.00  0.00    -0.095 A  
HETATM    5  C   UNL     1      -8.819   6.023  67.216  1.00  0.00    -0.107 A  
HETATM    6  C   UNL     1      -6.960   6.830  69.218  1.00  0.00    -0.074 A  
HETATM    7  C   UNL     1      -8.285   6.572  69.530  1.00  0.00    -0.126 A  
HETATM    8  C   UNL     1      -9.129   6.055  68.550  1.00  0.00    -0.112 A  
HETATM    9  C   UNL     1     -10.457   5.973  69.108  1.00  0.00    -0.257 C  
HETATM   10  O   UNL     1     -11.338   5.224  68.706  1.00  0.00     0.711 OA 
HETATM   11  C   UNL     1     -10.509   7.005  70.195  1.00  0.00    -0.232 C  
HETATM   12  C   UNL     1      -9.074   6.858  70.792  1.00  0.00    -0.154 C  
BRANCH   4  13
HETATM   13  O   UNL     1      -7.321   6.881  65.561  1.00  0.00    -0.074 OA 
HETATM   14  C   UNL     1      -8.388   7.666  65.009  1.00  0.00    -0.071 C  
ENDBRANCH   4  13
BRANCH  11  15
HETATM   15  C   UNL     1     -11.839   7.032  70.955  1.00  0.00    -0.401 C  
BRANCH  15  16
HETATM   16  C   UNL     1     -12.854   8.125  70.588  1.00  0.00     0.450 C  
HETATM   17  C   UNL     1     -13.666   8.556  71.801  1.00  0.00    -0.444 C  
HETATM   18  C   UNL     1     -12.815   9.374  72.765  1.00  0.00     0.092 C  
HETATM   19  N   UNL     1     -12.398  10.644  72.168  1.00  0.00     0.240 NA 
HETATM   20  C   UNL     1     -11.612  10.399  70.952  1.00  0.00    -0.337 C  
HETATM   21  C   UNL     1     -12.194   9.378  69.956  1.00  0.00     0.408 C  
BRANCH  19  22
HETATM   22  C   UNL     1     -13.530  11.570  71.968  1.00  0.00    -0.193 C  
BRANCH  22  23
HETATM   23  C   UNL     1     -13.073  13.020  71.896  1.00  0.00    -0.483 A  
HETATM   24  C   UNL     1     -13.391  13.905  72.936  1.00  0.00    -0.417 A  
HETATM   25  C   UNL     1     -13.085  15.264  72.835  1.00  0.00    -0.592 A  
HETATM   26  C   UNL     1     -12.457  15.755  71.692  1.00  0.00    -0.525 A  
HETATM   27  C   UNL     1     -12.129  14.887  70.651  1.00  0.00    -0.366 A  
HETATM   28  C   UNL     1     -12.432  13.526  70.752  1.00  0.00    -0.428 A  
ENDBRANCH  22  23
ENDBRANCH  19  22
ENDBRANCH  15  16
ENDBRANCH  11  15
ENDBRANCH   2   3
TORSDOF 6
ENDMDL
MODEL      172
REMARK 921   NORMALIZED FREE ENERGY PREDICTED BY IDOCK:   -2.41 KCAL/MOL
REMARK 922        TOTAL FREE ENERGY PREDICTED BY IDOCK:   -3.99 KCAL/MOL
REMARK 923 INTER-LIGAND FREE ENERGY PREDICTED BY IDOCK:   -4.60 KCAL/MOL
REMARK 924 INTRA-LIGAND FREE ENERGY PREDICTED BY IDOCK:    0.61 KCAL/MOL
REMARK 927      BINDING AFFINITY PREDICTED BY RF-SCORE:    0.00 PKD
ROOT
HETATM    1  C   UNL     1     -11.163  17.433  72.335  1.00  0.00     1.808 C  
HETATM    2  O   UNL     1     -11.938  16.274  72.064  1.00  0.00    -0.500 OA 
ENDROOT
BRANCH   2   3
HETATM    3  C   UNL     1     -11.768  15.663  70.850  1.00  0.00    -0.387 A  
HETATM    4  C   UNL     1     -12.860  14.868  70.409  1.00  0.00    -0.280 A  
HETATM    5  C   UNL     1     -12.904  14.355  69.119  1.00  0.00     0.714 A  
HETATM    6  C   UNL     1     -10.593  15.718  70.077  1.00  0.00    -0.333 A  
HETATM    7  C   UNL     1     -10.557  14.978  68.906  1.00  0.00    -0.242 A  
HETATM    8  C   UNL     1     -11.738  14.436  68.405  1.00  0.00    -0.367 A  
HETATM    9  C   UNL     1     -11.405  13.645  67.246  1.00  0.00    -0.323 C  
HETATM   10  O   UNL     1     -12.185  13.364  66.345  1.00  0.00    -0.406 OA 
HETATM   11  C   UNL     1      -9.976  13.228  67.431  1.00  0.00    -0.233 C  
HETATM   12  C   UNL     1      -9.383  14.528  68.060  1.00  0.00    -0.201 C  
BRANCH   4  13
HETATM   13  O   UNL     1     -13.836  14.515  71.316  1.00  0.00    -0.377 OA 
HETATM   14  C   UNL     1     -13.288  13.770  72.415  1.00  0.00    -0.535 C  
ENDBRANCH   4  13
BRANCH  11  15
HETATM   15  C   UNL     1      -9.415  12.416  66.259  1.00  0.00    -0.220 C  
BRANCH  15  16
HETATM   16  C   UNL     1     -10.003  11.020  66.004  1.00  0.00    -0.285 C  
HETATM   17  C   UNL     1      -8.931   9.944  66.091  1.00  0.00    -0.177 C  
HETATM   18  C   UNL     1      -8.491   9.727  67.534  1.00  0.00    -0.122 C  
HETATM   19  N   UNL     1      -9.579   9.188  68.352  1.00  0.00    -0.150 NA 
HETATM   20  C   UNL     1     -10.720  10.112  68.351  1.00  0.00    -0.230 C  
HETATM   21  C   UNL     1     -11.154  10.661  66.979  1.00  0.00    -0.217 C  
BRANCH  19  22
HETATM   22  C   UNL     1      -9.934   7.805  67.975  1.00  0.00    -0.175 C  
BRANCH  22  23
HETATM   23  C   UNL     1      -9.921   6.868  69.175  1.00  0.00    -0.166 A  
HETATM   24  C   UNL     1      -9.376   5.582  69.051  1.00  0.00    -0.152 A  
HETATM   25  C   UNL     1      -9.461   4.667  70.101  1.00  0.00    -0.246 A  
HETATM   26  C   UNL     1     -10.092   5.026  71.291  1.00  0.00    -0.276 A  
HETATM   27  C   UNL     1     -10.635   6.302  71.432  1.00  0.00    -0.284 A  
HETATM   28  C   UNL     1     -10.548   7.221  70.383  1.00  0.00    -0.240 A  
ENDBRANCH  22  23
ENDBRANCH  19  22
ENDBRANCH  15  16
ENDBRANCH  11  15
ENDBRANCH   2   3
TORSDOF 6
ENDMDL
MODEL      173
REMARK 921   NORMALIZED FREE ENERGY PREDICTED BY IDOCK:   -2.37 KCAL/MOL
REMARK 922        TOTAL FREE ENERGY PREDICTED BY IDOCK:   -3.94 KCAL/MOL
REMARK 923 INTER-LIGAND FREE ENERGY PREDICTED BY IDOCK:   -5.29 KCAL/MOL
REMARK 924 INTRA-LIGAND FREE ENERGY PREDICTED BY IDOCK:    1.35 KCAL/MOL
REMARK 927      BINDING AFFINITY PREDICTED BY RF-SCORE:    0.00 PKD
ROOT
HETATM    1  C   UNL     1     -13.706   7.730  71.123  1.00  0.00    -0.096 C  
HETATM    2  O   UNL     1     -12.533   6.929  71.100  1.00  0.00    -0.378 OA 
ENDROOT
BRANCH   2   3
HETATM    3  C   UNL     1     -11.344   7.548  70.818  1.00  0.00    -0.280 A  
HETATM    4  C   UNL     1     -10.336   7.414  71.810  1.00  0.00    -0.192 A  
HETATM    5  C   UNL     1      -9.029   7.820  71.572  1.00  0.00    -0.156 A  
HETATM    6  C   UNL     1     -11.095   8.337  69.679  1.00  0.00    -0.009 A  
HETATM    7  C   UNL     1      -9.861   8.958  69.583  1.00  0.00    -0.182 A  
HETATM    8  C   UNL     1      -8.837   8.581  70.449  1.00  0.00    -0.157 A  
HETATM    9  C   UNL     1      -7.706   9.440  70.198  1.00  0.00    -0.136 C  
HETATM   10  O   UNL     1      -6.544   9.160  70.465  1.00  0.00    -0.046 OA 
HETATM   11  C   UNL     1      -8.271  10.704  69.622  1.00  0.00     0.046 C  
HETATM   12  C   UNL     1      -9.406  10.121  68.724  1.00  0.00    -0.168 C  
BRANCH   4  13
HETATM   13  O   UNL     1     -10.693   6.973  73.067  1.00  0.00    -0.254 OA 
HETATM   14  C   UNL     1      -9.656   7.228  74.027  1.00  0.00    -0.243 C  
ENDBRANCH   4  13
BRANCH  11  15
HETATM   15  C   UNL     1      -7.206  11.734  69.232  1.00  0.00     0.009 C  
BRANCH  15  16
HETATM   16  C   UNL     1      -7.180  12.224  67.777  1.00  0.00    -0.114 C  
HETATM   17  C   UNL     1      -8.566  12.175  67.151  1.00  0.00    -0.185 C  
HETATM   18  C   UNL     1      -9.463  13.265  67.725  1.00  0.00    -0.208 C  
HETATM   19  N   UNL     1      -8.979  14.600  67.370  1.00  0.00    -0.185 NA 
HETATM   20  C   UNL     1      -7.620  14.802  67.888  1.00  0.00    -0.139 C  
HETATM   21  C   UNL     1      -6.616  13.661  67.632  1.00  0.00    -0.176 C  
BRANCH  19  22
HETATM   22  C   UNL     1      -9.114  14.883  65.927  1.00  0.00     0.057 C  
BRANCH  22  23
HETATM   23  C   UNL     1     -10.338  14.204  65.327  1.00  0.00    -0.409 A  
HETATM   24  C   UNL     1     -10.225  12.916  64.784  1.00  0.00    -0.307 A  
HETATM   25  C   UNL     1     -11.303  12.324  64.123  1.00  0.00    -0.442 A  
HETATM   26  C   UNL     1     -12.508  13.012  63.997  1.00  0.00    -0.369 A  
HETATM   27  C   UNL     1     -12.638  14.292  64.536  1.00  0.00    -0.242 A  
HETATM   28  C   UNL     1     -11.561  14.885  65.201  1.00  0.00    -0.330 A  
ENDBRANCH  22  23
ENDBRANCH  19  22
ENDBRANCH  15  16
ENDBRANCH  11  15
ENDBRANCH   2   3
TORSDOF 6
ENDMDL
MODEL      174
REMARK 921   NORMALIZED FREE ENERGY PREDICTED BY IDOCK:   -2.33 KCAL/MOL
REMARK 922        TOTAL FREE ENERGY PREDICTED BY IDOCK:   -3.89 KCAL/MOL
REMARK 923 INTER-LIGAND FREE ENERGY PREDICTED BY IDOCK:   -3.11 KCAL/MOL
REMARK 924 INTRA-LIGAND FREE ENERGY PREDICTED BY IDOCK:   -0.78 KCAL/MOL
REMARK 927      BINDING AFFINITY PREDICTED BY RF-SCORE:    0.00 PKD
ROOT
HETATM    1  C   UNL     1      -5.191  14.394  72.080  1.00  0.00    -0.170 C  
HETATM    2  O   UNL     1      -6.239  14.265  71.130  1.00  0.00    -0.169 OA 
ENDROOT
BRANCH   2   3
HETATM    3  C   UNL     1      -6.031  13.437  70.058  1.00  0.00    -0.137 A  
HETATM    4  C   UNL     1      -6.413  13.966  68.796  1.00  0.00    -0.094 A  
HETATM    5  C   UNL     1      -6.079  13.320  67.612  1.00  0.00    -0.140 A  
HETATM    6  C   UNL     1      -5.546  12.119  70.140  1.00  0.00    -0.140 A  
HETATM    7  C   UNL     1      -5.467  11.387  68.966  1.00  0.00    -0.039 A  
HETATM    8  C   UNL     1      -5.607  12.041  67.744  1.00  0.00    -0.070 A  
HETATM    9  C   UNL     1      -5.579  11.043  66.703  1.00  0.00    -0.098 C  
HETATM   10  O   UNL     1      -5.277  11.260  65.536  1.00  0.00    -0.268 OA 
HETATM   11  C   UNL     1      -6.036   9.768  67.344  1.00  0.00    -0.059 C  
HETATM   12  C   UNL     1      -5.350   9.894  68.741  1.00  0.00    -0.036 C  
BRANCH   4  13
HETATM   13  O   UNL     1      -7.220  15.083  68.758  1.00  0.00    -0.111 OA 
HETATM   14  C   UNL     1      -7.132  15.752  67.491  1.00  0.00    -0.186 C  
ENDBRANCH   4  13
BRANCH  11  15
HETATM   15  C   UNL     1      -6.019   8.562  66.399  1.00  0.00    -0.048 C  
BRANCH  15  16
HETATM   16  C   UNL     1      -7.229   8.356  65.475  1.00  0.00    -0.079 C  
HETATM   17  C   UNL     1      -6.791   8.030  64.055  1.00  0.00    -0.066 C  
HETATM   18  C   UNL     1      -6.219   6.620  63.970  1.00  0.00    -0.035 C  
HETATM   19  N   UNL     1      -7.240   5.609  64.250  1.00  0.00    -0.053 NA 
HETATM   20  C   UNL     1      -7.790   5.803  65.598  1.00  0.00    -0.100 C  
HETATM   21  C   UNL     1      -8.188   7.243  65.972  1.00  0.00    -0.138 C  
BRANCH  19  22
HETATM   22  C   UNL     1      -8.267   5.538  63.192  1.00  0.00    -0.097 C  
BRANCH  22  23
HETATM   23  C   UNL     1      -8.872   4.146  63.079  1.00  0.00    -0.114 A  
HETATM   24  C   UNL     1     -10.221   3.942  63.407  1.00  0.00    -0.182 A  
HETATM   25  C   UNL     1     -10.763   2.656  63.425  1.00  0.00    -0.223 A  
HETATM   26  C   UNL     1      -9.965   1.557  63.115  1.00  0.00    -0.109 A  
HETATM   27  C   UNL     1      -8.624   1.743  62.782  1.00  0.00    -0.072 A  
HETATM   28  C   UNL     1      -8.079   3.030  62.761  1.00  0.00    -0.073 A  
ENDBRANCH  22  23
ENDBRANCH  19  22
ENDBRANCH  15  16
ENDBRANCH  11  15
ENDBRANCH   2   3
TORSDOF 6
ENDMDL
MODEL      175
REMARK 921   NORMALIZED FREE ENERGY PREDICTED BY IDOCK:   -2.27 KCAL/MOL
REMARK 922        TOTAL FREE ENERGY PREDICTED BY IDOCK:   -3.81 KCAL/MOL
REMARK 923 INTER-LIGAND FREE ENERGY PREDICTED BY IDOCK:   -3.46 KCAL/MOL
REMARK 924 INTRA-LIGAND FREE ENERGY PREDICTED BY IDOCK:   -0.35 KCAL/MOL
REMARK 927      BINDING AFFINITY PREDICTED BY RF-SCORE:    0.00 PKD
ROOT
HETATM    1  C   UNL     1     -11.163  17.433  72.335  1.00  0.00     1.808 C  
HETATM    2  O   UNL     1     -11.938  16.274  72.064  1.00  0.00    -0.500 OA 
ENDROOT
BRANCH   2   3
HETATM    3  C   UNL     1     -11.768  15.663  70.850  1.00  0.00    -0.387 A  
HETATM    4  C   UNL     1     -12.860  14.868  70.409  1.00  0.00    -0.280 A  
HETATM    5  C   UNL     1     -12.904  14.355  69.119  1.00  0.00     0.714 A  
HETATM    6  C   UNL     1     -10.593  15.718  70.077  1.00  0.00    -0.333 A  
HETATM    7  C   UNL     1     -10.557  14.978  68.906  1.00  0.00    -0.242 A  
HETATM    8  C   UNL     1     -11.738  14.436  68.405  1.00  0.00    -0.367 A  
HETATM    9  C   UNL     1     -11.405  13.645  67.246  1.00  0.00    -0.323 C  
HETATM   10  O   UNL     1     -12.185  13.364  66.345  1.00  0.00    -0.406 OA 
HETATM   11  C   UNL     1      -9.976  13.228  67.431  1.00  0.00    -0.233 C  
HETATM   12  C   UNL     1      -9.383  14.528  68.060  1.00  0.00    -0.201 C  
BRANCH   4  13
HETATM   13  O   UNL     1     -13.836  14.515  71.316  1.00  0.00    -0.377 OA 
HETATM   14  C   UNL     1     -13.288  13.770  72.415  1.00  0.00    -0.535 C  
ENDBRANCH   4  13
BRANCH  11  15
HETATM   15  C   UNL     1      -9.415  12.416  66.259  1.00  0.00    -0.220 C  
BRANCH  15  16
HETATM   16  C   UNL     1     -10.003  11.020  66.004  1.00  0.00    -0.285 C  
HETATM   17  C   UNL     1      -9.242  10.290  64.907  1.00  0.00    -0.273 C  
HETATM   18  C   UNL     1      -7.866   9.854  65.395  1.00  0.00    -0.132 C  
HETATM   19  N   UNL     1      -7.967   8.853  66.459  1.00  0.00    -0.102 NA 
HETATM   20  C   UNL     1      -8.710   9.401  67.602  1.00  0.00    -0.116 C  
HETATM   21  C   UNL     1     -10.026  10.131  67.274  1.00  0.00    -0.241 C  
BRANCH  19  22
HETATM   22  C   UNL     1      -8.494   7.563  65.971  1.00  0.00    -0.148 C  
BRANCH  22  23
HETATM   23  C   UNL     1      -7.414   6.724  65.303  1.00  0.00    -0.086 A  
HETATM   24  C   UNL     1      -7.705   6.024  64.123  1.00  0.00    -0.108 A  
HETATM   25  C   UNL     1      -6.767   5.156  63.560  1.00  0.00    -0.037 A  
HETATM   26  C   UNL     1      -5.527   4.977  64.169  1.00  0.00    -0.013 A  
HETATM   27  C   UNL     1      -5.221   5.669  65.340  1.00  0.00    -0.009 A  
HETATM   28  C   UNL     1      -6.157   6.541  65.904  1.00  0.00    -0.030 A  
ENDBRANCH  22  23
ENDBRANCH  19  22
ENDBRANCH  15  16
ENDBRANCH  11  15
ENDBRANCH   2   3
TORSDOF 6
ENDMDL
MODEL      176
REMARK 921   NORMALIZED FREE ENERGY PREDICTED BY IDOCK:   -2.22 KCAL/MOL
REMARK 922        TOTAL FREE ENERGY PREDICTED BY IDOCK:   -3.73 KCAL/MOL
REMARK 923 INTER-LIGAND FREE ENERGY PREDICTED BY IDOCK:   -2.92 KCAL/MOL
REMARK 924 INTRA-LIGAND FREE ENERGY PREDICTED BY IDOCK:   -0.82 KCAL/MOL
REMARK 927      BINDING AFFINITY PREDICTED BY RF-SCORE:    0.00 PKD
ROOT
HETATM    1  C   UNL     1      -9.925   1.590  63.025  1.00  0.00    -0.104 C  
HETATM    2  O   UNL     1      -8.899   1.832  63.977  1.00  0.00    -0.088 OA 
ENDROOT
BRANCH   2   3
HETATM    3  C   UNL     1      -8.896   3.044  64.616  1.00  0.00    -0.110 A  
HETATM    4  C   UNL     1      -8.126   4.061  63.991  1.00  0.00    -0.090 A  
HETATM    5  C   UNL     1      -8.191   5.381  64.418  1.00  0.00    -0.133 A  
HETATM    6  C   UNL     1      -9.527   3.309  65.846  1.00  0.00    -0.087 A  
HETATM    7  C   UNL     1      -9.361   4.569  66.397  1.00  0.00    -0.152 A  
HETATM    8  C   UNL     1      -8.820   5.589  65.618  1.00  0.00    -0.154 A  
HETATM    9  C   UNL     1      -8.671   6.754  66.455  1.00  0.00    -0.138 C  
HETATM   10  O   UNL     1      -8.615   7.906  66.044  1.00  0.00    -0.136 OA 
HETATM   11  C   UNL     1      -8.551   6.239  67.858  1.00  0.00    -0.115 C  
HETATM   12  C   UNL     1      -9.576   5.062  67.814  1.00  0.00    -0.178 C  
BRANCH   4  13
HETATM   13  O   UNL     1      -7.220   3.707  63.013  1.00  0.00    -0.047 OA 
HETATM   14  C   UNL     1      -5.868   3.837  63.478  1.00  0.00    -0.014 C  
ENDBRANCH   4  13
BRANCH  11  15
HETATM   15  C   UNL     1      -8.442   7.344  68.913  1.00  0.00    -0.129 C  
BRANCH  15  16
HETATM   16  C   UNL     1      -9.691   7.667  69.748  1.00  0.00    -0.171 C  
HETATM   17  C   UNL     1      -9.450   8.856  70.666  1.00  0.00    -0.259 C  
HETATM   18  C   UNL     1      -9.386  10.155  69.871  1.00  0.00    -0.093 C  
HETATM   19  N   UNL     1     -10.673  10.465  69.245  1.00  0.00    -0.220 NA 
HETATM   20  C   UNL     1     -11.066   9.385  68.332  1.00  0.00     0.071 C  
HETATM   21  C   UNL     1     -10.943   7.950  68.879  1.00  0.00     0.101 C  
BRANCH  19  22
HETATM   22  C   UNL     1     -11.711  10.815  70.235  1.00  0.00    -0.352 C  
BRANCH  22  23
HETATM   23  C   UNL     1     -11.834  12.321  70.422  1.00  0.00    -0.259 A  
HETATM   24  C   UNL     1     -11.953  12.857  71.713  1.00  0.00     1.261 A  
HETATM   25  C   UNL     1     -12.186  14.220  71.899  1.00  0.00    -0.268 A  
HETATM   26  C   UNL     1     -12.303  15.066  70.799  1.00  0.00    -0.400 A  
HETATM   27  C   UNL     1     -12.181  14.550  69.509  1.00  0.00    -0.306 A  
HETATM   28  C   UNL     1     -11.945  13.186  69.320  1.00  0.00    -0.344 A  
ENDBRANCH  22  23
ENDBRANCH  19  22
ENDBRANCH  15  16
ENDBRANCH  11  15
ENDBRANCH   2   3
TORSDOF 6
ENDMDL
MODEL      177
REMARK 921   NORMALIZED FREE ENERGY PREDICTED BY IDOCK:   -1.97 KCAL/MOL
REMARK 922        TOTAL FREE ENERGY PREDICTED BY IDOCK:   -3.40 KCAL/MOL
REMARK 923 INTER-LIGAND FREE ENERGY PREDICTED BY IDOCK:   -5.81 KCAL/MOL
REMARK 924 INTRA-LIGAND FREE ENERGY PREDICTED BY IDOCK:    2.41 KCAL/MOL
REMARK 927      BINDING AFFINITY PREDICTED BY RF-SCORE:    0.00 PKD
ROOT
HETATM    1  C   UNL     1     -12.779   7.384  72.722  1.00  0.00     0.639 C  
HETATM    2  O   UNL     1     -11.850   8.457  72.751  1.00  0.00    -0.371 OA 
ENDROOT
BRANCH   2   3
HETATM    3  C   UNL     1     -11.457   8.994  71.553  1.00  0.00    -0.337 A  
HETATM    4  C   UNL     1     -10.260   8.457  71.008  1.00  0.00    -0.199 A  
HETATM    5  C   UNL     1      -9.854   8.765  69.715  1.00  0.00    -0.189 A  
HETATM    6  C   UNL     1     -12.108  10.052  70.891  1.00  0.00    -0.448 A  
HETATM    7  C   UNL     1     -11.535  10.530  69.723  1.00  0.00    -0.365 A  
HETATM    8  C   UNL     1     -10.520   9.799  69.112  1.00  0.00    -0.232 A  
HETATM    9  C   UNL     1     -10.045  10.560  67.982  1.00  0.00    -0.165 C  
HETATM   10  O   UNL     1      -9.471  10.084  67.012  1.00  0.00    -0.157 OA 
HETATM   11  C   UNL     1     -10.355  11.994  68.294  1.00  0.00    -0.211 C  
HETATM   12  C   UNL     1     -11.747  11.836  68.985  1.00  0.00    -0.390 C  
BRANCH   4  13
HETATM   13  O   UNL     1      -9.436   7.706  71.819  1.00  0.00    -0.143 OA 
HETATM   14  C   UNL     1      -9.167   6.418  71.245  1.00  0.00    -0.156 C  
ENDBRANCH   4  13
BRANCH  11  15
HETATM   15  C   UNL     1      -9.973  12.965  67.173  1.00  0.00    -0.240 C  
BRANCH  15  16
HETATM   16  C   UNL     1     -10.190  14.466  67.418  1.00  0.00    -0.247 C  
HETATM   17  C   UNL     1      -9.273  15.307  66.541  1.00  0.00    -0.321 C  
HETATM   18  C   UNL     1      -9.720  15.264  65.085  1.00  0.00    -0.001 C  
HETATM   19  N   UNL     1     -11.030  15.893  64.907  1.00  0.00    -0.501 NA 
HETATM   20  C   UNL     1     -12.040  15.203  65.720  1.00  0.00     0.263 C  
HETATM   21  C   UNL     1     -11.656  14.912  67.183  1.00  0.00    -0.327 C  
BRANCH  19  22
HETATM   22  C   UNL     1     -10.988  17.353  65.125  1.00  0.00     0.213 C  
BRANCH  22  23
HETATM   23  C   UNL     1     -10.145  17.723  66.338  1.00  0.00    -0.357 A  
HETATM   24  C   UNL     1     -10.771  18.054  67.548  1.00  0.00    -0.352 A  
HETATM   25  C   UNL     1     -10.024  18.510  68.635  1.00  0.00    -0.419 A  
HETATM   26  C   UNL     1      -8.641  18.640  68.527  1.00  0.00    -0.370 A  
HETATM   27  C   UNL     1      -8.003  18.311  67.332  1.00  0.00    -0.232 A  
HETATM   28  C   UNL     1      -8.748  17.851  66.243  1.00  0.00    -0.197 A  
ENDBRANCH  22  23
ENDBRANCH  19  22
ENDBRANCH  15  16
ENDBRANCH  11  15
ENDBRANCH   2   3
TORSDOF 6
ENDMDL
MODEL      178
REMARK 921   NORMALIZED FREE ENERGY PREDICTED BY IDOCK:   -1.79 KCAL/MOL
REMARK 922        TOTAL FREE ENERGY PREDICTED BY IDOCK:   -3.15 KCAL/MOL
REMARK 923 INTER-LIGAND FREE ENERGY PREDICTED BY IDOCK:   -4.00 KCAL/MOL
REMARK 924 INTRA-LIGAND FREE ENERGY PREDICTED BY IDOCK:    0.85 KCAL/MOL
REMARK 927      BINDING AFFINITY PREDICTED BY RF-SCORE:    0.00 PKD
ROOT
HETATM    1  C   UNL     1      -5.130  10.767  64.179  1.00  0.00    -0.125 C  
HETATM    2  O   UNL     1      -6.182   9.868  63.859  1.00  0.00    -0.110 OA 
ENDROOT
BRANCH   2   3
HETATM    3  C   UNL     1      -7.098   9.584  64.837  1.00  0.00    -0.107 A  
HETATM    4  C   UNL     1      -8.432   9.393  64.386  1.00  0.00    -0.184 A  
HETATM    5  C   UNL     1      -9.419   8.909  65.236  1.00  0.00     0.001 A  
HETATM    6  C   UNL     1      -6.820   9.544  66.216  1.00  0.00    -0.086 A  
HETATM    7  C   UNL     1      -7.879   9.319  67.081  1.00  0.00    -0.099 A  
HETATM    8  C   UNL     1      -9.099   8.885  66.568  1.00  0.00    -0.206 A  
HETATM    9  C   UNL     1     -10.041   8.823  67.658  1.00  0.00    -0.216 C  
HETATM   10  O   UNL     1     -11.050   8.128  67.671  1.00  0.00     0.028 OA 
HETATM   11  C   UNL     1      -9.546   9.798  68.684  1.00  0.00    -0.155 C  
HETATM   12  C   UNL     1      -8.006   9.569  68.570  1.00  0.00    -0.093 C  
BRANCH   4  13
HETATM   13  O   UNL     1      -8.769   9.797  63.112  1.00  0.00    -0.189 OA 
HETATM   14  C   UNL     1      -9.490  11.038  63.128  1.00  0.00    -0.348 C  
ENDBRANCH   4  13
BRANCH  11  15
HETATM   15  C   UNL     1     -10.394   9.835  69.959  1.00  0.00    -0.307 C  
BRANCH  15  16
HETATM   16  C   UNL     1      -9.861   9.099  71.198  1.00  0.00    -0.371 C  
HETATM   17  C   UNL     1     -10.769   7.941  71.587  1.00  0.00    -0.268 C  
HETATM   18  C   UNL     1     -10.648   6.794  70.591  1.00  0.00    -0.224 C  
HETATM   19  N   UNL     1      -9.310   6.199  70.619  1.00  0.00    -0.164 NA 
HETATM   20  C   UNL     1      -8.298   7.209  70.284  1.00  0.00    -0.136 C  
HETATM   21  C   UNL     1      -8.419   8.563  71.010  1.00  0.00    -0.185 C  
BRANCH  19  22
HETATM   22  C   UNL     1      -9.040   5.481  71.880  1.00  0.00    -0.138 C  
BRANCH  22  23
HETATM   23  C   UNL     1      -8.346   4.147  71.638  1.00  0.00    -0.096 A  
HETATM   24  C   UNL     1      -8.163   3.253  72.703  1.00  0.00    -0.076 A  
HETATM   25  C   UNL     1      -7.427   2.080  72.528  1.00  0.00    -0.039 A  
HETATM   26  C   UNL     1      -6.864   1.786  71.288  1.00  0.00    -0.027 A  
HETATM   27  C   UNL     1      -7.041   2.662  70.219  1.00  0.00    -0.033 A  
HETATM   28  C   UNL     1      -7.780   3.836  70.390  1.00  0.00    -0.047 A  
ENDBRANCH  22  23
ENDBRANCH  19  22
ENDBRANCH  15  16
ENDBRANCH  11  15
ENDBRANCH   2   3
TORSDOF 6
ENDMDL
MODEL      179
REMARK 921   NORMALIZED FREE ENERGY PREDICTED BY IDOCK:   -1.73 KCAL/MOL
REMARK 922        TOTAL FREE ENERGY PREDICTED BY IDOCK:   -3.07 KCAL/MOL
REMARK 923 INTER-LIGAND FREE ENERGY PREDICTED BY IDOCK:   -5.02 KCAL/MOL
REMARK 924 INTRA-LIGAND FREE ENERGY PREDICTED BY IDOCK:    1.95 KCAL/MOL
REMARK 927      BINDING AFFINITY PREDICTED BY RF-SCORE:    0.00 PKD
ROOT
HETATM    1  C   UNL     1      -6.014  21.254  66.112  1.00  0.00    -0.256 C  
HETATM    2  O   UNL     1      -5.267  20.058  65.936  1.00  0.00    -0.161 OA 
ENDROOT
BRANCH   2   3
HETATM    3  C   UNL     1      -5.885  18.871  66.230  1.00  0.00    -0.158 A  
HETATM    4  C   UNL     1      -7.302  18.877  66.117  1.00  0.00    -0.266 A  
HETATM    5  C   UNL     1      -8.037  17.701  66.193  1.00  0.00    -0.228 A  
HETATM    6  C   UNL     1      -5.230  17.713  66.687  1.00  0.00    -0.200 A  
HETATM    7  C   UNL     1      -6.013  16.617  67.014  1.00  0.00    -0.188 A  
HETATM    8  C   UNL     1      -7.354  16.599  66.639  1.00  0.00    -0.290 A  
HETATM    9  C   UNL     1      -7.950  15.403  67.181  1.00  0.00    -0.217 C  
HETATM   10  O   UNL     1      -8.957  14.863  66.740  1.00  0.00    -0.239 OA 
HETATM   11  C   UNL     1      -7.121  15.038  68.376  1.00  0.00    -0.108 C  
HETATM   12  C   UNL     1      -5.695  15.393  67.849  1.00  0.00    -0.157 C  
BRANCH   4  13
HETATM   13  O   UNL     1      -7.960  20.087  66.040  1.00  0.00    -0.328 OA 
HETATM   14  C   UNL     1      -9.353  19.947  66.355  1.00  0.00    -0.397 C  
ENDBRANCH   4  13
BRANCH  11  15
HETATM   15  C   UNL     1      -7.568  13.744  69.063  1.00  0.00     0.022 C  
BRANCH  15  16
HETATM   16  C   UNL     1      -7.922  12.542  68.173  1.00  0.00    -0.157 C  
HETATM   17  C   UNL     1      -6.720  12.083  67.360  1.00  0.00    -0.131 C  
HETATM   18  C   UNL     1      -5.693  11.392  68.248  1.00  0.00    -0.045 C  
HETATM   19  N   UNL     1      -6.219  10.146  68.808  1.00  0.00    -0.047 NA 
HETATM   20  C   UNL     1      -7.416  10.417  69.613  1.00  0.00    -0.157 C  
HETATM   21  C   UNL     1      -8.475  11.336  68.975  1.00  0.00     0.002 C  
BRANCH  19  22
HETATM   22  C   UNL     1      -6.417   9.106  67.778  1.00  0.00    -0.056 C  
BRANCH  22  23
HETATM   23  C   UNL     1      -7.880   8.706  67.649  1.00  0.00    -0.103 A  
HETATM   24  C   UNL     1      -8.417   7.735  68.507  1.00  0.00    -0.129 A  
HETATM   25  C   UNL     1      -9.720   7.268  68.328  1.00  0.00    -0.152 A  
HETATM   26  C   UNL     1     -10.505   7.767  67.290  1.00  0.00    -0.392 A  
HETATM   27  C   UNL     1      -9.988   8.736  66.431  1.00  0.00    -0.346 A  
HETATM   28  C   UNL     1      -8.684   9.207  66.610  1.00  0.00    -0.140 A  
ENDBRANCH  22  23
ENDBRANCH  19  22
ENDBRANCH  15  16
ENDBRANCH  11  15
ENDBRANCH   2   3
TORSDOF 6
ENDMDL
MODEL      180
REMARK 921   NORMALIZED FREE ENERGY PREDICTED BY IDOCK:   -1.65 KCAL/MOL
REMARK 922        TOTAL FREE ENERGY PREDICTED BY IDOCK:   -2.97 KCAL/MOL
REMARK 923 INTER-LIGAND FREE ENERGY PREDICTED BY IDOCK:   -3.54 KCAL/MOL
REMARK 924 INTRA-LIGAND FREE ENERGY PREDICTED BY IDOCK:    0.58 KCAL/MOL
REMARK 927      BINDING AFFINITY PREDICTED BY RF-SCORE:    0.00 PKD
ROOT
HETATM    1  C   UNL     1      -7.316  11.323  62.525  1.00  0.00     0.346 C  
HETATM    2  O   UNL     1      -8.531  11.405  63.256  1.00  0.00     0.162 OA 
ENDROOT
BRANCH   2   3
HETATM    3  C   UNL     1      -8.825  10.385  64.121  1.00  0.00    -0.214 A  
HETATM    4  C   UNL     1      -9.702  10.722  65.187  1.00  0.00    -0.265 A  
HETATM    5  C   UNL     1     -10.237   9.747  66.018  1.00  0.00    -0.263 A  
HETATM    6  C   UNL     1      -8.274   9.091  64.059  1.00  0.00    -0.167 A  
HETATM    7  C   UNL     1      -8.617   8.197  65.060  1.00  0.00    -0.076 A  
HETATM    8  C   UNL     1      -9.671   8.502  65.918  1.00  0.00    -0.101 A  
HETATM    9  C   UNL     1      -9.752   7.459  66.910  1.00  0.00    -0.205 C  
HETATM   10  O   UNL     1     -10.757   7.182  67.552  1.00  0.00    -0.254 OA 
HETATM   11  C   UNL     1      -8.375   6.872  67.000  1.00  0.00    -0.121 C  
HETATM   12  C   UNL     1      -7.957   6.904  65.496  1.00  0.00    -0.126 C  
BRANCH   4  13
HETATM   13  O   UNL     1      -9.936  12.053  65.462  1.00  0.00    -0.236 OA 
HETATM   14  C   UNL     1     -10.183  12.265  66.860  1.00  0.00    -0.213 C  
ENDBRANCH   4  13
BRANCH  11  15
HETATM   15  C   UNL     1      -8.270   5.694  67.974  1.00  0.00    -0.100 C  
BRANCH  15  16
HETATM   16  C   UNL     1      -7.535   5.924  69.304  1.00  0.00    -0.084 C  
HETATM   17  C   UNL     1      -8.491   5.845  70.485  1.00  0.00    -0.128 C  
HETATM   18  C   UNL     1      -8.933   4.408  70.734  1.00  0.00    -0.104 C  
HETATM   19  N   UNL     1      -7.810   3.566  71.151  1.00  0.00    -0.057 NA 
HETATM   20  C   UNL     1      -6.771   3.556  70.113  1.00  0.00    -0.033 C  
HETATM   21  C   UNL     1      -6.371   4.926  69.533  1.00  0.00    -0.031 C  
BRANCH  19  22
HETATM   22  C   UNL     1      -7.306   3.922  72.493  1.00  0.00    -0.062 C  
BRANCH  22  23
HETATM   23  C   UNL     1      -8.285   4.810  73.250  1.00  0.00    -0.100 A  
HETATM   24  C   UNL     1      -9.509   4.284  73.688  1.00  0.00    -0.123 A  
HETATM   25  C   UNL     1     -10.468   5.109  74.277  1.00  0.00    -0.315 A  
HETATM   26  C   UNL     1     -10.217   6.470  74.437  1.00  0.00    -0.334 A  
HETATM   27  C   UNL     1      -9.002   7.007  74.011  1.00  0.00    -0.228 A  
HETATM   28  C   UNL     1      -8.039   6.183  73.423  1.00  0.00    -0.109 A  
ENDBRANCH  22  23
ENDBRANCH  19  22
ENDBRANCH  15  16
ENDBRANCH  11  15
ENDBRANCH   2   3
TORSDOF 6
ENDMDL
MODEL      181
REMARK 921   NORMALIZED FREE ENERGY PREDICTED BY IDOCK:   -1.51 KCAL/MOL
REMARK 922        TOTAL FREE ENERGY PREDICTED BY IDOCK:   -2.78 KCAL/MOL
REMARK 923 INTER-LIGAND FREE ENERGY PREDICTED BY IDOCK:   -2.94 KCAL/MOL
REMARK 924 INTRA-LIGAND FREE ENERGY PREDICTED BY IDOCK:    0.17 KCAL/MOL
REMARK 927      BINDING AFFINITY PREDICTED BY RF-SCORE:    0.00 PKD
ROOT
HETATM    1  C   UNL     1      -5.584  12.695  70.910  1.00  0.00    -0.139 C  
HETATM    2  O   UNL     1      -5.393  12.442  69.525  1.00  0.00    -0.069 OA 
ENDROOT
BRANCH   2   3
HETATM    3  C   UNL     1      -6.238  11.552  68.917  1.00  0.00    -0.055 A  
HETATM    4  C   UNL     1      -6.981  12.069  67.821  1.00  0.00    -0.103 A  
HETATM    5  C   UNL     1      -7.723  11.234  66.995  1.00  0.00    -0.147 A  
HETATM    6  C   UNL     1      -6.459  10.229  69.342  1.00  0.00    -0.053 A  
HETATM    7  C   UNL     1      -7.408   9.483  68.661  1.00  0.00    -0.075 A  
HETATM    8  C   UNL     1      -7.905   9.954  67.449  1.00  0.00    -0.098 A  
HETATM    9  C   UNL     1      -8.934   9.044  67.009  1.00  0.00    -0.126 C  
HETATM   10  O   UNL     1      -9.296   8.909  65.847  1.00  0.00    -0.219 OA 
HETATM   11  C   UNL     1      -9.459   8.387  68.251  1.00  0.00    -0.147 C  
HETATM   12  C   UNL     1      -8.134   8.214  69.058  1.00  0.00    -0.115 C  
BRANCH   4  13
HETATM   13  O   UNL     1      -7.048  13.434  67.646  1.00  0.00    -0.138 OA 
HETATM   14  C   UNL     1      -8.287  13.967  68.139  1.00  0.00    -0.163 C  
ENDBRANCH   4  13
BRANCH  11  15
HETATM   15  C   UNL     1     -10.535   7.330  67.981  1.00  0.00    -0.249 C  
BRANCH  15  16
HETATM   16  C   UNL     1     -10.134   5.852  68.096  1.00  0.00    -0.199 C  
HETATM   17  C   UNL     1     -10.534   5.071  66.853  1.00  0.00    -0.243 C  
HETATM   18  C   UNL     1      -9.648   5.438  65.669  1.00  0.00     0.001 C  
HETATM   19  N   UNL     1      -8.260   5.030  65.891  1.00  0.00    -0.112 NA 
HETATM   20  C   UNL     1      -7.724   5.688  67.090  1.00  0.00    -0.101 C  
HETATM   21  C   UNL     1      -8.616   5.653  68.345  1.00  0.00    -0.111 C  
BRANCH  19  22
HETATM   22  C   UNL     1      -8.098   3.563  65.895  1.00  0.00    -0.093 C  
BRANCH  22  23
HETATM   23  C   UNL     1      -7.201   3.086  64.761  1.00  0.00    -0.065 A  
HETATM   24  C   UNL     1      -7.681   3.087  63.444  1.00  0.00    -0.064 A  
HETATM   25  C   UNL     1      -6.920   2.545  62.407  1.00  0.00    -0.027 A  
HETATM   26  C   UNL     1      -5.668   1.995  62.674  1.00  0.00    -0.008 A  
HETATM   27  C   UNL     1      -5.173   1.991  63.977  1.00  0.00    -0.007 A  
HETATM   28  C   UNL     1      -5.933   2.536  65.016  1.00  0.00    -0.018 A  
ENDBRANCH  22  23
ENDBRANCH  19  22
ENDBRANCH  15  16
ENDBRANCH  11  15
ENDBRANCH   2   3
TORSDOF 6
ENDMDL
MODEL      182
REMARK 921   NORMALIZED FREE ENERGY PREDICTED BY IDOCK:   -1.03 KCAL/MOL
REMARK 922        TOTAL FREE ENERGY PREDICTED BY IDOCK:   -2.12 KCAL/MOL
REMARK 923 INTER-LIGAND FREE ENERGY PREDICTED BY IDOCK:   -4.03 KCAL/MOL
REMARK 924 INTRA-LIGAND FREE ENERGY PREDICTED BY IDOCK:    1.90 KCAL/MOL
REMARK 927      BINDING AFFINITY PREDICTED BY RF-SCORE:    0.00 PKD
ROOT
HETATM    1  C   UNL     1      -9.680  18.183  67.799  1.00  0.00    -0.293 C  
HETATM    2  O   UNL     1      -8.366  17.841  67.381  1.00  0.00    -0.218 OA 
ENDROOT
BRANCH   2   3
HETATM    3  C   UNL     1      -7.989  16.527  67.477  1.00  0.00    -0.158 A  
HETATM    4  C   UNL     1      -8.901  15.589  66.922  1.00  0.00    -0.255 A  
HETATM    5  C   UNL     1      -8.559  14.251  66.773  1.00  0.00    -0.113 A  
HETATM    6  C   UNL     1      -6.832  16.066  68.131  1.00  0.00    -0.130 A  
HETATM    7  C   UNL     1      -6.636  14.696  68.205  1.00  0.00    -0.118 A  
HETATM    8  C   UNL     1      -7.421  13.851  67.424  1.00  0.00    -0.147 A  
HETATM    9  C   UNL     1      -7.079  12.491  67.762  1.00  0.00    -0.126 C  
HETATM   10  O   UNL     1      -7.255  11.525  67.031  1.00  0.00    -0.130 OA 
HETATM   11  C   UNL     1      -6.544  12.539  69.162  1.00  0.00    -0.100 C  
HETATM   12  C   UNL     1      -5.740  13.876  69.110  1.00  0.00    -0.082 C  
BRANCH   4  13
HETATM   13  O   UNL     1     -10.184  16.000  66.626  1.00  0.00    -0.274 OA 
HETATM   14  C   UNL     1     -11.025  15.971  67.789  1.00  0.00    -0.307 C  
ENDBRANCH   4  13
BRANCH  11  15
HETATM   15  C   UNL     1      -6.068  11.181  69.686  1.00  0.00    -0.093 C  
BRANCH  15  16
HETATM   16  C   UNL     1      -7.116  10.237  70.296  1.00  0.00    -0.114 C  
HETATM   17  C   UNL     1      -7.917   9.527  69.214  1.00  0.00    -0.094 C  
HETATM   18  C   UNL     1      -7.069   8.474  68.510  1.00  0.00    -0.073 C  
HETATM   19  N   UNL     1      -6.695   7.390  69.421  1.00  0.00    -0.040 NA 
HETATM   20  C   UNL     1      -5.925   7.922  70.553  1.00  0.00    -0.029 C  
HETATM   21  C   UNL     1      -6.499   9.175  71.241  1.00  0.00    -0.082 C  
BRANCH  19  22
HETATM   22  C   UNL     1      -7.854   6.568  69.824  1.00  0.00    -0.115 C  
BRANCH  22  23
HETATM   23  C   UNL     1      -8.576   5.976  68.622  1.00  0.00    -0.112 A  
HETATM   24  C   UNL     1      -7.999   4.912  67.915  1.00  0.00    -0.093 A  
HETATM   25  C   UNL     1      -8.585   4.434  66.742  1.00  0.00    -0.107 A  
HETATM   26  C   UNL     1      -9.757   5.014  66.260  1.00  0.00    -0.195 A  
HETATM   27  C   UNL     1     -10.347   6.070  66.954  1.00  0.00    -0.303 A  
HETATM   28  C   UNL     1      -9.763   6.548  68.130  1.00  0.00    -0.126 A  
ENDBRANCH  22  23
ENDBRANCH  19  22
ENDBRANCH  15  16
ENDBRANCH  11  15
ENDBRANCH   2   3
TORSDOF 6
ENDMDL
MODEL      183
REMARK 921   NORMALIZED FREE ENERGY PREDICTED BY IDOCK:   -0.98 KCAL/MOL
REMARK 922        TOTAL FREE ENERGY PREDICTED BY IDOCK:   -2.06 KCAL/MOL
REMARK 923 INTER-LIGAND FREE ENERGY PREDICTED BY IDOCK:   -1.99 KCAL/MOL
REMARK 924 INTRA-LIGAND FREE ENERGY PREDICTED BY IDOCK:   -0.07 KCAL/MOL
REMARK 927      BINDING AFFINITY PREDICTED BY RF-SCORE:    0.00 PKD
ROOT
HETATM    1  C   UNL     1      -5.338  13.294  71.180  1.00  0.00    -0.193 C  
HETATM    2  O   UNL     1      -6.313  12.292  70.930  1.00  0.00     0.021 OA 
ENDROOT
BRANCH   2   3
HETATM    3  C   UNL     1      -6.059  11.391  69.930  1.00  0.00    -0.134 A  
HETATM    4  C   UNL     1      -6.487  11.782  68.633  1.00  0.00    -0.060 A  
HETATM    5  C   UNL     1      -6.121  11.060  67.504  1.00  0.00    -0.050 A  
HETATM    6  C   UNL     1      -5.485  10.120  70.117  1.00  0.00    -0.046 A  
HETATM    7  C   UNL     1      -5.367   9.297  69.008  1.00  0.00    -0.037 A  
HETATM    8  C   UNL     1      -5.562   9.831  67.737  1.00  0.00    -0.039 A  
HETATM    9  C   UNL     1      -5.476   8.752  66.785  1.00  0.00    -0.040 C  
HETATM   10  O   UNL     1      -5.201   8.887  65.599  1.00  0.00    -0.036 OA 
HETATM   11  C   UNL     1      -5.840   7.509  67.540  1.00  0.00    -0.036 C  
HETATM   12  C   UNL     1      -5.151   7.800  68.910  1.00  0.00    -0.022 C  
BRANCH   4  13
HETATM   13  O   UNL     1      -7.369  12.835  68.511  1.00  0.00    -0.107 OA 
HETATM   14  C   UNL     1      -8.714  12.374  68.313  1.00  0.00    -0.175 C  
ENDBRANCH   4  13
BRANCH  11  15
HETATM   15  C   UNL     1      -5.750   6.230  66.701  1.00  0.00    -0.016 C  
BRANCH  15  16
HETATM   16  C   UNL     1      -6.686   6.097  65.490  1.00  0.00    -0.048 C  
HETATM   17  C   UNL     1      -5.900   5.970  64.194  1.00  0.00    -0.022 C  
HETATM   18  C   UNL     1      -5.230   4.605  64.093  1.00  0.00    -0.012 C  
HETATM   19  N   UNL     1      -6.218   3.528  63.996  1.00  0.00    -0.018 NA 
HETATM   20  C   UNL     1      -7.087   3.530  65.180  1.00  0.00    -0.065 C  
HETATM   21  C   UNL     1      -7.659   4.895  65.605  1.00  0.00    -0.086 C  
BRANCH  19  22
HETATM   22  C   UNL     1      -6.954   3.554  62.717  1.00  0.00    -0.036 C  
BRANCH  22  23
HETATM   23  C   UNL     1      -8.426   3.211  62.902  1.00  0.00    -0.078 A  
HETATM   24  C   UNL     1      -8.822   1.870  63.008  1.00  0.00    -0.083 A  
HETATM   25  C   UNL     1     -10.175   1.529  63.058  1.00  0.00    -0.112 A  
HETATM   26  C   UNL     1     -11.149   2.523  63.003  1.00  0.00    -0.185 A  
HETATM   27  C   UNL     1     -10.772   3.862  62.902  1.00  0.00    -0.139 A  
HETATM   28  C   UNL     1      -9.418   4.206  62.854  1.00  0.00    -0.136 A  
ENDBRANCH  22  23
ENDBRANCH  19  22
ENDBRANCH  15  16
ENDBRANCH  11  15
ENDBRANCH   2   3
TORSDOF 6
ENDMDL
MODEL      184
REMARK 921   NORMALIZED FREE ENERGY PREDICTED BY IDOCK:   -0.91 KCAL/MOL
REMARK 922        TOTAL FREE ENERGY PREDICTED BY IDOCK:   -1.97 KCAL/MOL
REMARK 923 INTER-LIGAND FREE ENERGY PREDICTED BY IDOCK:   -6.25 KCAL/MOL
REMARK 924 INTRA-LIGAND FREE ENERGY PREDICTED BY IDOCK:    4.28 KCAL/MOL
REMARK 927      BINDING AFFINITY PREDICTED BY RF-SCORE:    0.00 PKD
ROOT
HETATM    1  C   UNL     1      -9.512   6.900  66.859  1.00  0.00    -0.158 C  
HETATM    2  O   UNL     1      -9.119   7.599  68.031  1.00  0.00    -0.135 OA 
ENDROOT
BRANCH   2   3
HETATM    3  C   UNL     1      -9.000   8.961  67.952  1.00  0.00    -0.139 A  
HETATM    4  C   UNL     1      -7.788   9.498  68.464  1.00  0.00    -0.085 A  
HETATM    5  C   UNL     1      -7.451  10.832  68.270  1.00  0.00    -0.092 A  
HETATM    6  C   UNL     1      -9.999   9.832  67.477  1.00  0.00    -0.230 A  
HETATM    7  C   UNL     1      -9.748  11.193  67.536  1.00  0.00    -0.193 A  
HETATM    8  C   UNL     1      -8.455  11.639  67.801  1.00  0.00    -0.144 A  
HETATM    9  C   UNL     1      -8.494  13.077  67.899  1.00  0.00    -0.185 C  
HETATM   10  O   UNL     1      -7.532  13.815  67.725  1.00  0.00    -0.129 OA 
HETATM   11  C   UNL     1      -9.897  13.423  68.299  1.00  0.00    -0.235 C  
HETATM   12  C   UNL     1     -10.694  12.374  67.462  1.00  0.00    -0.256 C  
BRANCH   4  13
HETATM   13  O   UNL     1      -6.989   8.703  69.257  1.00  0.00    -0.056 OA 
HETATM   14  C   UNL     1      -7.412   8.736  70.629  1.00  0.00    -0.079 C  
ENDBRANCH   4  13
BRANCH  11  15
HETATM   15  C   UNL     1     -10.155  14.930  68.400  1.00  0.00    -0.225 C  
BRANCH  15  16
HETATM   16  C   UNL     1      -9.104  15.880  67.805  1.00  0.00    -0.196 C  
HETATM   17  C   UNL     1      -9.549  16.420  66.454  1.00  0.00    -0.313 C  
HETATM   18  C   UNL     1     -10.679  17.430  66.615  1.00  0.00    -0.084 C  
HETATM   19  N   UNL     1     -10.231  18.628  67.327  1.00  0.00    -0.355 NA 
HETATM   20  C   UNL     1      -9.739  18.269  68.664  1.00  0.00    -0.361 C  
HETATM   21  C   UNL     1      -8.770  17.074  68.736  1.00  0.00    -0.244 C  
BRANCH  19  22
HETATM   22  C   UNL     1      -9.275  19.428  66.536  1.00  0.00    -0.356 C  
BRANCH  22  23
HETATM   23  C   UNL     1      -8.034  19.790  67.341  1.00  0.00    -0.318 A  
HETATM   24  C   UNL     1      -7.091  20.680  66.807  1.00  0.00    -0.328 A  
HETATM   25  C   UNL     1      -5.892  20.932  67.474  1.00  0.00    -0.327 A  
HETATM   26  C   UNL     1      -5.619  20.297  68.684  1.00  0.00    -0.291 A  
HETATM   27  C   UNL     1      -6.548  19.413  69.231  1.00  0.00    -0.361 A  
HETATM   28  C   UNL     1      -7.751  19.161  68.566  1.00  0.00    -0.376 A  
ENDBRANCH  22  23
ENDBRANCH  19  22
ENDBRANCH  15  16
ENDBRANCH  11  15
ENDBRANCH   2   3
TORSDOF 6
ENDMDL
MODEL      185
REMARK 921   NORMALIZED FREE ENERGY PREDICTED BY IDOCK:   -0.18 KCAL/MOL
REMARK 922        TOTAL FREE ENERGY PREDICTED BY IDOCK:   -0.99 KCAL/MOL
REMARK 923 INTER-LIGAND FREE ENERGY PREDICTED BY IDOCK:   -2.21 KCAL/MOL
REMARK 924 INTRA-LIGAND FREE ENERGY PREDICTED BY IDOCK:    1.22 KCAL/MOL
REMARK 927      BINDING AFFINITY PREDICTED BY RF-SCORE:    0.00 PKD
ROOT
HETATM    1  C   UNL     1      -5.205  14.816  71.978  1.00  0.00    -0.105 C  
HETATM    2  O   UNL     1      -6.254  14.626  71.039  1.00  0.00    -0.101 OA 
ENDROOT
BRANCH   2   3
HETATM    3  C   UNL     1      -6.035  13.753  70.006  1.00  0.00    -0.144 A  
HETATM    4  C   UNL     1      -6.398  14.230  68.718  1.00  0.00    -0.087 A  
HETATM    5  C   UNL     1      -6.052  13.533  67.566  1.00  0.00    -0.049 A  
HETATM    6  C   UNL     1      -5.556  12.438  70.150  1.00  0.00    -0.144 A  
HETATM    7  C   UNL     1      -5.465  11.657  69.008  1.00  0.00    -0.050 A  
HETATM    8  C   UNL     1      -5.586  12.259  67.758  1.00  0.00    -0.092 A  
HETATM    9  C   UNL     1      -5.548  11.219  66.760  1.00  0.00    -0.118 C  
HETATM   10  O   UNL     1      -5.230  11.385  65.589  1.00  0.00    -0.284 OA 
HETATM   11  C   UNL     1      -6.019   9.973  67.449  1.00  0.00    -0.054 C  
HETATM   12  C   UNL     1      -5.350  10.155  68.848  1.00  0.00    -0.035 C  
BRANCH   4  13
HETATM   13  O   UNL     1      -7.201  15.346  68.622  1.00  0.00    -0.113 OA 
HETATM   14  C   UNL     1      -6.421  16.547  68.515  1.00  0.00    -0.137 C  
ENDBRANCH   4  13
BRANCH  11  15
HETATM   15  C   UNL     1      -5.993   8.728  66.555  1.00  0.00    -0.052 C  
BRANCH  15  16
HETATM   16  C   UNL     1      -7.193   8.485  65.627  1.00  0.00    -0.079 C  
HETATM   17  C   UNL     1      -8.495   8.418  66.412  1.00  0.00    -0.127 C  
HETATM   18  C   UNL     1      -8.898   9.797  66.921  1.00  0.00    -0.138 C  
HETATM   19  N   UNL     1      -9.215  10.705  65.817  1.00  0.00    -0.181 NA 
HETATM   20  C   UNL     1      -8.050  10.860  64.937  1.00  0.00     0.168 C  
HETATM   21  C   UNL     1      -7.331   9.563  64.521  1.00  0.00    -0.114 C  
BRANCH  19  22
HETATM   22  C   UNL     1     -10.450  10.317  65.107  1.00  0.00     0.001 C  
BRANCH  22  23
HETATM   23  C   UNL     1     -11.201  11.527  64.570  1.00  0.00    -0.301 A  
HETATM   24  C   UNL     1     -12.490  11.370  64.039  1.00  0.00     0.343 A  
HETATM   25  C   UNL     1     -13.147  12.443  63.434  1.00  0.00     0.095 A  
HETATM   26  C   UNL     1     -12.525  13.687  63.352  1.00  0.00    -0.047 A  
HETATM   27  C   UNL     1     -11.245  13.861  63.879  1.00  0.00     0.120 A  
HETATM   28  C   UNL     1     -10.587  12.789  64.487  1.00  0.00    -0.383 A  
ENDBRANCH  22  23
ENDBRANCH  19  22
ENDBRANCH  15  16
ENDBRANCH  11  15
ENDBRANCH   2   3
TORSDOF 6
ENDMDL
MODEL      186
REMARK 921   NORMALIZED FREE ENERGY PREDICTED BY IDOCK:   -0.17 KCAL/MOL
REMARK 922        TOTAL FREE ENERGY PREDICTED BY IDOCK:   -0.97 KCAL/MOL
REMARK 923 INTER-LIGAND FREE ENERGY PREDICTED BY IDOCK:   -3.29 KCAL/MOL
REMARK 924 INTRA-LIGAND FREE ENERGY PREDICTED BY IDOCK:    2.32 KCAL/MOL
REMARK 927      BINDING AFFINITY PREDICTED BY RF-SCORE:    0.00 PKD
ROOT
HETATM    1  C   UNL     1      -5.927   4.489  64.734  1.00  0.00    -0.025 C  
HETATM    2  O   UNL     1      -7.175   5.168  64.740  1.00  0.00    -0.060 OA 
ENDROOT
BRANCH   2   3
HETATM    3  C   UNL     1      -7.511   5.873  65.866  1.00  0.00    -0.085 A  
HETATM    4  C   UNL     1      -8.284   7.045  65.644  1.00  0.00    -0.134 A  
HETATM    5  C   UNL     1      -8.858   7.742  66.699  1.00  0.00    -0.166 A  
HETATM    6  C   UNL     1      -7.092   5.556  67.171  1.00  0.00    -0.074 A  
HETATM    7  C   UNL     1      -7.457   6.419  68.193  1.00  0.00    -0.094 A  
HETATM    8  C   UNL     1      -8.422   7.394  67.951  1.00  0.00    -0.122 A  
HETATM    9  C   UNL     1      -8.541   8.203  69.138  1.00  0.00    -0.136 C  
HETATM   10  O   UNL     1      -9.526   8.866  69.435  1.00  0.00    -0.158 OA 
HETATM   11  C   UNL     1      -7.224   8.088  69.846  1.00  0.00    -0.061 C  
HETATM   12  C   UNL     1      -6.898   6.583  69.591  1.00  0.00    -0.065 C  
BRANCH   4  13
HETATM   13  O   UNL     1      -8.372   7.553  64.365  1.00  0.00    -0.064 OA 
HETATM   14  C   UNL     1      -7.244   8.384  64.051  1.00  0.00    -0.093 C  
ENDBRANCH   4  13
BRANCH  11  15
HETATM   15  C   UNL     1      -7.173   8.843  71.178  1.00  0.00    -0.111 C  
BRANCH  15  16
HETATM   16  C   UNL     1      -8.036   8.318  72.336  1.00  0.00    -0.204 C  
HETATM   17  C   UNL     1      -8.550   6.915  72.050  1.00  0.00    -0.121 C  
HETATM   18  C   UNL     1      -7.426   5.891  72.145  1.00  0.00    -0.096 C  
HETATM   19  N   UNL     1      -6.907   5.790  73.510  1.00  0.00    -0.079 NA 
HETATM   20  C   UNL     1      -6.386   7.090  73.953  1.00  0.00    -0.066 C  
HETATM   21  C   UNL     1      -7.289   8.311  73.694  1.00  0.00    -0.174 C  
BRANCH  19  22
HETATM   22  C   UNL     1      -7.884   5.192  74.441  1.00  0.00    -0.096 C  
BRANCH  22  23
HETATM   23  C   UNL     1      -8.732   4.123  73.766  1.00  0.00    -0.094 A  
HETATM   24  C   UNL     1      -8.260   3.485  72.609  1.00  0.00    -0.081 A  
HETATM   25  C   UNL     1      -9.070   2.590  71.908  1.00  0.00    -0.143 A  
HETATM   26  C   UNL     1     -10.362   2.320  72.355  1.00  0.00    -0.197 A  
HETATM   27  C   UNL     1     -10.845   2.942  73.506  1.00  0.00    -0.310 A  
HETATM   28  C   UNL     1     -10.035   3.836  74.211  1.00  0.00    -0.182 A  
ENDBRANCH  22  23
ENDBRANCH  19  22
ENDBRANCH  15  16
ENDBRANCH  11  15
ENDBRANCH   2   3
TORSDOF 6
ENDMDL
MODEL      187
REMARK 921   NORMALIZED FREE ENERGY PREDICTED BY IDOCK:    0.04 KCAL/MOL
REMARK 922        TOTAL FREE ENERGY PREDICTED BY IDOCK:   -0.69 KCAL/MOL
REMARK 923 INTER-LIGAND FREE ENERGY PREDICTED BY IDOCK:   -0.37 KCAL/MOL
REMARK 924 INTRA-LIGAND FREE ENERGY PREDICTED BY IDOCK:   -0.32 KCAL/MOL
REMARK 927      BINDING AFFINITY PREDICTED BY RF-SCORE:    0.00 PKD
ROOT
HETATM    1  C   UNL     1     -11.523  20.449  64.637  1.00  0.00     2.285 C  
HETATM    2  O   UNL     1     -10.739  19.287  64.407  1.00  0.00     1.282 OA 
ENDROOT
BRANCH   2   3
HETATM    3  C   UNL     1     -10.737  18.318  65.375  1.00  0.00     0.229 A  
HETATM    4  C   UNL     1     -10.367  18.755  66.676  1.00  0.00    -0.420 A  
HETATM    5  C   UNL     1     -10.511  17.929  67.783  1.00  0.00    -0.409 A  
HETATM    6  C   UNL     1     -11.000  16.954  65.151  1.00  0.00    -0.060 A  
HETATM    7  C   UNL     1     -10.880  16.089  66.227  1.00  0.00    -0.166 A  
HETATM    8  C   UNL     1     -10.772  16.611  67.514  1.00  0.00    -0.278 A  
HETATM    9  C   UNL     1     -10.566  15.510  68.422  1.00  0.00    -0.252 C  
HETATM   10  O   UNL     1     -10.823  15.535  69.619  1.00  0.00    -0.240 OA 
HETATM   11  C   UNL     1      -9.945  14.416  67.607  1.00  0.00    -0.224 C  
HETATM   12  C   UNL     1     -10.732  14.581  66.269  1.00  0.00    -0.309 C  
BRANCH   4  13
HETATM   13  O   UNL     1      -9.756  19.983  66.818  1.00  0.00    -0.378 OA 
HETATM   14  C   UNL     1     -10.280  20.703  67.944  1.00  0.00    -0.011 C  
ENDBRANCH   4  13
BRANCH  11  15
HETATM   15  C   UNL     1      -9.700  13.124  68.393  1.00  0.00    -0.196 C  
BRANCH  15  16
HETATM   16  C   UNL     1      -8.341  12.427  68.225  1.00  0.00    -0.169 C  
HETATM   17  C   UNL     1      -8.326  11.070  68.914  1.00  0.00    -0.123 C  
HETATM   18  C   UNL     1      -9.176  10.062  68.150  1.00  0.00    -0.128 C  
HETATM   19  N   UNL     1      -8.614   9.777  66.829  1.00  0.00    -0.127 NA 
HETATM   20  C   UNL     1      -8.536  11.009  66.034  1.00  0.00    -0.158 C  
HETATM   21  C   UNL     1      -7.936  12.240  66.740  1.00  0.00     0.010 C  
BRANCH  19  22
HETATM   22  C   UNL     1      -7.338   9.038  66.908  1.00  0.00    -0.086 C  
BRANCH  22  23
HETATM   23  C   UNL     1      -7.204   8.015  65.789  1.00  0.00    -0.071 A  
HETATM   24  C   UNL     1      -8.264   7.139  65.512  1.00  0.00    -0.139 A  
HETATM   25  C   UNL     1      -8.118   6.118  64.572  1.00  0.00    -0.118 A  
HETATM   26  C   UNL     1      -6.910   5.957  63.897  1.00  0.00    -0.038 A  
HETATM   27  C   UNL     1      -5.848   6.822  64.156  1.00  0.00    -0.032 A  
HETATM   28  C   UNL     1      -5.992   7.848  65.095  1.00  0.00    -0.038 A  
ENDBRANCH  22  23
ENDBRANCH  19  22
ENDBRANCH  15  16
ENDBRANCH  11  15
ENDBRANCH   2   3
TORSDOF 6
ENDMDL
MODEL      188
REMARK 921   NORMALIZED FREE ENERGY PREDICTED BY IDOCK:    0.57 KCAL/MOL
REMARK 922        TOTAL FREE ENERGY PREDICTED BY IDOCK:    0.04 KCAL/MOL
REMARK 923 INTER-LIGAND FREE ENERGY PREDICTED BY IDOCK:   -4.58 KCAL/MOL
REMARK 924 INTRA-LIGAND FREE ENERGY PREDICTED BY IDOCK:    4.61 KCAL/MOL
REMARK 927      BINDING AFFINITY PREDICTED BY RF-SCORE:    0.00 PKD
ROOT
HETATM    1  C   UNL     1      -7.408   8.928  74.543  1.00  0.00     0.081 C  
HETATM    2  O   UNL     1      -6.860   8.189  73.461  1.00  0.00    -0.110 OA 
ENDROOT
BRANCH   2   3
HETATM    3  C   UNL     1      -7.674   7.932  72.389  1.00  0.00    -0.109 A  
HETATM    4  C   UNL     1      -7.674   6.586  71.932  1.00  0.00    -0.098 A  
HETATM    5  C   UNL     1      -8.592   6.145  70.988  1.00  0.00    -0.132 A  
HETATM    6  C   UNL     1      -8.425   8.900  71.696  1.00  0.00    -0.137 A  
HETATM    7  C   UNL     1      -9.137   8.486  70.581  1.00  0.00    -0.184 A  
HETATM    8  C   UNL     1      -9.303   7.123  70.344  1.00  0.00    -0.159 A  
HETATM    9  C   UNL     1      -9.990   6.973  69.085  1.00  0.00    -0.165 C  
HETATM   10  O   UNL     1     -10.643   5.990  68.759  1.00  0.00    -0.221 OA 
HETATM   11  C   UNL     1      -9.682   8.213  68.300  1.00  0.00    -0.175 C  
HETATM   12  C   UNL     1      -9.726   9.284  69.436  1.00  0.00    -0.175 C  
BRANCH   4  13
HETATM   13  O   UNL     1      -6.675   5.738  72.359  1.00  0.00    -0.067 OA 
HETATM   14  C   UNL     1      -5.577   6.464  72.931  1.00  0.00    -0.038 C  
ENDBRANCH   4  13
BRANCH  11  15
HETATM   15  C   UNL     1     -10.379   8.268  66.937  1.00  0.00    -0.391 C  
BRANCH  15  16
HETATM   16  C   UNL     1     -10.852   9.637  66.426  1.00  0.00     0.160 C  
HETATM   17  C   UNL     1     -10.964  10.643  67.562  1.00  0.00    -0.371 C  
HETATM   18  C   UNL     1      -9.586  11.067  68.054  1.00  0.00    -0.170 C  
HETATM   19  N   UNL     1      -8.850  11.801  67.024  1.00  0.00    -0.176 NA 
HETATM   20  C   UNL     1      -8.676  10.964  65.830  1.00  0.00    -0.190 C  
HETATM   21  C   UNL     1      -9.931  10.225  65.326  1.00  0.00    -0.387 C  
BRANCH  19  22
HETATM   22  C   UNL     1      -9.445  13.123  66.741  1.00  0.00    -0.252 C  
BRANCH  22  23
HETATM   23  C   UNL     1      -8.769  14.232  67.536  1.00  0.00    -0.204 A  
HETATM   24  C   UNL     1      -8.034  13.916  68.688  1.00  0.00    -0.109 A  
HETATM   25  C   UNL     1      -7.508  14.926  69.496  1.00  0.00    -0.162 A  
HETATM   26  C   UNL     1      -7.710  16.263  69.163  1.00  0.00    -0.229 A  
HETATM   27  C   UNL     1      -8.434  16.594  68.019  1.00  0.00    -0.192 A  
HETATM   28  C   UNL     1      -8.959  15.585  67.206  1.00  0.00    -0.216 A  
ENDBRANCH  22  23
ENDBRANCH  19  22
ENDBRANCH  15  16
ENDBRANCH  11  15
ENDBRANCH   2   3
TORSDOF 6
ENDMDL
MODEL      189
REMARK 921   NORMALIZED FREE ENERGY PREDICTED BY IDOCK:    0.86 KCAL/MOL
REMARK 922        TOTAL FREE ENERGY PREDICTED BY IDOCK:    0.42 KCAL/MOL
REMARK 923 INTER-LIGAND FREE ENERGY PREDICTED BY IDOCK:   -5.33 KCAL/MOL
REMARK 924 INTRA-LIGAND FREE ENERGY PREDICTED BY IDOCK:    5.75 KCAL/MOL
REMARK 927      BINDING AFFINITY PREDICTED BY RF-SCORE:    0.00 PKD
ROOT
HETATM    1  C   UNL     1      -7.394   8.962  74.554  1.00  0.00     0.081 C  
HETATM    2  O   UNL     1      -6.691   8.281  73.524  1.00  0.00    -0.114 OA 
ENDROOT
BRANCH   2   3
HETATM    3  C   UNL     1      -7.319   8.127  72.317  1.00  0.00    -0.102 A  
HETATM    4  C   UNL     1      -7.297   6.811  71.781  1.00  0.00    -0.085 A  
HETATM    5  C   UNL     1      -8.058   6.471  70.670  1.00  0.00    -0.113 A  
HETATM    6  C   UNL     1      -7.902   9.169  71.572  1.00  0.00     0.075 A  
HETATM    7  C   UNL     1      -8.430   8.856  70.330  1.00  0.00    -0.168 A  
HETATM    8  C   UNL     1      -8.608   7.519  69.981  1.00  0.00    -0.139 A  
HETATM    9  C   UNL     1      -9.077   7.476  68.618  1.00  0.00    -0.134 C  
HETATM   10  O   UNL     1      -9.704   6.547  68.124  1.00  0.00    -0.126 OA 
HETATM   11  C   UNL     1      -8.590   8.741  67.976  1.00  0.00    -0.134 C  
HETATM   12  C   UNL     1      -8.782   9.746  69.155  1.00  0.00    -0.155 C  
BRANCH   4  13
HETATM   13  O   UNL     1      -6.420   5.889  72.314  1.00  0.00    -0.054 OA 
HETATM   14  C   UNL     1      -6.147   6.162  73.696  1.00  0.00    -0.063 C  
ENDBRANCH   4  13
BRANCH  11  15
HETATM   15  C   UNL     1      -9.042   8.908  66.522  1.00  0.00    -0.206 C  
BRANCH  15  16
HETATM   16  C   UNL     1     -10.119   9.962  66.221  1.00  0.00    -0.311 C  
HETATM   17  C   UNL     1     -11.039  10.169  67.415  1.00  0.00    -0.219 C  
HETATM   18  C   UNL     1     -10.323  10.914  68.534  1.00  0.00    -0.187 C  
HETATM   19  N   UNL     1      -9.975  12.279  68.134  1.00  0.00    -0.206 NA 
HETATM   20  C   UNL     1      -9.095  12.255  66.959  1.00  0.00    -0.201 C  
HETATM   21  C   UNL     1      -9.525  11.332  65.803  1.00  0.00    -0.252 C  
BRANCH  19  22
HETATM   22  C   UNL     1     -11.165  13.137  67.968  1.00  0.00    -0.277 C  
BRANCH  22  23
HETATM   23  C   UNL     1     -11.556  13.825  69.269  1.00  0.00    -0.362 A  
HETATM   24  C   UNL     1     -11.105  15.126  69.533  1.00  0.00    -0.287 A  
HETATM   25  C   UNL     1     -11.352  15.729  70.768  1.00  0.00    -0.419 A  
HETATM   26  C   UNL     1     -12.053  15.038  71.755  1.00  0.00    -0.428 A  
HETATM   27  C   UNL     1     -12.512  13.746  71.506  1.00  0.00    -0.364 A  
HETATM   28  C   UNL     1     -12.269  13.141  70.270  1.00  0.00    -0.376 A  
ENDBRANCH  22  23
ENDBRANCH  19  22
ENDBRANCH  15  16
ENDBRANCH  11  15
ENDBRANCH   2   3
TORSDOF 6
ENDMDL
MODEL      190
REMARK 921   NORMALIZED FREE ENERGY PREDICTED BY IDOCK:    0.87 KCAL/MOL
REMARK 922        TOTAL FREE ENERGY PREDICTED BY IDOCK:    0.44 KCAL/MOL
REMARK 923 INTER-LIGAND FREE ENERGY PREDICTED BY IDOCK:   -1.33 KCAL/MOL
REMARK 924 INTRA-LIGAND FREE ENERGY PREDICTED BY IDOCK:    1.77 KCAL/MOL
REMARK 927      BINDING AFFINITY PREDICTED BY RF-SCORE:    0.00 PKD
ROOT
HETATM    1  C   UNL     1      -6.860  11.096  63.027  1.00  0.00     0.694 C  
HETATM    2  O   UNL     1      -8.136  11.022  63.645  1.00  0.00     0.158 OA 
ENDROOT
BRANCH   2   3
HETATM    3  C   UNL     1      -8.449   9.875  64.327  1.00  0.00    -0.173 A  
HETATM    4  C   UNL     1      -9.461  10.010  65.315  1.00  0.00    -0.263 A  
HETATM    5  C   UNL     1     -10.013   8.898  65.939  1.00  0.00    -0.099 A  
HETATM    6  C   UNL     1      -7.802   8.637  64.161  1.00  0.00    -0.141 A  
HETATM    7  C   UNL     1      -8.188   7.593  64.986  1.00  0.00    -0.116 A  
HETATM    8  C   UNL     1      -9.350   7.715  65.744  1.00  0.00     0.094 A  
HETATM    9  C   UNL     1      -9.464   6.540  66.573  1.00  0.00    -0.154 C  
HETATM   10  O   UNL     1     -10.511   6.120  67.048  1.00  0.00    -0.209 OA 
HETATM   11  C   UNL     1      -8.066   6.026  66.749  1.00  0.00    -0.105 C  
HETATM   12  C   UNL     1      -7.487   6.292  65.324  1.00  0.00    -0.084 C  
BRANCH   4  13
HETATM   13  O   UNL     1      -9.821  11.274  65.732  1.00  0.00    -0.212 OA 
HETATM   14  C   UNL     1      -9.936  11.341  67.162  1.00  0.00    -0.192 C  
ENDBRANCH   4  13
BRANCH  11  15
HETATM   15  C   UNL     1      -7.985   4.732  67.565  1.00  0.00    -0.094 C  
BRANCH  15  16
HETATM   16  C   UNL     1      -6.684   4.445  68.329  1.00  0.00    -0.047 C  
HETATM   17  C   UNL     1      -6.749   4.980  69.753  1.00  0.00    -0.047 C  
HETATM   18  C   UNL     1      -7.687   4.139  70.609  1.00  0.00    -0.048 C  
HETATM   19  N   UNL     1      -7.178   2.777  70.783  1.00  0.00    -0.033 NA 
HETATM   20  C   UNL     1      -7.032   2.120  69.478  1.00  0.00    -0.033 C  
HETATM   21  C   UNL     1      -6.329   2.936  68.377  1.00  0.00    -0.029 C  
BRANCH  19  22
HETATM   22  C   UNL     1      -5.957   2.733  71.612  1.00  0.00    -0.014 C  
BRANCH  22  23
HETATM   23  C   UNL     1      -5.768   4.014  72.413  1.00  0.00    -0.008 A  
HETATM   24  C   UNL     1      -6.119   4.045  73.771  1.00  0.00    -0.023 A  
HETATM   25  C   UNL     1      -6.066   5.239  74.493  1.00  0.00    -0.062 A  
HETATM   26  C   UNL     1      -5.661   6.416  73.868  1.00  0.00    -0.050 A  
HETATM   27  C   UNL     1      -5.303   6.401  72.520  1.00  0.00    -0.032 A  
HETATM   28  C   UNL     1      -5.353   5.206  71.796  1.00  0.00    -0.005 A  
ENDBRANCH  22  23
ENDBRANCH  19  22
ENDBRANCH  15  16
ENDBRANCH  11  15
ENDBRANCH   2   3
TORSDOF 6
ENDMDL
MODEL      191
REMARK 921   NORMALIZED FREE ENERGY PREDICTED BY IDOCK:    1.43 KCAL/MOL
REMARK 922        TOTAL FREE ENERGY PREDICTED BY IDOCK:    1.19 KCAL/MOL
REMARK 923 INTER-LIGAND FREE ENERGY PREDICTED BY IDOCK:   -0.02 KCAL/MOL
REMARK 924 INTRA-LIGAND FREE ENERGY PREDICTED BY IDOCK:    1.22 KCAL/MOL
REMARK 927      BINDING AFFINITY PREDICTED BY RF-SCORE:    0.00 PKD
ROOT
HETATM    1  C   UNL     1     -10.430   6.902  73.902  1.00  0.00    -0.318 C  
HETATM    2  O   UNL     1     -11.346   6.988  72.820  1.00  0.00    -0.268 OA 
ENDROOT
BRANCH   2   3
HETATM    3  C   UNL     1     -11.773   8.234  72.444  1.00  0.00    -0.397 A  
HETATM    4  C   UNL     1     -13.180   8.429  72.466  1.00  0.00    -0.148 A  
HETATM    5  C   UNL     1     -13.737   9.691  72.300  1.00  0.00    -0.384 A  
HETATM    6  C   UNL     1     -10.936   9.269  71.987  1.00  0.00    -0.133 A  
HETATM    7  C   UNL     1     -11.537  10.446  71.570  1.00  0.00     0.050 A  
HETATM    8  C   UNL     1     -12.882  10.666  71.858  1.00  0.00    -0.487 A  
HETATM    9  C   UNL     1     -13.271  11.907  71.235  1.00  0.00     0.024 C  
HETATM   10  O   UNL     1     -14.216  12.601  71.591  1.00  0.00     0.678 OA 
HETATM   11  C   UNL     1     -12.331  12.100  70.083  1.00  0.00    -0.219 C  
HETATM   12  C   UNL     1     -11.003  11.576  70.713  1.00  0.00     1.678 C  
BRANCH   4  13
HETATM   13  O   UNL     1     -14.005   7.327  72.546  1.00  0.00     0.236 OA 
HETATM   14  C   UNL     1     -14.083   6.637  71.289  1.00  0.00     0.394 C  
ENDBRANCH   4  13
BRANCH  11  15
HETATM   15  C   UNL     1     -12.551  13.411  69.321  1.00  0.00     0.331 C  
BRANCH  15  16
HETATM   16  C   UNL     1     -11.323  14.100  68.707  1.00  0.00    -0.308 C  
HETATM   17  C   UNL     1     -10.083  13.226  68.823  1.00  0.00    -0.083 C  
HETATM   18  C   UNL     1     -10.159  12.041  67.869  1.00  0.00    -0.195 C  
HETATM   19  N   UNL     1     -10.137  12.475  66.471  1.00  0.00    -0.234 NA 
HETATM   20  C   UNL     1     -11.276  13.362  66.197  1.00  0.00    -0.295 C  
HETATM   21  C   UNL     1     -11.526  14.487  67.219  1.00  0.00    -0.381 C  
BRANCH  19  22
HETATM   22  C   UNL     1      -8.832  13.045  66.078  1.00  0.00     0.461 C  
BRANCH  22  23
HETATM   23  C   UNL     1      -7.683  12.095  66.384  1.00  0.00     0.367 A  
HETATM   24  C   UNL     1      -7.751  10.758  65.966  1.00  0.00    -0.139 A  
HETATM   25  C   UNL     1      -6.765   9.843  66.339  1.00  0.00    -0.085 A  
HETATM   26  C   UNL     1      -5.697  10.253  67.135  1.00  0.00    -0.045 A  
HETATM   27  C   UNL     1      -5.611  11.580  67.555  1.00  0.00    -0.062 A  
HETATM   28  C   UNL     1      -6.596  12.498  67.180  1.00  0.00    -0.061 A  
ENDBRANCH  22  23
ENDBRANCH  19  22
ENDBRANCH  15  16
ENDBRANCH  11  15
ENDBRANCH   2   3
TORSDOF 6
ENDMDL
MODEL      192
REMARK 921   NORMALIZED FREE ENERGY PREDICTED BY IDOCK:    3.02 KCAL/MOL
REMARK 922        TOTAL FREE ENERGY PREDICTED BY IDOCK:    3.34 KCAL/MOL
REMARK 923 INTER-LIGAND FREE ENERGY PREDICTED BY IDOCK:   -2.02 KCAL/MOL
REMARK 924 INTRA-LIGAND FREE ENERGY PREDICTED BY IDOCK:    5.36 KCAL/MOL
REMARK 927      BINDING AFFINITY PREDICTED BY RF-SCORE:    0.00 PKD
ROOT
HETATM    1  C   UNL     1      -5.733  10.798  65.116  1.00  0.00    -0.061 C  
HETATM    2  O   UNL     1      -6.964  11.473  65.329  1.00  0.00     0.835 OA 
ENDROOT
BRANCH   2   3
HETATM    3  C   UNL     1      -7.915  10.841  66.085  1.00  0.00    -0.157 A  
HETATM    4  C   UNL     1      -8.149  11.407  67.368  1.00  0.00    -0.142 A  
HETATM    5  C   UNL     1      -9.215  10.992  68.156  1.00  0.00    -0.165 A  
HETATM    6  C   UNL     1      -8.596   9.668  65.710  1.00  0.00    -0.149 A  
HETATM    7  C   UNL     1      -9.474   9.111  66.627  1.00  0.00    -0.242 A  
HETATM    8  C   UNL     1      -9.850   9.848  67.747  1.00  0.00    -0.184 A  
HETATM    9  C   UNL     1     -10.682   9.008  68.571  1.00  0.00    -0.095 C  
HETATM   10  O   UNL     1     -11.495   9.418  69.391  1.00  0.00     0.015 OA 
HETATM   11  C   UNL     1     -10.293   7.597  68.243  1.00  0.00    -0.238 C  
HETATM   12  C   UNL     1     -10.067   7.719  66.703  1.00  0.00    -0.294 C  
BRANCH   4  13
HETATM   13  O   UNL     1      -7.236  12.306  67.877  1.00  0.00    -0.087 OA 
HETATM   14  C   UNL     1      -6.157  12.536  66.957  1.00  0.00     0.114 C  
ENDBRANCH   4  13
BRANCH  11  15
HETATM   15  C   UNL     1     -11.118   6.542  68.986  1.00  0.00    -0.375 C  
BRANCH  15  16
HETATM   16  C   UNL     1     -10.378   5.324  69.560  1.00  0.00    -0.333 C  
HETATM   17  C   UNL     1      -8.899   5.620  69.760  1.00  0.00    -0.130 C  
HETATM   18  C   UNL     1      -8.685   6.569  70.933  1.00  0.00    -0.136 C  
HETATM   19  N   UNL     1      -9.081   5.953  72.201  1.00  0.00    -0.143 NA 
HETATM   20  C   UNL     1     -10.501   5.579  72.162  1.00  0.00    -0.220 C  
HETATM   21  C   UNL     1     -10.976   4.829  70.903  1.00  0.00     0.583 C  
BRANCH  19  22
HETATM   22  C   UNL     1      -8.186   4.846  72.593  1.00  0.00    -0.115 C  
BRANCH  22  23
HETATM   23  C   UNL     1      -7.764   4.005  71.396  1.00  0.00    -0.064 A  
HETATM   24  C   UNL     1      -8.443   2.813  71.106  1.00  0.00    -0.095 A  
HETATM   25  C   UNL     1      -7.997   1.969  70.088  1.00  0.00    -0.052 A  
HETATM   26  C   UNL     1      -6.867   2.306  69.346  1.00  0.00    -0.033 A  
HETATM   27  C   UNL     1      -6.183   3.490  69.618  1.00  0.00    -0.028 A  
HETATM   28  C   UNL     1      -6.629   4.338  70.636  1.00  0.00    -0.031 A  
ENDBRANCH  22  23
ENDBRANCH  19  22
ENDBRANCH  15  16
ENDBRANCH  11  15
ENDBRANCH   2   3
TORSDOF 6
ENDMDL
MODEL      193
REMARK 921   NORMALIZED FREE ENERGY PREDICTED BY IDOCK:    3.10 KCAL/MOL
REMARK 922        TOTAL FREE ENERGY PREDICTED BY IDOCK:    3.46 KCAL/MOL
REMARK 923 INTER-LIGAND FREE ENERGY PREDICTED BY IDOCK:    0.90 KCAL/MOL
REMARK 924 INTRA-LIGAND FREE ENERGY PREDICTED BY IDOCK:    2.56 KCAL/MOL
REMARK 927      BINDING AFFINITY PREDICTED BY RF-SCORE:    0.00 PKD
ROOT
HETATM    1  C   UNL     1      -9.819  16.507  67.393  1.00  0.00    -0.253 C  
HETATM    2  O   UNL     1     -10.761  15.461  67.578  1.00  0.00    -0.281 OA 
ENDROOT
BRANCH   2   3
HETATM    3  C   UNL     1     -10.676  14.372  66.751  1.00  0.00    -0.292 A  
HETATM    4  C   UNL     1     -11.913  13.901  66.234  1.00  0.00    -0.434 A  
HETATM    5  C   UNL     1     -11.957  12.936  65.235  1.00  0.00    -0.459 A  
HETATM    6  C   UNL     1      -9.489  13.677  66.452  1.00  0.00    -0.248 A  
HETATM    7  C   UNL     1      -9.588  12.546  65.658  1.00  0.00    -0.099 A  
HETATM    8  C   UNL     1     -10.776  12.291  64.978  1.00  0.00    -0.336 A  
HETATM    9  C   UNL     1     -10.640  11.018  64.312  1.00  0.00    -0.331 C  
HETATM   10  O   UNL     1     -11.289  10.670  63.334  1.00  0.00     0.769 OA 
HETATM   11  C   UNL     1      -9.617  10.252  65.096  1.00  0.00    -0.337 C  
HETATM   12  C   UNL     1      -8.619  11.399  65.452  1.00  0.00     0.155 C  
BRANCH   4  13
HETATM   13  O   UNL     1     -13.087  14.335  66.813  1.00  0.00     0.494 OA 
HETATM   14  C   UNL     1     -12.915  15.606  67.457  1.00  0.00     3.092 C  
ENDBRANCH   4  13
BRANCH  11  15
HETATM   15  C   UNL     1      -9.289   8.878  64.504  1.00  0.00     0.440 C  
BRANCH  15  16
HETATM   16  C   UNL     1      -7.936   8.245  64.862  1.00  0.00    -0.144 C  
HETATM   17  C   UNL     1      -7.521   8.594  66.284  1.00  0.00    -0.090 C  
HETATM   18  C   UNL     1      -8.377   7.848  67.300  1.00  0.00    -0.122 C  
HETATM   19  N   UNL     1      -8.159   6.403  67.229  1.00  0.00    -0.112 NA 
HETATM   20  C   UNL     1      -8.495   5.904  65.889  1.00  0.00    -0.141 C  
HETATM   21  C   UNL     1      -7.926   6.703  64.701  1.00  0.00    -0.113 C  
BRANCH  19  22
HETATM   22  C   UNL     1      -6.810   6.014  67.687  1.00  0.00    -0.060 C  
BRANCH  22  23
HETATM   23  C   UNL     1      -6.423   6.720  68.979  1.00  0.00    -0.036 A  
HETATM   24  C   UNL     1      -5.977   8.049  68.941  1.00  0.00    -0.039 A  
HETATM   25  C   UNL     1      -5.505   8.675  70.096  1.00  0.00    -0.024 A  
HETATM   26  C   UNL     1      -5.473   7.982  71.304  1.00  0.00    -0.034 A  
HETATM   27  C   UNL     1      -5.918   6.661  71.359  1.00  0.00    -0.036 A  
HETATM   28  C   UNL     1      -6.394   6.033  70.205  1.00  0.00    -0.032 A  
ENDBRANCH  22  23
ENDBRANCH  19  22
ENDBRANCH  15  16
ENDBRANCH  11  15
ENDBRANCH   2   3
TORSDOF 6
ENDMDL
MODEL      194
REMARK 921   NORMALIZED FREE ENERGY PREDICTED BY IDOCK:    3.95 KCAL/MOL
REMARK 922        TOTAL FREE ENERGY PREDICTED BY IDOCK:    4.60 KCAL/MOL
REMARK 923 INTER-LIGAND FREE ENERGY PREDICTED BY IDOCK:   -1.73 KCAL/MOL
REMARK 924 INTRA-LIGAND FREE ENERGY PREDICTED BY IDOCK:    6.33 KCAL/MOL
REMARK 927      BINDING AFFINITY PREDICTED BY RF-SCORE:    0.00 PKD
ROOT
HETATM    1  C   UNL     1      -7.410   8.986  74.565  1.00  0.00     0.222 C  
HETATM    2  O   UNL     1      -6.780   8.423  73.424  1.00  0.00    -0.117 OA 
ENDROOT
BRANCH   2   3
HETATM    3  C   UNL     1      -7.526   8.294  72.282  1.00  0.00    -0.117 A  
HETATM    4  C   UNL     1      -7.881   6.963  71.933  1.00  0.00    -0.095 A  
HETATM    5  C   UNL     1      -8.795   6.702  70.919  1.00  0.00    -0.146 A  
HETATM    6  C   UNL     1      -7.887   9.355  71.431  1.00  0.00     0.281 A  
HETATM    7  C   UNL     1      -8.580   9.043  70.272  1.00  0.00    -0.193 A  
HETATM    8  C   UNL     1      -9.118   7.767  70.120  1.00  0.00    -0.153 A  
HETATM    9  C   UNL     1      -9.696   7.684  68.801  1.00  0.00    -0.153 C  
HETATM   10  O   UNL     1     -10.576   6.899  68.473  1.00  0.00    -0.195 OA 
HETATM   11  C   UNL     1      -8.961   8.691  67.968  1.00  0.00    -0.141 C  
HETATM   12  C   UNL     1      -8.794   9.846  69.005  1.00  0.00    -0.156 C  
BRANCH   4  13
HETATM   13  O   UNL     1      -7.224   5.916  72.543  1.00  0.00    -0.083 OA 
HETATM   14  C   UNL     1      -6.752   6.281  73.849  1.00  0.00    -0.075 C  
ENDBRANCH   4  13
BRANCH  11  15
HETATM   15  C   UNL     1      -9.477   8.794  66.529  1.00  0.00    -0.281 C  
BRANCH  15  16
HETATM   16  C   UNL     1     -10.331  10.016  66.157  1.00  0.00    -0.225 C  
HETATM   17  C   UNL     1     -10.299  11.068  67.256  1.00  0.00    -0.249 C  
HETATM   18  C   UNL     1      -8.944  11.764  67.307  1.00  0.00    -0.172 C  
HETATM   19  N   UNL     1      -8.693  12.539  66.090  1.00  0.00     0.144 NA 
HETATM   20  C   UNL     1      -8.716  11.659  64.914  1.00  0.00     0.530 C  
HETATM   21  C   UNL     1      -9.898  10.674  64.822  1.00  0.00    -0.372 C  
BRANCH  19  22
HETATM   22  C   UNL     1      -9.585  13.710  65.974  1.00  0.00    -0.166 C  
BRANCH  22  23
HETATM   23  C   UNL     1     -10.797  13.417  65.100  1.00  0.00    -0.322 A  
HETATM   24  C   UNL     1     -12.003  13.014  65.692  1.00  0.00    -0.479 A  
HETATM   25  C   UNL     1     -13.089  12.626  64.905  1.00  0.00     0.112 A  
HETATM   26  C   UNL     1     -12.983  12.636  63.515  1.00  0.00     0.041 A  
HETATM   27  C   UNL     1     -11.792  13.039  62.911  1.00  0.00     0.426 A  
HETATM   28  C   UNL     1     -10.705  13.430  63.698  1.00  0.00     0.403 A  
ENDBRANCH  22  23
ENDBRANCH  19  22
ENDBRANCH  15  16
ENDBRANCH  11  15
ENDBRANCH   2   3
TORSDOF 6
ENDMDL
MODEL      195
REMARK 921   NORMALIZED FREE ENERGY PREDICTED BY IDOCK:    6.73 KCAL/MOL
REMARK 922        TOTAL FREE ENERGY PREDICTED BY IDOCK:    8.36 KCAL/MOL
REMARK 923 INTER-LIGAND FREE ENERGY PREDICTED BY IDOCK:    4.55 KCAL/MOL
REMARK 924 INTRA-LIGAND FREE ENERGY PREDICTED BY IDOCK:    3.80 KCAL/MOL
REMARK 927      BINDING AFFINITY PREDICTED BY RF-SCORE:    0.00 PKD
ROOT
HETATM    1  C   UNL     1     -11.979   7.772  67.154  1.00  0.00     4.013 C  
HETATM    2  O   UNL     1     -10.874   8.533  67.618  1.00  0.00    -0.169 OA 
ENDROOT
BRANCH   2   3
HETATM    3  C   UNL     1     -10.816   9.855  67.263  1.00  0.00    -0.199 A  
HETATM    4  C   UNL     1      -9.664  10.238  66.524  1.00  0.00    -0.193 A  
HETATM    5  C   UNL     1      -9.569  11.491  65.933  1.00  0.00    -0.254 A  
HETATM    6  C   UNL     1     -11.758  10.832  67.634  1.00  0.00     0.107 A  
HETATM    7  C   UNL     1     -11.510  12.142  67.257  1.00  0.00    -0.413 A  
HETATM    8  C   UNL     1     -10.512  12.407  66.322  1.00  0.00    -0.271 A  
HETATM    9  C   UNL     1     -10.402  13.838  66.184  1.00  0.00    -0.301 C  
HETATM   10  O   UNL     1      -9.942  14.412  65.205  1.00  0.00    -0.356 OA 
HETATM   11  C   UNL     1     -10.902  14.414  67.476  1.00  0.00    -0.285 C  
HETATM   12  C   UNL     1     -12.088  13.444  67.775  1.00  0.00    -0.299 C  
BRANCH   4  13
HETATM   13  O   UNL     1      -8.581   9.385  66.488  1.00  0.00    -0.130 OA 
HETATM   14  C   UNL     1      -7.397  10.058  66.034  1.00  0.00    -0.112 C  
ENDBRANCH   4  13
BRANCH  11  15
HETATM   15  C   UNL     1     -10.918  15.945  67.502  1.00  0.00    -0.280 C  
BRANCH  15  16
HETATM   16  C   UNL     1     -10.549  16.690  66.210  1.00  0.00    -0.205 C  
HETATM   17  C   UNL     1     -11.170  18.079  66.175  1.00  0.00     0.842 C  
HETATM   18  C   UNL     1     -10.477  19.011  67.161  1.00  0.00    -0.441 C  
HETATM   19  N   UNL     1      -9.084  19.254  66.781  1.00  0.00    -0.309 NA 
HETATM   20  C   UNL     1      -8.340  17.988  66.742  1.00  0.00    -0.253 C  
HETATM   21  C   UNL     1      -9.019  16.821  66.001  1.00  0.00    -0.220 C  
BRANCH  19  22
HETATM   22  C   UNL     1      -8.969  20.049  65.542  1.00  0.00     0.446 C  
BRANCH  22  23
HETATM   23  C   UNL     1      -7.711  19.703  64.759  1.00  0.00     1.481 A  
HETATM   24  C   UNL     1      -7.162  18.415  64.853  1.00  0.00     1.556 A  
HETATM   25  C   UNL     1      -5.946  18.112  64.239  1.00  0.00     1.043 A  
HETATM   26  C   UNL     1      -5.262  19.092  63.522  1.00  0.00    -0.293 A  
HETATM   27  C   UNL     1      -5.796  20.375  63.414  1.00  0.00    -0.292 A  
HETATM   28  C   UNL     1      -7.015  20.680  64.026  1.00  0.00     0.340 A  
ENDBRANCH  22  23
ENDBRANCH  19  22
ENDBRANCH  15  16
ENDBRANCH  11  15
ENDBRANCH   2   3
TORSDOF 6
ENDMDL
MODEL      196
REMARK 921   NORMALIZED FREE ENERGY PREDICTED BY IDOCK:   13.08 KCAL/MOL
REMARK 922        TOTAL FREE ENERGY PREDICTED BY IDOCK:   16.93 KCAL/MOL
REMARK 923 INTER-LIGAND FREE ENERGY PREDICTED BY IDOCK:   12.65 KCAL/MOL
REMARK 924 INTRA-LIGAND FREE ENERGY PREDICTED BY IDOCK:    4.28 KCAL/MOL
REMARK 927      BINDING AFFINITY PREDICTED BY RF-SCORE:    0.00 PKD
ROOT
HETATM    1  C   UNL     1     -12.018   8.627  65.082  1.00  0.00    13.044 C  
HETATM    2  O   UNL     1     -10.949   8.473  66.004  1.00  0.00     1.333 OA 
ENDROOT
BRANCH   2   3
HETATM    3  C   UNL     1     -10.212   9.585  66.318  1.00  0.00    -0.220 A  
HETATM    4  C   UNL     1      -8.936   9.664  65.698  1.00  0.00    -0.169 A  
HETATM    5  C   UNL     1      -8.170  10.821  65.769  1.00  0.00    -0.146 A  
HETATM    6  C   UNL     1     -10.601  10.578  67.235  1.00  0.00    -0.317 A  
HETATM    7  C   UNL     1      -9.703  11.600  67.498  1.00  0.00    -0.185 A  
HETATM    8  C   UNL     1      -8.592  11.761  66.674  1.00  0.00    -0.170 A  
HETATM    9  C   UNL     1      -7.785  12.823  67.221  1.00  0.00    -0.127 C  
HETATM   10  O   UNL     1      -6.984  13.492  66.581  1.00  0.00     0.622 OA 
HETATM   11  C   UNL     1      -8.103  12.867  68.686  1.00  0.00    -0.007 C  
HETATM   12  C   UNL     1      -9.638  12.584  68.648  1.00  0.00    -0.029 C  
BRANCH   4  13
HETATM   13  O   UNL     1      -8.408   8.535  65.110  1.00  0.00    -0.153 OA 
HETATM   14  C   UNL     1      -9.371   7.471  65.058  1.00  0.00     1.106 C  
ENDBRANCH   4  13
BRANCH  11  15
HETATM   15  C   UNL     1      -7.377  13.985  69.440  1.00  0.00     0.077 C  
BRANCH  15  16
HETATM   16  C   UNL     1      -6.215  14.695  68.729  1.00  0.00    -0.087 C  
HETATM   17  C   UNL     1      -6.723  15.654  67.662  1.00  0.00    -0.204 C  
HETATM   18  C   UNL     1      -7.366  16.883  68.293  1.00  0.00    -0.193 C  
HETATM   19  N   UNL     1      -6.386  17.684  69.028  1.00  0.00    -0.213 NA 
HETATM   20  C   UNL     1      -5.775  16.883  70.097  1.00  0.00    -0.208 C  
HETATM   21  C   UNL     1      -5.293  15.473  69.703  1.00  0.00    -0.103 C  
BRANCH  19  22
HETATM   22  C   UNL     1      -5.404  18.331  68.135  1.00  0.00    -0.165 C  
BRANCH  22  23
HETATM   23  C   UNL     1      -6.079  19.068  66.987  1.00  0.00    -0.177 A  
HETATM   24  C   UNL     1      -5.622  18.882  65.674  1.00  0.00    -0.202 A  
HETATM   25  C   UNL     1      -6.148  19.636  64.623  1.00  0.00    -0.313 A  
HETATM   26  C   UNL     1      -7.137  20.585  64.871  1.00  0.00     0.011 A  
HETATM   27  C   UNL     1      -7.606  20.778  66.170  1.00  0.00     0.125 A  
HETATM   28  C   UNL     1      -7.084  20.023  67.223  1.00  0.00    -0.279 A  
ENDBRANCH  22  23
ENDBRANCH  19  22
ENDBRANCH  15  16
ENDBRANCH  11  15
ENDBRANCH   2   3
TORSDOF 6
ENDMDL
MODEL      197
REMARK 921   NORMALIZED FREE ENERGY PREDICTED BY IDOCK:   13.48 KCAL/MOL
REMARK 922        TOTAL FREE ENERGY PREDICTED BY IDOCK:   17.47 KCAL/MOL
REMARK 923 INTER-LIGAND FREE ENERGY PREDICTED BY IDOCK:   15.40 KCAL/MOL
REMARK 924 INTRA-LIGAND FREE ENERGY PREDICTED BY IDOCK:    2.08 KCAL/MOL
REMARK 927      BINDING AFFINITY PREDICTED BY RF-SCORE:    0.00 PKD
ROOT
HETATM    1  C   UNL     1     -11.970  18.962  71.111  1.00  0.00    11.017 C  
HETATM    2  O   UNL     1     -12.432  17.633  70.912  1.00  0.00     5.783 OA 
ENDROOT
BRANCH   2   3
HETATM    3  C   UNL     1     -11.624  16.775  70.213  1.00  0.00     0.621 A  
HETATM    4  C   UNL     1     -12.270  15.625  69.684  1.00  0.00    -0.240 A  
HETATM    5  C   UNL     1     -11.620  14.779  68.795  1.00  0.00    -0.347 A  
HETATM    6  C   UNL     1     -10.234  16.925  70.056  1.00  0.00     0.344 A  
HETATM    7  C   UNL     1      -9.550  15.924  69.384  1.00  0.00    -0.265 A  
HETATM    8  C   UNL     1     -10.268  14.966  68.672  1.00  0.00    -0.236 A  
HETATM    9  C   UNL     1      -9.328  14.002  68.156  1.00  0.00    -0.201 C  
HETATM   10  O   UNL     1      -9.530  13.280  67.187  1.00  0.00    -0.223 OA 
HETATM   11  C   UNL     1      -8.142  14.054  69.072  1.00  0.00     0.087 C  
HETATM   12  C   UNL     1      -8.073  15.588  69.355  1.00  0.00    -0.241 C  
BRANCH   4  13
HETATM   13  O   UNL     1     -13.524  15.291  70.148  1.00  0.00     0.057 OA 
HETATM   14  C   UNL     1     -13.681  15.636  71.533  1.00  0.00    -0.338 C  
ENDBRANCH   4  13
BRANCH  11  15
HETATM   15  C   UNL     1      -6.997  13.129  68.650  1.00  0.00    -0.102 C  
BRANCH  15  16
HETATM   16  C   UNL     1      -7.360  11.751  68.077  1.00  0.00    -0.091 C  
HETATM   17  C   UNL     1      -6.268  10.729  68.356  1.00  0.00    -0.049 C  
HETATM   18  C   UNL     1      -6.244  10.345  69.831  1.00  0.00    -0.081 C  
HETATM   19  N   UNL     1      -7.469   9.645  70.222  1.00  0.00    -0.144 NA 
HETATM   20  C   UNL     1      -8.639  10.501  69.987  1.00  0.00     0.468 C  
HETATM   21  C   UNL     1      -8.707  11.205  68.619  1.00  0.00    -0.153 C  
BRANCH  19  22
HETATM   22  C   UNL     1      -7.576   8.308  69.605  1.00  0.00    -0.094 C  
BRANCH  22  23
HETATM   23  C   UNL     1      -6.747   7.270  70.348  1.00  0.00    -0.052 A  
HETATM   24  C   UNL     1      -5.978   6.345  69.628  1.00  0.00    -0.018 A  
HETATM   25  C   UNL     1      -5.306   5.312  70.284  1.00  0.00    -0.004 A  
HETATM   26  C   UNL     1      -5.395   5.191  71.670  1.00  0.00    -0.005 A  
HETATM   27  C   UNL     1      -6.152   6.106  72.401  1.00  0.00    -0.038 A  
HETATM   28  C   UNL     1      -6.823   7.142  71.746  1.00  0.00    -0.059 A  
ENDBRANCH  22  23
ENDBRANCH  19  22
ENDBRANCH  15  16
ENDBRANCH  11  15
ENDBRANCH   2   3
TORSDOF 6
ENDMDL
MODEL      198
REMARK 921   NORMALIZED FREE ENERGY PREDICTED BY IDOCK:   15.70 KCAL/MOL
REMARK 922        TOTAL FREE ENERGY PREDICTED BY IDOCK:   20.47 KCAL/MOL
REMARK 923 INTER-LIGAND FREE ENERGY PREDICTED BY IDOCK:   15.55 KCAL/MOL
REMARK 924 INTRA-LIGAND FREE ENERGY PREDICTED BY IDOCK:    4.92 KCAL/MOL
REMARK 927      BINDING AFFINITY PREDICTED BY RF-SCORE:    0.00 PKD
ROOT
HETATM    1  C   UNL     1     -10.245  15.883  67.453  1.00  0.00    -0.270 C  
HETATM    2  O   UNL     1     -11.298  14.930  67.487  1.00  0.00    -0.321 OA 
ENDROOT
BRANCH   2   3
HETATM    3  C   UNL     1     -11.299  13.948  66.532  1.00  0.00    -0.331 A  
HETATM    4  C   UNL     1     -12.560  13.684  65.931  1.00  0.00    -0.425 A  
HETATM    5  C   UNL     1     -12.671  12.859  64.819  1.00  0.00    -0.442 A  
HETATM    6  C   UNL     1     -10.184  13.168  66.175  1.00  0.00    -0.291 A  
HETATM    7  C   UNL     1     -10.374  12.160  65.243  1.00  0.00    -0.310 A  
HETATM    8  C   UNL     1     -11.557  12.123  64.509  1.00  0.00    -0.403 A  
HETATM    9  C   UNL     1     -11.535  10.935  63.692  1.00  0.00     0.926 C  
HETATM   10  O   UNL     1     -12.181  10.783  62.663  1.00  0.00     1.390 OA 
HETATM   11  C   UNL     1     -10.628   9.970  64.397  1.00  0.00     1.217 C  
HETATM   12  C   UNL     1      -9.527  10.947  64.916  1.00  0.00    -0.277 C  
BRANCH   4  13
HETATM   13  O   UNL     1     -13.701  14.171  66.533  1.00  0.00     1.922 OA 
HETATM   14  C   UNL     1     -13.447  14.579  67.886  1.00  0.00     5.118 C  
ENDBRANCH   4  13
BRANCH  11  15
HETATM   15  C   UNL     1     -10.429   8.651  63.644  1.00  0.00     7.256 C  
BRANCH  15  16
HETATM   16  C   UNL     1      -9.155   7.842  63.937  1.00  0.00     1.342 C  
HETATM   17  C   UNL     1      -7.919   8.536  63.383  1.00  0.00    -0.161 C  
HETATM   18  C   UNL     1      -7.576   9.774  64.201  1.00  0.00    -0.134 C  
HETATM   19  N   UNL     1      -7.182   9.423  65.567  1.00  0.00    -0.086 NA 
HETATM   20  C   UNL     1      -8.275   8.712  66.243  1.00  0.00    -0.116 C  
HETATM   21  C   UNL     1      -8.943   7.573  65.449  1.00  0.00     0.138 C  
BRANCH  19  22
HETATM   22  C   UNL     1      -5.890   8.710  65.615  1.00  0.00    -0.051 C  
BRANCH  22  23
HETATM   23  C   UNL     1      -5.849   7.683  66.738  1.00  0.00    -0.039 A  
HETATM   24  C   UNL     1      -5.686   8.106  68.065  1.00  0.00    -0.035 A  
HETATM   25  C   UNL     1      -5.526   7.177  69.094  1.00  0.00    -0.015 A  
HETATM   26  C   UNL     1      -5.527   5.813  68.811  1.00  0.00    -0.011 A  
HETATM   27  C   UNL     1      -5.693   5.376  67.497  1.00  0.00    -0.013 A  
HETATM   28  C   UNL     1      -5.856   6.304  66.465  1.00  0.00    -0.024 A  
ENDBRANCH  22  23
ENDBRANCH  19  22
ENDBRANCH  15  16
ENDBRANCH  11  15
ENDBRANCH   2   3
TORSDOF 6
ENDMDL
MODEL      199
REMARK 921   NORMALIZED FREE ENERGY PREDICTED BY IDOCK:   23.61 KCAL/MOL
REMARK 922        TOTAL FREE ENERGY PREDICTED BY IDOCK:   31.15 KCAL/MOL
REMARK 923 INTER-LIGAND FREE ENERGY PREDICTED BY IDOCK:   25.86 KCAL/MOL
REMARK 924 INTRA-LIGAND FREE ENERGY PREDICTED BY IDOCK:    5.29 KCAL/MOL
REMARK 927      BINDING AFFINITY PREDICTED BY RF-SCORE:    0.00 PKD
ROOT
HETATM    1  C   UNL     1      -5.726  10.905  65.011  1.00  0.00     0.064 C  
HETATM    2  O   UNL     1      -6.973  11.584  65.029  1.00  0.00     1.107 OA 
ENDROOT
BRANCH   2   3
HETATM    3  C   UNL     1      -7.968  11.068  65.817  1.00  0.00    -0.013 A  
HETATM    4  C   UNL     1      -8.343  11.869  66.929  1.00  0.00    -0.169 A  
HETATM    5  C   UNL     1      -9.463  11.566  67.692  1.00  0.00    -0.170 A  
HETATM    6  C   UNL     1      -8.568   9.807  65.637  1.00  0.00    -0.154 A  
HETATM    7  C   UNL     1      -9.507   9.402  66.571  1.00  0.00    -0.246 A  
HETATM    8  C   UNL     1     -10.014  10.330  67.477  1.00  0.00    -0.226 A  
HETATM    9  C   UNL     1     -10.890   9.630  68.385  1.00  0.00    -0.167 C  
HETATM   10  O   UNL     1     -11.791  10.153  69.028  1.00  0.00    -0.026 OA 
HETATM   11  C   UNL     1     -10.421   8.206  68.391  1.00  0.00    -0.205 C  
HETATM   12  C   UNL     1     -10.054   8.024  66.885  1.00  0.00    -0.362 C  
BRANCH   4  13
HETATM   13  O   UNL     1      -7.515  12.902  67.315  1.00  0.00    -0.147 OA 
HETATM   14  C   UNL     1      -6.405  13.049  66.417  1.00  0.00     2.605 C  
ENDBRANCH   4  13
BRANCH  11  15
HETATM   15  C   UNL     1     -11.274   7.280  69.265  1.00  0.00     0.026 C  
BRANCH  15  16
HETATM   16  C   UNL     1     -10.548   6.242  70.133  1.00  0.00    -0.306 C  
HETATM   17  C   UNL     1     -11.244   6.058  71.474  1.00  0.00    -0.326 C  
HETATM   18  C   UNL     1     -12.561   5.310  71.307  1.00  0.00     3.428 C  
HETATM   19  N   UNL     1     -12.344   3.937  70.848  1.00  0.00     9.844 NA 
HETATM   20  C   UNL     1     -11.647   3.938  69.555  1.00  0.00     9.068 C  
HETATM   21  C   UNL     1     -10.418   4.859  69.443  1.00  0.00     0.002 C  
BRANCH  19  22
HETATM   22  C   UNL     1     -11.693   3.097  71.873  1.00  0.00     3.364 C  
BRANCH  22  23
HETATM   23  C   UNL     1     -10.598   3.851  72.615  1.00  0.00    -0.170 A  
HETATM   24  C   UNL     1      -9.258   3.685  72.237  1.00  0.00    -0.164 A  
HETATM   25  C   UNL     1      -8.231   4.272  72.978  1.00  0.00    -0.091 A  
HETATM   26  C   UNL     1      -8.531   5.033  74.106  1.00  0.00    -0.109 A  
HETATM   27  C   UNL     1      -9.859   5.212  74.492  1.00  0.00    -0.220 A  
HETATM   28  C   UNL     1     -10.889   4.627  73.750  1.00  0.00    -0.378 A  
ENDBRANCH  22  23
ENDBRANCH  19  22
ENDBRANCH  15  16
ENDBRANCH  11  15
ENDBRANCH   2   3
TORSDOF 6
ENDMDL
MODEL      200
REMARK 921   NORMALIZED FREE ENERGY PREDICTED BY IDOCK:   38.86 KCAL/MOL
REMARK 922        TOTAL FREE ENERGY PREDICTED BY IDOCK:   51.75 KCAL/MOL
REMARK 923 INTER-LIGAND FREE ENERGY PREDICTED BY IDOCK:   52.30 KCAL/MOL
REMARK 924 INTRA-LIGAND FREE ENERGY PREDICTED BY IDOCK:   -0.55 KCAL/MOL
REMARK 927      BINDING AFFINITY PREDICTED BY RF-SCORE:    0.00 PKD
ROOT
HETATM    1  C   UNL     1     -11.889  21.381  63.019  1.00  0.00     6.485 C  
HETATM    2  O   UNL     1     -11.972  19.976  63.210  1.00  0.00     7.318 OA 
ENDROOT
BRANCH   2   3
HETATM    3  C   UNL     1     -11.594  19.474  64.427  1.00  0.00     4.803 A  
HETATM    4  C   UNL     1     -10.198  19.267  64.595  1.00  0.00     3.531 A  
HETATM    5  C   UNL     1      -9.659  18.953  65.836  1.00  0.00     0.035 A  
HETATM    6  C   UNL     1     -12.479  19.100  65.455  1.00  0.00     7.935 A  
HETATM    7  C   UNL     1     -11.937  18.535  66.598  1.00  0.00     3.192 A  
HETATM    8  C   UNL     1     -10.561  18.600  66.806  1.00  0.00    -0.422 A  
HETATM    9  C   UNL     1     -10.259  17.861  68.007  1.00  0.00    -0.376 C  
HETATM   10  O   UNL     1      -9.262  18.029  68.698  1.00  0.00    -0.292 OA 
HETATM   11  C   UNL     1     -11.365  16.860  68.162  1.00  0.00     0.043 C  
HETATM   12  C   UNL     1     -12.585  17.714  67.695  1.00  0.00     4.782 C  
BRANCH   4  13
HETATM   13  O   UNL     1      -9.384  19.275  63.482  1.00  0.00    10.875 OA 
HETATM   14  C   UNL     1      -8.336  20.248  63.605  1.00  0.00     5.541 C  
ENDBRANCH   4  13
BRANCH  11  15
HETATM   15  C   UNL     1     -11.251  16.007  69.429  1.00  0.00    -0.349 C  
BRANCH  15  16
HETATM   16  C   UNL     1     -10.519  14.660  69.326  1.00  0.00    -0.218 C  
HETATM   17  C   UNL     1     -10.678  13.844  70.600  1.00  0.00     1.483 C  
HETATM   18  C   UNL     1     -12.097  13.304  70.729  1.00  0.00    -0.226 C  
HETATM   19  N   UNL     1     -12.402  12.340  69.670  1.00  0.00    -0.072 NA 
HETATM   20  C   UNL     1     -12.267  12.974  68.352  1.00  0.00     0.010 C  
HETATM   21  C   UNL     1     -10.991  13.805  68.121  1.00  0.00    -0.265 C  
BRANCH  19  22
HETATM   22  C   UNL     1     -11.631  11.088  69.809  1.00  0.00    -0.325 C  
BRANCH  22  23
HETATM   23  C   UNL     1     -12.403  10.028  70.581  1.00  0.00    -0.342 A  
HETATM   24  C   UNL     1     -13.211  10.402  71.664  1.00  0.00    -0.502 A  
HETATM   25  C   UNL     1     -13.832   9.437  72.458  1.00  0.00    -0.385 A  
HETATM   26  C   UNL     1     -13.654   8.083  72.178  1.00  0.00    -0.221 A  
HETATM   27  C   UNL     1     -12.858   7.694  71.102  1.00  0.00    -0.223 A  
HETATM   28  C   UNL     1     -12.238   8.659  70.304  1.00  0.00     0.485 A  
ENDBRANCH  22  23
ENDBRANCH  19  22
ENDBRANCH  15  16
ENDBRANCH  11  15
ENDBRANCH   2   3
TORSDOF 6
ENDMDL
MODEL      201
REMARK 921   NORMALIZED FREE ENERGY PREDICTED BY IDOCK:   40.10 KCAL/MOL
REMARK 922        TOTAL FREE ENERGY PREDICTED BY IDOCK:   53.43 KCAL/MOL
REMARK 923 INTER-LIGAND FREE ENERGY PREDICTED BY IDOCK:   51.45 KCAL/MOL
REMARK 924 INTRA-LIGAND FREE ENERGY PREDICTED BY IDOCK:    1.98 KCAL/MOL
REMARK 927      BINDING AFFINITY PREDICTED BY RF-SCORE:    0.00 PKD
ROOT
HETATM    1  C   UNL     1     -11.889  21.381  63.019  1.00  0.00     6.485 C  
HETATM    2  O   UNL     1     -11.972  19.976  63.210  1.00  0.00     7.318 OA 
ENDROOT
BRANCH   2   3
HETATM    3  C   UNL     1     -11.594  19.474  64.427  1.00  0.00     4.803 A  
HETATM    4  C   UNL     1     -10.198  19.267  64.595  1.00  0.00     3.531 A  
HETATM    5  C   UNL     1      -9.659  18.953  65.836  1.00  0.00     0.035 A  
HETATM    6  C   UNL     1     -12.479  19.100  65.455  1.00  0.00     7.935 A  
HETATM    7  C   UNL     1     -11.937  18.535  66.598  1.00  0.00     3.192 A  
HETATM    8  C   UNL     1     -10.561  18.600  66.806  1.00  0.00    -0.422 A  
HETATM    9  C   UNL     1     -10.259  17.861  68.007  1.00  0.00    -0.376 C  
HETATM   10  O   UNL     1      -9.262  18.029  68.698  1.00  0.00    -0.292 OA 
HETATM   11  C   UNL     1     -11.365  16.860  68.162  1.00  0.00     0.043 C  
HETATM   12  C   UNL     1     -12.585  17.714  67.695  1.00  0.00     4.782 C  
BRANCH   4  13
HETATM   13  O   UNL     1      -9.384  19.275  63.482  1.00  0.00    10.875 OA 
HETATM   14  C   UNL     1      -8.336  20.248  63.605  1.00  0.00     5.541 C  
ENDBRANCH   4  13
BRANCH  11  15
HETATM   15  C   UNL     1     -11.251  16.007  69.429  1.00  0.00    -0.349 C  
BRANCH  15  16
HETATM   16  C   UNL     1     -10.519  14.660  69.326  1.00  0.00    -0.218 C  
HETATM   17  C   UNL     1     -11.233  13.579  70.123  1.00  0.00     0.187 C  
HETATM   18  C   UNL     1     -12.532  13.166  69.441  1.00  0.00     0.170 C  
HETATM   19  N   UNL     1     -12.280  12.523  68.151  1.00  0.00    -0.207 NA 
HETATM   20  C   UNL     1     -11.562  13.442  67.258  1.00  0.00    -0.360 C  
HETATM   21  C   UNL     1     -10.349  14.174  67.863  1.00  0.00    -0.234 C  
BRANCH  19  22
HETATM   22  C   UNL     1     -11.630  11.205  68.296  1.00  0.00    -0.289 C  
BRANCH  22  23
HETATM   23  C   UNL     1     -10.245  11.182  67.664  1.00  0.00    -0.208 A  
HETATM   24  C   UNL     1     -10.010  11.881  66.471  1.00  0.00    -0.225 A  
HETATM   25  C   UNL     1      -8.784  11.775  65.813  1.00  0.00     0.132 A  
HETATM   26  C   UNL     1      -7.775  10.971  66.339  1.00  0.00    -0.146 A  
HETATM   27  C   UNL     1      -7.991  10.273  67.527  1.00  0.00    -0.106 A  
HETATM   28  C   UNL     1      -9.217  10.379  68.189  1.00  0.00    -0.145 A  
ENDBRANCH  22  23
ENDBRANCH  19  22
ENDBRANCH  15  16
ENDBRANCH  11  15
ENDBRANCH   2   3
TORSDOF 6
ENDMDL
MODEL      202
REMARK 921   NORMALIZED FREE ENERGY PREDICTED BY IDOCK:   49.36 KCAL/MOL
REMARK 922        TOTAL FREE ENERGY PREDICTED BY IDOCK:   65.94 KCAL/MOL
REMARK 923 INTER-LIGAND FREE ENERGY PREDICTED BY IDOCK:   55.92 KCAL/MOL
REMARK 924 INTRA-LIGAND FREE ENERGY PREDICTED BY IDOCK:   10.02 KCAL/MOL
REMARK 927      BINDING AFFINITY PREDICTED BY RF-SCORE:    0.00 PKD
ROOT
HETATM    1  C   UNL     1     -11.892  21.379  63.016  1.00  0.00     6.485 C  
HETATM    2  O   UNL     1     -11.984  19.975  63.210  1.00  0.00     7.318 OA 
ENDROOT
BRANCH   2   3
HETATM    3  C   UNL     1     -11.626  19.475  64.435  1.00  0.00     4.803 A  
HETATM    4  C   UNL     1     -10.234  19.255  64.620  1.00  0.00     3.531 A  
HETATM    5  C   UNL     1      -9.713  18.941  65.869  1.00  0.00    -0.023 A  
HETATM    6  C   UNL     1     -12.527  19.115  65.454  1.00  0.00     8.212 A  
HETATM    7  C   UNL     1     -12.004  18.551  66.606  1.00  0.00     3.192 A  
HETATM    8  C   UNL     1     -10.630  18.602  66.829  1.00  0.00    -0.422 A  
HETATM    9  C   UNL     1     -10.349  17.867  68.037  1.00  0.00    -0.387 C  
HETATM   10  O   UNL     1      -9.359  18.028  68.739  1.00  0.00    -0.297 OA 
HETATM   11  C   UNL     1     -11.467  16.878  68.184  1.00  0.00     0.211 C  
HETATM   12  C   UNL     1     -12.673  17.742  67.699  1.00  0.00     5.566 C  
BRANCH   4  13
HETATM   13  O   UNL     1      -9.408  19.249  63.516  1.00  0.00    10.875 OA 
HETATM   14  C   UNL     1      -8.351  20.212  63.647  1.00  0.00     6.092 C  
ENDBRANCH   4  13
BRANCH  11  15
HETATM   15  C   UNL     1     -11.376  16.030  69.457  1.00  0.00    -0.344 C  
BRANCH  15  16
HETATM   16  C   UNL     1     -10.656  14.675  69.368  1.00  0.00    -0.209 C  
HETATM   17  C   UNL     1     -10.788  14.069  67.979  1.00  0.00    -0.257 C  
HETATM   18  C   UNL     1      -9.935  14.827  66.969  1.00  0.00    -0.238 C  
HETATM   19  N   UNL     1      -8.507  14.691  67.263  1.00  0.00    -0.203 NA 
HETATM   20  C   UNL     1      -8.213  15.217  68.603  1.00  0.00    -0.159 C  
HETATM   21  C   UNL     1      -9.152  14.763  69.736  1.00  0.00     0.318 C  
BRANCH  19  22
HETATM   22  C   UNL     1      -8.015  13.317  67.043  1.00  0.00     0.029 C  
BRANCH  22  23
HETATM   23  C   UNL     1      -8.534  12.351  68.099  1.00  0.00    -0.180 A  
HETATM   24  C   UNL     1      -9.731  12.631  68.774  1.00  0.00     0.051 A  
HETATM   25  C   UNL     1     -10.162  11.822  69.826  1.00  0.00     0.912 A  
HETATM   26  C   UNL     1      -9.402  10.722  70.218  1.00  0.00     1.310 A  
HETATM   27  C   UNL     1      -8.212  10.426  69.554  1.00  0.00    -0.137 A  
HETATM   28  C   UNL     1      -7.780  11.233  68.498  1.00  0.00    -0.131 A  
ENDBRANCH  22  23
ENDBRANCH  19  22
ENDBRANCH  15  16
ENDBRANCH  11  15
ENDBRANCH   2   3
TORSDOF 6
ENDMDL
