MODEL        1
REMARK 921   NORMALIZED FREE ENERGY PREDICTED BY IDOCK:   -5.44 KCAL/MOL
REMARK 922        TOTAL FREE ENERGY PREDICTED BY IDOCK:   -6.14 KCAL/MOL
REMARK 923 INTER-LIGAND FREE ENERGY PREDICTED BY IDOCK:   -6.08 KCAL/MOL
REMARK 924 INTRA-LIGAND FREE ENERGY PREDICTED BY IDOCK:   -0.06 KCAL/MOL
REMARK 927      BINDING AFFINITY PREDICTED BY RF-SCORE:    0.00 PKD
ROOT
HETATM    1  N   UNL     1     -11.660  10.089  68.097  1.00  0.00    -0.636 NA 
HETATM    2  H2  UNL     1     -12.675  10.122  68.196  1.00  0.00     0.000 HD 
HETATM    3  C   UNL     1     -11.167  11.159  67.231  1.00  0.00    -0.277 C  
HETATM    4  H1  UNL     1     -11.342   9.178  67.765  1.00  0.00     0.000 HD 
ENDROOT
BRANCH   3   5
HETATM    5  C   UNL     1     -11.643  12.526  67.729  1.00  0.00    -0.401 C  
BRANCH   5   6
HETATM    6  C   UNL     1     -11.616  13.579  66.647  1.00  0.00    -0.396 A  
HETATM    7  C   UNL     1     -12.126  13.298  65.369  1.00  0.00    -0.464 A  
HETATM    8  C   UNL     1     -12.060  14.268  64.374  1.00  0.00    -0.468 A  
HETATM    9  O   UNL     1     -12.527  14.038  63.108  1.00  0.00    -1.137 OA 
HETATM   10  C   UNL     1     -11.504  15.515  64.642  1.00  0.00    -0.324 A  
HETATM   11  H   UNL     1     -12.482  14.701  62.429  1.00  0.00     0.000 HD 
HETATM   12  C   UNL     1     -11.017  15.819  65.903  1.00  0.00    -0.191 A  
HETATM   13  O   UNL     1     -11.426  16.453  63.652  1.00  0.00    -1.446 OA 
HETATM   14  H   UNL     1     -11.046  17.305  63.835  1.00  0.00     0.000 HD 
HETATM   15  C   UNL     1     -11.075  14.851  66.908  1.00  0.00    -0.337 A  
ENDBRANCH   5   6
ENDBRANCH   3   5
TORSDOF 2
ENDMDL
MODEL        2
REMARK 921   NORMALIZED FREE ENERGY PREDICTED BY IDOCK:   -5.33 KCAL/MOL
REMARK 922        TOTAL FREE ENERGY PREDICTED BY IDOCK:   -6.02 KCAL/MOL
REMARK 923 INTER-LIGAND FREE ENERGY PREDICTED BY IDOCK:   -5.94 KCAL/MOL
REMARK 924 INTRA-LIGAND FREE ENERGY PREDICTED BY IDOCK:   -0.09 KCAL/MOL
REMARK 927      BINDING AFFINITY PREDICTED BY RF-SCORE:    0.00 PKD
ROOT
HETATM    1  N   UNL     1     -11.670  12.579  70.023  1.00  0.00    -0.514 NA 
HETATM    2  H2  UNL     1     -10.791  12.722  70.522  1.00  0.00     0.000 HD 
HETATM    3  C   UNL     1     -12.068  13.772  69.276  1.00  0.00    -0.329 C  
HETATM    4  H1  UNL     1     -12.416  12.278  70.650  1.00  0.00     0.000 HD 
ENDROOT
BRANCH   3   5
HETATM    5  C   UNL     1     -10.948  14.222  68.334  1.00  0.00    -0.267 C  
BRANCH   5   6
HETATM    6  C   UNL     1     -11.347  14.142  66.880  1.00  0.00    -0.343 A  
HETATM    7  C   UNL     1     -11.201  15.259  66.040  1.00  0.00    -0.231 A  
HETATM    8  C   UNL     1     -11.607  15.178  64.712  1.00  0.00    -0.364 A  
HETATM    9  O   UNL     1     -11.502  16.242  63.858  1.00  0.00    -1.484 OA 
HETATM   10  C   UNL     1     -12.144  13.997  64.210  1.00  0.00    -0.445 A  
HETATM   11  H   UNL     1     -11.779  16.187  62.950  1.00  0.00     0.000 HD 
HETATM   12  C   UNL     1     -12.275  12.877  65.017  1.00  0.00    -0.515 A  
HETATM   13  O   UNL     1     -12.559  13.934  62.910  1.00  0.00    -0.966 OA 
HETATM   14  H   UNL     1     -12.926  13.128  62.568  1.00  0.00     0.000 HD 
HETATM   15  C   UNL     1     -11.874  12.949  66.353  1.00  0.00    -0.478 A  
ENDBRANCH   5   6
ENDBRANCH   3   5
TORSDOF 2
ENDMDL
MODEL        3
REMARK 921   NORMALIZED FREE ENERGY PREDICTED BY IDOCK:   -5.25 KCAL/MOL
REMARK 922        TOTAL FREE ENERGY PREDICTED BY IDOCK:   -5.93 KCAL/MOL
REMARK 923 INTER-LIGAND FREE ENERGY PREDICTED BY IDOCK:   -5.85 KCAL/MOL
REMARK 924 INTRA-LIGAND FREE ENERGY PREDICTED BY IDOCK:   -0.08 KCAL/MOL
REMARK 927      BINDING AFFINITY PREDICTED BY RF-SCORE:    0.00 PKD
ROOT
HETATM    1  N   UNL     1     -11.616  16.447  63.861  1.00  0.00    -1.602 NA 
HETATM    2  H2  UNL     1     -12.633  16.472  63.941  1.00  0.00     0.000 HD 
HETATM    3  C   UNL     1     -11.007  15.690  64.954  1.00  0.00    -0.431 C  
HETATM    4  H1  UNL     1     -11.218  17.385  63.803  1.00  0.00     0.000 HD 
ENDROOT
BRANCH   3   5
HETATM    5  C   UNL     1     -11.604  14.283  65.041  1.00  0.00    -0.367 C  
BRANCH   5   6
HETATM    6  C   UNL     1     -11.620  13.746  66.452  1.00  0.00    -0.380 A  
HETATM    7  C   UNL     1     -11.724  12.365  66.686  1.00  0.00    -0.438 A  
HETATM    8  C   UNL     1     -11.773  11.891  67.993  1.00  0.00    -0.312 A  
HETATM    9  O   UNL     1     -11.893  10.557  68.275  1.00  0.00    -0.751 OA 
HETATM   10  C   UNL     1     -11.707  12.775  69.066  1.00  0.00    -0.323 A  
HETATM   11  H   UNL     1     -11.926  10.234  69.168  1.00  0.00     0.000 HD 
HETATM   12  C   UNL     1     -11.580  14.139  68.855  1.00  0.00    -0.345 A  
HETATM   13  O   UNL     1     -11.777  12.301  70.345  1.00  0.00    -0.526 OA 
HETATM   14  H   UNL     1     -11.732  12.905  71.077  1.00  0.00     0.000 HD 
HETATM   15  C   UNL     1     -11.533  14.625  67.547  1.00  0.00    -0.378 A  
ENDBRANCH   5   6
ENDBRANCH   3   5
TORSDOF 2
ENDMDL
MODEL        4
REMARK 921   NORMALIZED FREE ENERGY PREDICTED BY IDOCK:   -5.16 KCAL/MOL
REMARK 922        TOTAL FREE ENERGY PREDICTED BY IDOCK:   -5.83 KCAL/MOL
REMARK 923 INTER-LIGAND FREE ENERGY PREDICTED BY IDOCK:   -5.75 KCAL/MOL
REMARK 924 INTRA-LIGAND FREE ENERGY PREDICTED BY IDOCK:   -0.08 KCAL/MOL
REMARK 927      BINDING AFFINITY PREDICTED BY RF-SCORE:    0.00 PKD
ROOT
HETATM    1  N   UNL     1     -11.637  16.369  63.869  1.00  0.00    -1.602 NA 
HETATM    2  H2  UNL     1     -12.562  16.704  64.137  1.00  0.00     0.000 HD 
HETATM    3  C   UNL     1     -11.039  15.537  64.913  1.00  0.00    -0.416 C  
HETATM    4  H1  UNL     1     -11.014  17.138  63.618  1.00  0.00     0.000 HD 
ENDROOT
BRANCH   3   5
HETATM    5  C   UNL     1     -11.973  14.383  65.289  1.00  0.00    -0.382 C  
BRANCH   5   6
HETATM    6  C   UNL     1     -11.310  13.033  65.150  1.00  0.00    -0.320 A  
HETATM    7  C   UNL     1     -11.049  12.498  63.877  1.00  0.00    -0.476 A  
HETATM    8  C   UNL     1     -10.470  11.238  63.767  1.00  0.00    -0.399 A  
HETATM    9  O   UNL     1     -10.212  10.664  62.551  1.00  0.00    -0.758 OA 
HETATM   10  C   UNL     1     -10.139  10.513  64.908  1.00  0.00    -0.333 A  
HETATM   11  H   UNL     1      -9.816   9.803  62.477  1.00  0.00     0.000 HD 
HETATM   12  C   UNL     1     -10.367  11.034  66.172  1.00  0.00    -0.306 A  
HETATM   13  O   UNL     1      -9.590   9.267  64.789  1.00  0.00    -0.432 OA 
HETATM   14  H   UNL     1      -9.364   8.772  65.567  1.00  0.00     0.000 HD 
HETATM   15  C   UNL     1     -10.951  12.297  66.293  1.00  0.00    -0.327 A  
ENDBRANCH   5   6
ENDBRANCH   3   5
TORSDOF 2
ENDMDL
MODEL        5
REMARK 921   NORMALIZED FREE ENERGY PREDICTED BY IDOCK:   -5.06 KCAL/MOL
REMARK 922        TOTAL FREE ENERGY PREDICTED BY IDOCK:   -5.71 KCAL/MOL
REMARK 923 INTER-LIGAND FREE ENERGY PREDICTED BY IDOCK:   -6.06 KCAL/MOL
REMARK 924 INTRA-LIGAND FREE ENERGY PREDICTED BY IDOCK:    0.35 KCAL/MOL
REMARK 927      BINDING AFFINITY PREDICTED BY RF-SCORE:    0.00 PKD
ROOT
HETATM    1  N   UNL     1     -12.513  13.988  69.269  1.00  0.00    -0.453 NA 
HETATM    2  H2  UNL     1     -13.421  13.620  68.986  1.00  0.00     0.000 HD 
HETATM    3  C   UNL     1     -11.459  12.980  69.154  1.00  0.00    -0.299 C  
HETATM    4  H1  UNL     1     -12.540  14.377  70.212  1.00  0.00     0.000 HD 
ENDROOT
BRANCH   3   5
HETATM    5  C   UNL     1     -11.418  12.396  67.739  1.00  0.00    -0.383 C  
BRANCH   5   6
HETATM    6  C   UNL     1     -11.454  13.464  66.671  1.00  0.00    -0.376 A  
HETATM    7  C   UNL     1     -12.067  13.210  65.433  1.00  0.00    -0.478 A  
HETATM    8  C   UNL     1     -12.059  14.193  64.449  1.00  0.00    -0.463 A  
HETATM    9  O   UNL     1     -12.627  13.990  63.220  1.00  0.00    -1.073 OA 
HETATM   10  C   UNL     1     -11.460  15.426  64.688  1.00  0.00    -0.337 A  
HETATM   11  H   UNL     1     -12.622  14.662  62.547  1.00  0.00     0.000 HD 
HETATM   12  C   UNL     1     -10.871  15.704  65.912  1.00  0.00    -0.297 A  
HETATM   13  O   UNL     1     -11.440  16.377  63.707  1.00  0.00    -1.590 OA 
HETATM   14  H   UNL     1     -11.031  17.218  63.871  1.00  0.00     0.000 HD 
HETATM   15  C   UNL     1     -10.870  14.722  66.906  1.00  0.00    -0.316 A  
ENDBRANCH   5   6
ENDBRANCH   3   5
TORSDOF 2
ENDMDL
MODEL        6
REMARK 921   NORMALIZED FREE ENERGY PREDICTED BY IDOCK:   -5.02 KCAL/MOL
REMARK 922        TOTAL FREE ENERGY PREDICTED BY IDOCK:   -5.67 KCAL/MOL
REMARK 923 INTER-LIGAND FREE ENERGY PREDICTED BY IDOCK:   -5.62 KCAL/MOL
REMARK 924 INTRA-LIGAND FREE ENERGY PREDICTED BY IDOCK:   -0.06 KCAL/MOL
REMARK 927      BINDING AFFINITY PREDICTED BY RF-SCORE:    0.00 PKD
ROOT
HETATM    1  N   UNL     1      -8.264  14.421  69.437  1.00  0.00    -0.362 NA 
HETATM    2  H2  UNL     1      -8.363  13.425  69.239  1.00  0.00     0.000 HD 
HETATM    3  C   UNL     1      -9.017  15.239  68.487  1.00  0.00    -0.187 C  
HETATM    4  H1  UNL     1      -7.284  14.705  69.463  1.00  0.00     0.000 HD 
ENDROOT
BRANCH   3   5
HETATM    5  C   UNL     1     -10.487  14.814  68.450  1.00  0.00    -0.243 C  
BRANCH   5   6
HETATM    6  C   UNL     1     -10.997  14.616  67.042  1.00  0.00    -0.317 A  
HETATM    7  C   UNL     1     -10.913  15.659  66.103  1.00  0.00    -0.206 A  
HETATM    8  C   UNL     1     -11.420  15.471  64.822  1.00  0.00    -0.313 A  
HETATM    9  O   UNL     1     -11.380  16.460  63.876  1.00  0.00    -1.510 OA 
HETATM   10  C   UNL     1     -11.997  14.256  64.463  1.00  0.00    -0.462 A  
HETATM   11  H   UNL     1     -11.726  16.331  63.000  1.00  0.00     0.000 HD 
HETATM   12  C   UNL     1     -12.067  13.208  65.367  1.00  0.00    -0.478 A  
HETATM   13  O   UNL     1     -12.510  14.090  63.208  1.00  0.00    -1.139 OA 
HETATM   14  H   UNL     1     -12.904  13.260  62.963  1.00  0.00     0.000 HD 
HETATM   15  C   UNL     1     -11.564  13.388  66.658  1.00  0.00    -0.399 A  
ENDBRANCH   5   6
ENDBRANCH   3   5
TORSDOF 2
ENDMDL
MODEL        7
REMARK 921   NORMALIZED FREE ENERGY PREDICTED BY IDOCK:   -5.01 KCAL/MOL
REMARK 922        TOTAL FREE ENERGY PREDICTED BY IDOCK:   -5.66 KCAL/MOL
REMARK 923 INTER-LIGAND FREE ENERGY PREDICTED BY IDOCK:   -5.60 KCAL/MOL
REMARK 924 INTRA-LIGAND FREE ENERGY PREDICTED BY IDOCK:   -0.06 KCAL/MOL
REMARK 927      BINDING AFFINITY PREDICTED BY RF-SCORE:    0.00 PKD
ROOT
HETATM    1  N   UNL     1     -12.294  10.658  68.891  1.00  0.00    -0.790 NA 
HETATM    2  H2  UNL     1     -11.666   9.860  68.793  1.00  0.00     0.000 HD 
HETATM    3  C   UNL     1     -11.728  11.868  68.295  1.00  0.00    -0.321 C  
HETATM    4  H1  UNL     1     -12.549  10.819  69.866  1.00  0.00     0.000 HD 
ENDROOT
BRANCH   3   5
HETATM    5  C   UNL     1     -11.346  11.626  66.833  1.00  0.00    -0.364 C  
BRANCH   5   6
HETATM    6  C   UNL     1     -11.399  12.887  66.004  1.00  0.00    -0.354 A  
HETATM    7  C   UNL     1     -10.781  14.064  66.460  1.00  0.00    -0.281 A  
HETATM    8  C   UNL     1     -10.870  15.225  65.700  1.00  0.00    -0.363 A  
HETATM    9  O   UNL     1     -10.301  16.401  66.108  1.00  0.00    -0.321 OA 
HETATM   10  C   UNL     1     -11.555  15.224  64.489  1.00  0.00    -0.312 A  
HETATM   11  H   UNL     1     -10.362  17.195  65.588  1.00  0.00     0.000 HD 
HETATM   12  C   UNL     1     -12.151  14.067  64.011  1.00  0.00    -0.413 A  
HETATM   13  O   UNL     1     -11.654  16.375  63.760  1.00  0.00    -1.605 OA 
HETATM   14  H   UNL     1     -12.123  16.374  62.933  1.00  0.00     0.000 HD 
HETATM   15  C   UNL     1     -12.071  12.896  64.768  1.00  0.00    -0.474 A  
ENDBRANCH   5   6
ENDBRANCH   3   5
TORSDOF 2
ENDMDL
MODEL        8
REMARK 921   NORMALIZED FREE ENERGY PREDICTED BY IDOCK:   -5.00 KCAL/MOL
REMARK 922        TOTAL FREE ENERGY PREDICTED BY IDOCK:   -5.65 KCAL/MOL
REMARK 923 INTER-LIGAND FREE ENERGY PREDICTED BY IDOCK:   -5.67 KCAL/MOL
REMARK 924 INTRA-LIGAND FREE ENERGY PREDICTED BY IDOCK:    0.01 KCAL/MOL
REMARK 927      BINDING AFFINITY PREDICTED BY RF-SCORE:    0.00 PKD
ROOT
HETATM    1  N   UNL     1     -11.301  11.352  63.290  1.00  0.00    -0.848 NA 
HETATM    2  H2  UNL     1     -11.415  12.328  63.014  1.00  0.00     0.000 HD 
HETATM    3  C   UNL     1     -10.676  11.233  64.608  1.00  0.00    -0.303 C  
HETATM    4  H1  UNL     1     -10.780  10.820  62.593  1.00  0.00     0.000 HD 
ENDROOT
BRANCH   3   5
HETATM    5  C   UNL     1     -11.458  12.031  65.654  1.00  0.00    -0.372 C  
BRANCH   5   6
HETATM    6  C   UNL     1     -11.054  13.486  65.695  1.00  0.00    -0.299 A  
HETATM    7  C   UNL     1     -11.568  14.392  64.752  1.00  0.00    -0.410 A  
HETATM    8  C   UNL     1     -11.157  15.721  64.782  1.00  0.00    -0.400 A  
HETATM    9  O   UNL     1     -11.613  16.639  63.876  1.00  0.00    -1.582 OA 
HETATM   10  C   UNL     1     -10.253  16.157  65.746  1.00  0.00    -0.374 A  
HETATM   11  H   UNL     1     -11.333  17.547  63.897  1.00  0.00     0.000 HD 
HETATM   12  C   UNL     1      -9.753  15.283  66.699  1.00  0.00    -0.268 A  
HETATM   13  O   UNL     1      -9.840  17.459  65.754  1.00  0.00    -0.536 OA 
HETATM   14  H   UNL     1      -9.223  17.757  66.411  1.00  0.00     0.000 HD 
HETATM   15  C   UNL     1     -10.156  13.946  66.675  1.00  0.00    -0.273 A  
ENDBRANCH   5   6
ENDBRANCH   3   5
TORSDOF 2
ENDMDL
MODEL        9
REMARK 921   NORMALIZED FREE ENERGY PREDICTED BY IDOCK:   -4.97 KCAL/MOL
REMARK 922        TOTAL FREE ENERGY PREDICTED BY IDOCK:   -5.62 KCAL/MOL
REMARK 923 INTER-LIGAND FREE ENERGY PREDICTED BY IDOCK:   -5.55 KCAL/MOL
REMARK 924 INTRA-LIGAND FREE ENERGY PREDICTED BY IDOCK:   -0.07 KCAL/MOL
REMARK 927      BINDING AFFINITY PREDICTED BY RF-SCORE:    0.00 PKD
ROOT
HETATM    1  N   UNL     1     -11.819  10.551  68.139  1.00  0.00    -0.774 NA 
HETATM    2  H2  UNL     1     -11.084  10.126  67.573  1.00  0.00     0.000 HD 
HETATM    3  C   UNL     1     -11.816  12.010  68.022  1.00  0.00    -0.269 C  
HETATM    4  H1  UNL     1     -11.756  10.266  69.116  1.00  0.00     0.000 HD 
ENDROOT
BRANCH   3   5
HETATM    5  C   UNL     1     -11.911  12.438  66.555  1.00  0.00    -0.407 C  
BRANCH   5   6
HETATM    6  C   UNL     1     -11.376  13.831  66.322  1.00  0.00    -0.329 A  
HETATM    7  C   UNL     1     -11.665  14.513  65.128  1.00  0.00    -0.376 A  
HETATM    8  C   UNL     1     -11.135  15.781  64.916  1.00  0.00    -0.399 A  
HETATM    9  O   UNL     1     -11.371  16.480  63.763  1.00  0.00    -1.553 OA 
HETATM   10  C   UNL     1     -10.334  16.381  65.883  1.00  0.00    -0.362 A  
HETATM   11  H   UNL     1     -11.009  17.346  63.618  1.00  0.00     0.000 HD 
HETATM   12  C   UNL     1     -10.058  15.734  67.077  1.00  0.00    -0.261 A  
HETATM   13  O   UNL     1      -9.802  17.618  65.656  1.00  0.00    -0.536 OA 
HETATM   14  H   UNL     1      -9.254  18.027  66.316  1.00  0.00     0.000 HD 
HETATM   15  C   UNL     1     -10.581  14.458  67.298  1.00  0.00    -0.279 A  
ENDBRANCH   5   6
ENDBRANCH   3   5
TORSDOF 2
ENDMDL
MODEL       10
REMARK 921   NORMALIZED FREE ENERGY PREDICTED BY IDOCK:   -4.95 KCAL/MOL
REMARK 922        TOTAL FREE ENERGY PREDICTED BY IDOCK:   -5.59 KCAL/MOL
REMARK 923 INTER-LIGAND FREE ENERGY PREDICTED BY IDOCK:   -5.50 KCAL/MOL
REMARK 924 INTRA-LIGAND FREE ENERGY PREDICTED BY IDOCK:   -0.10 KCAL/MOL
REMARK 927      BINDING AFFINITY PREDICTED BY RF-SCORE:    0.00 PKD
ROOT
HETATM    1  N   UNL     1      -7.766  11.197  65.631  1.00  0.00    -0.367 NA 
HETATM    2  H2  UNL     1      -7.272  11.248  66.522  1.00  0.00     0.000 HD 
HETATM    3  C   UNL     1      -9.195  10.943  65.819  1.00  0.00    -0.201 C  
HETATM    4  H1  UNL     1      -7.354  10.502  65.008  1.00  0.00     0.000 HD 
ENDROOT
BRANCH   3   5
HETATM    5  C   UNL     1      -9.814  11.986  66.752  1.00  0.00    -0.218 C  
BRANCH   5   6
HETATM    6  C   UNL     1     -10.310  13.205  66.011  1.00  0.00    -0.292 A  
HETATM    7  C   UNL     1     -11.174  13.065  64.912  1.00  0.00    -0.329 A  
HETATM    8  C   UNL     1     -11.592  14.197  64.219  1.00  0.00    -0.309 A  
HETATM    9  O   UNL     1     -12.419  14.113  63.131  1.00  0.00    -1.126 OA 
HETATM   10  C   UNL     1     -11.170  15.462  64.615  1.00  0.00    -0.364 A  
HETATM   11  H   UNL     1     -12.705  14.886  62.658  1.00  0.00     0.000 HD 
HETATM   12  C   UNL     1     -10.337  15.622  65.711  1.00  0.00    -0.386 A  
HETATM   13  O   UNL     1     -11.571  16.564  63.915  1.00  0.00    -1.598 OA 
HETATM   14  H   UNL     1     -11.282  17.428  64.185  1.00  0.00     0.000 HD 
HETATM   15  C   UNL     1      -9.908  14.492  66.412  1.00  0.00    -0.306 A  
ENDBRANCH   5   6
ENDBRANCH   3   5
TORSDOF 2
ENDMDL
MODEL       11
REMARK 921   NORMALIZED FREE ENERGY PREDICTED BY IDOCK:   -4.93 KCAL/MOL
REMARK 922        TOTAL FREE ENERGY PREDICTED BY IDOCK:   -5.57 KCAL/MOL
REMARK 923 INTER-LIGAND FREE ENERGY PREDICTED BY IDOCK:   -5.51 KCAL/MOL
REMARK 924 INTRA-LIGAND FREE ENERGY PREDICTED BY IDOCK:   -0.07 KCAL/MOL
REMARK 927      BINDING AFFINITY PREDICTED BY RF-SCORE:    0.00 PKD
ROOT
HETATM    1  N   UNL     1     -12.717  16.147  74.292  1.00  0.00    -0.898 NA 
HETATM    2  H2  UNL     1     -13.319  15.443  74.719  1.00  0.00     0.000 HD 
HETATM    3  C   UNL     1     -12.123  15.667  73.045  1.00  0.00    -0.481 C  
HETATM    4  H1  UNL     1     -11.995  16.468  74.937  1.00  0.00     0.000 HD 
ENDROOT
BRANCH   3   5
HETATM    5  C   UNL     1     -13.207  15.186  72.077  1.00  0.00    -0.472 C  
BRANCH   5   6
HETATM    6  C   UNL     1     -12.945  13.791  71.560  1.00  0.00    -0.444 A  
HETATM    7  C   UNL     1     -13.428  12.672  72.259  1.00  0.00    -0.541 A  
HETATM    8  C   UNL     1     -13.147  11.394  71.788  1.00  0.00    -0.418 A  
HETATM    9  O   UNL     1     -13.578  10.271  72.441  1.00  0.00    -0.611 OA 
HETATM   10  C   UNL     1     -12.402  11.220  70.626  1.00  0.00    -0.383 A  
HETATM   11  H   UNL     1     -13.386   9.398  72.119  1.00  0.00     0.000 HD 
HETATM   12  C   UNL     1     -11.937  12.311  69.910  1.00  0.00    -0.377 A  
HETATM   13  O   UNL     1     -12.114   9.960  70.183  1.00  0.00    -0.449 OA 
HETATM   14  H   UNL     1     -11.605   9.841  69.390  1.00  0.00     0.000 HD 
HETATM   15  C   UNL     1     -12.211  13.599  70.376  1.00  0.00    -0.434 A  
ENDBRANCH   5   6
ENDBRANCH   3   5
TORSDOF 2
ENDMDL
MODEL       12
REMARK 921   NORMALIZED FREE ENERGY PREDICTED BY IDOCK:   -4.93 KCAL/MOL
REMARK 922        TOTAL FREE ENERGY PREDICTED BY IDOCK:   -5.57 KCAL/MOL
REMARK 923 INTER-LIGAND FREE ENERGY PREDICTED BY IDOCK:   -5.48 KCAL/MOL
REMARK 924 INTRA-LIGAND FREE ENERGY PREDICTED BY IDOCK:   -0.08 KCAL/MOL
REMARK 927      BINDING AFFINITY PREDICTED BY RF-SCORE:    0.00 PKD
ROOT
HETATM    1  N   UNL     1     -11.619  16.264  63.894  1.00  0.00    -1.573 NA 
HETATM    2  H2  UNL     1     -12.613  16.266  64.121  1.00  0.00     0.000 HD 
HETATM    3  C   UNL     1     -10.845  15.479  64.857  1.00  0.00    -0.427 C  
HETATM    4  H1  UNL     1     -11.247  17.211  63.818  1.00  0.00     0.000 HD 
ENDROOT
BRANCH   3   5
HETATM    5  C   UNL     1     -11.402  14.058  64.972  1.00  0.00    -0.342 C  
BRANCH   5   6
HETATM    6  C   UNL     1     -11.557  13.611  66.406  1.00  0.00    -0.375 A  
HETATM    7  C   UNL     1     -11.949  14.526  67.397  1.00  0.00    -0.367 A  
HETATM    8  C   UNL     1     -12.052  14.105  68.719  1.00  0.00    -0.291 A  
HETATM    9  O   UNL     1     -12.412  14.961  69.725  1.00  0.00    -0.501 OA 
HETATM   10  C   UNL     1     -11.783  12.783  69.060  1.00  0.00    -0.323 A  
HETATM   11  H   UNL     1     -12.483  14.673  70.627  1.00  0.00     0.000 HD 
HETATM   12  C   UNL     1     -11.418  11.860  68.093  1.00  0.00    -0.384 A  
HETATM   13  O   UNL     1     -11.867  12.385  70.364  1.00  0.00    -0.505 OA 
HETATM   14  H   UNL     1     -11.683  11.482  70.597  1.00  0.00     0.000 HD 
HETATM   15  C   UNL     1     -11.308  12.273  66.763  1.00  0.00    -0.395 A  
ENDBRANCH   5   6
ENDBRANCH   3   5
TORSDOF 2
ENDMDL
MODEL       13
REMARK 921   NORMALIZED FREE ENERGY PREDICTED BY IDOCK:   -4.89 KCAL/MOL
REMARK 922        TOTAL FREE ENERGY PREDICTED BY IDOCK:   -5.53 KCAL/MOL
REMARK 923 INTER-LIGAND FREE ENERGY PREDICTED BY IDOCK:   -5.46 KCAL/MOL
REMARK 924 INTRA-LIGAND FREE ENERGY PREDICTED BY IDOCK:   -0.07 KCAL/MOL
REMARK 927      BINDING AFFINITY PREDICTED BY RF-SCORE:    0.00 PKD
ROOT
HETATM    1  N   UNL     1     -10.881   8.221  67.222  1.00  0.00    -0.474 NA 
HETATM    2  H2  UNL     1     -11.860   8.499  67.296  1.00  0.00     0.000 HD 
HETATM    3  C   UNL     1     -10.109   9.169  66.419  1.00  0.00    -0.274 C  
HETATM    4  H1  UNL     1     -10.784   7.273  66.856  1.00  0.00     0.000 HD 
ENDROOT
BRANCH   3   5
HETATM    5  C   UNL     1     -10.255  10.591  66.968  1.00  0.00    -0.275 C  
BRANCH   5   6
HETATM    6  C   UNL     1     -10.840  11.546  65.954  1.00  0.00    -0.316 A  
HETATM    7  C   UNL     1     -11.873  12.425  66.320  1.00  0.00    -0.431 A  
HETATM    8  C   UNL     1     -12.424  13.272  65.365  1.00  0.00    -0.489 A  
HETATM    9  O   UNL     1     -13.444  14.134  65.665  1.00  0.00    -0.725 OA 
HETATM   10  C   UNL     1     -11.951  13.262  64.056  1.00  0.00    -0.465 A  
HETATM   11  H   UNL     1     -13.820  14.714  65.012  1.00  0.00     0.000 HD 
HETATM   12  C   UNL     1     -10.916  12.419  63.682  1.00  0.00    -0.525 A  
HETATM   13  O   UNL     1     -12.513  14.084  63.121  1.00  0.00    -1.137 OA 
HETATM   14  H   UNL     1     -12.190  14.076  62.228  1.00  0.00     0.000 HD 
HETATM   15  C   UNL     1     -10.358  11.561  64.633  1.00  0.00    -0.349 A  
ENDBRANCH   5   6
ENDBRANCH   3   5
TORSDOF 2
ENDMDL
MODEL       14
REMARK 921   NORMALIZED FREE ENERGY PREDICTED BY IDOCK:   -4.89 KCAL/MOL
REMARK 922        TOTAL FREE ENERGY PREDICTED BY IDOCK:   -5.53 KCAL/MOL
REMARK 923 INTER-LIGAND FREE ENERGY PREDICTED BY IDOCK:   -5.50 KCAL/MOL
REMARK 924 INTRA-LIGAND FREE ENERGY PREDICTED BY IDOCK:   -0.03 KCAL/MOL
REMARK 927      BINDING AFFINITY PREDICTED BY RF-SCORE:    0.00 PKD
ROOT
HETATM    1  N   UNL     1     -14.358   8.841  72.911  1.00  0.00    -1.104 NA 
HETATM    2  H2  UNL     1     -14.452   9.728  73.406  1.00  0.00     0.000 HD 
HETATM    3  C   UNL     1     -13.767   9.022  71.585  1.00  0.00    -0.387 C  
HETATM    4  H1  UNL     1     -15.249   8.347  72.846  1.00  0.00     0.000 HD 
ENDROOT
BRANCH   3   5
HETATM    5  C   UNL     1     -12.430   9.762  71.682  1.00  0.00    -0.500 C  
BRANCH   5   6
HETATM    6  C   UNL     1     -12.558  11.232  71.363  1.00  0.00    -0.456 A  
HETATM    7  C   UNL     1     -13.318  12.075  72.191  1.00  0.00    -0.396 A  
HETATM    8  C   UNL     1     -13.454  13.420  71.863  1.00  0.00    -0.441 A  
HETATM    9  O   UNL     1     -14.198  14.279  72.626  1.00  0.00    -0.567 OA 
HETATM   10  C   UNL     1     -12.833  13.935  70.729  1.00  0.00    -0.259 A  
HETATM   11  H   UNL     1     -14.291  15.198  72.402  1.00  0.00     0.000 HD 
HETATM   12  C   UNL     1     -12.059  13.125  69.913  1.00  0.00    -0.357 A  
HETATM   13  O   UNL     1     -12.989  15.253  70.405  1.00  0.00    -0.601 OA 
HETATM   14  H   UNL     1     -12.565  15.604  69.631  1.00  0.00     0.000 HD 
HETATM   15  C   UNL     1     -11.919  11.772  70.232  1.00  0.00    -0.429 A  
ENDBRANCH   5   6
ENDBRANCH   3   5
TORSDOF 2
ENDMDL
MODEL       15
REMARK 921   NORMALIZED FREE ENERGY PREDICTED BY IDOCK:   -4.86 KCAL/MOL
REMARK 922        TOTAL FREE ENERGY PREDICTED BY IDOCK:   -5.49 KCAL/MOL
REMARK 923 INTER-LIGAND FREE ENERGY PREDICTED BY IDOCK:   -5.40 KCAL/MOL
REMARK 924 INTRA-LIGAND FREE ENERGY PREDICTED BY IDOCK:   -0.09 KCAL/MOL
REMARK 927      BINDING AFFINITY PREDICTED BY RF-SCORE:    0.00 PKD
ROOT
HETATM    1  N   UNL     1     -11.896  11.488  67.218  1.00  0.00    -0.604 NA 
HETATM    2  H2  UNL     1     -12.626  12.178  67.043  1.00  0.00     0.000 HD 
HETATM    3  C   UNL     1     -11.136  11.798  68.429  1.00  0.00    -0.237 C  
HETATM    4  H1  UNL     1     -11.273  11.385  66.416  1.00  0.00     0.000 HD 
ENDROOT
BRANCH   3   5
HETATM    5  C   UNL     1     -12.070  11.951  69.632  1.00  0.00    -0.304 C  
BRANCH   5   6
HETATM    6  C   UNL     1     -12.035  10.751  70.548  1.00  0.00    -0.456 A  
HETATM    7  C   UNL     1     -13.153  10.425  71.335  1.00  0.00    -0.512 A  
HETATM    8  C   UNL     1     -13.091   9.337  72.199  1.00  0.00    -0.443 A  
HETATM    9  O   UNL     1     -14.145   8.989  73.000  1.00  0.00    -1.086 OA 
HETATM   10  C   UNL     1     -11.935   8.566  72.279  1.00  0.00    -0.385 A  
HETATM   11  H   UNL     1     -14.102   8.245  73.590  1.00  0.00     0.000 HD 
HETATM   12  C   UNL     1     -10.831   8.857  71.494  1.00  0.00    -0.396 A  
HETATM   13  O   UNL     1     -11.878   7.512  73.147  1.00  0.00    -0.577 OA 
HETATM   14  H   UNL     1     -11.089   6.986  73.202  1.00  0.00     0.000 HD 
HETATM   15  C   UNL     1     -10.882   9.950  70.626  1.00  0.00    -0.400 A  
ENDBRANCH   5   6
ENDBRANCH   3   5
TORSDOF 2
ENDMDL
MODEL       16
REMARK 921   NORMALIZED FREE ENERGY PREDICTED BY IDOCK:   -4.85 KCAL/MOL
REMARK 922        TOTAL FREE ENERGY PREDICTED BY IDOCK:   -5.48 KCAL/MOL
REMARK 923 INTER-LIGAND FREE ENERGY PREDICTED BY IDOCK:   -5.39 KCAL/MOL
REMARK 924 INTRA-LIGAND FREE ENERGY PREDICTED BY IDOCK:   -0.08 KCAL/MOL
REMARK 927      BINDING AFFINITY PREDICTED BY RF-SCORE:    0.00 PKD
ROOT
HETATM    1  N   UNL     1     -14.229   8.855  72.939  1.00  0.00    -1.123 NA 
HETATM    2  H2  UNL     1     -14.265   9.560  73.675  1.00  0.00     0.000 HD 
HETATM    3  C   UNL     1     -13.903   9.445  71.641  1.00  0.00    -0.259 C  
HETATM    4  H1  UNL     1     -15.095   8.318  72.887  1.00  0.00     0.000 HD 
ENDROOT
BRANCH   3   5
HETATM    5  C   UNL     1     -12.603  10.250  71.719  1.00  0.00    -0.488 C  
BRANCH   5   6
HETATM    6  C   UNL     1     -12.811  11.716  71.424  1.00  0.00    -0.461 A  
HETATM    7  C   UNL     1     -12.167  12.319  70.330  1.00  0.00    -0.371 A  
HETATM    8  C   UNL     1     -12.342  13.678  70.094  1.00  0.00    -0.304 A  
HETATM    9  O   UNL     1     -11.723  14.317  69.054  1.00  0.00    -0.278 OA 
HETATM   10  C   UNL     1     -13.159  14.438  70.925  1.00  0.00    -0.328 A  
HETATM   11  H   UNL     1     -11.843  15.246  68.893  1.00  0.00     0.000 HD 
HETATM   12  C   UNL     1     -13.822  13.857  71.994  1.00  0.00    -0.588 A  
HETATM   13  O   UNL     1     -13.308  15.777  70.696  1.00  0.00    -0.751 OA 
HETATM   14  H   UNL     1     -13.866  16.296  71.264  1.00  0.00     0.000 HD 
HETATM   15  C   UNL     1     -13.650  12.493  72.243  1.00  0.00    -0.443 A  
ENDBRANCH   5   6
ENDBRANCH   3   5
TORSDOF 2
ENDMDL
MODEL       17
REMARK 921   NORMALIZED FREE ENERGY PREDICTED BY IDOCK:   -4.83 KCAL/MOL
REMARK 922        TOTAL FREE ENERGY PREDICTED BY IDOCK:   -5.46 KCAL/MOL
REMARK 923 INTER-LIGAND FREE ENERGY PREDICTED BY IDOCK:   -5.38 KCAL/MOL
REMARK 924 INTRA-LIGAND FREE ENERGY PREDICTED BY IDOCK:   -0.08 KCAL/MOL
REMARK 927      BINDING AFFINITY PREDICTED BY RF-SCORE:    0.00 PKD
ROOT
HETATM    1  N   UNL     1     -12.337  10.837  69.019  1.00  0.00    -0.768 NA 
HETATM    2  H2  UNL     1     -11.620  10.120  69.132  1.00  0.00     0.000 HD 
HETATM    3  C   UNL     1     -11.775  12.184  69.112  1.00  0.00    -0.328 C  
HETATM    4  H1  UNL     1     -13.101  10.716  69.685  1.00  0.00     0.000 HD 
ENDROOT
BRANCH   3   5
HETATM    5  C   UNL     1     -10.630  12.365  68.112  1.00  0.00    -0.232 C  
BRANCH   5   6
HETATM    6  C   UNL     1     -11.115  12.792  66.747  1.00  0.00    -0.314 A  
HETATM    7  C   UNL     1     -11.258  11.847  65.716  1.00  0.00    -0.365 A  
HETATM    8  C   UNL     1     -11.672  12.264  64.455  1.00  0.00    -0.353 A  
HETATM    9  O   UNL     1     -11.809  11.388  63.413  1.00  0.00    -0.744 OA 
HETATM   10  C   UNL     1     -11.957  13.605  64.214  1.00  0.00    -0.445 A  
HETATM   11  H   UNL     1     -12.092  11.673  62.552  1.00  0.00     0.000 HD 
HETATM   12  C   UNL     1     -11.845  14.547  65.224  1.00  0.00    -0.358 A  
HETATM   13  O   UNL     1     -12.343  14.006  62.967  1.00  0.00    -1.101 OA 
HETATM   14  H   UNL     1     -12.537  14.922  62.803  1.00  0.00     0.000 HD 
HETATM   15  C   UNL     1     -11.426  14.140  66.493  1.00  0.00    -0.368 A  
ENDBRANCH   5   6
ENDBRANCH   3   5
TORSDOF 2
ENDMDL
MODEL       18
REMARK 921   NORMALIZED FREE ENERGY PREDICTED BY IDOCK:   -4.79 KCAL/MOL
REMARK 922        TOTAL FREE ENERGY PREDICTED BY IDOCK:   -5.41 KCAL/MOL
REMARK 923 INTER-LIGAND FREE ENERGY PREDICTED BY IDOCK:   -5.37 KCAL/MOL
REMARK 924 INTRA-LIGAND FREE ENERGY PREDICTED BY IDOCK:   -0.04 KCAL/MOL
REMARK 927      BINDING AFFINITY PREDICTED BY RF-SCORE:    0.00 PKD
ROOT
HETATM    1  N   UNL     1     -12.496  10.598  69.178  1.00  0.00    -0.737 NA 
HETATM    2  H2  UNL     1     -12.835  10.199  68.303  1.00  0.00     0.000 HD 
HETATM    3  C   UNL     1     -11.434  11.578  68.951  1.00  0.00    -0.289 C  
HETATM    4  H1  UNL     1     -12.189   9.875  69.830  1.00  0.00     0.000 HD 
ENDROOT
BRANCH   3   5
HETATM    5  C   UNL     1     -11.895  12.663  67.974  1.00  0.00    -0.376 C  
BRANCH   5   6
HETATM    6  C   UNL     1     -11.573  12.324  66.538  1.00  0.00    -0.440 A  
HETATM    7  C   UNL     1     -12.082  13.110  65.491  1.00  0.00    -0.490 A  
HETATM    8  C   UNL     1     -11.804  12.762  64.173  1.00  0.00    -0.413 A  
HETATM    9  O   UNL     1     -12.290  13.484  63.117  1.00  0.00    -0.968 OA 
HETATM   10  C   UNL     1     -11.017  11.651  63.888  1.00  0.00    -0.407 A  
HETATM   11  H   UNL     1     -12.100  13.247  62.216  1.00  0.00     0.000 HD 
HETATM   12  C   UNL     1     -10.486  10.876  64.908  1.00  0.00    -0.352 A  
HETATM   13  O   UNL     1     -10.767  11.306  62.590  1.00  0.00    -0.600 OA 
HETATM   14  H   UNL     1     -10.230  10.547  62.396  1.00  0.00     0.000 HD 
HETATM   15  C   UNL     1     -10.762  11.215  66.235  1.00  0.00    -0.298 A  
ENDBRANCH   5   6
ENDBRANCH   3   5
TORSDOF 2
ENDMDL
MODEL       19
REMARK 921   NORMALIZED FREE ENERGY PREDICTED BY IDOCK:   -4.72 KCAL/MOL
REMARK 922        TOTAL FREE ENERGY PREDICTED BY IDOCK:   -5.34 KCAL/MOL
REMARK 923 INTER-LIGAND FREE ENERGY PREDICTED BY IDOCK:   -5.25 KCAL/MOL
REMARK 924 INTRA-LIGAND FREE ENERGY PREDICTED BY IDOCK:   -0.09 KCAL/MOL
REMARK 927      BINDING AFFINITY PREDICTED BY RF-SCORE:    0.00 PKD
ROOT
HETATM    1  N   UNL     1     -12.375  13.953  63.266  1.00  0.00    -1.148 NA 
HETATM    2  H2  UNL     1     -13.161  14.300  63.816  1.00  0.00     0.000 HD 
HETATM    3  C   UNL     1     -11.356  13.331  64.112  1.00  0.00    -0.386 C  
HETATM    4  H1  UNL     1     -11.966  14.686  62.687  1.00  0.00     0.000 HD 
ENDROOT
BRANCH   3   5
HETATM    5  C   UNL     1     -11.969  12.230  64.981  1.00  0.00    -0.413 C  
BRANCH   5   6
HETATM    6  C   UNL     1     -11.865  12.532  66.457  1.00  0.00    -0.434 A  
HETATM    7  C   UNL     1     -12.156  13.819  66.941  1.00  0.00    -0.454 A  
HETATM    8  C   UNL     1     -12.021  14.088  68.299  1.00  0.00    -0.349 A  
HETATM    9  O   UNL     1     -12.275  15.329  68.819  1.00  0.00    -0.576 OA 
HETATM   10  C   UNL     1     -11.611  13.091  69.179  1.00  0.00    -0.316 A  
HETATM   11  H   UNL     1     -12.182  15.513  69.746  1.00  0.00     0.000 HD 
HETATM   12  C   UNL     1     -11.342  11.810  68.724  1.00  0.00    -0.325 A  
HETATM   13  O   UNL     1     -11.462  13.372  70.507  1.00  0.00    -0.505 OA 
HETATM   14  H   UNL     1     -11.182  12.691  71.107  1.00  0.00     0.000 HD 
HETATM   15  C   UNL     1     -11.471  11.529  67.361  1.00  0.00    -0.349 A  
ENDBRANCH   5   6
ENDBRANCH   3   5
TORSDOF 2
ENDMDL
MODEL       20
REMARK 921   NORMALIZED FREE ENERGY PREDICTED BY IDOCK:   -4.70 KCAL/MOL
REMARK 922        TOTAL FREE ENERGY PREDICTED BY IDOCK:   -5.31 KCAL/MOL
REMARK 923 INTER-LIGAND FREE ENERGY PREDICTED BY IDOCK:   -5.22 KCAL/MOL
REMARK 924 INTRA-LIGAND FREE ENERGY PREDICTED BY IDOCK:   -0.09 KCAL/MOL
REMARK 927      BINDING AFFINITY PREDICTED BY RF-SCORE:    0.00 PKD
ROOT
HETATM    1  N   UNL     1      -7.670  10.818  62.474  1.00  0.00    -0.317 NA 
HETATM    2  H2  UNL     1      -7.043  10.191  62.980  1.00  0.00     0.000 HD 
HETATM    3  C   UNL     1      -9.064  10.384  62.575  1.00  0.00    -0.292 C  
HETATM    4  H1  UNL     1      -7.393  10.923  61.498  1.00  0.00     0.000 HD 
ENDROOT
BRANCH   3   5
HETATM    5  C   UNL     1      -9.480  10.226  64.039  1.00  0.00    -0.356 C  
BRANCH   5   6
HETATM    6  C   UNL     1     -10.457  11.288  64.482  1.00  0.00    -0.396 A  
HETATM    7  C   UNL     1     -11.041  12.153  63.540  1.00  0.00    -0.525 A  
HETATM    8  C   UNL     1     -11.912  13.149  63.970  1.00  0.00    -0.460 A  
HETATM    9  O   UNL     1     -12.493  14.028  63.096  1.00  0.00    -1.137 OA 
HETATM   10  C   UNL     1     -12.216  13.284  65.321  1.00  0.00    -0.448 A  
HETATM   11  H   UNL     1     -13.088  14.708  63.390  1.00  0.00     0.000 HD 
HETATM   12  C   UNL     1     -11.669  12.426  66.262  1.00  0.00    -0.457 A  
HETATM   13  O   UNL     1     -13.057  14.279  65.735  1.00  0.00    -0.540 OA 
HETATM   14  H   UNL     1     -13.264  14.371  66.657  1.00  0.00     0.000 HD 
HETATM   15  C   UNL     1     -10.790  11.425  65.841  1.00  0.00    -0.292 A  
ENDBRANCH   5   6
ENDBRANCH   3   5
TORSDOF 2
ENDMDL
MODEL       21
REMARK 921   NORMALIZED FREE ENERGY PREDICTED BY IDOCK:   -4.70 KCAL/MOL
REMARK 922        TOTAL FREE ENERGY PREDICTED BY IDOCK:   -5.31 KCAL/MOL
REMARK 923 INTER-LIGAND FREE ENERGY PREDICTED BY IDOCK:   -5.24 KCAL/MOL
REMARK 924 INTRA-LIGAND FREE ENERGY PREDICTED BY IDOCK:   -0.07 KCAL/MOL
REMARK 927      BINDING AFFINITY PREDICTED BY RF-SCORE:    0.00 PKD
ROOT
HETATM    1  N   UNL     1     -12.394  14.251  63.610  1.00  0.00    -1.109 NA 
HETATM    2  H2  UNL     1     -13.079  14.710  64.212  1.00  0.00     0.000 HD 
HETATM    3  C   UNL     1     -11.386  13.531  64.388  1.00  0.00    -0.382 C  
HETATM    4  H1  UNL     1     -11.954  14.910  62.968  1.00  0.00     0.000 HD 
ENDROOT
BRANCH   3   5
HETATM    5  C   UNL     1     -12.047  12.542  65.351  1.00  0.00    -0.494 C  
BRANCH   5   6
HETATM    6  C   UNL     1     -11.899  12.954  66.797  1.00  0.00    -0.452 A  
HETATM    7  C   UNL     1     -11.657  11.990  67.789  1.00  0.00    -0.400 A  
HETATM    8  C   UNL     1     -11.559  12.384  69.120  1.00  0.00    -0.314 A  
HETATM    9  O   UNL     1     -11.342  11.482  70.127  1.00  0.00    -0.475 OA 
HETATM   10  C   UNL     1     -11.687  13.724  69.469  1.00  0.00    -0.323 A  
HETATM   11  H   UNL     1     -11.274  11.751  71.036  1.00  0.00     0.000 HD 
HETATM   12  C   UNL     1     -11.903  14.693  68.502  1.00  0.00    -0.346 A  
HETATM   13  O   UNL     1     -11.610  14.097  70.781  1.00  0.00    -0.494 OA 
HETATM   14  H   UNL     1     -11.697  15.013  71.020  1.00  0.00     0.000 HD 
HETATM   15  C   UNL     1     -12.007  14.308  67.163  1.00  0.00    -0.449 A  
ENDBRANCH   5   6
ENDBRANCH   3   5
TORSDOF 2
ENDMDL
MODEL       22
REMARK 921   NORMALIZED FREE ENERGY PREDICTED BY IDOCK:   -4.70 KCAL/MOL
REMARK 922        TOTAL FREE ENERGY PREDICTED BY IDOCK:   -5.31 KCAL/MOL
REMARK 923 INTER-LIGAND FREE ENERGY PREDICTED BY IDOCK:   -5.23 KCAL/MOL
REMARK 924 INTRA-LIGAND FREE ENERGY PREDICTED BY IDOCK:   -0.07 KCAL/MOL
REMARK 927      BINDING AFFINITY PREDICTED BY RF-SCORE:    0.00 PKD
ROOT
HETATM    1  N   UNL     1     -10.538  10.340  70.201  1.00  0.00    -0.387 NA 
HETATM    2  H2  UNL     1      -9.860  10.928  70.687  1.00  0.00     0.000 HD 
HETATM    3  C   UNL     1     -11.881  10.919  70.238  1.00  0.00    -0.361 C  
HETATM    4  H1  UNL     1     -10.544   9.388  70.569  1.00  0.00     0.000 HD 
ENDROOT
BRANCH   3   5
HETATM    5  C   UNL     1     -11.872  12.347  69.686  1.00  0.00    -0.380 C  
BRANCH   5   6
HETATM    6  C   UNL     1     -12.370  13.359  70.690  1.00  0.00    -0.423 A  
HETATM    7  C   UNL     1     -11.837  14.659  70.713  1.00  0.00    -0.372 A  
HETATM    8  C   UNL     1     -12.283  15.567  71.667  1.00  0.00    -0.399 A  
HETATM    9  O   UNL     1     -11.784  16.839  71.744  1.00  0.00    -0.601 OA 
HETATM   10  C   UNL     1     -13.259  15.199  72.588  1.00  0.00    -0.437 A  
HETATM   11  H   UNL     1     -12.088  17.460  72.396  1.00  0.00     0.000 HD 
HETATM   12  C   UNL     1     -13.814  13.929  72.566  1.00  0.00    -0.620 A  
HETATM   13  O   UNL     1     -13.675  16.092  73.535  1.00  0.00    -0.875 OA 
HETATM   14  H   UNL     1     -14.341  15.841  74.164  1.00  0.00     0.000 HD 
HETATM   15  C   UNL     1     -13.370  13.008  71.614  1.00  0.00    -0.379 A  
ENDBRANCH   5   6
ENDBRANCH   3   5
TORSDOF 2
ENDMDL
MODEL       23
REMARK 921   NORMALIZED FREE ENERGY PREDICTED BY IDOCK:   -4.69 KCAL/MOL
REMARK 922        TOTAL FREE ENERGY PREDICTED BY IDOCK:   -5.31 KCAL/MOL
REMARK 923 INTER-LIGAND FREE ENERGY PREDICTED BY IDOCK:   -5.23 KCAL/MOL
REMARK 924 INTRA-LIGAND FREE ENERGY PREDICTED BY IDOCK:   -0.08 KCAL/MOL
REMARK 927      BINDING AFFINITY PREDICTED BY RF-SCORE:    0.00 PKD
ROOT
HETATM    1  N   UNL     1     -12.389  15.233  68.944  1.00  0.00    -0.604 NA 
HETATM    2  H2  UNL     1     -13.210  15.073  68.360  1.00  0.00     0.000 HD 
HETATM    3  C   UNL     1     -11.179  14.672  68.344  1.00  0.00    -0.274 C  
HETATM    4  H1  UNL     1     -12.523  14.876  69.891  1.00  0.00     0.000 HD 
ENDROOT
BRANCH   3   5
HETATM    5  C   UNL     1     -10.978  15.208  66.924  1.00  0.00    -0.323 C  
BRANCH   5   6
HETATM    6  C   UNL     1     -11.256  14.167  65.866  1.00  0.00    -0.313 A  
HETATM    7  C   UNL     1     -10.206  13.633  65.100  1.00  0.00    -0.349 A  
HETATM    8  C   UNL     1     -10.486  12.701  64.107  1.00  0.00    -0.413 A  
HETATM    9  O   UNL     1      -9.502  12.165  63.321  1.00  0.00    -0.664 OA 
HETATM   10  C   UNL     1     -11.794  12.287  63.877  1.00  0.00    -0.464 A  
HETATM   11  H   UNL     1      -9.693  11.527  62.642  1.00  0.00     0.000 HD 
HETATM   12  C   UNL     1     -12.841  12.783  64.638  1.00  0.00    -0.355 A  
HETATM   13  O   UNL     1     -12.060  11.386  62.885  1.00  0.00    -0.919 OA 
HETATM   14  H   UNL     1     -12.953  11.104  62.727  1.00  0.00     0.000 HD 
HETATM   15  C   UNL     1     -12.571  13.723  65.636  1.00  0.00    -0.551 A  
ENDBRANCH   5   6
ENDBRANCH   3   5
TORSDOF 2
ENDMDL
MODEL       24
REMARK 921   NORMALIZED FREE ENERGY PREDICTED BY IDOCK:   -4.68 KCAL/MOL
REMARK 922        TOTAL FREE ENERGY PREDICTED BY IDOCK:   -5.29 KCAL/MOL
REMARK 923 INTER-LIGAND FREE ENERGY PREDICTED BY IDOCK:   -5.22 KCAL/MOL
REMARK 924 INTRA-LIGAND FREE ENERGY PREDICTED BY IDOCK:   -0.07 KCAL/MOL
REMARK 927      BINDING AFFINITY PREDICTED BY RF-SCORE:    0.00 PKD
ROOT
HETATM    1  N   UNL     1     -11.573  16.449  63.883  1.00  0.00    -1.602 NA 
HETATM    2  H2  UNL     1     -12.485  16.824  64.147  1.00  0.00     0.000 HD 
HETATM    3  C   UNL     1     -11.042  15.549  64.906  1.00  0.00    -0.416 C  
HETATM    4  H1  UNL     1     -10.907  17.192  63.672  1.00  0.00     0.000 HD 
ENDROOT
BRANCH   3   5
HETATM    5  C   UNL     1     -12.042  14.434  65.222  1.00  0.00    -0.380 C  
BRANCH   5   6
HETATM    6  C   UNL     1     -11.414  13.061  65.174  1.00  0.00    -0.338 A  
HETATM    7  C   UNL     1     -11.250  12.313  66.352  1.00  0.00    -0.370 A  
HETATM    8  C   UNL     1     -10.637  11.066  66.293  1.00  0.00    -0.237 A  
HETATM    9  O   UNL     1     -10.437  10.306  67.414  1.00  0.00    -0.217 OA 
HETATM   10  C   UNL     1     -10.198  10.553  65.077  1.00  0.00    -0.295 A  
HETATM   11  H   UNL     1     -10.019   9.453  67.374  1.00  0.00     0.000 HD 
HETATM   12  C   UNL     1     -10.373  11.265  63.901  1.00  0.00    -0.439 A  
HETATM   13  O   UNL     1      -9.579   9.336  65.034  1.00  0.00    -0.452 OA 
HETATM   14  H   UNL     1      -9.279   8.986  64.203  1.00  0.00     0.000 HD 
HETATM   15  C   UNL     1     -10.983  12.521  63.949  1.00  0.00    -0.471 A  
ENDBRANCH   5   6
ENDBRANCH   3   5
TORSDOF 2
ENDMDL
MODEL       25
REMARK 921   NORMALIZED FREE ENERGY PREDICTED BY IDOCK:   -4.66 KCAL/MOL
REMARK 922        TOTAL FREE ENERGY PREDICTED BY IDOCK:   -5.27 KCAL/MOL
REMARK 923 INTER-LIGAND FREE ENERGY PREDICTED BY IDOCK:   -5.19 KCAL/MOL
REMARK 924 INTRA-LIGAND FREE ENERGY PREDICTED BY IDOCK:   -0.08 KCAL/MOL
REMARK 927      BINDING AFFINITY PREDICTED BY RF-SCORE:    0.00 PKD
ROOT
HETATM    1  N   UNL     1      -9.960  18.391  66.594  1.00  0.00    -0.347 NA 
HETATM    2  H2  UNL     1     -10.070  18.220  65.594  1.00  0.00     0.000 HD 
HETATM    3  C   UNL     1     -10.406  17.249  67.391  1.00  0.00    -0.338 C  
HETATM    4  H1  UNL     1     -10.436  19.245  66.885  1.00  0.00     0.000 HD 
ENDROOT
BRANCH   3   5
HETATM    5  C   UNL     1      -9.690  15.968  66.954  1.00  0.00    -0.244 C  
BRANCH   5   6
HETATM    6  C   UNL     1     -10.627  14.970  66.316  1.00  0.00    -0.309 A  
HETATM    7  C   UNL     1     -11.121  15.188  65.019  1.00  0.00    -0.428 A  
HETATM    8  C   UNL     1     -12.011  14.276  64.461  1.00  0.00    -0.462 A  
HETATM    9  O   UNL     1     -12.535  14.451  63.208  1.00  0.00    -1.099 OA 
HETATM   10  C   UNL     1     -12.403  13.148  65.173  1.00  0.00    -0.473 A  
HETATM   11  H   UNL     1     -13.142  13.828  62.827  1.00  0.00     0.000 HD 
HETATM   12  C   UNL     1     -11.908  12.903  66.445  1.00  0.00    -0.478 A  
HETATM   13  O   UNL     1     -13.293  12.269  64.624  1.00  0.00    -0.717 OA 
HETATM   14  H   UNL     1     -13.561  11.499  65.111  1.00  0.00     0.000 HD 
HETATM   15  C   UNL     1     -11.017  13.815  67.016  1.00  0.00    -0.297 A  
ENDBRANCH   5   6
ENDBRANCH   3   5
TORSDOF 2
ENDMDL
MODEL       26
REMARK 921   NORMALIZED FREE ENERGY PREDICTED BY IDOCK:   -4.66 KCAL/MOL
REMARK 922        TOTAL FREE ENERGY PREDICTED BY IDOCK:   -5.27 KCAL/MOL
REMARK 923 INTER-LIGAND FREE ENERGY PREDICTED BY IDOCK:   -5.20 KCAL/MOL
REMARK 924 INTRA-LIGAND FREE ENERGY PREDICTED BY IDOCK:   -0.07 KCAL/MOL
REMARK 927      BINDING AFFINITY PREDICTED BY RF-SCORE:    0.00 PKD
ROOT
HETATM    1  N   UNL     1      -7.557  11.982  68.838  1.00  0.00    -0.283 NA 
HETATM    2  H2  UNL     1      -7.388  11.107  68.340  1.00  0.00     0.000 HD 
HETATM    3  C   UNL     1      -8.083  13.018  67.950  1.00  0.00    -0.158 C  
HETATM    4  H1  UNL     1      -6.720  12.309  69.321  1.00  0.00     0.000 HD 
ENDROOT
BRANCH   3   5
HETATM    5  C   UNL     1      -9.339  12.528  67.226  1.00  0.00    -0.190 C  
BRANCH   5   6
HETATM    6  C   UNL     1      -9.933  13.580  66.320  1.00  0.00    -0.302 A  
HETATM    7  C   UNL     1     -10.873  13.223  65.338  1.00  0.00    -0.304 A  
HETATM    8  C   UNL     1     -11.383  14.200  64.489  1.00  0.00    -0.348 A  
HETATM    9  O   UNL     1     -12.287  13.903  63.505  1.00  0.00    -0.976 OA 
HETATM   10  C   UNL     1     -10.978  15.526  64.616  1.00  0.00    -0.322 A  
HETATM   11  H   UNL     1     -12.636  14.570  62.925  1.00  0.00     0.000 HD 
HETATM   12  C   UNL     1     -10.071  15.900  65.594  1.00  0.00    -0.388 A  
HETATM   13  O   UNL     1     -11.470  16.473  63.764  1.00  0.00    -1.615 OA 
HETATM   14  H   UNL     1     -11.193  17.378  63.850  1.00  0.00     0.000 HD 
HETATM   15  C   UNL     1      -9.549  14.927  66.449  1.00  0.00    -0.317 A  
ENDBRANCH   5   6
ENDBRANCH   3   5
TORSDOF 2
ENDMDL
MODEL       27
REMARK 921   NORMALIZED FREE ENERGY PREDICTED BY IDOCK:   -4.64 KCAL/MOL
REMARK 922        TOTAL FREE ENERGY PREDICTED BY IDOCK:   -5.25 KCAL/MOL
REMARK 923 INTER-LIGAND FREE ENERGY PREDICTED BY IDOCK:   -5.19 KCAL/MOL
REMARK 924 INTRA-LIGAND FREE ENERGY PREDICTED BY IDOCK:   -0.06 KCAL/MOL
REMARK 927      BINDING AFFINITY PREDICTED BY RF-SCORE:    0.00 PKD
ROOT
HETATM    1  N   UNL     1     -11.785  16.315  63.832  1.00  0.00    -1.518 NA 
HETATM    2  H2  UNL     1     -12.778  16.137  63.983  1.00  0.00     0.000 HD 
HETATM    3  C   UNL     1     -10.952  15.548  64.759  1.00  0.00    -0.399 C  
HETATM    4  H1  UNL     1     -11.567  17.310  63.887  1.00  0.00     0.000 HD 
ENDROOT
BRANCH   3   5
HETATM    5  C   UNL     1     -11.279  14.055  64.676  1.00  0.00    -0.377 C  
BRANCH   5   6
HETATM    6  C   UNL     1     -10.846  13.298  65.909  1.00  0.00    -0.289 A  
HETATM    7  C   UNL     1     -11.662  12.289  66.446  1.00  0.00    -0.431 A  
HETATM    8  C   UNL     1     -11.264  11.626  67.603  1.00  0.00    -0.281 A  
HETATM    9  O   UNL     1     -12.031  10.649  68.177  1.00  0.00    -0.791 OA 
HETATM   10  C   UNL     1     -10.059  11.949  68.220  1.00  0.00    -0.203 A  
HETATM   11  H   UNL     1     -11.759  10.196  68.966  1.00  0.00     0.000 HD 
HETATM   12  C   UNL     1      -9.229  12.925  67.692  1.00  0.00    -0.193 A  
HETATM   13  O   UNL     1      -9.688  11.306  69.367  1.00  0.00    -0.414 OA 
HETATM   14  H   UNL     1      -8.865  11.527  69.789  1.00  0.00     0.000 HD 
HETATM   15  C   UNL     1      -9.622  13.599  66.533  1.00  0.00    -0.294 A  
ENDBRANCH   5   6
ENDBRANCH   3   5
TORSDOF 2
ENDMDL
MODEL       28
REMARK 921   NORMALIZED FREE ENERGY PREDICTED BY IDOCK:   -4.57 KCAL/MOL
REMARK 922        TOTAL FREE ENERGY PREDICTED BY IDOCK:   -5.17 KCAL/MOL
REMARK 923 INTER-LIGAND FREE ENERGY PREDICTED BY IDOCK:   -5.10 KCAL/MOL
REMARK 924 INTRA-LIGAND FREE ENERGY PREDICTED BY IDOCK:   -0.07 KCAL/MOL
REMARK 927      BINDING AFFINITY PREDICTED BY RF-SCORE:    0.00 PKD
ROOT
HETATM    1  N   UNL     1     -13.853  16.086  73.216  1.00  0.00    -0.744 NA 
HETATM    2  H2  UNL     1     -13.140  16.045  73.945  1.00  0.00     0.000 HD 
HETATM    3  C   UNL     1     -13.530  15.205  72.094  1.00  0.00    -0.424 C  
HETATM    4  H1  UNL     1     -14.009  17.041  72.894  1.00  0.00     0.000 HD 
ENDROOT
BRANCH   3   5
HETATM    5  C   UNL     1     -13.297  13.771  72.577  1.00  0.00    -0.656 C  
BRANCH   5   6
HETATM    6  C   UNL     1     -12.851  12.851  71.466  1.00  0.00    -0.380 A  
HETATM    7  C   UNL     1     -12.265  13.375  70.301  1.00  0.00    -0.405 A  
HETATM    8  C   UNL     1     -11.893  12.515  69.273  1.00  0.00    -0.304 A  
HETATM    9  O   UNL     1     -11.335  12.976  68.111  1.00  0.00    -0.258 OA 
HETATM   10  C   UNL     1     -12.087  11.142  69.398  1.00  0.00    -0.326 A  
HETATM   11  H   UNL     1     -11.081  12.388  67.409  1.00  0.00     0.000 HD 
HETATM   12  C   UNL     1     -12.641  10.605  70.549  1.00  0.00    -0.433 A  
HETATM   13  O   UNL     1     -11.737  10.309  68.374  1.00  0.00    -0.652 OA 
HETATM   14  H   UNL     1     -11.869   9.372  68.459  1.00  0.00     0.000 HD 
HETATM   15  C   UNL     1     -13.022  11.460  71.586  1.00  0.00    -0.523 A  
ENDBRANCH   5   6
ENDBRANCH   3   5
TORSDOF 2
ENDMDL
MODEL       29
REMARK 921   NORMALIZED FREE ENERGY PREDICTED BY IDOCK:   -4.56 KCAL/MOL
REMARK 922        TOTAL FREE ENERGY PREDICTED BY IDOCK:   -5.15 KCAL/MOL
REMARK 923 INTER-LIGAND FREE ENERGY PREDICTED BY IDOCK:   -5.10 KCAL/MOL
REMARK 924 INTRA-LIGAND FREE ENERGY PREDICTED BY IDOCK:   -0.05 KCAL/MOL
REMARK 927      BINDING AFFINITY PREDICTED BY RF-SCORE:    0.00 PKD
ROOT
HETATM    1  N   UNL     1     -10.767  15.626  69.617  1.00  0.00    -0.253 NA 
HETATM    2  H2  UNL     1     -11.274  15.092  70.323  1.00  0.00     0.000 HD 
HETATM    3  C   UNL     1     -10.584  14.857  68.386  1.00  0.00    -0.244 C  
HETATM    4  H1  UNL     1      -9.871  15.964  69.969  1.00  0.00     0.000 HD 
ENDROOT
BRANCH   3   5
HETATM    5  C   UNL     1     -11.929  14.351  67.857  1.00  0.00    -0.348 C  
BRANCH   5   6
HETATM    6  C   UNL     1     -11.792  13.596  66.556  1.00  0.00    -0.441 A  
HETATM    7  C   UNL     1     -12.232  14.172  65.351  1.00  0.00    -0.441 A  
HETATM    8  C   UNL     1     -12.130  13.448  64.168  1.00  0.00    -0.433 A  
HETATM    9  O   UNL     1     -12.560  13.956  62.971  1.00  0.00    -1.030 OA 
HETATM   10  C   UNL     1     -11.587  12.167  64.169  1.00  0.00    -0.390 A  
HETATM   11  H   UNL     1     -12.490  13.462  62.162  1.00  0.00     0.000 HD 
HETATM   12  C   UNL     1     -11.127  11.592  65.343  1.00  0.00    -0.299 A  
HETATM   13  O   UNL     1     -11.512  11.458  63.004  1.00  0.00    -0.853 OA 
HETATM   14  H   UNL     1     -11.141  10.583  63.005  1.00  0.00     0.000 HD 
HETATM   15  C   UNL     1     -11.227  12.308  66.538  1.00  0.00    -0.373 A  
ENDBRANCH   5   6
ENDBRANCH   3   5
TORSDOF 2
ENDMDL
MODEL       30
REMARK 921   NORMALIZED FREE ENERGY PREDICTED BY IDOCK:   -4.50 KCAL/MOL
REMARK 922        TOTAL FREE ENERGY PREDICTED BY IDOCK:   -5.09 KCAL/MOL
REMARK 923 INTER-LIGAND FREE ENERGY PREDICTED BY IDOCK:   -5.04 KCAL/MOL
REMARK 924 INTRA-LIGAND FREE ENERGY PREDICTED BY IDOCK:   -0.06 KCAL/MOL
REMARK 927      BINDING AFFINITY PREDICTED BY RF-SCORE:    0.00 PKD
ROOT
HETATM    1  N   UNL     1     -10.188  10.219  66.868  1.00  0.00    -0.220 NA 
HETATM    2  H2  UNL     1      -9.869   9.259  66.996  1.00  0.00     0.000 HD 
HETATM    3  C   UNL     1     -11.049  10.654  67.968  1.00  0.00    -0.301 C  
HETATM    4  H1  UNL     1     -10.654  10.346  65.970  1.00  0.00     0.000 HD 
ENDROOT
BRANCH   3   5
HETATM    5  C   UNL     1     -10.349  10.464  69.315  1.00  0.00    -0.250 C  
BRANCH   5   6
HETATM    6  C   UNL     1     -11.304  10.057  70.412  1.00  0.00    -0.392 A  
HETATM    7  C   UNL     1     -11.025   8.942  71.220  1.00  0.00    -0.363 A  
HETATM    8  C   UNL     1     -11.933   8.561  72.202  1.00  0.00    -0.383 A  
HETATM    9  O   UNL     1     -11.717   7.473  73.004  1.00  0.00    -0.594 OA 
HETATM   10  C   UNL     1     -13.107   9.284  72.395  1.00  0.00    -0.406 A  
HETATM   11  H   UNL     1     -12.338   7.213  73.675  1.00  0.00     0.000 HD 
HETATM   12  C   UNL     1     -13.388  10.400  71.625  1.00  0.00    -0.432 A  
HETATM   13  O   UNL     1     -14.002   8.888  73.349  1.00  0.00    -1.236 OA 
HETATM   14  H   UNL     1     -14.803   9.381  73.480  1.00  0.00     0.000 HD 
HETATM   15  C   UNL     1     -12.485  10.789  70.633  1.00  0.00    -0.461 A  
ENDBRANCH   5   6
ENDBRANCH   3   5
TORSDOF 2
ENDMDL
MODEL       31
REMARK 921   NORMALIZED FREE ENERGY PREDICTED BY IDOCK:   -4.50 KCAL/MOL
REMARK 922        TOTAL FREE ENERGY PREDICTED BY IDOCK:   -5.09 KCAL/MOL
REMARK 923 INTER-LIGAND FREE ENERGY PREDICTED BY IDOCK:   -5.00 KCAL/MOL
REMARK 924 INTRA-LIGAND FREE ENERGY PREDICTED BY IDOCK:   -0.09 KCAL/MOL
REMARK 927      BINDING AFFINITY PREDICTED BY RF-SCORE:    0.00 PKD
ROOT
HETATM    1  N   UNL     1     -11.187   6.691  67.938  1.00  0.00    -0.563 NA 
HETATM    2  H2  UNL     1     -10.204   6.739  67.669  1.00  0.00     0.000 HD 
HETATM    3  C   UNL     1     -11.352   6.155  69.290  1.00  0.00    -0.291 C  
HETATM    4  H1  UNL     1     -11.737   6.154  67.267  1.00  0.00     0.000 HD 
ENDROOT
BRANCH   3   5
HETATM    5  C   UNL     1     -10.527   6.960  70.298  1.00  0.00    -0.227 C  
BRANCH   5   6
HETATM    6  C   UNL     1     -11.286   8.141  70.855  1.00  0.00    -0.286 A  
HETATM    7  C   UNL     1     -12.314   7.946  71.793  1.00  0.00    -0.352 A  
HETATM    8  C   UNL     1     -13.026   9.042  72.269  1.00  0.00    -0.424 A  
HETATM    9  O   UNL     1     -14.048   8.905  73.169  1.00  0.00    -1.125 OA 
HETATM   10  C   UNL     1     -12.717  10.327  71.832  1.00  0.00    -0.379 A  
HETATM   11  H   UNL     1     -14.534   9.654  73.494  1.00  0.00     0.000 HD 
HETATM   12  C   UNL     1     -11.690  10.541  70.926  1.00  0.00    -0.431 A  
HETATM   13  O   UNL     1     -13.436  11.394  72.290  1.00  0.00    -0.601 OA 
HETATM   14  H   UNL     1     -13.225  12.271  71.992  1.00  0.00     0.000 HD 
HETATM   15  C   UNL     1     -10.972   9.447  70.438  1.00  0.00    -0.317 A  
ENDBRANCH   5   6
ENDBRANCH   3   5
TORSDOF 2
ENDMDL
MODEL       32
REMARK 921   NORMALIZED FREE ENERGY PREDICTED BY IDOCK:   -4.46 KCAL/MOL
REMARK 922        TOTAL FREE ENERGY PREDICTED BY IDOCK:   -5.05 KCAL/MOL
REMARK 923 INTER-LIGAND FREE ENERGY PREDICTED BY IDOCK:   -4.96 KCAL/MOL
REMARK 924 INTRA-LIGAND FREE ENERGY PREDICTED BY IDOCK:   -0.09 KCAL/MOL
REMARK 927      BINDING AFFINITY PREDICTED BY RF-SCORE:    0.00 PKD
ROOT
HETATM    1  N   UNL     1     -11.283  11.445  62.968  1.00  0.00    -0.844 NA 
HETATM    2  H2  UNL     1     -11.590  10.515  63.256  1.00  0.00     0.000 HD 
HETATM    3  C   UNL     1     -12.126  12.494  63.542  1.00  0.00    -0.562 C  
HETATM    4  H1  UNL     1     -11.240  11.531  61.952  1.00  0.00     0.000 HD 
ENDROOT
BRANCH   3   5
HETATM    5  C   UNL     1     -12.191  12.366  65.066  1.00  0.00    -0.465 C  
BRANCH   5   6
HETATM    6  C   UNL     1     -11.640  13.581  65.774  1.00  0.00    -0.351 A  
HETATM    7  C   UNL     1     -12.107  13.931  67.052  1.00  0.00    -0.451 A  
HETATM    8  C   UNL     1     -11.613  15.073  67.674  1.00  0.00    -0.312 A  
HETATM    9  O   UNL     1     -12.048  15.469  68.910  1.00  0.00    -0.555 OA 
HETATM   10  C   UNL     1     -10.655  15.861  67.043  1.00  0.00    -0.306 A  
HETATM   11  H   UNL     1     -11.711  16.249  69.335  1.00  0.00     0.000 HD 
HETATM   12  C   UNL     1     -10.164  15.518  65.793  1.00  0.00    -0.390 A  
HETATM   13  O   UNL     1     -10.192  16.992  67.654  1.00  0.00    -0.295 OA 
HETATM   14  H   UNL     1      -9.538  17.529  67.223  1.00  0.00     0.000 HD 
HETATM   15  C   UNL     1     -10.656  14.375  65.158  1.00  0.00    -0.429 A  
ENDBRANCH   5   6
ENDBRANCH   3   5
TORSDOF 2
ENDMDL
MODEL       33
REMARK 921   NORMALIZED FREE ENERGY PREDICTED BY IDOCK:   -4.45 KCAL/MOL
REMARK 922        TOTAL FREE ENERGY PREDICTED BY IDOCK:   -5.03 KCAL/MOL
REMARK 923 INTER-LIGAND FREE ENERGY PREDICTED BY IDOCK:   -4.94 KCAL/MOL
REMARK 924 INTRA-LIGAND FREE ENERGY PREDICTED BY IDOCK:   -0.09 KCAL/MOL
REMARK 927      BINDING AFFINITY PREDICTED BY RF-SCORE:    0.00 PKD
ROOT
HETATM    1  N   UNL     1     -11.592  16.184  63.946  1.00  0.00    -1.469 NA 
HETATM    2  H2  UNL     1     -12.510  16.371  64.350  1.00  0.00     0.000 HD 
HETATM    3  C   UNL     1     -10.620  15.797  64.968  1.00  0.00    -0.371 C  
HETATM    4  H1  UNL     1     -11.250  16.975  63.401  1.00  0.00     0.000 HD 
ENDROOT
BRANCH   3   5
HETATM    5  C   UNL     1     -11.133  14.609  65.786  1.00  0.00    -0.331 C  
BRANCH   5   6
HETATM    6  C   UNL     1     -11.281  14.936  67.253  1.00  0.00    -0.348 A  
HETATM    7  C   UNL     1     -10.819  16.163  67.757  1.00  0.00    -0.318 A  
HETATM    8  C   UNL     1     -10.932  16.432  69.117  1.00  0.00    -0.324 A  
HETATM    9  O   UNL     1     -10.482  17.605  69.662  1.00  0.00    -0.299 OA 
HETATM   10  C   UNL     1     -11.508  15.500  69.975  1.00  0.00    -0.331 A  
HETATM   11  H   UNL     1     -10.559  17.789  70.591  1.00  0.00     0.000 HD 
HETATM   12  C   UNL     1     -11.991  14.294  69.492  1.00  0.00    -0.384 A  
HETATM   13  O   UNL     1     -11.595  15.766  71.312  1.00  0.00    -0.367 OA 
HETATM   14  H   UNL     1     -11.988  15.130  71.898  1.00  0.00     0.000 HD 
HETATM   15  C   UNL     1     -11.879  14.012  68.129  1.00  0.00    -0.402 A  
ENDBRANCH   5   6
ENDBRANCH   3   5
TORSDOF 2
ENDMDL
MODEL       34
REMARK 921   NORMALIZED FREE ENERGY PREDICTED BY IDOCK:   -4.40 KCAL/MOL
REMARK 922        TOTAL FREE ENERGY PREDICTED BY IDOCK:   -4.98 KCAL/MOL
REMARK 923 INTER-LIGAND FREE ENERGY PREDICTED BY IDOCK:   -4.90 KCAL/MOL
REMARK 924 INTRA-LIGAND FREE ENERGY PREDICTED BY IDOCK:   -0.08 KCAL/MOL
REMARK 927      BINDING AFFINITY PREDICTED BY RF-SCORE:    0.00 PKD
ROOT
HETATM    1  N   UNL     1     -11.397  11.333  63.070  1.00  0.00    -0.827 NA 
HETATM    2  H2  UNL     1     -11.927  10.493  63.302  1.00  0.00     0.000 HD 
HETATM    3  C   UNL     1     -12.110  12.548  63.463  1.00  0.00    -0.562 C  
HETATM    4  H1  UNL     1     -11.149  11.362  62.081  1.00  0.00     0.000 HD 
ENDROOT
BRANCH   3   5
HETATM    5  C   UNL     1     -12.481  12.504  64.948  1.00  0.00    -0.524 C  
BRANCH   5   6
HETATM    6  C   UNL     1     -11.932  13.683  65.717  1.00  0.00    -0.425 A  
HETATM    7  C   UNL     1     -11.447  14.812  65.036  1.00  0.00    -0.389 A  
HETATM    8  C   UNL     1     -10.912  15.873  65.760  1.00  0.00    -0.177 A  
HETATM    9  O   UNL     1     -10.410  16.988  65.144  1.00  0.00    -0.632 OA 
HETATM   10  C   UNL     1     -10.867  15.826  67.149  1.00  0.00    -0.289 A  
HETATM   11  H   UNL     1     -10.045  17.712  65.638  1.00  0.00     0.000 HD 
HETATM   12  C   UNL     1     -11.362  14.731  67.840  1.00  0.00    -0.331 A  
HETATM   13  O   UNL     1     -10.321  16.864  67.849  1.00  0.00    -0.304 OA 
HETATM   14  H   UNL     1     -10.290  16.832  68.798  1.00  0.00     0.000 HD 
HETATM   15  C   UNL     1     -11.898  13.659  67.123  1.00  0.00    -0.435 A  
ENDBRANCH   5   6
ENDBRANCH   3   5
TORSDOF 2
ENDMDL
MODEL       35
REMARK 921   NORMALIZED FREE ENERGY PREDICTED BY IDOCK:   -4.39 KCAL/MOL
REMARK 922        TOTAL FREE ENERGY PREDICTED BY IDOCK:   -4.97 KCAL/MOL
REMARK 923 INTER-LIGAND FREE ENERGY PREDICTED BY IDOCK:   -4.89 KCAL/MOL
REMARK 924 INTRA-LIGAND FREE ENERGY PREDICTED BY IDOCK:   -0.08 KCAL/MOL
REMARK 927      BINDING AFFINITY PREDICTED BY RF-SCORE:    0.00 PKD
ROOT
HETATM    1  N   UNL     1      -8.686  11.169  69.168  1.00  0.00    -0.378 NA 
HETATM    2  H2  UNL     1      -9.540  11.722  69.251  1.00  0.00     0.000 HD 
HETATM    3  C   UNL     1      -8.800   9.889  69.867  1.00  0.00    -0.195 C  
HETATM    4  H1  UNL     1      -7.868  11.687  69.491  1.00  0.00     0.000 HD 
ENDROOT
BRANCH   3   5
HETATM    5  C   UNL     1     -10.026   9.112  69.382  1.00  0.00    -0.192 C  
BRANCH   5   6
HETATM    6  C   UNL     1     -11.122   9.054  70.419  1.00  0.00    -0.279 A  
HETATM    7  C   UNL     1     -11.760  10.231  70.847  1.00  0.00    -0.472 A  
HETATM    8  C   UNL     1     -12.743  10.161  71.828  1.00  0.00    -0.434 A  
HETATM    9  O   UNL     1     -13.381  11.280  72.292  1.00  0.00    -0.625 OA 
HETATM   10  C   UNL     1     -13.104   8.936  72.379  1.00  0.00    -0.418 A  
HETATM   11  H   UNL     1     -14.053  11.233  72.963  1.00  0.00     0.000 HD 
HETATM   12  C   UNL     1     -12.504   7.761  71.953  1.00  0.00    -0.343 A  
HETATM   13  O   UNL     1     -14.056   8.882  73.357  1.00  0.00    -1.256 OA 
HETATM   14  H   UNL     1     -14.303   8.045  73.733  1.00  0.00     0.000 HD 
HETATM   15  C   UNL     1     -11.513   7.820  70.970  1.00  0.00    -0.298 A  
ENDBRANCH   5   6
ENDBRANCH   3   5
TORSDOF 2
ENDMDL
MODEL       36
REMARK 921   NORMALIZED FREE ENERGY PREDICTED BY IDOCK:   -4.39 KCAL/MOL
REMARK 922        TOTAL FREE ENERGY PREDICTED BY IDOCK:   -4.96 KCAL/MOL
REMARK 923 INTER-LIGAND FREE ENERGY PREDICTED BY IDOCK:   -4.90 KCAL/MOL
REMARK 924 INTRA-LIGAND FREE ENERGY PREDICTED BY IDOCK:   -0.07 KCAL/MOL
REMARK 927      BINDING AFFINITY PREDICTED BY RF-SCORE:    0.00 PKD
ROOT
HETATM    1  N   UNL     1      -9.762  16.519  68.043  1.00  0.00    -0.233 NA 
HETATM    2  H2  UNL     1      -9.361  15.779  67.465  1.00  0.00     0.000 HD 
HETATM    3  C   UNL     1     -11.192  16.311  68.271  1.00  0.00    -0.324 C  
HETATM    4  H1  UNL     1      -9.589  17.443  67.647  1.00  0.00     0.000 HD 
ENDROOT
BRANCH   3   5
HETATM    5  C   UNL     1     -11.452  14.924  68.865  1.00  0.00    -0.320 C  
BRANCH   5   6
HETATM    6  C   UNL     1     -11.877  14.984  70.313  1.00  0.00    -0.355 A  
HETATM    7  C   UNL     1     -12.716  13.993  70.849  1.00  0.00    -0.420 A  
HETATM    8  C   UNL     1     -13.125  14.084  72.176  1.00  0.00    -0.411 A  
HETATM    9  O   UNL     1     -13.956  13.155  72.741  1.00  0.00    -0.743 OA 
HETATM   10  C   UNL     1     -12.700  15.142  72.974  1.00  0.00    -0.450 A  
HETATM   11  H   UNL     1     -14.236  13.217  73.647  1.00  0.00     0.000 HD 
HETATM   12  C   UNL     1     -11.853  16.116  72.469  1.00  0.00    -0.630 A  
HETATM   13  O   UNL     1     -13.124  15.233  74.269  1.00  0.00    -0.540 OA 
HETATM   14  H   UNL     1     -12.834  15.955  74.813  1.00  0.00     0.000 HD 
HETATM   15  C   UNL     1     -11.439  16.036  71.138  1.00  0.00    -0.470 A  
ENDBRANCH   5   6
ENDBRANCH   3   5
TORSDOF 2
ENDMDL
MODEL       37
REMARK 921   NORMALIZED FREE ENERGY PREDICTED BY IDOCK:   -4.39 KCAL/MOL
REMARK 922        TOTAL FREE ENERGY PREDICTED BY IDOCK:   -4.96 KCAL/MOL
REMARK 923 INTER-LIGAND FREE ENERGY PREDICTED BY IDOCK:   -4.87 KCAL/MOL
REMARK 924 INTRA-LIGAND FREE ENERGY PREDICTED BY IDOCK:   -0.09 KCAL/MOL
REMARK 927      BINDING AFFINITY PREDICTED BY RF-SCORE:    0.00 PKD
ROOT
HETATM    1  N   UNL     1      -8.474  11.113  69.188  1.00  0.00    -0.373 NA 
HETATM    2  H2  UNL     1      -7.784  10.453  68.828  1.00  0.00     0.000 HD 
HETATM    3  C   UNL     1      -9.831  10.755  68.776  1.00  0.00    -0.194 C  
HETATM    4  H1  UNL     1      -8.255  12.073  68.921  1.00  0.00     0.000 HD 
ENDROOT
BRANCH   3   5
HETATM    5  C   UNL     1     -10.160   9.315  69.177  1.00  0.00    -0.204 C  
BRANCH   5   6
HETATM    6  C   UNL     1     -11.196   9.242  70.274  1.00  0.00    -0.267 A  
HETATM    7  C   UNL     1     -11.520   8.008  70.864  1.00  0.00    -0.291 A  
HETATM    8  C   UNL     1     -12.502   7.955  71.848  1.00  0.00    -0.321 A  
HETATM    9  O   UNL     1     -12.867   6.777  72.441  1.00  0.00    -0.518 OA 
HETATM   10  C   UNL     1     -13.153   9.115  72.257  1.00  0.00    -0.438 A  
HETATM   11  H   UNL     1     -13.538   6.741  73.113  1.00  0.00     0.000 HD 
HETATM   12  C   UNL     1     -12.830  10.344  71.704  1.00  0.00    -0.579 A  
HETATM   13  O   UNL     1     -14.130   9.048  73.209  1.00  0.00    -1.218 OA 
HETATM   14  H   UNL     1     -14.575   9.840  73.489  1.00  0.00     0.000 HD 
HETATM   15  C   UNL     1     -11.848  10.408  70.713  1.00  0.00    -0.466 A  
ENDBRANCH   5   6
ENDBRANCH   3   5
TORSDOF 2
ENDMDL
MODEL       38
REMARK 921   NORMALIZED FREE ENERGY PREDICTED BY IDOCK:   -4.37 KCAL/MOL
REMARK 922        TOTAL FREE ENERGY PREDICTED BY IDOCK:   -4.94 KCAL/MOL
REMARK 923 INTER-LIGAND FREE ENERGY PREDICTED BY IDOCK:   -4.87 KCAL/MOL
REMARK 924 INTRA-LIGAND FREE ENERGY PREDICTED BY IDOCK:   -0.07 KCAL/MOL
REMARK 927      BINDING AFFINITY PREDICTED BY RF-SCORE:    0.00 PKD
ROOT
HETATM    1  N   UNL     1     -14.006   8.887  73.102  1.00  0.00    -1.215 NA 
HETATM    2  H2  UNL     1     -14.825   9.409  73.414  1.00  0.00     0.000 HD 
HETATM    3  C   UNL     1     -13.445   9.445  71.871  1.00  0.00    -0.426 C  
HETATM    4  H1  UNL     1     -14.212   7.894  72.988  1.00  0.00     0.000 HD 
ENDROOT
BRANCH   3   5
HETATM    5  C   UNL     1     -13.135  10.934  72.041  1.00  0.00    -0.462 C  
BRANCH   5   6
HETATM    6  C   UNL     1     -12.520  11.543  70.803  1.00  0.00    -0.444 A  
HETATM    7  C   UNL     1     -12.407  12.938  70.679  1.00  0.00    -0.385 A  
HETATM    8  C   UNL     1     -11.870  13.482  69.517  1.00  0.00    -0.334 A  
HETATM    9  O   UNL     1     -11.754  14.834  69.338  1.00  0.00    -0.289 OA 
HETATM   10  C   UNL     1     -11.436  12.654  68.486  1.00  0.00    -0.311 A  
HETATM   11  H   UNL     1     -11.387  15.206  68.544  1.00  0.00     0.000 HD 
HETATM   12  C   UNL     1     -11.517  11.275  68.600  1.00  0.00    -0.362 A  
HETATM   13  O   UNL     1     -10.929  13.200  67.341  1.00  0.00    -0.255 OA 
HETATM   14  H   UNL     1     -10.633  12.634  66.637  1.00  0.00     0.000 HD 
HETATM   15  C   UNL     1     -12.058  10.719  69.762  1.00  0.00    -0.389 A  
ENDBRANCH   5   6
ENDBRANCH   3   5
TORSDOF 2
ENDMDL
MODEL       39
REMARK 921   NORMALIZED FREE ENERGY PREDICTED BY IDOCK:   -4.36 KCAL/MOL
REMARK 922        TOTAL FREE ENERGY PREDICTED BY IDOCK:   -4.94 KCAL/MOL
REMARK 923 INTER-LIGAND FREE ENERGY PREDICTED BY IDOCK:   -5.01 KCAL/MOL
REMARK 924 INTRA-LIGAND FREE ENERGY PREDICTED BY IDOCK:    0.07 KCAL/MOL
REMARK 927      BINDING AFFINITY PREDICTED BY RF-SCORE:    0.00 PKD
ROOT
HETATM    1  N   UNL     1     -12.382  13.803  63.243  1.00  0.00    -1.124 NA 
HETATM    2  H2  UNL     1     -12.552  14.759  63.555  1.00  0.00     0.000 HD 
HETATM    3  C   UNL     1     -11.473  13.093  64.143  1.00  0.00    -0.403 C  
HETATM    4  H1  UNL     1     -12.036  13.775  62.283  1.00  0.00     0.000 HD 
ENDROOT
BRANCH   3   5
HETATM    5  C   UNL     1     -11.992  13.134  65.583  1.00  0.00    -0.462 C  
BRANCH   5   6
HETATM    6  C   UNL     1     -11.553  14.376  66.321  1.00  0.00    -0.377 A  
HETATM    7  C   UNL     1     -10.799  15.364  65.665  1.00  0.00    -0.363 A  
HETATM    8  C   UNL     1     -10.373  16.484  66.370  1.00  0.00    -0.311 A  
HETATM    9  O   UNL     1      -9.621  17.466  65.783  1.00  0.00    -0.526 OA 
HETATM   10  C   UNL     1     -10.700  16.637  67.714  1.00  0.00    -0.327 A  
HETATM   11  H   UNL     1      -9.331  18.232  66.265  1.00  0.00     0.000 HD 
HETATM   12  C   UNL     1     -11.463  15.686  68.372  1.00  0.00    -0.374 A  
HETATM   13  O   UNL     1     -10.259  17.732  68.403  1.00  0.00    -0.343 OA 
HETATM   14  H   UNL     1     -10.482  17.836  69.320  1.00  0.00     0.000 HD 
HETATM   15  C   UNL     1     -11.892  14.555  67.674  1.00  0.00    -0.395 A  
ENDBRANCH   5   6
ENDBRANCH   3   5
TORSDOF 2
ENDMDL
MODEL       40
REMARK 921   NORMALIZED FREE ENERGY PREDICTED BY IDOCK:   -4.36 KCAL/MOL
REMARK 922        TOTAL FREE ENERGY PREDICTED BY IDOCK:   -4.93 KCAL/MOL
REMARK 923 INTER-LIGAND FREE ENERGY PREDICTED BY IDOCK:   -4.85 KCAL/MOL
REMARK 924 INTRA-LIGAND FREE ENERGY PREDICTED BY IDOCK:   -0.08 KCAL/MOL
REMARK 927      BINDING AFFINITY PREDICTED BY RF-SCORE:    0.00 PKD
ROOT
HETATM    1  N   UNL     1     -13.891  16.033  73.386  1.00  0.00    -0.776 NA 
HETATM    2  H2  UNL     1     -12.899  16.259  73.453  1.00  0.00     0.000 HD 
HETATM    3  C   UNL     1     -14.159  15.091  72.299  1.00  0.00    -0.513 C  
HETATM    4  H1  UNL     1     -14.464  16.872  73.288  1.00  0.00     0.000 HD 
ENDROOT
BRANCH   3   5
HETATM    5  C   UNL     1     -13.301  13.832  72.447  1.00  0.00    -0.635 C  
BRANCH   5   6
HETATM    6  C   UNL     1     -12.735  13.359  71.130  1.00  0.00    -0.411 A  
HETATM    7  C   UNL     1     -12.558  11.987  70.884  1.00  0.00    -0.347 A  
HETATM    8  C   UNL     1     -12.002  11.572  69.678  1.00  0.00    -0.339 A  
HETATM    9  O   UNL     1     -11.792  10.249  69.397  1.00  0.00    -0.458 OA 
HETATM   10  C   UNL     1     -11.633  12.504  68.714  1.00  0.00    -0.322 A  
HETATM   11  H   UNL     1     -11.412   9.965  68.573  1.00  0.00     0.000 HD 
HETATM   12  C   UNL     1     -11.821  13.860  68.928  1.00  0.00    -0.393 A  
HETATM   13  O   UNL     1     -11.069  12.086  67.542  1.00  0.00    -0.244 OA 
HETATM   14  H   UNL     1     -10.816  12.723  66.884  1.00  0.00     0.000 HD 
HETATM   15  C   UNL     1     -12.375  14.289  70.137  1.00  0.00    -0.413 A  
ENDBRANCH   5   6
ENDBRANCH   3   5
TORSDOF 2
ENDMDL
MODEL       41
REMARK 921   NORMALIZED FREE ENERGY PREDICTED BY IDOCK:   -4.32 KCAL/MOL
REMARK 922        TOTAL FREE ENERGY PREDICTED BY IDOCK:   -4.89 KCAL/MOL
REMARK 923 INTER-LIGAND FREE ENERGY PREDICTED BY IDOCK:   -4.80 KCAL/MOL
REMARK 924 INTRA-LIGAND FREE ENERGY PREDICTED BY IDOCK:   -0.09 KCAL/MOL
REMARK 927      BINDING AFFINITY PREDICTED BY RF-SCORE:    0.00 PKD
ROOT
HETATM    1  N   UNL     1      -9.332  17.192  68.695  1.00  0.00    -0.266 NA 
HETATM    2  H2  UNL     1      -8.674  16.848  67.995  1.00  0.00     0.000 HD 
HETATM    3  C   UNL     1     -10.712  16.841  68.359  1.00  0.00    -0.362 C  
HETATM    4  H1  UNL     1      -9.238  18.198  68.838  1.00  0.00     0.000 HD 
ENDROOT
BRANCH   3   5
HETATM    5  C   UNL     1     -10.851  15.332  68.144  1.00  0.00    -0.273 C  
BRANCH   5   6
HETATM    6  C   UNL     1     -11.305  14.986  66.746  1.00  0.00    -0.293 A  
HETATM    7  C   UNL     1     -12.082  13.837  66.515  1.00  0.00    -0.483 A  
HETATM    8  C   UNL     1     -12.460  13.515  65.216  1.00  0.00    -0.482 A  
HETATM    9  O   UNL     1     -13.201  12.399  64.935  1.00  0.00    -0.714 OA 
HETATM   10  C   UNL     1     -12.086  14.328  64.150  1.00  0.00    -0.393 A  
HETATM   11  H   UNL     1     -13.460  12.179  64.047  1.00  0.00     0.000 HD 
HETATM   12  C   UNL     1     -11.341  15.477  64.361  1.00  0.00    -0.260 A  
HETATM   13  O   UNL     1     -12.446  13.991  62.876  1.00  0.00    -1.028 OA 
HETATM   14  H   UNL     1     -12.190  14.546  62.149  1.00  0.00     0.000 HD 
HETATM   15  C   UNL     1     -10.951  15.808  65.661  1.00  0.00    -0.248 A  
ENDBRANCH   5   6
ENDBRANCH   3   5
TORSDOF 2
ENDMDL
MODEL       42
REMARK 921   NORMALIZED FREE ENERGY PREDICTED BY IDOCK:   -4.31 KCAL/MOL
REMARK 922        TOTAL FREE ENERGY PREDICTED BY IDOCK:   -4.87 KCAL/MOL
REMARK 923 INTER-LIGAND FREE ENERGY PREDICTED BY IDOCK:   -4.80 KCAL/MOL
REMARK 924 INTRA-LIGAND FREE ENERGY PREDICTED BY IDOCK:   -0.07 KCAL/MOL
REMARK 927      BINDING AFFINITY PREDICTED BY RF-SCORE:    0.00 PKD
ROOT
HETATM    1  N   UNL     1     -11.755  16.329  63.778  1.00  0.00    -1.488 NA 
HETATM    2  H2  UNL     1     -12.755  16.460  63.927  1.00  0.00     0.000 HD 
HETATM    3  C   UNL     1     -11.150  15.529  64.844  1.00  0.00    -0.416 C  
HETATM    4  H1  UNL     1     -11.268  17.219  63.673  1.00  0.00     0.000 HD 
ENDROOT
BRANCH   3   5
HETATM    5  C   UNL     1     -11.880  14.192  65.001  1.00  0.00    -0.390 C  
BRANCH   5   6
HETATM    6  C   UNL     1     -11.368  13.386  66.171  1.00  0.00    -0.324 A  
HETATM    7  C   UNL     1     -10.479  13.962  67.095  1.00  0.00    -0.269 A  
HETATM    8  C   UNL     1      -9.990  13.193  68.146  1.00  0.00    -0.234 A  
HETATM    9  O   UNL     1      -9.109  13.700  69.063  1.00  0.00    -0.383 OA 
HETATM   10  C   UNL     1     -10.384  11.867  68.293  1.00  0.00    -0.201 A  
HETATM   11  H   UNL     1      -8.775  13.176  69.781  1.00  0.00     0.000 HD 
HETATM   12  C   UNL     1     -11.278  11.289  67.406  1.00  0.00    -0.370 A  
HETATM   13  O   UNL     1      -9.882  11.116  69.318  1.00  0.00    -0.403 OA 
HETATM   14  H   UNL     1     -10.151  10.210  69.418  1.00  0.00     0.000 HD 
HETATM   15  C   UNL     1     -11.773  12.051  66.344  1.00  0.00    -0.326 A  
ENDBRANCH   5   6
ENDBRANCH   3   5
TORSDOF 2
ENDMDL
MODEL       43
REMARK 921   NORMALIZED FREE ENERGY PREDICTED BY IDOCK:   -4.30 KCAL/MOL
REMARK 922        TOTAL FREE ENERGY PREDICTED BY IDOCK:   -4.87 KCAL/MOL
REMARK 923 INTER-LIGAND FREE ENERGY PREDICTED BY IDOCK:   -4.76 KCAL/MOL
REMARK 924 INTRA-LIGAND FREE ENERGY PREDICTED BY IDOCK:   -0.11 KCAL/MOL
REMARK 927      BINDING AFFINITY PREDICTED BY RF-SCORE:    0.00 PKD
ROOT
HETATM    1  N   UNL     1     -10.056  16.390  68.215  1.00  0.00    -0.240 NA 
HETATM    2  H2  UNL     1     -10.927  16.024  67.828  1.00  0.00     0.000 HD 
HETATM    3  C   UNL     1      -8.930  15.494  67.956  1.00  0.00    -0.174 C  
HETATM    4  H1  UNL     1     -10.140  16.589  69.212  1.00  0.00     0.000 HD 
ENDROOT
BRANCH   3   5
HETATM    5  C   UNL     1      -8.804  15.196  66.459  1.00  0.00    -0.312 C  
BRANCH   5   6
HETATM    6  C   UNL     1      -9.992  14.437  65.918  1.00  0.00    -0.350 A  
HETATM    7  C   UNL     1     -10.814  15.011  64.933  1.00  0.00    -0.430 A  
HETATM    8  C   UNL     1     -11.924  14.311  64.472  1.00  0.00    -0.462 A  
HETATM    9  O   UNL     1     -12.765  14.832  63.526  1.00  0.00    -0.851 OA 
HETATM   10  C   UNL     1     -12.217  13.046  64.971  1.00  0.00    -0.453 A  
HETATM   11  H   UNL     1     -13.524  14.354  63.211  1.00  0.00     0.000 HD 
HETATM   12  C   UNL     1     -11.406  12.453  65.926  1.00  0.00    -0.399 A  
HETATM   13  O   UNL     1     -13.322  12.376  64.526  1.00  0.00    -0.800 OA 
HETATM   14  H   UNL     1     -13.522  11.512  64.868  1.00  0.00     0.000 HD 
HETATM   15  C   UNL     1     -10.290  13.149  66.399  1.00  0.00    -0.289 A  
ENDBRANCH   5   6
ENDBRANCH   3   5
TORSDOF 2
ENDMDL
MODEL       44
REMARK 921   NORMALIZED FREE ENERGY PREDICTED BY IDOCK:   -4.29 KCAL/MOL
REMARK 922        TOTAL FREE ENERGY PREDICTED BY IDOCK:   -4.86 KCAL/MOL
REMARK 923 INTER-LIGAND FREE ENERGY PREDICTED BY IDOCK:   -4.77 KCAL/MOL
REMARK 924 INTRA-LIGAND FREE ENERGY PREDICTED BY IDOCK:   -0.09 KCAL/MOL
REMARK 927      BINDING AFFINITY PREDICTED BY RF-SCORE:    0.00 PKD
ROOT
HETATM    1  N   UNL     1      -8.686  11.688  68.802  1.00  0.00    -0.352 NA 
HETATM    2  H2  UNL     1      -8.917  10.707  68.961  1.00  0.00     0.000 HD 
HETATM    3  C   UNL     1      -8.565  11.991  67.376  1.00  0.00    -0.171 C  
HETATM    4  H1  UNL     1      -7.841  11.964  69.304  1.00  0.00     0.000 HD 
ENDROOT
BRANCH   3   5
HETATM    5  C   UNL     1      -9.832  11.577  66.623  1.00  0.00    -0.228 C  
BRANCH   5   6
HETATM    6  C   UNL     1     -10.446  12.721  65.851  1.00  0.00    -0.295 A  
HETATM    7  C   UNL     1      -9.921  14.019  65.966  1.00  0.00    -0.331 A  
HETATM    8  C   UNL     1     -10.521  15.066  65.275  1.00  0.00    -0.403 A  
HETATM    9  O   UNL     1     -10.060  16.352  65.367  1.00  0.00    -0.543 OA 
HETATM   10  C   UNL     1     -11.628  14.833  64.464  1.00  0.00    -0.361 A  
HETATM   11  H   UNL     1     -10.470  17.067  64.895  1.00  0.00     0.000 HD 
HETATM   12  C   UNL     1     -12.145  13.556  64.319  1.00  0.00    -0.482 A  
HETATM   13  O   UNL     1     -12.222  15.873  63.806  1.00  0.00    -1.213 OA 
HETATM   14  H   UNL     1     -12.978  15.713  63.253  1.00  0.00     0.000 HD 
HETATM   15  C   UNL     1     -11.552  12.498  65.011  1.00  0.00    -0.392 A  
ENDBRANCH   5   6
ENDBRANCH   3   5
TORSDOF 2
ENDMDL
MODEL       45
REMARK 921   NORMALIZED FREE ENERGY PREDICTED BY IDOCK:   -4.27 KCAL/MOL
REMARK 922        TOTAL FREE ENERGY PREDICTED BY IDOCK:   -4.83 KCAL/MOL
REMARK 923 INTER-LIGAND FREE ENERGY PREDICTED BY IDOCK:   -4.77 KCAL/MOL
REMARK 924 INTRA-LIGAND FREE ENERGY PREDICTED BY IDOCK:   -0.07 KCAL/MOL
REMARK 927      BINDING AFFINITY PREDICTED BY RF-SCORE:    0.00 PKD
ROOT
HETATM    1  N   UNL     1     -14.136   9.148  72.918  1.00  0.00    -1.088 NA 
HETATM    2  H2  UNL     1     -14.955   9.738  73.065  1.00  0.00     0.000 HD 
HETATM    3  C   UNL     1     -13.325   9.620  71.796  1.00  0.00    -0.419 C  
HETATM    4  H1  UNL     1     -14.393   8.168  72.793  1.00  0.00     0.000 HD 
ENDROOT
BRANCH   3   5
HETATM    5  C   UNL     1     -12.939  11.089  71.984  1.00  0.00    -0.398 C  
BRANCH   5   6
HETATM    6  C   UNL     1     -12.509  11.745  70.693  1.00  0.00    -0.364 A  
HETATM    7  C   UNL     1     -12.245  10.966  69.554  1.00  0.00    -0.331 A  
HETATM    8  C   UNL     1     -11.816  11.584  68.384  1.00  0.00    -0.283 A  
HETATM    9  O   UNL     1     -11.528  10.869  67.253  1.00  0.00    -0.458 OA 
HETATM   10  C   UNL     1     -11.659  12.965  68.333  1.00  0.00    -0.333 A  
HETATM   11  H   UNL     1     -11.235  11.291  66.453  1.00  0.00     0.000 HD 
HETATM   12  C   UNL     1     -11.937  13.753  69.439  1.00  0.00    -0.397 A  
HETATM   13  O   UNL     1     -11.217  13.559  67.186  1.00  0.00    -0.289 OA 
HETATM   14  H   UNL     1     -11.109  14.503  67.151  1.00  0.00     0.000 HD 
HETATM   15  C   UNL     1     -12.365  13.142  70.621  1.00  0.00    -0.405 A  
ENDBRANCH   5   6
ENDBRANCH   3   5
TORSDOF 2
ENDMDL
MODEL       46
REMARK 921   NORMALIZED FREE ENERGY PREDICTED BY IDOCK:   -4.25 KCAL/MOL
REMARK 922        TOTAL FREE ENERGY PREDICTED BY IDOCK:   -4.81 KCAL/MOL
REMARK 923 INTER-LIGAND FREE ENERGY PREDICTED BY IDOCK:   -4.74 KCAL/MOL
REMARK 924 INTRA-LIGAND FREE ENERGY PREDICTED BY IDOCK:   -0.07 KCAL/MOL
REMARK 927      BINDING AFFINITY PREDICTED BY RF-SCORE:    0.00 PKD
ROOT
HETATM    1  N   UNL     1     -12.287  11.597  63.133  1.00  0.00    -0.966 NA 
HETATM    2  H2  UNL     1     -13.065  12.004  62.614  1.00  0.00     0.000 HD 
HETATM    3  C   UNL     1     -11.316  12.614  63.538  1.00  0.00    -0.463 C  
HETATM    4  H1  UNL     1     -11.832  10.850  62.607  1.00  0.00     0.000 HD 
ENDROOT
BRANCH   3   5
HETATM    5  C   UNL     1     -11.999  13.734  64.327  1.00  0.00    -0.481 C  
BRANCH   5   6
HETATM    6  C   UNL     1     -11.442  13.881  65.723  1.00  0.00    -0.324 A  
HETATM    7  C   UNL     1     -12.278  14.266  66.785  1.00  0.00    -0.384 A  
HETATM    8  C   UNL     1     -11.741  14.430  68.057  1.00  0.00    -0.340 A  
HETATM    9  O   UNL     1     -12.508  14.821  69.121  1.00  0.00    -0.569 OA 
HETATM   10  C   UNL     1     -10.387  14.205  68.285  1.00  0.00    -0.245 A  
HETATM   11  H   UNL     1     -12.141  14.934  69.991  1.00  0.00     0.000 HD 
HETATM   12  C   UNL     1      -9.551  13.801  67.256  1.00  0.00    -0.237 A  
HETATM   13  O   UNL     1      -9.866  14.389  69.534  1.00  0.00    -0.412 OA 
HETATM   14  H   UNL     1      -8.941  14.236  69.690  1.00  0.00     0.000 HD 
HETATM   15  C   UNL     1     -10.080  13.637  65.974  1.00  0.00    -0.320 A  
ENDBRANCH   5   6
ENDBRANCH   3   5
TORSDOF 2
ENDMDL
MODEL       47
REMARK 921   NORMALIZED FREE ENERGY PREDICTED BY IDOCK:   -4.21 KCAL/MOL
REMARK 922        TOTAL FREE ENERGY PREDICTED BY IDOCK:   -4.77 KCAL/MOL
REMARK 923 INTER-LIGAND FREE ENERGY PREDICTED BY IDOCK:   -4.68 KCAL/MOL
REMARK 924 INTRA-LIGAND FREE ENERGY PREDICTED BY IDOCK:   -0.09 KCAL/MOL
REMARK 927      BINDING AFFINITY PREDICTED BY RF-SCORE:    0.00 PKD
ROOT
HETATM    1  N   UNL     1     -11.314  12.638  69.721  1.00  0.00    -0.496 NA 
HETATM    2  H2  UNL     1     -11.684  11.712  69.506  1.00  0.00     0.000 HD 
HETATM    3  C   UNL     1     -10.862  13.333  68.515  1.00  0.00    -0.265 C  
HETATM    4  H1  UNL     1     -10.567  12.594  70.414  1.00  0.00     0.000 HD 
ENDROOT
BRANCH   3   5
HETATM    5  C   UNL     1     -11.983  13.398  67.474  1.00  0.00    -0.381 C  
BRANCH   5   6
HETATM    6  C   UNL     1     -11.619  12.700  66.185  1.00  0.00    -0.445 A  
HETATM    7  C   UNL     1     -10.749  11.597  66.197  1.00  0.00    -0.325 A  
HETATM    8  C   UNL     1     -10.396  10.988  64.997  1.00  0.00    -0.295 A  
HETATM    9  O   UNL     1      -9.539   9.922  64.952  1.00  0.00    -0.281 OA 
HETATM   10  C   UNL     1     -10.908  11.457  63.791  1.00  0.00    -0.395 A  
HETATM   11  H   UNL     1      -9.298   9.506  64.132  1.00  0.00     0.000 HD 
HETATM   12  C   UNL     1     -11.786  12.529  63.762  1.00  0.00    -0.577 A  
HETATM   13  O   UNL     1     -10.539  10.865  62.617  1.00  0.00    -0.761 OA 
HETATM   14  H   UNL     1     -10.889  11.186  61.794  1.00  0.00     0.000 HD 
HETATM   15  C   UNL     1     -12.144  13.150  64.961  1.00  0.00    -0.458 A  
ENDBRANCH   5   6
ENDBRANCH   3   5
TORSDOF 2
ENDMDL
MODEL       48
REMARK 921   NORMALIZED FREE ENERGY PREDICTED BY IDOCK:   -4.20 KCAL/MOL
REMARK 922        TOTAL FREE ENERGY PREDICTED BY IDOCK:   -4.76 KCAL/MOL
REMARK 923 INTER-LIGAND FREE ENERGY PREDICTED BY IDOCK:   -4.68 KCAL/MOL
REMARK 924 INTRA-LIGAND FREE ENERGY PREDICTED BY IDOCK:   -0.08 KCAL/MOL
REMARK 927      BINDING AFFINITY PREDICTED BY RF-SCORE:    0.00 PKD
ROOT
HETATM    1  N   UNL     1     -10.340  19.682  69.377  1.00  0.00    -0.565 NA 
HETATM    2  H2  UNL     1     -11.260  19.242  69.364  1.00  0.00     0.000 HD 
HETATM    3  C   UNL     1      -9.437  19.077  68.398  1.00  0.00    -0.364 C  
HETATM    4  H1  UNL     1      -9.926  19.666  70.310  1.00  0.00     0.000 HD 
ENDROOT
BRANCH   3   5
HETATM    5  C   UNL     1     -10.057  19.101  66.999  1.00  0.00    -0.448 C  
BRANCH   5   6
HETATM    6  C   UNL     1     -10.095  17.734  66.358  1.00  0.00    -0.357 A  
HETATM    7  C   UNL     1     -10.998  17.463  65.316  1.00  0.00     0.154 A  
HETATM    8  C   UNL     1     -11.043  16.188  64.762  1.00  0.00    -0.333 A  
HETATM    9  O   UNL     1     -11.916  15.867  63.757  1.00  0.00    -1.238 OA 
HETATM   10  C   UNL     1     -10.194  15.187  65.224  1.00  0.00    -0.368 A  
HETATM   11  H   UNL     1     -11.947  14.996  63.378  1.00  0.00     0.000 HD 
HETATM   12  C   UNL     1      -9.281  15.442  66.235  1.00  0.00    -0.354 A  
HETATM   13  O   UNL     1     -10.262  13.933  64.687  1.00  0.00    -0.546 OA 
HETATM   14  H   UNL     1      -9.682  13.250  65.004  1.00  0.00     0.000 HD 
HETATM   15  C   UNL     1      -9.230  16.718  66.801  1.00  0.00    -0.263 A  
ENDBRANCH   5   6
ENDBRANCH   3   5
TORSDOF 2
ENDMDL
MODEL       49
REMARK 921   NORMALIZED FREE ENERGY PREDICTED BY IDOCK:   -4.20 KCAL/MOL
REMARK 922        TOTAL FREE ENERGY PREDICTED BY IDOCK:   -4.76 KCAL/MOL
REMARK 923 INTER-LIGAND FREE ENERGY PREDICTED BY IDOCK:   -4.67 KCAL/MOL
REMARK 924 INTRA-LIGAND FREE ENERGY PREDICTED BY IDOCK:   -0.09 KCAL/MOL
REMARK 927      BINDING AFFINITY PREDICTED BY RF-SCORE:    0.00 PKD
ROOT
HETATM    1  N   UNL     1     -13.574  16.194  73.471  1.00  0.00    -0.866 NA 
HETATM    2  H2  UNL     1     -12.562  16.315  73.417  1.00  0.00     0.000 HD 
HETATM    3  C   UNL     1     -14.089  15.436  72.331  1.00  0.00    -0.549 C  
HETATM    4  H1  UNL     1     -14.057  17.088  73.560  1.00  0.00     0.000 HD 
ENDROOT
BRANCH   3   5
HETATM    5  C   UNL     1     -13.364  14.094  72.198  1.00  0.00    -0.527 C  
BRANCH   5   6
HETATM    6  C   UNL     1     -12.657  13.947  70.871  1.00  0.00    -0.431 A  
HETATM    7  C   UNL     1     -12.403  15.075  70.073  1.00  0.00    -0.353 A  
HETATM    8  C   UNL     1     -11.782  14.916  68.838  1.00  0.00    -0.315 A  
HETATM    9  O   UNL     1     -11.529  15.980  68.014  1.00  0.00    -0.309 OA 
HETATM   10  C   UNL     1     -11.402  13.652  68.398  1.00  0.00    -0.295 A  
HETATM   11  H   UNL     1     -11.104  15.871  67.171  1.00  0.00     0.000 HD 
HETATM   12  C   UNL     1     -11.623  12.531  69.182  1.00  0.00    -0.375 A  
HETATM   13  O   UNL     1     -10.812  13.505  67.174  1.00  0.00    -0.279 OA 
HETATM   14  H   UNL     1     -10.553  12.642  66.874  1.00  0.00     0.000 HD 
HETATM   15  C   UNL     1     -12.249  12.679  70.422  1.00  0.00    -0.368 A  
ENDBRANCH   5   6
ENDBRANCH   3   5
TORSDOF 2
ENDMDL
MODEL       50
REMARK 921   NORMALIZED FREE ENERGY PREDICTED BY IDOCK:   -4.20 KCAL/MOL
REMARK 922        TOTAL FREE ENERGY PREDICTED BY IDOCK:   -4.76 KCAL/MOL
REMARK 923 INTER-LIGAND FREE ENERGY PREDICTED BY IDOCK:   -4.67 KCAL/MOL
REMARK 924 INTRA-LIGAND FREE ENERGY PREDICTED BY IDOCK:   -0.09 KCAL/MOL
REMARK 927      BINDING AFFINITY PREDICTED BY RF-SCORE:    0.00 PKD
ROOT
HETATM    1  N   UNL     1     -12.643  11.517  62.869  1.00  0.00    -0.874 NA 
HETATM    2  H2  UNL     1     -13.621  11.790  62.762  1.00  0.00     0.000 HD 
HETATM    3  C   UNL     1     -11.880  12.523  63.608  1.00  0.00    -0.530 C  
HETATM    4  H1  UNL     1     -12.205  11.319  61.969  1.00  0.00     0.000 HD 
ENDROOT
BRANCH   3   5
HETATM    5  C   UNL     1     -12.537  12.820  64.959  1.00  0.00    -0.538 C  
BRANCH   5   6
HETATM    6  C   UNL     1     -11.690  12.371  66.126  1.00  0.00    -0.460 A  
HETATM    7  C   UNL     1     -11.848  12.967  67.389  1.00  0.00    -0.418 A  
HETATM    8  C   UNL     1     -11.034  12.565  68.443  1.00  0.00    -0.248 A  
HETATM    9  O   UNL     1     -11.135  13.126  69.688  1.00  0.00    -0.459 OA 
HETATM   10  C   UNL     1     -10.077  11.573  68.257  1.00  0.00    -0.199 A  
HETATM   11  H   UNL     1     -10.580  12.852  70.409  1.00  0.00     0.000 HD 
HETATM   12  C   UNL     1      -9.923  10.957  67.025  1.00  0.00    -0.227 A  
HETATM   13  O   UNL     1      -9.270  11.201  69.295  1.00  0.00    -0.397 OA 
HETATM   14  H   UNL     1      -8.616  10.523  69.168  1.00  0.00     0.000 HD 
HETATM   15  C   UNL     1     -10.732  11.355  65.958  1.00  0.00    -0.318 A  
ENDBRANCH   5   6
ENDBRANCH   3   5
TORSDOF 2
ENDMDL
MODEL       51
REMARK 921   NORMALIZED FREE ENERGY PREDICTED BY IDOCK:   -4.17 KCAL/MOL
REMARK 922        TOTAL FREE ENERGY PREDICTED BY IDOCK:   -4.72 KCAL/MOL
REMARK 923 INTER-LIGAND FREE ENERGY PREDICTED BY IDOCK:   -4.66 KCAL/MOL
REMARK 924 INTRA-LIGAND FREE ENERGY PREDICTED BY IDOCK:   -0.07 KCAL/MOL
REMARK 927      BINDING AFFINITY PREDICTED BY RF-SCORE:    0.00 PKD
ROOT
HETATM    1  N   UNL     1     -11.171  15.955  67.633  1.00  0.00    -0.272 NA 
HETATM    2  H2  UNL     1     -11.545  15.508  66.795  1.00  0.00     0.000 HD 
HETATM    3  C   UNL     1     -11.532  15.219  68.845  1.00  0.00    -0.332 C  
HETATM    4  H1  UNL     1     -11.460  16.931  67.702  1.00  0.00     0.000 HD 
ENDROOT
BRANCH   3   5
HETATM    5  C   UNL     1     -11.097  13.755  68.742  1.00  0.00    -0.295 C  
BRANCH   5   6
HETATM    6  C   UNL     1     -11.797  12.871  69.747  1.00  0.00    -0.380 A  
HETATM    7  C   UNL     1     -12.505  13.438  70.820  1.00  0.00    -0.418 A  
HETATM    8  C   UNL     1     -13.113  12.607  71.756  1.00  0.00    -0.360 A  
HETATM    9  O   UNL     1     -13.799  13.109  72.830  1.00  0.00    -0.721 OA 
HETATM   10  C   UNL     1     -13.034  11.224  71.628  1.00  0.00    -0.432 A  
HETATM   11  H   UNL     1     -14.214  12.542  73.469  1.00  0.00     0.000 HD 
HETATM   12  C   UNL     1     -12.360  10.647  70.564  1.00  0.00    -0.448 A  
HETATM   13  O   UNL     1     -13.617  10.418  72.565  1.00  0.00    -0.581 OA 
HETATM   14  H   UNL     1     -13.563   9.474  72.477  1.00  0.00     0.000 HD 
HETATM   15  C   UNL     1     -11.743  11.471  69.620  1.00  0.00    -0.419 A  
ENDBRANCH   5   6
ENDBRANCH   3   5
TORSDOF 2
ENDMDL
MODEL       52
REMARK 921   NORMALIZED FREE ENERGY PREDICTED BY IDOCK:   -4.16 KCAL/MOL
REMARK 922        TOTAL FREE ENERGY PREDICTED BY IDOCK:   -4.71 KCAL/MOL
REMARK 923 INTER-LIGAND FREE ENERGY PREDICTED BY IDOCK:   -4.65 KCAL/MOL
REMARK 924 INTRA-LIGAND FREE ENERGY PREDICTED BY IDOCK:   -0.06 KCAL/MOL
REMARK 927      BINDING AFFINITY PREDICTED BY RF-SCORE:    0.00 PKD
ROOT
HETATM    1  N   UNL     1     -10.899  15.098  66.911  1.00  0.00    -0.313 NA 
HETATM    2  H2  UNL     1      -9.961  15.326  67.245  1.00  0.00     0.000 HD 
HETATM    3  C   UNL     1     -11.529  14.065  67.732  1.00  0.00    -0.322 C  
HETATM    4  H1  UNL     1     -10.894  14.827  65.928  1.00  0.00     0.000 HD 
ENDROOT
BRANCH   3   5
HETATM    5  C   UNL     1     -11.536  14.472  69.208  1.00  0.00    -0.339 C  
BRANCH   5   6
HETATM    6  C   UNL     1     -12.074  13.384  70.107  1.00  0.00    -0.415 A  
HETATM    7  C   UNL     1     -11.895  12.031  69.770  1.00  0.00    -0.401 A  
HETATM    8  C   UNL     1     -12.428  11.043  70.591  1.00  0.00    -0.373 A  
HETATM    9  O   UNL     1     -12.297   9.712  70.299  1.00  0.00    -0.475 OA 
HETATM   10  C   UNL     1     -13.124  11.386  71.746  1.00  0.00    -0.418 A  
HETATM   11  H   UNL     1     -12.661   9.037  70.860  1.00  0.00     0.000 HD 
HETATM   12  C   UNL     1     -13.290  12.714  72.107  1.00  0.00    -0.570 A  
HETATM   13  O   UNL     1     -13.660  10.408  72.535  1.00  0.00    -0.581 OA 
HETATM   14  H   UNL     1     -14.136  10.643  73.323  1.00  0.00     0.000 HD 
HETATM   15  C   UNL     1     -12.763  13.714  71.288  1.00  0.00    -0.443 A  
ENDBRANCH   5   6
ENDBRANCH   3   5
TORSDOF 2
ENDMDL
MODEL       53
REMARK 921   NORMALIZED FREE ENERGY PREDICTED BY IDOCK:   -4.16 KCAL/MOL
REMARK 922        TOTAL FREE ENERGY PREDICTED BY IDOCK:   -4.71 KCAL/MOL
REMARK 923 INTER-LIGAND FREE ENERGY PREDICTED BY IDOCK:   -4.63 KCAL/MOL
REMARK 924 INTRA-LIGAND FREE ENERGY PREDICTED BY IDOCK:   -0.08 KCAL/MOL
REMARK 927      BINDING AFFINITY PREDICTED BY RF-SCORE:    0.00 PKD
ROOT
HETATM    1  N   UNL     1     -10.880   6.911  66.810  1.00  0.00    -0.539 NA 
HETATM    2  H2  UNL     1     -11.438   6.288  67.394  1.00  0.00     0.000 HD 
HETATM    3  C   UNL     1     -10.594   8.175  67.487  1.00  0.00    -0.221 C  
HETATM    4  H1  UNL     1     -11.321   7.076  65.905  1.00  0.00     0.000 HD 
ENDROOT
BRANCH   3   5
HETATM    5  C   UNL     1      -9.932   7.928  68.845  1.00  0.00    -0.194 C  
BRANCH   5   6
HETATM    6  C   UNL     1     -10.874   8.167  70.001  1.00  0.00    -0.233 A  
HETATM    7  C   UNL     1     -11.476   7.083  70.663  1.00  0.00    -0.367 A  
HETATM    8  C   UNL     1     -12.368   7.324  71.703  1.00  0.00    -0.352 A  
HETATM    9  O   UNL     1     -12.995   6.305  72.368  1.00  0.00    -0.533 OA 
HETATM   10  C   UNL     1     -12.658   8.627  72.096  1.00  0.00    -0.391 A  
HETATM   11  H   UNL     1     -13.604   6.469  73.079  1.00  0.00     0.000 HD 
HETATM   12  C   UNL     1     -12.056   9.708  71.471  1.00  0.00    -0.482 A  
HETATM   13  O   UNL     1     -13.551   8.852  73.105  1.00  0.00    -0.997 OA 
HETATM   14  H   UNL     1     -13.749   9.742  73.373  1.00  0.00     0.000 HD 
HETATM   15  C   UNL     1     -11.161   9.477  70.423  1.00  0.00    -0.323 A  
ENDBRANCH   5   6
ENDBRANCH   3   5
TORSDOF 2
ENDMDL
MODEL       54
REMARK 921   NORMALIZED FREE ENERGY PREDICTED BY IDOCK:   -4.12 KCAL/MOL
REMARK 922        TOTAL FREE ENERGY PREDICTED BY IDOCK:   -4.66 KCAL/MOL
REMARK 923 INTER-LIGAND FREE ENERGY PREDICTED BY IDOCK:   -4.60 KCAL/MOL
REMARK 924 INTRA-LIGAND FREE ENERGY PREDICTED BY IDOCK:   -0.06 KCAL/MOL
REMARK 927      BINDING AFFINITY PREDICTED BY RF-SCORE:    0.00 PKD
ROOT
HETATM    1  N   UNL     1     -13.517  16.058  73.815  1.00  0.00    -0.863 NA 
HETATM    2  H2  UNL     1     -13.700  16.906  73.278  1.00  0.00     0.000 HD 
HETATM    3  C   UNL     1     -12.859  15.034  73.003  1.00  0.00    -0.471 C  
HETATM    4  H1  UNL     1     -14.368  15.691  74.242  1.00  0.00     0.000 HD 
ENDROOT
BRANCH   3   5
HETATM    5  C   UNL     1     -11.582  15.586  72.364  1.00  0.00    -0.543 C  
BRANCH   5   6
HETATM    6  C   UNL     1     -11.549  15.382  70.867  1.00  0.00    -0.396 A  
HETATM    7  C   UNL     1     -11.826  14.119  70.316  1.00  0.00    -0.373 A  
HETATM    8  C   UNL     1     -11.756  13.941  68.939  1.00  0.00    -0.337 A  
HETATM    9  O   UNL     1     -11.999  12.728  68.353  1.00  0.00    -0.319 OA 
HETATM   10  C   UNL     1     -11.427  15.006  68.106  1.00  0.00    -0.339 A  
HETATM   11  H   UNL     1     -11.951  12.606  67.412  1.00  0.00     0.000 HD 
HETATM   12  C   UNL     1     -11.174  16.265  68.629  1.00  0.00    -0.354 A  
HETATM   13  O   UNL     1     -11.341  14.815  66.756  1.00  0.00    -0.340 OA 
HETATM   14  H   UNL     1     -11.115  15.543  66.188  1.00  0.00     0.000 HD 
HETATM   15  C   UNL     1     -11.237  16.453  70.012  1.00  0.00    -0.266 A  
ENDBRANCH   5   6
ENDBRANCH   3   5
TORSDOF 2
ENDMDL
MODEL       55
REMARK 921   NORMALIZED FREE ENERGY PREDICTED BY IDOCK:   -4.08 KCAL/MOL
REMARK 922        TOTAL FREE ENERGY PREDICTED BY IDOCK:   -4.62 KCAL/MOL
REMARK 923 INTER-LIGAND FREE ENERGY PREDICTED BY IDOCK:   -4.51 KCAL/MOL
REMARK 924 INTRA-LIGAND FREE ENERGY PREDICTED BY IDOCK:   -0.11 KCAL/MOL
REMARK 927      BINDING AFFINITY PREDICTED BY RF-SCORE:    0.00 PKD
ROOT
HETATM    1  N   UNL     1     -11.063   6.865  73.497  1.00  0.00    -0.517 NA 
HETATM    2  H2  UNL     1     -11.804   6.876  74.199  1.00  0.00     0.000 HD 
HETATM    3  C   UNL     1     -11.535   6.325  72.222  1.00  0.00    -0.306 C  
HETATM    4  H1  UNL     1     -10.240   6.358  73.823  1.00  0.00     0.000 HD 
ENDROOT
BRANCH   3   5
HETATM    5  C   UNL     1     -12.769   7.085  71.732  1.00  0.00    -0.378 C  
BRANCH   5   6
HETATM    6  C   UNL     1     -12.459   8.516  71.362  1.00  0.00    -0.327 A  
HETATM    7  C   UNL     1     -13.110   9.577  72.015  1.00  0.00    -0.528 A  
HETATM    8  C   UNL     1     -12.837  10.887  71.637  1.00  0.00    -0.449 A  
HETATM    9  O   UNL     1     -13.458  11.954  72.229  1.00  0.00    -0.602 OA 
HETATM   10  C   UNL     1     -11.918  11.152  70.627  1.00  0.00    -0.360 A  
HETATM   11  H   UNL     1     -13.271  12.850  71.971  1.00  0.00     0.000 HD 
HETATM   12  C   UNL     1     -11.248  10.121  69.987  1.00  0.00    -0.361 A  
HETATM   13  O   UNL     1     -11.673  12.442  70.249  1.00  0.00    -0.516 OA 
HETATM   14  H   UNL     1     -11.045  12.623  69.559  1.00  0.00     0.000 HD 
HETATM   15  C   UNL     1     -11.517   8.801  70.357  1.00  0.00    -0.163 A  
ENDBRANCH   5   6
ENDBRANCH   3   5
TORSDOF 2
ENDMDL
MODEL       56
REMARK 921   NORMALIZED FREE ENERGY PREDICTED BY IDOCK:   -4.05 KCAL/MOL
REMARK 922        TOTAL FREE ENERGY PREDICTED BY IDOCK:   -4.58 KCAL/MOL
REMARK 923 INTER-LIGAND FREE ENERGY PREDICTED BY IDOCK:   -4.52 KCAL/MOL
REMARK 924 INTRA-LIGAND FREE ENERGY PREDICTED BY IDOCK:   -0.06 KCAL/MOL
REMARK 927      BINDING AFFINITY PREDICTED BY RF-SCORE:    0.00 PKD
ROOT
HETATM    1  N   UNL     1     -11.613  16.382  63.733  1.00  0.00    -1.515 NA 
HETATM    2  H2  UNL     1     -12.557  16.742  63.874  1.00  0.00     0.000 HD 
HETATM    3  C   UNL     1     -11.153  15.603  64.883  1.00  0.00    -0.402 C  
HETATM    4  H1  UNL     1     -10.953  17.129  63.514  1.00  0.00     0.000 HD 
ENDROOT
BRANCH   3   5
HETATM    5  C   UNL     1     -12.144  14.482  65.211  1.00  0.00    -0.337 C  
BRANCH   5   6
HETATM    6  C   UNL     1     -11.468  13.268  65.802  1.00  0.00    -0.349 A  
HETATM    7  C   UNL     1     -10.420  12.632  65.115  1.00  0.00    -0.319 A  
HETATM    8  C   UNL     1      -9.834  11.494  65.658  1.00  0.00    -0.236 A  
HETATM    9  O   UNL     1      -8.822  10.828  65.020  1.00  0.00    -0.195 OA 
HETATM   10  C   UNL     1     -10.270  10.990  66.879  1.00  0.00    -0.222 A  
HETATM   11  H   UNL     1      -8.421  10.050  65.391  1.00  0.00     0.000 HD 
HETATM   12  C   UNL     1     -11.287  11.617  67.583  1.00  0.00    -0.362 A  
HETATM   13  O   UNL     1      -9.701   9.860  67.393  1.00  0.00    -0.154 OA 
HETATM   14  H   UNL     1     -10.000   9.516  68.227  1.00  0.00     0.000 HD 
HETATM   15  C   UNL     1     -11.885  12.759  67.045  1.00  0.00    -0.428 A  
ENDBRANCH   5   6
ENDBRANCH   3   5
TORSDOF 2
ENDMDL
MODEL       57
REMARK 921   NORMALIZED FREE ENERGY PREDICTED BY IDOCK:   -4.04 KCAL/MOL
REMARK 922        TOTAL FREE ENERGY PREDICTED BY IDOCK:   -4.57 KCAL/MOL
REMARK 923 INTER-LIGAND FREE ENERGY PREDICTED BY IDOCK:   -4.51 KCAL/MOL
REMARK 924 INTRA-LIGAND FREE ENERGY PREDICTED BY IDOCK:   -0.06 KCAL/MOL
REMARK 927      BINDING AFFINITY PREDICTED BY RF-SCORE:    0.00 PKD
ROOT
HETATM    1  N   UNL     1      -9.709  17.931  68.696  1.00  0.00    -0.344 NA 
HETATM    2  H2  UNL     1     -10.376  18.476  68.148  1.00  0.00     0.000 HD 
HETATM    3  C   UNL     1      -9.763  16.509  68.357  1.00  0.00    -0.236 C  
HETATM    4  H1  UNL     1      -9.841  18.070  69.698  1.00  0.00     0.000 HD 
ENDROOT
BRANCH   3   5
HETATM    5  C   UNL     1      -9.565  16.302  66.853  1.00  0.00    -0.244 C  
BRANCH   5   6
HETATM    6  C   UNL     1     -10.537  15.302  66.273  1.00  0.00    -0.312 A  
HETATM    7  C   UNL     1     -10.772  14.079  66.924  1.00  0.00    -0.285 A  
HETATM    8  C   UNL     1     -11.644  13.156  66.356  1.00  0.00    -0.349 A  
HETATM    9  O   UNL     1     -11.893  11.943  66.941  1.00  0.00    -0.590 OA 
HETATM   10  C   UNL     1     -12.291  13.441  65.158  1.00  0.00    -0.456 A  
HETATM   11  H   UNL     1     -12.489  11.313  66.553  1.00  0.00     0.000 HD 
HETATM   12  C   UNL     1     -12.091  14.652  64.514  1.00  0.00    -0.490 A  
HETATM   13  O   UNL     1     -13.129  12.519  64.600  1.00  0.00    -0.845 OA 
HETATM   14  H   UNL     1     -13.571  12.714  63.781  1.00  0.00     0.000 HD 
HETATM   15  C   UNL     1     -11.214  15.585  65.073  1.00  0.00    -0.364 A  
ENDBRANCH   5   6
ENDBRANCH   3   5
TORSDOF 2
ENDMDL
MODEL       58
REMARK 921   NORMALIZED FREE ENERGY PREDICTED BY IDOCK:   -4.04 KCAL/MOL
REMARK 922        TOTAL FREE ENERGY PREDICTED BY IDOCK:   -4.57 KCAL/MOL
REMARK 923 INTER-LIGAND FREE ENERGY PREDICTED BY IDOCK:   -4.51 KCAL/MOL
REMARK 924 INTRA-LIGAND FREE ENERGY PREDICTED BY IDOCK:   -0.06 KCAL/MOL
REMARK 927      BINDING AFFINITY PREDICTED BY RF-SCORE:    0.00 PKD
ROOT
HETATM    1  N   UNL     1      -6.102  14.832  68.728  1.00  0.00    -0.082 NA 
HETATM    2  H2  UNL     1      -6.151  13.962  69.259  1.00  0.00     0.000 HD 
HETATM    3  C   UNL     1      -6.832  14.735  67.463  1.00  0.00    -0.155 C  
HETATM    4  H1  UNL     1      -5.138  15.124  68.568  1.00  0.00     0.000 HD 
ENDROOT
BRANCH   3   5
HETATM    5  C   UNL     1      -8.279  14.298  67.703  1.00  0.00    -0.193 C  
BRANCH   5   6
HETATM    6  C   UNL     1      -9.238  14.896  66.701  1.00  0.00    -0.302 A  
HETATM    7  C   UNL     1      -9.937  14.068  65.805  1.00  0.00    -0.319 A  
HETATM    8  C   UNL     1     -10.789  14.639  64.866  1.00  0.00    -0.419 A  
HETATM    9  O   UNL     1     -11.478  13.879  63.959  1.00  0.00    -0.590 OA 
HETATM   10  C   UNL     1     -10.961  16.019  64.816  1.00  0.00    -0.356 A  
HETATM   11  H   UNL     1     -12.061  14.269  63.318  1.00  0.00     0.000 HD 
HETATM   12  C   UNL     1     -10.299  16.850  65.707  1.00  0.00    -0.298 A  
HETATM   13  O   UNL     1     -11.784  16.570  63.876  1.00  0.00    -1.527 OA 
HETATM   14  H   UNL     1     -11.901  17.513  63.842  1.00  0.00     0.000 HD 
HETATM   15  C   UNL     1      -9.438  16.287  66.652  1.00  0.00    -0.269 A  
ENDBRANCH   5   6
ENDBRANCH   3   5
TORSDOF 2
ENDMDL
MODEL       59
REMARK 921   NORMALIZED FREE ENERGY PREDICTED BY IDOCK:   -4.03 KCAL/MOL
REMARK 922        TOTAL FREE ENERGY PREDICTED BY IDOCK:   -4.57 KCAL/MOL
REMARK 923 INTER-LIGAND FREE ENERGY PREDICTED BY IDOCK:   -4.51 KCAL/MOL
REMARK 924 INTRA-LIGAND FREE ENERGY PREDICTED BY IDOCK:   -0.06 KCAL/MOL
REMARK 927      BINDING AFFINITY PREDICTED BY RF-SCORE:    0.00 PKD
ROOT
HETATM    1  N   UNL     1     -10.493  19.040  65.638  1.00  0.00    -0.553 NA 
HETATM    2  H2  UNL     1     -11.284  19.205  65.016  1.00  0.00     0.000 HD 
HETATM    3  C   UNL     1     -10.521  17.690  66.202  1.00  0.00    -0.295 C  
HETATM    4  H1  UNL     1     -10.441  19.740  66.378  1.00  0.00     0.000 HD 
ENDROOT
BRANCH   3   5
HETATM    5  C   UNL     1     -10.597  16.639  65.092  1.00  0.00    -0.181 C  
BRANCH   5   6
HETATM    6  C   UNL     1     -10.958  15.269  65.615  1.00  0.00    -0.348 A  
HETATM    7  C   UNL     1     -11.939  14.497  64.970  1.00  0.00    -0.399 A  
HETATM    8  C   UNL     1     -12.284  13.253  65.487  1.00  0.00    -0.457 A  
HETATM    9  O   UNL     1     -13.246  12.470  64.907  1.00  0.00    -0.787 OA 
HETATM   10  C   UNL     1     -11.656  12.765  66.629  1.00  0.00    -0.370 A  
HETATM   11  H   UNL     1     -13.481  11.620  65.260  1.00  0.00     0.000 HD 
HETATM   12  C   UNL     1     -10.669  13.501  67.266  1.00  0.00    -0.272 A  
HETATM   13  O   UNL     1     -12.017  11.551  67.140  1.00  0.00    -0.581 OA 
HETATM   14  H   UNL     1     -11.588  11.218  67.920  1.00  0.00     0.000 HD 
HETATM   15  C   UNL     1     -10.318  14.754  66.757  1.00  0.00    -0.268 A  
ENDBRANCH   5   6
ENDBRANCH   3   5
TORSDOF 2
ENDMDL
MODEL       60
REMARK 921   NORMALIZED FREE ENERGY PREDICTED BY IDOCK:   -4.00 KCAL/MOL
REMARK 922        TOTAL FREE ENERGY PREDICTED BY IDOCK:   -4.53 KCAL/MOL
REMARK 923 INTER-LIGAND FREE ENERGY PREDICTED BY IDOCK:   -4.45 KCAL/MOL
REMARK 924 INTRA-LIGAND FREE ENERGY PREDICTED BY IDOCK:   -0.09 KCAL/MOL
REMARK 927      BINDING AFFINITY PREDICTED BY RF-SCORE:    0.00 PKD
ROOT
HETATM    1  N   UNL     1     -12.603  13.763  63.007  1.00  0.00    -0.905 NA 
HETATM    2  H2  UNL     1     -12.680  14.730  63.322  1.00  0.00     0.000 HD 
HETATM    3  C   UNL     1     -11.877  12.936  63.971  1.00  0.00    -0.443 C  
HETATM    4  H1  UNL     1     -12.176  13.699  62.082  1.00  0.00     0.000 HD 
ENDROOT
BRANCH   3   5
HETATM    5  C   UNL     1     -12.518  13.030  65.359  1.00  0.00    -0.531 C  
BRANCH   5   6
HETATM    6  C   UNL     1     -11.535  13.459  66.422  1.00  0.00    -0.359 A  
HETATM    7  C   UNL     1     -10.178  13.639  66.105  1.00  0.00    -0.306 A  
HETATM    8  C   UNL     1      -9.281  14.000  67.105  1.00  0.00    -0.235 A  
HETATM    9  O   UNL     1      -7.947  14.170  66.852  1.00  0.00    -0.377 OA 
HETATM   10  C   UNL     1      -9.722  14.196  68.410  1.00  0.00    -0.226 A  
HETATM   11  H   UNL     1      -7.334  14.417  67.535  1.00  0.00     0.000 HD 
HETATM   12  C   UNL     1     -11.061  14.047  68.737  1.00  0.00    -0.287 A  
HETATM   13  O   UNL     1      -8.829  14.530  69.388  1.00  0.00    -0.389 OA 
HETATM   14  H   UNL     1      -9.130  14.664  70.280  1.00  0.00     0.000 HD 
HETATM   15  C   UNL     1     -11.969  13.680  67.742  1.00  0.00    -0.387 A  
ENDBRANCH   5   6
ENDBRANCH   3   5
TORSDOF 2
ENDMDL
MODEL       61
REMARK 921   NORMALIZED FREE ENERGY PREDICTED BY IDOCK:   -3.99 KCAL/MOL
REMARK 922        TOTAL FREE ENERGY PREDICTED BY IDOCK:   -4.52 KCAL/MOL
REMARK 923 INTER-LIGAND FREE ENERGY PREDICTED BY IDOCK:   -4.47 KCAL/MOL
REMARK 924 INTRA-LIGAND FREE ENERGY PREDICTED BY IDOCK:   -0.05 KCAL/MOL
REMARK 927      BINDING AFFINITY PREDICTED BY RF-SCORE:    0.00 PKD
ROOT
HETATM    1  N   UNL     1     -10.563  11.629  66.192  1.00  0.00    -0.253 NA 
HETATM    2  H2  UNL     1      -9.781  11.084  66.556  1.00  0.00     0.000 HD 
HETATM    3  C   UNL     1     -11.525  11.962  67.242  1.00  0.00    -0.317 C  
HETATM    4  H1  UNL     1     -11.025  11.155  65.415  1.00  0.00     0.000 HD 
ENDROOT
BRANCH   3   5
HETATM    5  C   UNL     1     -10.833  12.674  68.407  1.00  0.00    -0.268 C  
BRANCH   5   6
HETATM    6  C   UNL     1     -11.717  12.780  69.628  1.00  0.00    -0.372 A  
HETATM    7  C   UNL     1     -12.039  11.634  70.374  1.00  0.00    -0.462 A  
HETATM    8  C   UNL     1     -12.882  11.746  71.474  1.00  0.00    -0.345 A  
HETATM    9  O   UNL     1     -13.242  10.658  72.223  1.00  0.00    -0.594 OA 
HETATM   10  C   UNL     1     -13.397  12.985  71.845  1.00  0.00    -0.446 A  
HETATM   11  H   UNL     1     -13.818  10.734  72.975  1.00  0.00     0.000 HD 
HETATM   12  C   UNL     1     -13.071  14.130  71.136  1.00  0.00    -0.398 A  
HETATM   13  O   UNL     1     -14.241  13.080  72.915  1.00  0.00    -0.602 OA 
HETATM   14  H   UNL     1     -14.593  13.925  73.168  1.00  0.00     0.000 HD 
HETATM   15  C   UNL     1     -12.228  14.028  70.027  1.00  0.00    -0.414 A  
ENDBRANCH   5   6
ENDBRANCH   3   5
TORSDOF 2
ENDMDL
MODEL       62
REMARK 921   NORMALIZED FREE ENERGY PREDICTED BY IDOCK:   -3.99 KCAL/MOL
REMARK 922        TOTAL FREE ENERGY PREDICTED BY IDOCK:   -4.52 KCAL/MOL
REMARK 923 INTER-LIGAND FREE ENERGY PREDICTED BY IDOCK:   -4.45 KCAL/MOL
REMARK 924 INTRA-LIGAND FREE ENERGY PREDICTED BY IDOCK:   -0.07 KCAL/MOL
REMARK 927      BINDING AFFINITY PREDICTED BY RF-SCORE:    0.00 PKD
ROOT
HETATM    1  N   UNL     1     -11.933   9.522  70.215  1.00  0.00    -0.463 NA 
HETATM    2  H2  UNL     1     -12.847   9.075  70.281  1.00  0.00     0.000 HD 
HETATM    3  C   UNL     1     -12.047  10.978  70.138  1.00  0.00    -0.356 C  
HETATM    4  H1  UNL     1     -11.391   9.160  69.430  1.00  0.00     0.000 HD 
ENDROOT
BRANCH   3   5
HETATM    5  C   UNL     1     -12.860  11.522  71.316  1.00  0.00    -0.463 C  
BRANCH   5   6
HETATM    6  C   UNL     1     -12.578  12.981  71.590  1.00  0.00    -0.222 A  
HETATM    7  C   UNL     1     -13.105  13.604  72.734  1.00  0.00    -0.371 A  
HETATM    8  C   UNL     1     -12.864  14.956  72.951  1.00  0.00    -0.452 A  
HETATM    9  O   UNL     1     -13.369  15.615  74.040  1.00  0.00    -0.661 OA 
HETATM   10  C   UNL     1     -12.098  15.690  72.051  1.00  0.00    -0.443 A  
HETATM   11  H   UNL     1     -13.204  16.539  74.189  1.00  0.00     0.000 HD 
HETATM   12  C   UNL     1     -11.550  15.087  70.929  1.00  0.00    -0.364 A  
HETATM   13  O   UNL     1     -11.885  17.022  72.263  1.00  0.00    -0.392 OA 
HETATM   14  H   UNL     1     -11.362  17.523  71.648  1.00  0.00     0.000 HD 
HETATM   15  C   UNL     1     -11.789  13.730  70.699  1.00  0.00    -0.261 A  
ENDBRANCH   5   6
ENDBRANCH   3   5
TORSDOF 2
ENDMDL
MODEL       63
REMARK 921   NORMALIZED FREE ENERGY PREDICTED BY IDOCK:   -3.95 KCAL/MOL
REMARK 922        TOTAL FREE ENERGY PREDICTED BY IDOCK:   -4.47 KCAL/MOL
REMARK 923 INTER-LIGAND FREE ENERGY PREDICTED BY IDOCK:   -4.40 KCAL/MOL
REMARK 924 INTRA-LIGAND FREE ENERGY PREDICTED BY IDOCK:   -0.07 KCAL/MOL
REMARK 927      BINDING AFFINITY PREDICTED BY RF-SCORE:    0.00 PKD
ROOT
HETATM    1  N   UNL     1     -11.333   6.665  67.605  1.00  0.00    -0.697 NA 
HETATM    2  H2  UNL     1     -12.280   6.589  67.977  1.00  0.00     0.000 HD 
HETATM    3  C   UNL     1     -10.600   7.774  68.217  1.00  0.00    -0.117 C  
HETATM    4  H1  UNL     1     -11.331   6.747  66.588  1.00  0.00     0.000 HD 
ENDROOT
BRANCH   3   5
HETATM    5  C   UNL     1     -10.602   7.651  69.743  1.00  0.00    -0.245 C  
BRANCH   5   6
HETATM    6  C   UNL     1     -11.403   8.744  70.411  1.00  0.00    -0.213 A  
HETATM    7  C   UNL     1     -11.229  10.086  70.031  1.00  0.00    -0.345 A  
HETATM    8  C   UNL     1     -11.949  11.082  70.681  1.00  0.00    -0.365 A  
HETATM    9  O   UNL     1     -11.803  12.405  70.362  1.00  0.00    -0.505 OA 
HETATM   10  C   UNL     1     -12.846  10.756  71.694  1.00  0.00    -0.457 A  
HETATM   11  H   UNL     1     -12.296  13.086  70.806  1.00  0.00     0.000 HD 
HETATM   12  C   UNL     1     -13.049   9.437  72.066  1.00  0.00    -0.516 A  
HETATM   13  O   UNL     1     -13.533  11.745  72.341  1.00  0.00    -0.612 OA 
HETATM   14  H   UNL     1     -14.145  11.522  73.032  1.00  0.00     0.000 HD 
HETATM   15  C   UNL     1     -12.328   8.429  71.422  1.00  0.00    -0.328 A  
ENDBRANCH   5   6
ENDBRANCH   3   5
TORSDOF 2
ENDMDL
MODEL       64
REMARK 921   NORMALIZED FREE ENERGY PREDICTED BY IDOCK:   -3.93 KCAL/MOL
REMARK 922        TOTAL FREE ENERGY PREDICTED BY IDOCK:   -4.46 KCAL/MOL
REMARK 923 INTER-LIGAND FREE ENERGY PREDICTED BY IDOCK:   -4.37 KCAL/MOL
REMARK 924 INTRA-LIGAND FREE ENERGY PREDICTED BY IDOCK:   -0.09 KCAL/MOL
REMARK 927      BINDING AFFINITY PREDICTED BY RF-SCORE:    0.00 PKD
ROOT
HETATM    1  N   UNL     1      -9.920  13.454  64.115  1.00  0.00    -0.757 NA 
HETATM    2  H2  UNL     1     -10.102  12.474  64.334  1.00  0.00     0.000 HD 
HETATM    3  C   UNL     1     -10.947  14.333  64.673  1.00  0.00    -0.367 C  
HETATM    4  H1  UNL     1      -9.821  13.604  63.111  1.00  0.00     0.000 HD 
ENDROOT
BRANCH   3   5
HETATM    5  C   UNL     1     -11.095  14.107  66.180  1.00  0.00    -0.312 C  
BRANCH   5   6
HETATM    6  C   UNL     1     -10.821  15.357  66.983  1.00  0.00    -0.320 A  
HETATM    7  C   UNL     1     -11.082  15.387  68.363  1.00  0.00    -0.301 A  
HETATM    8  C   UNL     1     -10.856  16.558  69.079  1.00  0.00    -0.329 A  
HETATM    9  O   UNL     1     -11.111  16.644  70.421  1.00  0.00    -0.450 OA 
HETATM   10  C   UNL     1     -10.364  17.691  68.440  1.00  0.00    -0.375 A  
HETATM   11  H   UNL     1     -10.957  17.444  70.911  1.00  0.00     0.000 HD 
HETATM   12  C   UNL     1     -10.078  17.674  67.084  1.00  0.00    -0.328 A  
HETATM   13  O   UNL     1     -10.166  18.842  69.149  1.00  0.00    -0.512 OA 
HETATM   14  H   UNL     1      -9.830  19.616  68.712  1.00  0.00     0.000 HD 
HETATM   15  C   UNL     1     -10.304  16.505  66.354  1.00  0.00    -0.316 A  
ENDBRANCH   5   6
ENDBRANCH   3   5
TORSDOF 2
ENDMDL
MODEL       65
REMARK 921   NORMALIZED FREE ENERGY PREDICTED BY IDOCK:   -3.91 KCAL/MOL
REMARK 922        TOTAL FREE ENERGY PREDICTED BY IDOCK:   -4.43 KCAL/MOL
REMARK 923 INTER-LIGAND FREE ENERGY PREDICTED BY IDOCK:   -4.34 KCAL/MOL
REMARK 924 INTRA-LIGAND FREE ENERGY PREDICTED BY IDOCK:   -0.09 KCAL/MOL
REMARK 927      BINDING AFFINITY PREDICTED BY RF-SCORE:    0.00 PKD
ROOT
HETATM    1  N   UNL     1     -10.277  14.338  64.519  1.00  0.00    -0.651 NA 
HETATM    2  H2  UNL     1      -9.816  13.526  64.931  1.00  0.00     0.000 HD 
HETATM    3  C   UNL     1     -11.006  15.113  65.524  1.00  0.00    -0.365 C  
HETATM    4  H1  UNL     1     -10.893  14.072  63.750  1.00  0.00     0.000 HD 
ENDROOT
BRANCH   3   5
HETATM    5  C   UNL     1     -10.082  15.511  66.678  1.00  0.00    -0.275 C  
BRANCH   5   6
HETATM    6  C   UNL     1      -9.892  17.006  66.777  1.00  0.00    -0.283 A  
HETATM    7  C   UNL     1      -9.091  17.554  67.794  1.00  0.00    -0.249 A  
HETATM    8  C   UNL     1      -8.956  18.935  67.891  1.00  0.00    -0.297 A  
HETATM    9  O   UNL     1      -8.203  19.520  68.873  1.00  0.00    -0.359 OA 
HETATM   10  C   UNL     1      -9.598  19.772  66.984  1.00  0.00    -0.369 A  
HETATM   11  H   UNL     1      -8.111  20.464  68.940  1.00  0.00     0.000 HD 
HETATM   12  C   UNL     1     -10.372  19.250  65.960  1.00  0.00    -0.556 A  
HETATM   13  O   UNL     1      -9.475  21.128  67.101  1.00  0.00    -0.681 OA 
HETATM   14  H   UNL     1      -9.914  21.699  66.482  1.00  0.00     0.000 HD 
HETATM   15  C   UNL     1     -10.518  17.864  65.855  1.00  0.00    -0.253 A  
ENDBRANCH   5   6
ENDBRANCH   3   5
TORSDOF 2
ENDMDL
MODEL       66
REMARK 921   NORMALIZED FREE ENERGY PREDICTED BY IDOCK:   -3.90 KCAL/MOL
REMARK 922        TOTAL FREE ENERGY PREDICTED BY IDOCK:   -4.42 KCAL/MOL
REMARK 923 INTER-LIGAND FREE ENERGY PREDICTED BY IDOCK:   -4.34 KCAL/MOL
REMARK 924 INTRA-LIGAND FREE ENERGY PREDICTED BY IDOCK:   -0.08 KCAL/MOL
REMARK 927      BINDING AFFINITY PREDICTED BY RF-SCORE:    0.00 PKD
ROOT
HETATM    1  N   UNL     1      -8.879   9.160  63.771  1.00  0.00    -0.417 NA 
HETATM    2  H2  UNL     1      -9.303   8.736  62.946  1.00  0.00     0.000 HD 
HETATM    3  C   UNL     1      -8.818  10.618  63.659  1.00  0.00    -0.177 C  
HETATM    4  H1  UNL     1      -7.955   8.773  63.963  1.00  0.00     0.000 HD 
ENDROOT
BRANCH   3   5
HETATM    5  C   UNL     1     -10.205  11.199  63.372  1.00  0.00    -0.435 C  
BRANCH   5   6
HETATM    6  C   UNL     1     -10.714  12.067  64.498  1.00  0.00    -0.358 A  
HETATM    7  C   UNL     1     -11.153  11.486  65.700  1.00  0.00    -0.261 A  
HETATM    8  C   UNL     1     -11.652  12.298  66.713  1.00  0.00    -0.369 A  
HETATM    9  O   UNL     1     -12.110  11.781  67.895  1.00  0.00    -0.592 OA 
HETATM   10  C   UNL     1     -11.706  13.679  66.547  1.00  0.00    -0.382 A  
HETATM   11  H   UNL     1     -12.450  12.336  68.587  1.00  0.00     0.000 HD 
HETATM   12  C   UNL     1     -11.254  14.272  65.379  1.00  0.00    -0.329 A  
HETATM   13  O   UNL     1     -12.216  14.465  67.541  1.00  0.00    -0.593 OA 
HETATM   14  H   UNL     1     -12.253  15.408  67.427  1.00  0.00     0.000 HD 
HETATM   15  C   UNL     1     -10.755  13.465  64.354  1.00  0.00    -0.423 A  
ENDBRANCH   5   6
ENDBRANCH   3   5
TORSDOF 2
ENDMDL
MODEL       67
REMARK 921   NORMALIZED FREE ENERGY PREDICTED BY IDOCK:   -3.90 KCAL/MOL
REMARK 922        TOTAL FREE ENERGY PREDICTED BY IDOCK:   -4.42 KCAL/MOL
REMARK 923 INTER-LIGAND FREE ENERGY PREDICTED BY IDOCK:   -4.33 KCAL/MOL
REMARK 924 INTRA-LIGAND FREE ENERGY PREDICTED BY IDOCK:   -0.08 KCAL/MOL
REMARK 927      BINDING AFFINITY PREDICTED BY RF-SCORE:    0.00 PKD
ROOT
HETATM    1  N   UNL     1      -8.457  20.040  65.773  1.00  0.00    -0.512 NA 
HETATM    2  H2  UNL     1      -7.902  19.184  65.767  1.00  0.00     0.000 HD 
HETATM    3  C   UNL     1      -9.859  19.774  66.091  1.00  0.00    -0.448 C  
HETATM    4  H1  UNL     1      -8.375  20.549  64.892  1.00  0.00     0.000 HD 
ENDROOT
BRANCH   3   5
HETATM    5  C   UNL     1      -9.981  19.011  67.413  1.00  0.00    -0.410 C  
BRANCH   5   6
HETATM    6  C   UNL     1     -10.412  17.577  67.216  1.00  0.00    -0.327 A  
HETATM    7  C   UNL     1     -10.393  16.998  65.936  1.00  0.00    -0.310 A  
HETATM    8  C   UNL     1     -10.827  15.687  65.768  1.00  0.00    -0.306 A  
HETATM    9  O   UNL     1     -10.845  15.083  64.540  1.00  0.00    -0.620 OA 
HETATM   10  C   UNL     1     -11.267  14.945  66.860  1.00  0.00    -0.343 A  
HETATM   11  H   UNL     1     -11.142  14.188  64.426  1.00  0.00     0.000 HD 
HETATM   12  C   UNL     1     -11.271  15.491  68.134  1.00  0.00    -0.343 A  
HETATM   13  O   UNL     1     -11.710  13.666  66.681  1.00  0.00    -0.348 OA 
HETATM   14  H   UNL     1     -12.011  13.159  67.427  1.00  0.00     0.000 HD 
HETATM   15  C   UNL     1     -10.841  16.808  68.313  1.00  0.00    -0.366 A  
ENDBRANCH   5   6
ENDBRANCH   3   5
TORSDOF 2
ENDMDL
MODEL       68
REMARK 921   NORMALIZED FREE ENERGY PREDICTED BY IDOCK:   -3.88 KCAL/MOL
REMARK 922        TOTAL FREE ENERGY PREDICTED BY IDOCK:   -4.40 KCAL/MOL
REMARK 923 INTER-LIGAND FREE ENERGY PREDICTED BY IDOCK:   -4.34 KCAL/MOL
REMARK 924 INTRA-LIGAND FREE ENERGY PREDICTED BY IDOCK:   -0.06 KCAL/MOL
REMARK 927      BINDING AFFINITY PREDICTED BY RF-SCORE:    0.00 PKD
ROOT
HETATM    1  N   UNL     1     -12.504  14.293  63.472  1.00  0.00    -1.102 NA 
HETATM    2  H2  UNL     1     -11.777  14.154  62.770  1.00  0.00     0.000 HD 
HETATM    3  C   UNL     1     -12.504  13.222  64.469  1.00  0.00    -0.319 C  
HETATM    4  H1  UNL     1     -13.426  14.393  63.047  1.00  0.00     0.000 HD 
ENDROOT
BRANCH   3   5
HETATM    5  C   UNL     1     -11.121  13.072  65.107  1.00  0.00    -0.317 C  
BRANCH   5   6
HETATM    6  C   UNL     1     -11.189  12.549  66.522  1.00  0.00    -0.356 A  
HETATM    7  C   UNL     1     -10.792  11.233  66.813  1.00  0.00    -0.334 A  
HETATM    8  C   UNL     1     -10.895  10.757  68.116  1.00  0.00    -0.236 A  
HETATM    9  O   UNL     1     -10.539   9.478  68.448  1.00  0.00    -0.220 OA 
HETATM   10  C   UNL     1     -11.377  11.579  69.130  1.00  0.00    -0.286 A  
HETATM   11  H   UNL     1     -10.609   9.153  69.338  1.00  0.00     0.000 HD 
HETATM   12  C   UNL     1     -11.751  12.887  68.868  1.00  0.00    -0.370 A  
HETATM   13  O   UNL     1     -11.493  11.094  70.402  1.00  0.00    -0.421 OA 
HETATM   14  H   UNL     1     -11.823  11.655  71.095  1.00  0.00     0.000 HD 
HETATM   15  C   UNL     1     -11.655  13.374  67.562  1.00  0.00    -0.382 A  
ENDBRANCH   5   6
ENDBRANCH   3   5
TORSDOF 2
ENDMDL
MODEL       69
REMARK 921   NORMALIZED FREE ENERGY PREDICTED BY IDOCK:   -3.87 KCAL/MOL
REMARK 922        TOTAL FREE ENERGY PREDICTED BY IDOCK:   -4.39 KCAL/MOL
REMARK 923 INTER-LIGAND FREE ENERGY PREDICTED BY IDOCK:   -4.32 KCAL/MOL
REMARK 924 INTRA-LIGAND FREE ENERGY PREDICTED BY IDOCK:   -0.07 KCAL/MOL
REMARK 927      BINDING AFFINITY PREDICTED BY RF-SCORE:    0.00 PKD
ROOT
HETATM    1  N   UNL     1     -14.401   8.951  73.248  1.00  0.00    -1.177 NA 
HETATM    2  H2  UNL     1     -13.634   8.696  73.872  1.00  0.00     0.000 HD 
HETATM    3  C   UNL     1     -14.030   8.789  71.843  1.00  0.00    -0.436 C  
HETATM    4  H1  UNL     1     -14.736   9.897  73.429  1.00  0.00     0.000 HD 
ENDROOT
BRANCH   3   5
HETATM    5  C   UNL     1     -13.527   7.369  71.572  1.00  0.00    -0.445 C  
BRANCH   5   6
HETATM    6  C   UNL     1     -12.043   7.321  71.301  1.00  0.00    -0.373 A  
HETATM    7  C   UNL     1     -11.153   8.084  72.077  1.00  0.00    -0.353 A  
HETATM    8  C   UNL     1      -9.793   8.055  71.790  1.00  0.00    -0.183 A  
HETATM    9  O   UNL     1      -8.887   8.792  72.504  1.00  0.00    -0.402 OA 
HETATM   10  C   UNL     1      -9.309   7.268  70.749  1.00  0.00    -0.160 A  
HETATM   11  H   UNL     1      -7.958   8.772  72.308  1.00  0.00     0.000 HD 
HETATM   12  C   UNL     1     -10.167   6.491  69.988  1.00  0.00    -0.219 A  
HETATM   13  O   UNL     1      -7.973   7.263  70.463  1.00  0.00    -0.101 OA 
HETATM   14  H   UNL     1      -7.643   6.726  69.752  1.00  0.00     0.000 HD 
HETATM   15  C   UNL     1     -11.536   6.516  70.265  1.00  0.00    -0.474 A  
ENDBRANCH   5   6
ENDBRANCH   3   5
TORSDOF 2
ENDMDL
MODEL       70
REMARK 921   NORMALIZED FREE ENERGY PREDICTED BY IDOCK:   -3.86 KCAL/MOL
REMARK 922        TOTAL FREE ENERGY PREDICTED BY IDOCK:   -4.38 KCAL/MOL
REMARK 923 INTER-LIGAND FREE ENERGY PREDICTED BY IDOCK:   -4.29 KCAL/MOL
REMARK 924 INTRA-LIGAND FREE ENERGY PREDICTED BY IDOCK:   -0.09 KCAL/MOL
REMARK 927      BINDING AFFINITY PREDICTED BY RF-SCORE:    0.00 PKD
ROOT
HETATM    1  N   UNL     1     -10.524  17.764  69.051  1.00  0.00    -0.415 NA 
HETATM    2  H2  UNL     1     -11.459  17.532  69.386  1.00  0.00     0.000 HD 
HETATM    3  C   UNL     1      -9.874  16.613  68.422  1.00  0.00    -0.252 C  
HETATM    4  H1  UNL     1      -9.940  18.147  69.795  1.00  0.00     0.000 HD 
ENDROOT
BRANCH   3   5
HETATM    5  C   UNL     1     -10.750  16.038  67.306  1.00  0.00    -0.295 C  
BRANCH   5   6
HETATM    6  C   UNL     1     -11.163  14.610  67.571  1.00  0.00    -0.343 A  
HETATM    7  C   UNL     1     -11.281  14.138  68.890  1.00  0.00    -0.294 A  
HETATM    8  C   UNL     1     -11.629  12.810  69.115  1.00  0.00    -0.319 A  
HETATM    9  O   UNL     1     -11.739  12.296  70.379  1.00  0.00    -0.526 OA 
HETATM   10  C   UNL     1     -11.871  11.954  68.046  1.00  0.00    -0.253 A  
HETATM   11  H   UNL     1     -11.977  11.389  70.533  1.00  0.00     0.000 HD 
HETATM   12  C   UNL     1     -11.783  12.407  66.739  1.00  0.00    -0.430 A  
HETATM   13  O   UNL     1     -12.191  10.646  68.278  1.00  0.00    -0.799 OA 
HETATM   14  H   UNL     1     -12.356  10.061  67.548  1.00  0.00     0.000 HD 
HETATM   15  C   UNL     1     -11.431  13.737  66.501  1.00  0.00    -0.364 A  
ENDBRANCH   5   6
ENDBRANCH   3   5
TORSDOF 2
ENDMDL
MODEL       71
REMARK 921   NORMALIZED FREE ENERGY PREDICTED BY IDOCK:   -3.85 KCAL/MOL
REMARK 922        TOTAL FREE ENERGY PREDICTED BY IDOCK:   -4.37 KCAL/MOL
REMARK 923 INTER-LIGAND FREE ENERGY PREDICTED BY IDOCK:   -4.28 KCAL/MOL
REMARK 924 INTRA-LIGAND FREE ENERGY PREDICTED BY IDOCK:   -0.09 KCAL/MOL
REMARK 927      BINDING AFFINITY PREDICTED BY RF-SCORE:    0.00 PKD
ROOT
HETATM    1  N   UNL     1     -11.076   6.749  73.486  1.00  0.00    -0.498 NA 
HETATM    2  H2  UNL     1     -11.805   6.523  74.162  1.00  0.00     0.000 HD 
HETATM    3  C   UNL     1     -11.518   6.508  72.112  1.00  0.00    -0.292 C  
HETATM    4  H1  UNL     1     -10.210   6.245  73.681  1.00  0.00     0.000 HD 
ENDROOT
BRANCH   3   5
HETATM    5  C   UNL     1     -12.817   7.264  71.819  1.00  0.00    -0.369 C  
BRANCH   5   6
HETATM    6  C   UNL     1     -12.577   8.716  71.477  1.00  0.00    -0.360 A  
HETATM    7  C   UNL     1     -11.420   9.099  70.778  1.00  0.00    -0.337 A  
HETATM    8  C   UNL     1     -11.199  10.444  70.503  1.00  0.00    -0.314 A  
HETATM    9  O   UNL     1     -10.079  10.872  69.841  1.00  0.00    -0.414 OA 
HETATM   10  C   UNL     1     -12.120  11.407  70.904  1.00  0.00    -0.277 A  
HETATM   11  H   UNL     1      -9.928  11.791  69.653  1.00  0.00     0.000 HD 
HETATM   12  C   UNL     1     -13.279  11.046  71.573  1.00  0.00    -0.400 A  
HETATM   13  O   UNL     1     -11.883  12.727  70.647  1.00  0.00    -0.518 OA 
HETATM   14  H   UNL     1     -12.512  13.385  70.921  1.00  0.00     0.000 HD 
HETATM   15  C   UNL     1     -13.509   9.698  71.858  1.00  0.00    -0.496 A  
ENDBRANCH   5   6
ENDBRANCH   3   5
TORSDOF 2
ENDMDL
MODEL       72
REMARK 921   NORMALIZED FREE ENERGY PREDICTED BY IDOCK:   -3.82 KCAL/MOL
REMARK 922        TOTAL FREE ENERGY PREDICTED BY IDOCK:   -4.33 KCAL/MOL
REMARK 923 INTER-LIGAND FREE ENERGY PREDICTED BY IDOCK:   -4.25 KCAL/MOL
REMARK 924 INTRA-LIGAND FREE ENERGY PREDICTED BY IDOCK:   -0.08 KCAL/MOL
REMARK 927      BINDING AFFINITY PREDICTED BY RF-SCORE:    0.00 PKD
ROOT
HETATM    1  N   UNL     1      -8.844  20.458  66.831  1.00  0.00    -0.512 NA 
HETATM    2  H2  UNL     1      -8.218  19.836  66.319  1.00  0.00     0.000 HD 
HETATM    3  C   UNL     1     -10.060  19.767  67.260  1.00  0.00    -0.418 C  
HETATM    4  H1  UNL     1      -9.072  21.293  66.291  1.00  0.00     0.000 HD 
ENDROOT
BRANCH   3   5
HETATM    5  C   UNL     1      -9.717  18.515  68.071  1.00  0.00    -0.354 C  
BRANCH   5   6
HETATM    6  C   UNL     1     -10.295  17.257  67.466  1.00  0.00    -0.346 A  
HETATM    7  C   UNL     1     -11.023  16.356  68.261  1.00  0.00    -0.355 A  
HETATM    8  C   UNL     1     -11.517  15.186  67.695  1.00  0.00    -0.309 A  
HETATM    9  O   UNL     1     -12.217  14.267  68.430  1.00  0.00    -0.562 OA 
HETATM   10  C   UNL     1     -11.304  14.910  66.348  1.00  0.00    -0.308 A  
HETATM   11  H   UNL     1     -12.555  13.467  68.043  1.00  0.00     0.000 HD 
HETATM   12  C   UNL     1     -10.609  15.798  65.542  1.00  0.00    -0.424 A  
HETATM   13  O   UNL     1     -11.776  13.747  65.807  1.00  0.00    -0.327 OA 
HETATM   14  H   UNL     1     -11.630  13.559  64.887  1.00  0.00     0.000 HD 
HETATM   15  C   UNL     1     -10.105  16.974  66.102  1.00  0.00    -0.332 A  
ENDBRANCH   5   6
ENDBRANCH   3   5
TORSDOF 2
ENDMDL
MODEL       73
REMARK 921   NORMALIZED FREE ENERGY PREDICTED BY IDOCK:   -3.81 KCAL/MOL
REMARK 922        TOTAL FREE ENERGY PREDICTED BY IDOCK:   -4.32 KCAL/MOL
REMARK 923 INTER-LIGAND FREE ENERGY PREDICTED BY IDOCK:   -4.21 KCAL/MOL
REMARK 924 INTRA-LIGAND FREE ENERGY PREDICTED BY IDOCK:   -0.11 KCAL/MOL
REMARK 927      BINDING AFFINITY PREDICTED BY RF-SCORE:    0.00 PKD
ROOT
HETATM    1  N   UNL     1      -9.138  11.063  63.405  1.00  0.00    -0.344 NA 
HETATM    2  H2  UNL     1      -8.360  10.793  64.008  1.00  0.00     0.000 HD 
HETATM    3  C   UNL     1     -10.425  10.926  64.088  1.00  0.00    -0.327 C  
HETATM    4  H1  UNL     1      -9.136  10.541  62.528  1.00  0.00     0.000 HD 
ENDROOT
BRANCH   3   5
HETATM    5  C   UNL     1     -10.428  11.710  65.403  1.00  0.00    -0.324 C  
BRANCH   5   6
HETATM    6  C   UNL     1     -10.564  13.199  65.190  1.00  0.00    -0.332 A  
HETATM    7  C   UNL     1      -9.610  14.083  65.721  1.00  0.00    -0.138 A  
HETATM    8  C   UNL     1      -9.770  15.453  65.545  1.00  0.00    -0.283 A  
HETATM    9  O   UNL     1      -8.879  16.357  66.058  1.00  0.00    -0.373 OA 
HETATM   10  C   UNL     1     -10.860  15.950  64.837  1.00  0.00    -0.400 A  
HETATM   11  H   UNL     1      -8.989  17.293  65.937  1.00  0.00     0.000 HD 
HETATM   12  C   UNL     1     -11.799  15.092  64.285  1.00  0.00    -0.263 A  
HETATM   13  O   UNL     1     -11.019  17.298  64.687  1.00  0.00    -1.013 OA 
HETATM   14  H   UNL     1     -11.763  17.637  64.204  1.00  0.00     0.000 HD 
HETATM   15  C   UNL     1     -11.649  13.715  64.459  1.00  0.00    -0.415 A  
ENDBRANCH   5   6
ENDBRANCH   3   5
TORSDOF 2
ENDMDL
MODEL       74
REMARK 921   NORMALIZED FREE ENERGY PREDICTED BY IDOCK:   -3.78 KCAL/MOL
REMARK 922        TOTAL FREE ENERGY PREDICTED BY IDOCK:   -4.28 KCAL/MOL
REMARK 923 INTER-LIGAND FREE ENERGY PREDICTED BY IDOCK:   -4.20 KCAL/MOL
REMARK 924 INTRA-LIGAND FREE ENERGY PREDICTED BY IDOCK:   -0.08 KCAL/MOL
REMARK 927      BINDING AFFINITY PREDICTED BY RF-SCORE:    0.00 PKD
ROOT
HETATM    1  N   UNL     1     -10.875   7.530  67.862  1.00  0.00    -0.469 NA 
HETATM    2  H2  UNL     1     -10.556   7.226  66.942  1.00  0.00     0.000 HD 
HETATM    3  C   UNL     1     -10.379   8.866  68.193  1.00  0.00    -0.212 C  
HETATM    4  H1  UNL     1     -10.625   6.861  68.590  1.00  0.00     0.000 HD 
ENDROOT
BRANCH   3   5
HETATM    5  C   UNL     1     -10.756   9.871  67.101  1.00  0.00    -0.276 C  
BRANCH   5   6
HETATM    6  C   UNL     1     -11.185  11.205  67.665  1.00  0.00    -0.364 A  
HETATM    7  C   UNL     1     -11.432  11.349  69.041  1.00  0.00    -0.366 A  
HETATM    8  C   UNL     1     -11.860  12.576  69.537  1.00  0.00    -0.310 A  
HETATM    9  O   UNL     1     -12.132  12.763  70.865  1.00  0.00    -0.455 OA 
HETATM   10  C   UNL     1     -12.033  13.660  68.682  1.00  0.00    -0.360 A  
HETATM   11  H   UNL     1     -12.425  13.601  71.204  1.00  0.00     0.000 HD 
HETATM   12  C   UNL     1     -11.771  13.545  67.326  1.00  0.00    -0.423 A  
HETATM   13  O   UNL     1     -12.474  14.855  69.177  1.00  0.00    -0.574 OA 
HETATM   14  H   UNL     1     -12.592  15.595  68.593  1.00  0.00     0.000 HD 
HETATM   15  C   UNL     1     -11.344  12.316  66.817  1.00  0.00    -0.395 A  
ENDBRANCH   5   6
ENDBRANCH   3   5
TORSDOF 2
ENDMDL
MODEL       75
REMARK 921   NORMALIZED FREE ENERGY PREDICTED BY IDOCK:   -3.76 KCAL/MOL
REMARK 922        TOTAL FREE ENERGY PREDICTED BY IDOCK:   -4.26 KCAL/MOL
REMARK 923 INTER-LIGAND FREE ENERGY PREDICTED BY IDOCK:   -4.17 KCAL/MOL
REMARK 924 INTRA-LIGAND FREE ENERGY PREDICTED BY IDOCK:   -0.09 KCAL/MOL
REMARK 927      BINDING AFFINITY PREDICTED BY RF-SCORE:    0.00 PKD
ROOT
HETATM    1  N   UNL     1     -10.198  14.216  69.200  1.00  0.00    -0.422 NA 
HETATM    2  H2  UNL     1      -9.294  14.125  68.738  1.00  0.00     0.000 HD 
HETATM    3  C   UNL     1     -10.668  15.602  69.199  1.00  0.00    -0.243 C  
HETATM    4  H1  UNL     1     -10.178  13.841  70.149  1.00  0.00     0.000 HD 
ENDROOT
BRANCH   3   5
HETATM    5  C   UNL     1     -10.700  16.164  67.776  1.00  0.00    -0.325 C  
BRANCH   5   6
HETATM    6  C   UNL     1      -9.968  17.480  67.657  1.00  0.00    -0.309 A  
HETATM    7  C   UNL     1     -10.294  18.384  66.631  1.00  0.00    -0.422 A  
HETATM    8  C   UNL     1      -9.585  19.575  66.516  1.00  0.00    -0.378 A  
HETATM    9  O   UNL     1      -9.851  20.481  65.524  1.00  0.00    -0.550 OA 
HETATM   10  C   UNL     1      -8.568  19.881  67.415  1.00  0.00    -0.335 A  
HETATM   11  H   UNL     1      -9.367  21.295  65.445  1.00  0.00     0.000 HD 
HETATM   12  C   UNL     1      -8.249  19.013  68.447  1.00  0.00    -0.382 A  
HETATM   13  O   UNL     1      -7.865  21.044  67.280  1.00  0.00    -0.518 OA 
HETATM   14  H   UNL     1      -7.170  21.252  67.894  1.00  0.00     0.000 HD 
HETATM   15  C   UNL     1      -8.951  17.812  68.570  1.00  0.00    -0.288 A  
ENDBRANCH   5   6
ENDBRANCH   3   5
TORSDOF 2
ENDMDL
MODEL       76
REMARK 921   NORMALIZED FREE ENERGY PREDICTED BY IDOCK:   -3.75 KCAL/MOL
REMARK 922        TOTAL FREE ENERGY PREDICTED BY IDOCK:   -4.25 KCAL/MOL
REMARK 923 INTER-LIGAND FREE ENERGY PREDICTED BY IDOCK:   -4.20 KCAL/MOL
REMARK 924 INTRA-LIGAND FREE ENERGY PREDICTED BY IDOCK:   -0.05 KCAL/MOL
REMARK 927      BINDING AFFINITY PREDICTED BY RF-SCORE:    0.00 PKD
ROOT
HETATM    1  N   UNL     1      -5.930  20.590  71.070  1.00  0.00    -0.591 NA 
HETATM    2  H2  UNL     1      -6.601  21.357  71.131  1.00  0.00     0.000 HD 
HETATM    3  C   UNL     1      -6.261  19.668  69.984  1.00  0.00    -0.292 C  
HETATM    4  H1  UNL     1      -5.844  20.092  71.956  1.00  0.00     0.000 HD 
ENDROOT
BRANCH   3   5
HETATM    5  C   UNL     1      -6.389  20.416  68.655  1.00  0.00    -0.340 C  
BRANCH   5   6
HETATM    6  C   UNL     1      -7.565  19.941  67.834  1.00  0.00    -0.336 A  
HETATM    7  C   UNL     1      -7.536  18.680  67.214  1.00  0.00    -0.225 A  
HETATM    8  C   UNL     1      -8.612  18.274  66.433  1.00  0.00    -0.242 A  
HETATM    9  O   UNL     1      -8.626  17.064  65.793  1.00  0.00    -0.517 OA 
HETATM   10  C   UNL     1      -9.719  19.103  66.272  1.00  0.00    -0.365 A  
HETATM   11  H   UNL     1      -9.362  16.786  65.260  1.00  0.00     0.000 HD 
HETATM   12  C   UNL     1      -9.776  20.340  66.895  1.00  0.00    -0.584 A  
HETATM   13  O   UNL     1     -10.762  18.703  65.486  1.00  0.00    -0.577 OA 
HETATM   14  H   UNL     1     -11.517  19.268  65.376  1.00  0.00     0.000 HD 
HETATM   15  C   UNL     1      -8.699  20.759  67.679  1.00  0.00    -0.131 A  
ENDBRANCH   5   6
ENDBRANCH   3   5
TORSDOF 2
ENDMDL
MODEL       77
REMARK 921   NORMALIZED FREE ENERGY PREDICTED BY IDOCK:   -3.75 KCAL/MOL
REMARK 922        TOTAL FREE ENERGY PREDICTED BY IDOCK:   -4.25 KCAL/MOL
REMARK 923 INTER-LIGAND FREE ENERGY PREDICTED BY IDOCK:   -4.17 KCAL/MOL
REMARK 924 INTRA-LIGAND FREE ENERGY PREDICTED BY IDOCK:   -0.08 KCAL/MOL
REMARK 927      BINDING AFFINITY PREDICTED BY RF-SCORE:    0.00 PKD
ROOT
HETATM    1  N   UNL     1      -9.512  13.761  68.952  1.00  0.00    -0.408 NA 
HETATM    2  H2  UNL     1      -8.631  13.982  68.486  1.00  0.00     0.000 HD 
HETATM    3  C   UNL     1     -10.432  14.897  68.938  1.00  0.00    -0.242 C  
HETATM    4  H1  UNL     1      -9.362  13.427  69.905  1.00  0.00     0.000 HD 
ENDROOT
BRANCH   3   5
HETATM    5  C   UNL     1     -10.657  15.397  67.509  1.00  0.00    -0.283 C  
BRANCH   5   6
HETATM    6  C   UNL     1     -10.487  16.893  67.384  1.00  0.00    -0.310 A  
HETATM    7  C   UNL     1     -10.400  17.696  68.534  1.00  0.00    -0.370 A  
HETATM    8  C   UNL     1     -10.278  19.075  68.400  1.00  0.00    -0.377 A  
HETATM    9  O   UNL     1     -10.208  19.903  69.488  1.00  0.00    -0.608 OA 
HETATM   10  C   UNL     1     -10.230  19.659  67.138  1.00  0.00    -0.435 A  
HETATM   11  H   UNL     1     -10.125  20.846  69.396  1.00  0.00     0.000 HD 
HETATM   12  C   UNL     1     -10.290  18.882  65.993  1.00  0.00    -0.485 A  
HETATM   13  O   UNL     1     -10.132  21.016  67.018  1.00  0.00    -0.362 OA 
HETATM   14  H   UNL     1     -10.099  21.415  66.157  1.00  0.00     0.000 HD 
HETATM   15  C   UNL     1     -10.416  17.496  66.116  1.00  0.00    -0.288 A  
ENDBRANCH   5   6
ENDBRANCH   3   5
TORSDOF 2
ENDMDL
MODEL       78
REMARK 921   NORMALIZED FREE ENERGY PREDICTED BY IDOCK:   -3.74 KCAL/MOL
REMARK 922        TOTAL FREE ENERGY PREDICTED BY IDOCK:   -4.24 KCAL/MOL
REMARK 923 INTER-LIGAND FREE ENERGY PREDICTED BY IDOCK:   -4.18 KCAL/MOL
REMARK 924 INTRA-LIGAND FREE ENERGY PREDICTED BY IDOCK:   -0.06 KCAL/MOL
REMARK 927      BINDING AFFINITY PREDICTED BY RF-SCORE:    0.00 PKD
ROOT
HETATM    1  N   UNL     1     -10.176  19.073  65.706  1.00  0.00    -0.531 NA 
HETATM    2  H2  UNL     1     -10.793  18.672  64.999  1.00  0.00     0.000 HD 
HETATM    3  C   UNL     1     -10.304  18.382  66.989  1.00  0.00    -0.393 C  
HETATM    4  H1  UNL     1     -10.331  20.075  65.817  1.00  0.00     0.000 HD 
ENDROOT
BRANCH   3   5
HETATM    5  C   UNL     1     -10.071  16.878  66.821  1.00  0.00    -0.294 C  
BRANCH   5   6
HETATM    6  C   UNL     1     -10.788  16.061  67.870  1.00  0.00    -0.333 A  
HETATM    7  C   UNL     1     -10.991  16.580  69.160  1.00  0.00    -0.303 A  
HETATM    8  C   UNL     1     -11.622  15.799  70.123  1.00  0.00    -0.357 A  
HETATM    9  O   UNL     1     -11.827  16.251  71.398  1.00  0.00    -0.582 OA 
HETATM   10  C   UNL     1     -12.063  14.517  69.812  1.00  0.00    -0.331 A  
HETATM   11  H   UNL     1     -12.258  15.718  72.056  1.00  0.00     0.000 HD 
HETATM   12  C   UNL     1     -11.894  13.996  68.539  1.00  0.00    -0.399 A  
HETATM   13  O   UNL     1     -12.663  13.751  70.771  1.00  0.00    -0.322 OA 
HETATM   14  H   UNL     1     -12.964  12.875  70.559  1.00  0.00     0.000 HD 
HETATM   15  C   UNL     1     -11.258  14.770  67.565  1.00  0.00    -0.339 A  
ENDBRANCH   5   6
ENDBRANCH   3   5
TORSDOF 2
ENDMDL
MODEL       79
REMARK 921   NORMALIZED FREE ENERGY PREDICTED BY IDOCK:   -3.74 KCAL/MOL
REMARK 922        TOTAL FREE ENERGY PREDICTED BY IDOCK:   -4.24 KCAL/MOL
REMARK 923 INTER-LIGAND FREE ENERGY PREDICTED BY IDOCK:   -4.16 KCAL/MOL
REMARK 924 INTRA-LIGAND FREE ENERGY PREDICTED BY IDOCK:   -0.08 KCAL/MOL
REMARK 927      BINDING AFFINITY PREDICTED BY RF-SCORE:    0.00 PKD
ROOT
HETATM    1  N   UNL     1     -11.328   6.810  67.309  1.00  0.00    -0.753 NA 
HETATM    2  H2  UNL     1     -10.779   6.147  66.761  1.00  0.00     0.000 HD 
HETATM    3  C   UNL     1     -10.557   8.010  67.635  1.00  0.00    -0.194 C  
HETATM    4  H1  UNL     1     -11.705   6.381  68.155  1.00  0.00     0.000 HD 
ENDROOT
BRANCH   3   5
HETATM    5  C   UNL     1      -9.992   8.654  66.366  1.00  0.00    -0.331 C  
BRANCH   5   6
HETATM    6  C   UNL     1     -10.354  10.116  66.248  1.00  0.00    -0.245 A  
HETATM    7  C   UNL     1     -10.024  10.838  65.089  1.00  0.00    -0.351 A  
HETATM    8  C   UNL     1     -10.334  12.192  65.012  1.00  0.00    -0.287 A  
HETATM    9  O   UNL     1     -10.018  12.945  63.913  1.00  0.00    -0.650 OA 
HETATM   10  C   UNL     1     -10.977  12.829  66.069  1.00  0.00    -0.278 A  
HETATM   11  H   UNL     1     -10.229  13.870  63.861  1.00  0.00     0.000 HD 
HETATM   12  C   UNL     1     -11.332  12.128  67.211  1.00  0.00    -0.398 A  
HETATM   13  O   UNL     1     -11.258  14.164  65.991  1.00  0.00    -0.310 OA 
HETATM   14  H   UNL     1     -11.697  14.599  66.713  1.00  0.00     0.000 HD 
HETATM   15  C   UNL     1     -11.022  10.769  67.300  1.00  0.00    -0.359 A  
ENDBRANCH   5   6
ENDBRANCH   3   5
TORSDOF 2
ENDMDL
MODEL       80
REMARK 921   NORMALIZED FREE ENERGY PREDICTED BY IDOCK:   -3.71 KCAL/MOL
REMARK 922        TOTAL FREE ENERGY PREDICTED BY IDOCK:   -4.21 KCAL/MOL
REMARK 923 INTER-LIGAND FREE ENERGY PREDICTED BY IDOCK:   -4.16 KCAL/MOL
REMARK 924 INTRA-LIGAND FREE ENERGY PREDICTED BY IDOCK:   -0.05 KCAL/MOL
REMARK 927      BINDING AFFINITY PREDICTED BY RF-SCORE:    0.00 PKD
ROOT
HETATM    1  N   UNL     1      -7.280   9.748  70.159  1.00  0.00    -0.128 NA 
HETATM    2  H2  UNL     1      -7.344  10.763  70.231  1.00  0.00     0.000 HD 
HETATM    3  C   UNL     1      -8.435   9.088  70.768  1.00  0.00    -0.200 C  
HETATM    4  H1  UNL     1      -6.409   9.395  70.557  1.00  0.00     0.000 HD 
ENDROOT
BRANCH   3   5
HETATM    5  C   UNL     1      -9.741   9.618  70.171  1.00  0.00    -0.301 C  
BRANCH   5   6
HETATM    6  C   UNL     1     -10.956   8.901  70.708  1.00  0.00    -0.305 A  
HETATM    7  C   UNL     1     -11.892   9.585  71.503  1.00  0.00    -0.478 A  
HETATM    8  C   UNL     1     -12.987   8.900  72.018  1.00  0.00    -0.399 A  
HETATM    9  O   UNL     1     -13.916   9.515  72.812  1.00  0.00    -0.752 OA 
HETATM   10  C   UNL     1     -13.166   7.548  71.742  1.00  0.00    -0.316 A  
HETATM   11  H   UNL     1     -14.665   9.047  73.164  1.00  0.00     0.000 HD 
HETATM   12  C   UNL     1     -12.267   6.861  70.941  1.00  0.00    -0.404 A  
HETATM   13  O   UNL     1     -14.233   6.879  72.271  1.00  0.00    -0.606 OA 
HETATM   14  H   UNL     1     -14.356   5.956  72.083  1.00  0.00     0.000 HD 
HETATM   15  C   UNL     1     -11.162   7.539  70.421  1.00  0.00    -0.270 A  
ENDBRANCH   5   6
ENDBRANCH   3   5
TORSDOF 2
ENDMDL
MODEL       81
REMARK 921   NORMALIZED FREE ENERGY PREDICTED BY IDOCK:   -3.71 KCAL/MOL
REMARK 922        TOTAL FREE ENERGY PREDICTED BY IDOCK:   -4.21 KCAL/MOL
REMARK 923 INTER-LIGAND FREE ENERGY PREDICTED BY IDOCK:   -4.11 KCAL/MOL
REMARK 924 INTRA-LIGAND FREE ENERGY PREDICTED BY IDOCK:   -0.10 KCAL/MOL
REMARK 927      BINDING AFFINITY PREDICTED BY RF-SCORE:    0.00 PKD
ROOT
HETATM    1  N   UNL     1      -9.308  12.624  68.727  1.00  0.00    -0.405 NA 
HETATM    2  H2  UNL     1      -8.941  12.139  67.907  1.00  0.00     0.000 HD 
HETATM    3  C   UNL     1     -10.745  12.870  68.612  1.00  0.00    -0.247 C  
HETATM    4  H1  UNL     1      -8.805  13.493  68.908  1.00  0.00     0.000 HD 
ENDROOT
BRANCH   3   5
HETATM    5  C   UNL     1     -11.500  11.566  68.340  1.00  0.00    -0.364 C  
BRANCH   5   6
HETATM    6  C   UNL     1     -11.704  10.744  69.591  1.00  0.00    -0.395 A  
HETATM    7  C   UNL     1     -11.030   9.522  69.756  1.00  0.00    -0.245 A  
HETATM    8  C   UNL     1     -11.258   8.762  70.899  1.00  0.00    -0.270 A  
HETATM    9  O   UNL     1     -10.640   7.557  71.100  1.00  0.00    -0.220 OA 
HETATM   10  C   UNL     1     -12.137   9.210  71.880  1.00  0.00    -0.378 A  
HETATM   11  H   UNL     1     -10.796   7.037  71.880  1.00  0.00     0.000 HD 
HETATM   12  C   UNL     1     -12.793  10.423  71.746  1.00  0.00    -0.561 A  
HETATM   13  O   UNL     1     -12.369   8.445  72.988  1.00  0.00    -0.616 OA 
HETATM   14  H   UNL     1     -12.969   8.751  73.658  1.00  0.00     0.000 HD 
HETATM   15  C   UNL     1     -12.574  11.193  70.601  1.00  0.00    -0.408 A  
ENDBRANCH   5   6
ENDBRANCH   3   5
TORSDOF 2
ENDMDL
MODEL       82
REMARK 921   NORMALIZED FREE ENERGY PREDICTED BY IDOCK:   -3.70 KCAL/MOL
REMARK 922        TOTAL FREE ENERGY PREDICTED BY IDOCK:   -4.20 KCAL/MOL
REMARK 923 INTER-LIGAND FREE ENERGY PREDICTED BY IDOCK:   -4.13 KCAL/MOL
REMARK 924 INTRA-LIGAND FREE ENERGY PREDICTED BY IDOCK:   -0.07 KCAL/MOL
REMARK 927      BINDING AFFINITY PREDICTED BY RF-SCORE:    0.00 PKD
ROOT
HETATM    1  N   UNL     1     -11.239  14.502  64.091  1.00  0.00    -0.571 NA 
HETATM    2  H2  UNL     1     -10.903  13.561  64.295  1.00  0.00     0.000 HD 
HETATM    3  C   UNL     1     -11.160  15.371  65.266  1.00  0.00    -0.360 C  
HETATM    4  H1  UNL     1     -12.186  14.492  63.711  1.00  0.00     0.000 HD 
ENDROOT
BRANCH   3   5
HETATM    5  C   UNL     1      -9.739  15.387  65.836  1.00  0.00    -0.392 C  
BRANCH   5   6
HETATM    6  C   UNL     1      -9.261  16.782  66.159  1.00  0.00    -0.284 A  
HETATM    7  C   UNL     1     -10.186  17.818  66.378  1.00  0.00    -0.365 A  
HETATM    8  C   UNL     1      -9.727  19.104  66.640  1.00  0.00    -0.346 A  
HETATM    9  O   UNL     1     -10.586  20.151  66.842  1.00  0.00    -0.389 OA 
HETATM   10  C   UNL     1      -8.362  19.367  66.698  1.00  0.00    -0.310 A  
HETATM   11  H   UNL     1     -10.272  21.030  67.021  1.00  0.00     0.000 HD 
HETATM   12  C   UNL     1      -7.435  18.355  66.509  1.00  0.00    -0.265 A  
HETATM   13  O   UNL     1      -7.922  20.639  66.936  1.00  0.00    -0.501 OA 
HETATM   14  H   UNL     1      -6.990  20.818  66.975  1.00  0.00     0.000 HD 
HETATM   15  C   UNL     1      -7.885  17.060  66.242  1.00  0.00    -0.346 A  
ENDBRANCH   5   6
ENDBRANCH   3   5
TORSDOF 2
ENDMDL
MODEL       83
REMARK 921   NORMALIZED FREE ENERGY PREDICTED BY IDOCK:   -3.69 KCAL/MOL
REMARK 922        TOTAL FREE ENERGY PREDICTED BY IDOCK:   -4.18 KCAL/MOL
REMARK 923 INTER-LIGAND FREE ENERGY PREDICTED BY IDOCK:   -4.18 KCAL/MOL
REMARK 924 INTRA-LIGAND FREE ENERGY PREDICTED BY IDOCK:    0.00 KCAL/MOL
REMARK 927      BINDING AFFINITY PREDICTED BY RF-SCORE:    0.00 PKD
ROOT
HETATM    1  N   UNL     1     -11.472  16.383  64.203  1.00  0.00    -1.441 NA 
HETATM    2  H2  UNL     1     -10.584  16.615  64.648  1.00  0.00     0.000 HD 
HETATM    3  C   UNL     1     -11.863  14.997  64.466  1.00  0.00    -0.371 C  
HETATM    4  H1  UNL     1     -11.454  16.570  63.201  1.00  0.00     0.000 HD 
ENDROOT
BRANCH   3   5
HETATM    5  C   UNL     1     -11.891  14.717  65.971  1.00  0.00    -0.280 C  
BRANCH   5   6
HETATM    6  C   UNL     1     -10.694  15.292  66.690  1.00  0.00    -0.309 A  
HETATM    7  C   UNL     1      -9.411  14.761  66.471  1.00  0.00    -0.316 A  
HETATM    8  C   UNL     1      -8.326  15.280  67.169  1.00  0.00    -0.216 A  
HETATM    9  O   UNL     1      -7.059  14.786  67.006  1.00  0.00    -0.336 OA 
HETATM   10  C   UNL     1      -8.501  16.326  68.069  1.00  0.00    -0.174 A  
HETATM   11  H   UNL     1      -6.317  15.141  67.482  1.00  0.00     0.000 HD 
HETATM   12  C   UNL     1      -9.754  16.879  68.280  1.00  0.00    -0.256 A  
HETATM   13  O   UNL     1      -7.431  16.814  68.764  1.00  0.00    -0.206 OA 
HETATM   14  H   UNL     1      -7.551  17.528  69.379  1.00  0.00     0.000 HD 
HETATM   15  C   UNL     1     -10.852  16.362  67.588  1.00  0.00    -0.280 A  
ENDBRANCH   5   6
ENDBRANCH   3   5
TORSDOF 2
ENDMDL
MODEL       84
REMARK 921   NORMALIZED FREE ENERGY PREDICTED BY IDOCK:   -3.68 KCAL/MOL
REMARK 922        TOTAL FREE ENERGY PREDICTED BY IDOCK:   -4.17 KCAL/MOL
REMARK 923 INTER-LIGAND FREE ENERGY PREDICTED BY IDOCK:   -4.10 KCAL/MOL
REMARK 924 INTRA-LIGAND FREE ENERGY PREDICTED BY IDOCK:   -0.07 KCAL/MOL
REMARK 927      BINDING AFFINITY PREDICTED BY RF-SCORE:    0.00 PKD
ROOT
HETATM    1  N   UNL     1      -8.872   6.275  69.894  1.00  0.00    -0.140 NA 
HETATM    2  H2  UNL     1      -8.051   6.842  70.108  1.00  0.00     0.000 HD 
HETATM    3  C   UNL     1     -10.112   6.953  70.271  1.00  0.00    -0.183 C  
HETATM    4  H1  UNL     1      -8.817   5.353  70.328  1.00  0.00     0.000 HD 
ENDROOT
BRANCH   3   5
HETATM    5  C   UNL     1     -10.195   8.336  69.620  1.00  0.00    -0.209 C  
BRANCH   5   6
HETATM    6  C   UNL     1     -11.145   9.261  70.343  1.00  0.00    -0.300 A  
HETATM    7  C   UNL     1     -12.039   8.753  71.301  1.00  0.00    -0.344 A  
HETATM    8  C   UNL     1     -12.931   9.614  71.931  1.00  0.00    -0.435 A  
HETATM    9  O   UNL     1     -13.834   9.168  72.858  1.00  0.00    -0.867 OA 
HETATM   10  C   UNL     1     -12.935  10.972  71.627  1.00  0.00    -0.456 A  
HETATM   11  H   UNL     1     -14.444   9.756  73.289  1.00  0.00     0.000 HD 
HETATM   12  C   UNL     1     -12.045  11.495  70.702  1.00  0.00    -0.450 A  
HETATM   13  O   UNL     1     -13.829  11.805  72.237  1.00  0.00    -0.359 OA 
HETATM   14  H   UNL     1     -13.832  12.732  72.029  1.00  0.00     0.000 HD 
HETATM   15  C   UNL     1     -11.147  10.639  70.061  1.00  0.00    -0.359 A  
ENDBRANCH   5   6
ENDBRANCH   3   5
TORSDOF 2
ENDMDL
MODEL       85
REMARK 921   NORMALIZED FREE ENERGY PREDICTED BY IDOCK:   -3.66 KCAL/MOL
REMARK 922        TOTAL FREE ENERGY PREDICTED BY IDOCK:   -4.15 KCAL/MOL
REMARK 923 INTER-LIGAND FREE ENERGY PREDICTED BY IDOCK:   -4.09 KCAL/MOL
REMARK 924 INTRA-LIGAND FREE ENERGY PREDICTED BY IDOCK:   -0.06 KCAL/MOL
REMARK 927      BINDING AFFINITY PREDICTED BY RF-SCORE:    0.00 PKD
ROOT
HETATM    1  N   UNL     1     -10.370   5.968  67.198  1.00  0.00    -0.199 NA 
HETATM    2  H2  UNL     1      -9.361   6.103  67.121  1.00  0.00     0.000 HD 
HETATM    3  C   UNL     1     -10.815   5.995  68.591  1.00  0.00    -0.307 C  
HETATM    4  H1  UNL     1     -10.672   5.109  66.737  1.00  0.00     0.000 HD 
ENDROOT
BRANCH   3   5
HETATM    5  C   UNL     1     -10.363   7.284  69.281  1.00  0.00    -0.208 C  
BRANCH   5   6
HETATM    6  C   UNL     1     -11.355   7.768  70.312  1.00  0.00    -0.174 A  
HETATM    7  C   UNL     1     -11.527   9.143  70.541  1.00  0.00    -0.271 A  
HETATM    8  C   UNL     1     -12.420   9.570  71.519  1.00  0.00    -0.376 A  
HETATM    9  O   UNL     1     -12.611  10.897  71.794  1.00  0.00    -0.353 OA 
HETATM   10  C   UNL     1     -13.149   8.644  72.260  1.00  0.00    -0.372 A  
HETATM   11  H   UNL     1     -13.221  11.188  72.463  1.00  0.00     0.000 HD 
HETATM   12  C   UNL     1     -13.010   7.284  72.032  1.00  0.00    -0.196 A  
HETATM   13  O   UNL     1     -14.007   9.073  73.232  1.00  0.00    -1.205 OA 
HETATM   14  H   UNL     1     -14.504   8.441  73.739  1.00  0.00     0.000 HD 
HETATM   15  C   UNL     1     -12.114   6.845  71.055  1.00  0.00    -0.429 A  
ENDBRANCH   5   6
ENDBRANCH   3   5
TORSDOF 2
ENDMDL
MODEL       86
REMARK 921   NORMALIZED FREE ENERGY PREDICTED BY IDOCK:   -3.65 KCAL/MOL
REMARK 922        TOTAL FREE ENERGY PREDICTED BY IDOCK:   -4.14 KCAL/MOL
REMARK 923 INTER-LIGAND FREE ENERGY PREDICTED BY IDOCK:   -4.07 KCAL/MOL
REMARK 924 INTRA-LIGAND FREE ENERGY PREDICTED BY IDOCK:   -0.07 KCAL/MOL
REMARK 927      BINDING AFFINITY PREDICTED BY RF-SCORE:    0.00 PKD
ROOT
HETATM    1  N   UNL     1     -14.237   8.874  73.299  1.00  0.00    -1.237 NA 
HETATM    2  H2  UNL     1     -13.419   8.643  73.864  1.00  0.00     0.000 HD 
HETATM    3  C   UNL     1     -13.963   8.735  71.869  1.00  0.00    -0.436 C  
HETATM    4  H1  UNL     1     -14.591   9.807  73.511  1.00  0.00     0.000 HD 
ENDROOT
BRANCH   3   5
HETATM    5  C   UNL     1     -13.432   7.335  71.550  1.00  0.00    -0.439 C  
BRANCH   5   6
HETATM    6  C   UNL     1     -11.970   7.344  71.170  1.00  0.00    -0.351 A  
HETATM    7  C   UNL     1     -11.476   6.428  70.225  1.00  0.00    -0.468 A  
HETATM    8  C   UNL     1     -10.121   6.427  69.913  1.00  0.00    -0.171 A  
HETATM    9  O   UNL     1      -9.587   5.545  69.014  1.00  0.00    -0.123 OA 
HETATM   10  C   UNL     1      -9.257   7.333  70.522  1.00  0.00    -0.158 A  
HETATM   11  H   UNL     1      -8.660   5.544  68.801  1.00  0.00     0.000 HD 
HETATM   12  C   UNL     1      -9.729   8.259  71.438  1.00  0.00    -0.237 A  
HETATM   13  O   UNL     1      -7.924   7.309  70.224  1.00  0.00    -0.111 OA 
HETATM   14  H   UNL     1      -7.334   7.927  70.639  1.00  0.00     0.000 HD 
HETATM   15  C   UNL     1     -11.088   8.266  71.761  1.00  0.00    -0.342 A  
ENDBRANCH   5   6
ENDBRANCH   3   5
TORSDOF 2
ENDMDL
MODEL       87
REMARK 921   NORMALIZED FREE ENERGY PREDICTED BY IDOCK:   -3.64 KCAL/MOL
REMARK 922        TOTAL FREE ENERGY PREDICTED BY IDOCK:   -4.13 KCAL/MOL
REMARK 923 INTER-LIGAND FREE ENERGY PREDICTED BY IDOCK:   -4.07 KCAL/MOL
REMARK 924 INTRA-LIGAND FREE ENERGY PREDICTED BY IDOCK:   -0.07 KCAL/MOL
REMARK 927      BINDING AFFINITY PREDICTED BY RF-SCORE:    0.00 PKD
ROOT
HETATM    1  N   UNL     1      -7.876   7.365  72.630  1.00  0.00    -0.093 NA 
HETATM    2  H2  UNL     1      -8.068   8.312  72.303  1.00  0.00     0.000 HD 
HETATM    3  C   UNL     1      -9.106   6.649  72.968  1.00  0.00    -0.127 C  
HETATM    4  H1  UNL     1      -7.226   7.361  73.417  1.00  0.00     0.000 HD 
ENDROOT
BRANCH   3   5
HETATM    5  C   UNL     1     -10.080   6.655  71.787  1.00  0.00    -0.198 C  
BRANCH   5   6
HETATM    6  C   UNL     1     -10.955   7.885  71.764  1.00  0.00    -0.290 A  
HETATM    7  C   UNL     1     -12.152   7.920  72.500  1.00  0.00    -0.298 A  
HETATM    8  C   UNL     1     -12.963   9.048  72.438  1.00  0.00    -0.405 A  
HETATM    9  O   UNL     1     -14.147   9.125  73.121  1.00  0.00    -1.104 OA 
HETATM   10  C   UNL     1     -12.591  10.143  71.664  1.00  0.00    -0.434 A  
HETATM   11  H   UNL     1     -14.701   9.896  73.079  1.00  0.00     0.000 HD 
HETATM   12  C   UNL     1     -11.403  10.137  70.951  1.00  0.00    -0.420 A  
HETATM   13  O   UNL     1     -13.405  11.237  71.595  1.00  0.00    -0.356 OA 
HETATM   14  H   UNL     1     -13.151  11.985  71.066  1.00  0.00     0.000 HD 
HETATM   15  C   UNL     1     -10.582   9.007  71.002  1.00  0.00    -0.341 A  
ENDBRANCH   5   6
ENDBRANCH   3   5
TORSDOF 2
ENDMDL
MODEL       88
REMARK 921   NORMALIZED FREE ENERGY PREDICTED BY IDOCK:   -3.63 KCAL/MOL
REMARK 922        TOTAL FREE ENERGY PREDICTED BY IDOCK:   -4.12 KCAL/MOL
REMARK 923 INTER-LIGAND FREE ENERGY PREDICTED BY IDOCK:   -4.03 KCAL/MOL
REMARK 924 INTRA-LIGAND FREE ENERGY PREDICTED BY IDOCK:   -0.09 KCAL/MOL
REMARK 927      BINDING AFFINITY PREDICTED BY RF-SCORE:    0.00 PKD
ROOT
HETATM    1  N   UNL     1     -11.053   5.051  65.776  1.00  0.00    -0.836 NA 
HETATM    2  H2  UNL     1     -11.607   5.773  65.315  1.00  0.00     0.000 HD 
HETATM    3  C   UNL     1     -10.196   5.611  66.821  1.00  0.00    -0.230 C  
HETATM    4  H1  UNL     1     -10.503   4.512  65.107  1.00  0.00     0.000 HD 
ENDROOT
BRANCH   3   5
HETATM    5  C   UNL     1     -11.021   6.420  67.826  1.00  0.00    -0.425 C  
BRANCH   5   6
HETATM    6  C   UNL     1     -10.822   5.953  69.248  1.00  0.00    -0.414 A  
HETATM    7  C   UNL     1     -11.613   6.475  70.285  1.00  0.00    -0.473 A  
HETATM    8  C   UNL     1     -11.392   6.060  71.594  1.00  0.00    -0.252 A  
HETATM    9  O   UNL     1     -12.123   6.551  72.642  1.00  0.00    -0.504 OA 
HETATM   10  C   UNL     1     -10.401   5.125  71.878  1.00  0.00    -0.212 A  
HETATM   11  H   UNL     1     -11.972   6.267  73.536  1.00  0.00     0.000 HD 
HETATM   12  C   UNL     1      -9.626   4.581  70.866  1.00  0.00    -0.250 A  
HETATM   13  O   UNL     1     -10.178   4.739  73.170  1.00  0.00    -0.155 OA 
HETATM   14  H   UNL     1      -9.502   4.101  73.364  1.00  0.00     0.000 HD 
HETATM   15  C   UNL     1      -9.838   4.994  69.549  1.00  0.00    -0.281 A  
ENDBRANCH   5   6
ENDBRANCH   3   5
TORSDOF 2
ENDMDL
MODEL       89
REMARK 921   NORMALIZED FREE ENERGY PREDICTED BY IDOCK:   -3.60 KCAL/MOL
REMARK 922        TOTAL FREE ENERGY PREDICTED BY IDOCK:   -4.09 KCAL/MOL
REMARK 923 INTER-LIGAND FREE ENERGY PREDICTED BY IDOCK:   -4.02 KCAL/MOL
REMARK 924 INTRA-LIGAND FREE ENERGY PREDICTED BY IDOCK:   -0.07 KCAL/MOL
REMARK 927      BINDING AFFINITY PREDICTED BY RF-SCORE:    0.00 PKD
ROOT
HETATM    1  N   UNL     1      -9.390  20.253  65.835  1.00  0.00    -0.592 NA 
HETATM    2  H2  UNL     1      -8.606  19.600  65.829  1.00  0.00     0.000 HD 
HETATM    3  C   UNL     1     -10.487  19.772  66.675  1.00  0.00    -0.497 C  
HETATM    4  H1  UNL     1      -9.720  20.456  64.891  1.00  0.00     0.000 HD 
ENDROOT
BRANCH   3   5
HETATM    5  C   UNL     1      -9.994  19.468  68.092  1.00  0.00    -0.522 C  
BRANCH   5   6
HETATM    6  C   UNL     1      -9.929  17.986  68.377  1.00  0.00    -0.382 A  
HETATM    7  C   UNL     1     -11.050  17.169  68.148  1.00  0.00    -0.118 A  
HETATM    8  C   UNL     1     -10.983  15.813  68.449  1.00  0.00    -0.323 A  
HETATM    9  O   UNL     1     -12.052  14.978  68.263  1.00  0.00    -0.549 OA 
HETATM   10  C   UNL     1      -9.814  15.261  68.962  1.00  0.00    -0.230 A  
HETATM   11  H   UNL     1     -12.007  14.051  68.468  1.00  0.00     0.000 HD 
HETATM   12  C   UNL     1      -8.691  16.045  69.172  1.00  0.00    -0.248 A  
HETATM   13  O   UNL     1      -9.766  13.932  69.274  1.00  0.00    -0.403 OA 
HETATM   14  H   UNL     1      -8.967  13.555  69.624  1.00  0.00     0.000 HD 
HETATM   15  C   UNL     1      -8.748  17.410  68.876  1.00  0.00    -0.153 A  
ENDBRANCH   5   6
ENDBRANCH   3   5
TORSDOF 2
ENDMDL
MODEL       90
REMARK 921   NORMALIZED FREE ENERGY PREDICTED BY IDOCK:   -3.59 KCAL/MOL
REMARK 922        TOTAL FREE ENERGY PREDICTED BY IDOCK:   -4.08 KCAL/MOL
REMARK 923 INTER-LIGAND FREE ENERGY PREDICTED BY IDOCK:   -4.00 KCAL/MOL
REMARK 924 INTRA-LIGAND FREE ENERGY PREDICTED BY IDOCK:   -0.08 KCAL/MOL
REMARK 927      BINDING AFFINITY PREDICTED BY RF-SCORE:    0.00 PKD
ROOT
HETATM    1  N   UNL     1      -8.652  17.206  65.852  1.00  0.00    -0.529 NA 
HETATM    2  H2  UNL     1      -7.846  16.739  66.270  1.00  0.00     0.000 HD 
HETATM    3  C   UNL     1      -9.884  16.443  66.053  1.00  0.00    -0.335 C  
HETATM    4  H1  UNL     1      -8.503  17.402  64.862  1.00  0.00     0.000 HD 
ENDROOT
BRANCH   3   5
HETATM    5  C   UNL     1     -10.106  16.150  67.539  1.00  0.00    -0.256 C  
BRANCH   5   6
HETATM    6  C   UNL     1     -10.622  14.752  67.782  1.00  0.00    -0.257 A  
HETATM    7  C   UNL     1     -10.691  13.826  66.727  1.00  0.00    -0.276 A  
HETATM    8  C   UNL     1     -11.201  12.554  66.963  1.00  0.00    -0.302 A  
HETATM    9  O   UNL     1     -11.307  11.621  65.966  1.00  0.00    -0.294 OA 
HETATM   10  C   UNL     1     -11.631  12.191  68.235  1.00  0.00    -0.325 A  
HETATM   11  H   UNL     1     -11.655  10.752  66.127  1.00  0.00     0.000 HD 
HETATM   12  C   UNL     1     -11.549  13.082  69.293  1.00  0.00    -0.367 A  
HETATM   13  O   UNL     1     -12.150  10.946  68.450  1.00  0.00    -0.776 OA 
HETATM   14  H   UNL     1     -12.444  10.698  69.319  1.00  0.00     0.000 HD 
HETATM   15  C   UNL     1     -11.041  14.364  69.067  1.00  0.00    -0.282 A  
ENDBRANCH   5   6
ENDBRANCH   3   5
TORSDOF 2
ENDMDL
MODEL       91
REMARK 921   NORMALIZED FREE ENERGY PREDICTED BY IDOCK:   -3.59 KCAL/MOL
REMARK 922        TOTAL FREE ENERGY PREDICTED BY IDOCK:   -4.07 KCAL/MOL
REMARK 923 INTER-LIGAND FREE ENERGY PREDICTED BY IDOCK:   -4.00 KCAL/MOL
REMARK 924 INTRA-LIGAND FREE ENERGY PREDICTED BY IDOCK:   -0.07 KCAL/MOL
REMARK 927      BINDING AFFINITY PREDICTED BY RF-SCORE:    0.00 PKD
ROOT
HETATM    1  N   UNL     1      -8.909  12.162  67.439  1.00  0.00    -0.174 NA 
HETATM    2  H2  UNL     1      -8.534  12.828  68.116  1.00  0.00     0.000 HD 
HETATM    3  C   UNL     1      -9.548  11.023  68.097  1.00  0.00    -0.171 C  
HETATM    4  H1  UNL     1      -8.194  11.847  66.783  1.00  0.00     0.000 HD 
ENDROOT
BRANCH   3   5
HETATM    5  C   UNL     1     -10.622  11.496  69.081  1.00  0.00    -0.174 C  
BRANCH   5   6
HETATM    6  C   UNL     1     -10.946  10.456  70.128  1.00  0.00    -0.365 A  
HETATM    7  C   UNL     1     -12.183  10.480  70.794  1.00  0.00    -0.468 A  
HETATM    8  C   UNL     1     -12.450   9.537  71.780  1.00  0.00    -0.401 A  
HETATM    9  O   UNL     1     -13.632   9.528  72.471  1.00  0.00    -0.644 OA 
HETATM   10  C   UNL     1     -11.507   8.565  72.100  1.00  0.00    -0.376 A  
HETATM   11  H   UNL     1     -13.815   8.883  73.145  1.00  0.00     0.000 HD 
HETATM   12  C   UNL     1     -10.291   8.511  71.438  1.00  0.00    -0.307 A  
HETATM   13  O   UNL     1     -11.772   7.656  73.085  1.00  0.00    -0.615 OA 
HETATM   14  H   UNL     1     -11.127   6.993  73.304  1.00  0.00     0.000 HD 
HETATM   15  C   UNL     1     -10.011   9.456  70.449  1.00  0.00    -0.306 A  
ENDBRANCH   5   6
ENDBRANCH   3   5
TORSDOF 2
ENDMDL
MODEL       92
REMARK 921   NORMALIZED FREE ENERGY PREDICTED BY IDOCK:   -3.58 KCAL/MOL
REMARK 922        TOTAL FREE ENERGY PREDICTED BY IDOCK:   -4.06 KCAL/MOL
REMARK 923 INTER-LIGAND FREE ENERGY PREDICTED BY IDOCK:   -4.00 KCAL/MOL
REMARK 924 INTRA-LIGAND FREE ENERGY PREDICTED BY IDOCK:   -0.06 KCAL/MOL
REMARK 927      BINDING AFFINITY PREDICTED BY RF-SCORE:    0.00 PKD
ROOT
HETATM    1  N   UNL     1      -9.738   7.666  66.330  1.00  0.00    -0.393 NA 
HETATM    2  H2  UNL     1      -9.922   7.012  65.569  1.00  0.00     0.000 HD 
HETATM    3  C   UNL     1     -10.730   7.544  67.398  1.00  0.00    -0.261 C  
HETATM    4  H1  UNL     1      -9.681   8.628  65.996  1.00  0.00     0.000 HD 
ENDROOT
BRANCH   3   5
HETATM    5  C   UNL     1     -10.815   6.100  67.900  1.00  0.00    -0.406 C  
BRANCH   5   6
HETATM    6  C   UNL     1     -10.941   6.015  69.402  1.00  0.00    -0.455 A  
HETATM    7  C   UNL     1     -11.888   6.799  70.082  1.00  0.00    -0.321 A  
HETATM    8  C   UNL     1     -11.965   6.734  71.469  1.00  0.00    -0.350 A  
HETATM    9  O   UNL     1     -12.858   7.490  72.180  1.00  0.00    -0.471 OA 
HETATM   10  C   UNL     1     -11.120   5.890  72.183  1.00  0.00    -0.281 A  
HETATM   11  H   UNL     1     -12.910   7.446  73.128  1.00  0.00     0.000 HD 
HETATM   12  C   UNL     1     -10.195   5.092  71.529  1.00  0.00    -0.273 A  
HETATM   13  O   UNL     1     -11.190   5.850  73.547  1.00  0.00    -0.449 OA 
HETATM   14  H   UNL     1     -10.612   5.274  74.034  1.00  0.00     0.000 HD 
HETATM   15  C   UNL     1     -10.107   5.152  70.136  1.00  0.00    -0.342 A  
ENDBRANCH   5   6
ENDBRANCH   3   5
TORSDOF 2
ENDMDL
MODEL       93
REMARK 921   NORMALIZED FREE ENERGY PREDICTED BY IDOCK:   -3.56 KCAL/MOL
REMARK 922        TOTAL FREE ENERGY PREDICTED BY IDOCK:   -4.04 KCAL/MOL
REMARK 923 INTER-LIGAND FREE ENERGY PREDICTED BY IDOCK:   -3.97 KCAL/MOL
REMARK 924 INTRA-LIGAND FREE ENERGY PREDICTED BY IDOCK:   -0.07 KCAL/MOL
REMARK 927      BINDING AFFINITY PREDICTED BY RF-SCORE:    0.00 PKD
ROOT
HETATM    1  N   UNL     1     -10.905   6.841  73.495  1.00  0.00    -0.498 NA 
HETATM    2  H2  UNL     1     -11.049   5.844  73.661  1.00  0.00     0.000 HD 
HETATM    3  C   UNL     1     -10.389   7.097  72.151  1.00  0.00    -0.195 C  
HETATM    4  H1  UNL     1     -10.299   7.258  74.202  1.00  0.00     0.000 HD 
ENDROOT
BRANCH   3   5
HETATM    5  C   UNL     1     -11.300   6.472  71.091  1.00  0.00    -0.367 C  
BRANCH   5   6
HETATM    6  C   UNL     1     -10.982   6.956  69.696  1.00  0.00    -0.298 A  
HETATM    7  C   UNL     1     -11.208   6.124  68.586  1.00  0.00    -0.275 A  
HETATM    8  C   UNL     1     -10.877   6.574  67.312  1.00  0.00    -0.390 A  
HETATM    9  O   UNL     1     -11.060   5.796  66.201  1.00  0.00    -0.721 OA 
HETATM   10  C   UNL     1     -10.335   7.843  67.131  1.00  0.00    -0.328 A  
HETATM   11  H   UNL     1     -10.834   6.103  65.330  1.00  0.00     0.000 HD 
HETATM   12  C   UNL     1     -10.127   8.687  68.211  1.00  0.00    -0.225 A  
HETATM   13  O   UNL     1      -9.994   8.266  65.878  1.00  0.00    -0.449 OA 
HETATM   14  H   UNL     1      -9.624   9.133  65.755  1.00  0.00     0.000 HD 
HETATM   15  C   UNL     1     -10.453   8.244  69.495  1.00  0.00    -0.228 A  
ENDBRANCH   5   6
ENDBRANCH   3   5
TORSDOF 2
ENDMDL
MODEL       94
REMARK 921   NORMALIZED FREE ENERGY PREDICTED BY IDOCK:   -3.56 KCAL/MOL
REMARK 922        TOTAL FREE ENERGY PREDICTED BY IDOCK:   -4.03 KCAL/MOL
REMARK 923 INTER-LIGAND FREE ENERGY PREDICTED BY IDOCK:   -3.96 KCAL/MOL
REMARK 924 INTRA-LIGAND FREE ENERGY PREDICTED BY IDOCK:   -0.07 KCAL/MOL
REMARK 927      BINDING AFFINITY PREDICTED BY RF-SCORE:    0.00 PKD
ROOT
HETATM    1  N   UNL     1      -9.767  10.908  65.065  1.00  0.00    -0.246 NA 
HETATM    2  H2  UNL     1     -10.030   9.937  64.897  1.00  0.00     0.000 HD 
HETATM    3  C   UNL     1     -10.737  11.590  65.922  1.00  0.00    -0.272 C  
HETATM    4  H1  UNL     1      -9.631  11.419  64.192  1.00  0.00     0.000 HD 
ENDROOT
BRANCH   3   5
HETATM    5  C   UNL     1     -10.939  10.824  67.231  1.00  0.00    -0.359 C  
BRANCH   5   6
HETATM    6  C   UNL     1     -11.465  11.703  68.341  1.00  0.00    -0.360 A  
HETATM    7  C   UNL     1     -11.638  13.082  68.134  1.00  0.00    -0.379 A  
HETATM    8  C   UNL     1     -12.090  13.881  69.179  1.00  0.00    -0.338 A  
HETATM    9  O   UNL     1     -12.258  15.232  69.035  1.00  0.00    -0.561 OA 
HETATM   10  C   UNL     1     -12.381  13.322  70.420  1.00  0.00    -0.295 A  
HETATM   11  H   UNL     1     -12.567  15.778  69.749  1.00  0.00     0.000 HD 
HETATM   12  C   UNL     1     -12.239  11.961  70.636  1.00  0.00    -0.424 A  
HETATM   13  O   UNL     1     -12.804  14.120  71.445  1.00  0.00    -0.320 OA 
HETATM   14  H   UNL     1     -13.002  13.738  72.292  1.00  0.00     0.000 HD 
HETATM   15  C   UNL     1     -11.782  11.149  69.595  1.00  0.00    -0.410 A  
ENDBRANCH   5   6
ENDBRANCH   3   5
TORSDOF 2
ENDMDL
MODEL       95
REMARK 921   NORMALIZED FREE ENERGY PREDICTED BY IDOCK:   -3.53 KCAL/MOL
REMARK 922        TOTAL FREE ENERGY PREDICTED BY IDOCK:   -4.00 KCAL/MOL
REMARK 923 INTER-LIGAND FREE ENERGY PREDICTED BY IDOCK:   -3.92 KCAL/MOL
REMARK 924 INTRA-LIGAND FREE ENERGY PREDICTED BY IDOCK:   -0.08 KCAL/MOL
REMARK 927      BINDING AFFINITY PREDICTED BY RF-SCORE:    0.00 PKD
ROOT
HETATM    1  N   UNL     1     -10.243   7.229  66.310  1.00  0.00    -0.440 NA 
HETATM    2  H2  UNL     1      -9.692   6.860  65.535  1.00  0.00     0.000 HD 
HETATM    3  C   UNL     1      -9.811   8.574  66.689  1.00  0.00    -0.272 C  
HETATM    4  H1  UNL     1     -10.228   6.603  67.116  1.00  0.00     0.000 HD 
ENDROOT
BRANCH   3   5
HETATM    5  C   UNL     1      -9.834   9.513  65.480  1.00  0.00    -0.304 C  
BRANCH   5   6
HETATM    6  C   UNL     1     -10.551  10.811  65.768  1.00  0.00    -0.204 A  
HETATM    7  C   UNL     1     -10.930  11.136  67.081  1.00  0.00    -0.350 A  
HETATM    8  C   UNL     1     -11.621  12.319  67.323  1.00  0.00    -0.357 A  
HETATM    9  O   UNL     1     -12.029  12.674  68.581  1.00  0.00    -0.304 OA 
HETATM   10  C   UNL     1     -11.926  13.184  66.276  1.00  0.00    -0.415 A  
HETATM   11  H   UNL     1     -12.501  13.482  68.746  1.00  0.00     0.000 HD 
HETATM   12  C   UNL     1     -11.539  12.892  64.978  1.00  0.00    -0.367 A  
HETATM   13  O   UNL     1     -12.623  14.333  66.522  1.00  0.00    -0.545 OA 
HETATM   14  H   UNL     1     -12.831  14.923  65.807  1.00  0.00     0.000 HD 
HETATM   15  C   UNL     1     -10.849  11.704  64.724  1.00  0.00    -0.367 A  
ENDBRANCH   5   6
ENDBRANCH   3   5
TORSDOF 2
ENDMDL
MODEL       96
REMARK 921   NORMALIZED FREE ENERGY PREDICTED BY IDOCK:   -3.49 KCAL/MOL
REMARK 922        TOTAL FREE ENERGY PREDICTED BY IDOCK:   -3.96 KCAL/MOL
REMARK 923 INTER-LIGAND FREE ENERGY PREDICTED BY IDOCK:   -3.85 KCAL/MOL
REMARK 924 INTRA-LIGAND FREE ENERGY PREDICTED BY IDOCK:   -0.11 KCAL/MOL
REMARK 927      BINDING AFFINITY PREDICTED BY RF-SCORE:    0.00 PKD
ROOT
HETATM    1  N   UNL     1     -12.288  14.386  71.129  1.00  0.00    -0.337 NA 
HETATM    2  H2  UNL     1     -11.494  13.987  71.629  1.00  0.00     0.000 HD 
HETATM    3  C   UNL     1     -11.929  15.627  70.443  1.00  0.00    -0.376 C  
HETATM    4  H1  UNL     1     -13.088  14.531  71.745  1.00  0.00     0.000 HD 
ENDROOT
BRANCH   3   5
HETATM    5  C   UNL     1     -10.729  15.408  69.518  1.00  0.00    -0.269 C  
BRANCH   5   6
HETATM    6  C   UNL     1     -11.037  14.461  68.383  1.00  0.00    -0.272 A  
HETATM    7  C   UNL     1     -12.004  14.797  67.420  1.00  0.00    -0.236 A  
HETATM    8  C   UNL     1     -12.300  13.897  66.401  1.00  0.00    -0.426 A  
HETATM    9  O   UNL     1     -13.246  14.169  65.449  1.00  0.00    -0.741 OA 
HETATM   10  C   UNL     1     -11.639  12.675  66.326  1.00  0.00    -0.386 A  
HETATM   11  H   UNL     1     -13.448  13.554  64.754  1.00  0.00     0.000 HD 
HETATM   12  C   UNL     1     -10.665  12.336  67.252  1.00  0.00    -0.263 A  
HETATM   13  O   UNL     1     -11.952  11.790  65.334  1.00  0.00    -0.294 OA 
HETATM   14  H   UNL     1     -11.501  10.956  65.282  1.00  0.00     0.000 HD 
HETATM   15  C   UNL     1     -10.363  13.231  68.281  1.00  0.00    -0.252 A  
ENDBRANCH   5   6
ENDBRANCH   3   5
TORSDOF 2
ENDMDL
MODEL       97
REMARK 921   NORMALIZED FREE ENERGY PREDICTED BY IDOCK:   -3.47 KCAL/MOL
REMARK 922        TOTAL FREE ENERGY PREDICTED BY IDOCK:   -3.94 KCAL/MOL
REMARK 923 INTER-LIGAND FREE ENERGY PREDICTED BY IDOCK:   -3.83 KCAL/MOL
REMARK 924 INTRA-LIGAND FREE ENERGY PREDICTED BY IDOCK:   -0.11 KCAL/MOL
REMARK 927      BINDING AFFINITY PREDICTED BY RF-SCORE:    0.00 PKD
ROOT
HETATM    1  N   UNL     1      -6.592  15.706  67.183  1.00  0.00    -0.290 NA 
HETATM    2  H2  UNL     1      -6.589  15.230  66.281  1.00  0.00     0.000 HD 
HETATM    3  C   UNL     1      -7.065  17.086  67.066  1.00  0.00    -0.193 C  
HETATM    4  H1  UNL     1      -5.676  15.674  67.631  1.00  0.00     0.000 HD 
ENDROOT
BRANCH   3   5
HETATM    5  C   UNL     1      -8.440  17.134  66.395  1.00  0.00    -0.307 C  
BRANCH   5   6
HETATM    6  C   UNL     1      -9.546  16.655  67.305  1.00  0.00    -0.243 A  
HETATM    7  C   UNL     1     -10.445  15.666  66.871  1.00  0.00    -0.307 A  
HETATM    8  C   UNL     1     -11.479  15.263  67.709  1.00  0.00    -0.303 A  
HETATM    9  O   UNL     1     -12.392  14.317  67.327  1.00  0.00    -0.598 OA 
HETATM   10  C   UNL     1     -11.618  15.822  68.976  1.00  0.00    -0.400 A  
HETATM   11  H   UNL     1     -13.098  14.041  67.900  1.00  0.00     0.000 HD 
HETATM   12  C   UNL     1     -10.727  16.781  69.431  1.00  0.00    -0.300 A  
HETATM   13  O   UNL     1     -12.649  15.433  69.783  1.00  0.00    -0.592 OA 
HETATM   14  H   UNL     1     -12.745  15.816  70.647  1.00  0.00     0.000 HD 
HETATM   15  C   UNL     1      -9.688  17.197  68.595  1.00  0.00    -0.293 A  
ENDBRANCH   5   6
ENDBRANCH   3   5
TORSDOF 2
ENDMDL
MODEL       98
REMARK 921   NORMALIZED FREE ENERGY PREDICTED BY IDOCK:   -3.46 KCAL/MOL
REMARK 922        TOTAL FREE ENERGY PREDICTED BY IDOCK:   -3.93 KCAL/MOL
REMARK 923 INTER-LIGAND FREE ENERGY PREDICTED BY IDOCK:   -3.84 KCAL/MOL
REMARK 924 INTRA-LIGAND FREE ENERGY PREDICTED BY IDOCK:   -0.09 KCAL/MOL
REMARK 927      BINDING AFFINITY PREDICTED BY RF-SCORE:    0.00 PKD
ROOT
HETATM    1  N   UNL     1      -6.622  14.395  67.313  1.00  0.00    -0.379 NA 
HETATM    2  H2  UNL     1      -6.546  13.856  68.176  1.00  0.00     0.000 HD 
HETATM    3  C   UNL     1      -7.975  14.914  67.116  1.00  0.00    -0.195 C  
HETATM    4  H1  UNL     1      -6.319  13.854  66.503  1.00  0.00     0.000 HD 
ENDROOT
BRANCH   3   5
HETATM    5  C   UNL     1      -8.428  15.726  68.332  1.00  0.00    -0.170 C  
BRANCH   5   6
HETATM    6  C   UNL     1      -8.721  17.167  67.990  1.00  0.00    -0.221 A  
HETATM    7  C   UNL     1      -9.543  17.943  68.824  1.00  0.00    -0.290 A  
HETATM    8  C   UNL     1      -9.831  19.258  68.474  1.00  0.00    -0.424 A  
HETATM    9  O   UNL     1     -10.641  20.050  69.243  1.00  0.00    -0.554 OA 
HETATM   10  C   UNL     1      -9.301  19.811  67.312  1.00  0.00    -0.346 A  
HETATM   11  H   UNL     1     -10.837  20.949  69.004  1.00  0.00     0.000 HD 
HETATM   12  C   UNL     1      -8.468  19.069  66.489  1.00  0.00    -0.320 A  
HETATM   13  O   UNL     1      -9.606  21.096  66.967  1.00  0.00    -0.664 OA 
HETATM   14  H   UNL     1      -9.244  21.473  66.174  1.00  0.00     0.000 HD 
HETATM   15  C   UNL     1      -8.176  17.746  66.829  1.00  0.00    -0.275 A  
ENDBRANCH   5   6
ENDBRANCH   3   5
TORSDOF 2
ENDMDL
MODEL       99
REMARK 921   NORMALIZED FREE ENERGY PREDICTED BY IDOCK:   -3.46 KCAL/MOL
REMARK 922        TOTAL FREE ENERGY PREDICTED BY IDOCK:   -3.93 KCAL/MOL
REMARK 923 INTER-LIGAND FREE ENERGY PREDICTED BY IDOCK:   -3.85 KCAL/MOL
REMARK 924 INTRA-LIGAND FREE ENERGY PREDICTED BY IDOCK:   -0.08 KCAL/MOL
REMARK 927      BINDING AFFINITY PREDICTED BY RF-SCORE:    0.00 PKD
ROOT
HETATM    1  N   UNL     1      -7.872  11.004  62.778  1.00  0.00    -0.400 NA 
HETATM    2  H2  UNL     1      -7.523  11.238  63.708  1.00  0.00     0.000 HD 
HETATM    3  C   UNL     1      -9.311  10.741  62.792  1.00  0.00    -0.330 C  
HETATM    4  H1  UNL     1      -7.364  10.218  62.371  1.00  0.00     0.000 HD 
ENDROOT
BRANCH   3   5
HETATM    5  C   UNL     1     -10.073  11.919  63.403  1.00  0.00    -0.464 C  
BRANCH   5   6
HETATM    6  C   UNL     1     -10.540  11.639  64.812  1.00  0.00    -0.358 A  
HETATM    7  C   UNL     1     -10.184  10.440  65.453  1.00  0.00    -0.329 A  
HETATM    8  C   UNL     1     -10.653  10.183  66.737  1.00  0.00    -0.169 A  
HETATM    9  O   UNL     1     -10.350   9.024  67.398  1.00  0.00    -0.232 OA 
HETATM   10  C   UNL     1     -11.459  11.109  67.392  1.00  0.00    -0.180 A  
HETATM   11  H   UNL     1     -10.670   8.848  68.276  1.00  0.00     0.000 HD 
HETATM   12  C   UNL     1     -11.802  12.307  66.785  1.00  0.00    -0.349 A  
HETATM   13  O   UNL     1     -11.931  10.837  68.644  1.00  0.00    -0.672 OA 
HETATM   14  H   UNL     1     -12.482  11.469  69.091  1.00  0.00     0.000 HD 
HETATM   15  C   UNL     1     -11.340  12.574  65.494  1.00  0.00    -0.368 A  
ENDBRANCH   5   6
ENDBRANCH   3   5
TORSDOF 2
ENDMDL
MODEL      100
REMARK 921   NORMALIZED FREE ENERGY PREDICTED BY IDOCK:   -3.45 KCAL/MOL
REMARK 922        TOTAL FREE ENERGY PREDICTED BY IDOCK:   -3.92 KCAL/MOL
REMARK 923 INTER-LIGAND FREE ENERGY PREDICTED BY IDOCK:   -3.86 KCAL/MOL
REMARK 924 INTRA-LIGAND FREE ENERGY PREDICTED BY IDOCK:   -0.05 KCAL/MOL
REMARK 927      BINDING AFFINITY PREDICTED BY RF-SCORE:    0.00 PKD
ROOT
HETATM    1  N   UNL     1      -7.933  11.264  69.180  1.00  0.00    -0.346 NA 
HETATM    2  H2  UNL     1      -7.286  10.491  69.021  1.00  0.00     0.000 HD 
HETATM    3  C   UNL     1      -8.515  11.748  67.928  1.00  0.00    -0.154 C  
HETATM    4  H1  UNL     1      -7.491  12.027  69.693  1.00  0.00     0.000 HD 
ENDROOT
BRANCH   3   5
HETATM    5  C   UNL     1      -9.179  10.602  67.159  1.00  0.00    -0.161 C  
BRANCH   5   6
HETATM    6  C   UNL     1     -10.072  11.094  66.045  1.00  0.00    -0.292 A  
HETATM    7  C   UNL     1     -11.239  11.820  66.337  1.00  0.00    -0.382 A  
HETATM    8  C   UNL     1     -12.067  12.234  65.300  1.00  0.00    -0.297 A  
HETATM    9  O   UNL     1     -13.224  12.929  65.532  1.00  0.00    -0.340 OA 
HETATM   10  C   UNL     1     -11.742  11.944  63.979  1.00  0.00    -0.378 A  
HETATM   11  H   UNL     1     -13.790  13.212  64.824  1.00  0.00     0.000 HD 
HETATM   12  C   UNL     1     -10.583  11.250  63.669  1.00  0.00    -0.453 A  
HETATM   13  O   UNL     1     -12.574  12.338  62.969  1.00  0.00    -0.714 OA 
HETATM   14  H   UNL     1     -12.352  12.139  62.067  1.00  0.00     0.000 HD 
HETATM   15  C   UNL     1      -9.746  10.826  64.703  1.00  0.00    -0.344 A  
ENDBRANCH   5   6
ENDBRANCH   3   5
TORSDOF 2
ENDMDL
MODEL      101
REMARK 921   NORMALIZED FREE ENERGY PREDICTED BY IDOCK:   -3.45 KCAL/MOL
REMARK 922        TOTAL FREE ENERGY PREDICTED BY IDOCK:   -3.91 KCAL/MOL
REMARK 923 INTER-LIGAND FREE ENERGY PREDICTED BY IDOCK:   -3.84 KCAL/MOL
REMARK 924 INTRA-LIGAND FREE ENERGY PREDICTED BY IDOCK:   -0.07 KCAL/MOL
REMARK 927      BINDING AFFINITY PREDICTED BY RF-SCORE:    0.00 PKD
ROOT
HETATM    1  N   UNL     1     -13.250   8.824  72.693  1.00  0.00    -0.638 NA 
HETATM    2  H2  UNL     1     -12.676   8.639  73.516  1.00  0.00     0.000 HD 
HETATM    3  C   UNL     1     -12.642   9.833  71.825  1.00  0.00    -0.416 C  
HETATM    4  H1  UNL     1     -14.201   9.091  72.948  1.00  0.00     0.000 HD 
ENDROOT
BRANCH   3   5
HETATM    5  C   UNL     1     -11.215   9.432  71.442  1.00  0.00    -0.452 C  
BRANCH   5   6
HETATM    6  C   UNL     1     -10.753  10.088  70.162  1.00  0.00    -0.361 A  
HETATM    7  C   UNL     1     -11.660  10.808  69.366  1.00  0.00    -0.380 A  
HETATM    8  C   UNL     1     -11.224  11.375  68.172  1.00  0.00    -0.278 A  
HETATM    9  O   UNL     1     -12.071  12.070  67.352  1.00  0.00    -0.566 OA 
HETATM   10  C   UNL     1      -9.899  11.243  67.771  1.00  0.00    -0.173 A  
HETATM   11  H   UNL     1     -11.774  12.458  66.536  1.00  0.00     0.000 HD 
HETATM   12  C   UNL     1      -8.985  10.557  68.555  1.00  0.00    -0.147 A  
HETATM   13  O   UNL     1      -9.487  11.786  66.587  1.00  0.00    -0.194 OA 
HETATM   14  H   UNL     1      -8.582  11.695  66.313  1.00  0.00     0.000 HD 
HETATM   15  C   UNL     1      -9.412   9.980  69.753  1.00  0.00    -0.239 A  
ENDBRANCH   5   6
ENDBRANCH   3   5
TORSDOF 2
ENDMDL
MODEL      102
REMARK 921   NORMALIZED FREE ENERGY PREDICTED BY IDOCK:   -3.44 KCAL/MOL
REMARK 922        TOTAL FREE ENERGY PREDICTED BY IDOCK:   -3.90 KCAL/MOL
REMARK 923 INTER-LIGAND FREE ENERGY PREDICTED BY IDOCK:   -3.85 KCAL/MOL
REMARK 924 INTRA-LIGAND FREE ENERGY PREDICTED BY IDOCK:   -0.05 KCAL/MOL
REMARK 927      BINDING AFFINITY PREDICTED BY RF-SCORE:    0.00 PKD
ROOT
HETATM    1  N   UNL     1      -5.198  20.804  71.732  1.00  0.00    -0.568 NA 
HETATM    2  H2  UNL     1      -4.873  21.680  71.323  1.00  0.00     0.000 HD 
HETATM    3  C   UNL     1      -6.200  20.152  70.889  1.00  0.00    -0.216 C  
HETATM    4  H1  UNL     1      -5.553  20.938  72.679  1.00  0.00     0.000 HD 
ENDROOT
BRANCH   3   5
HETATM    5  C   UNL     1      -5.667  19.950  69.468  1.00  0.00    -0.297 C  
BRANCH   5   6
HETATM    6  C   UNL     1      -6.714  19.399  68.530  1.00  0.00    -0.319 A  
HETATM    7  C   UNL     1      -7.273  20.213  67.531  1.00  0.00    -0.320 A  
HETATM    8  C   UNL     1      -8.262  19.699  66.699  1.00  0.00    -0.317 A  
HETATM    9  O   UNL     1      -8.851  20.456  65.722  1.00  0.00    -0.549 OA 
HETATM   10  C   UNL     1      -8.689  18.382  66.843  1.00  0.00    -0.272 A  
HETATM   11  H   UNL     1      -9.526  20.104  65.153  1.00  0.00     0.000 HD 
HETATM   12  C   UNL     1      -8.133  17.556  67.807  1.00  0.00    -0.221 A  
HETATM   13  O   UNL     1      -9.675  17.894  66.033  1.00  0.00    -0.505 OA 
HETATM   14  H   UNL     1      -9.968  16.995  66.132  1.00  0.00     0.000 HD 
HETATM   15  C   UNL     1      -7.143  18.064  68.650  1.00  0.00    -0.269 A  
ENDBRANCH   5   6
ENDBRANCH   3   5
TORSDOF 2
ENDMDL
MODEL      103
REMARK 921   NORMALIZED FREE ENERGY PREDICTED BY IDOCK:   -3.44 KCAL/MOL
REMARK 922        TOTAL FREE ENERGY PREDICTED BY IDOCK:   -3.90 KCAL/MOL
REMARK 923 INTER-LIGAND FREE ENERGY PREDICTED BY IDOCK:   -3.82 KCAL/MOL
REMARK 924 INTRA-LIGAND FREE ENERGY PREDICTED BY IDOCK:   -0.08 KCAL/MOL
REMARK 927      BINDING AFFINITY PREDICTED BY RF-SCORE:    0.00 PKD
ROOT
HETATM    1  N   UNL     1     -10.303  19.806  69.489  1.00  0.00    -0.559 NA 
HETATM    2  H2  UNL     1     -11.113  19.238  69.739  1.00  0.00     0.000 HD 
HETATM    3  C   UNL     1      -9.528  19.196  68.408  1.00  0.00    -0.369 C  
HETATM    4  H1  UNL     1      -9.710  19.996  70.297  1.00  0.00     0.000 HD 
ENDROOT
BRANCH   3   5
HETATM    5  C   UNL     1     -10.418  18.910  67.195  1.00  0.00    -0.509 C  
BRANCH   5   6
HETATM    6  C   UNL     1     -10.264  17.497  66.684  1.00  0.00    -0.332 A  
HETATM    7  C   UNL     1      -9.471  16.571  67.383  1.00  0.00    -0.228 A  
HETATM    8  C   UNL     1      -9.313  15.285  66.878  1.00  0.00    -0.237 A  
HETATM    9  O   UNL     1      -8.537  14.351  67.510  1.00  0.00    -0.168 OA 
HETATM   10  C   UNL     1      -9.943  14.909  65.695  1.00  0.00    -0.358 A  
HETATM   11  H   UNL     1      -8.429  13.472  67.165  1.00  0.00     0.000 HD 
HETATM   12  C   UNL     1     -10.747  15.801  65.005  1.00  0.00    -0.443 A  
HETATM   13  O   UNL     1      -9.763  13.649  65.198  1.00  0.00    -0.559 OA 
HETATM   14  H   UNL     1     -10.193  13.393  64.390  1.00  0.00     0.000 HD 
HETATM   15  C   UNL     1     -10.911  17.097  65.501  1.00  0.00    -0.058 A  
ENDBRANCH   5   6
ENDBRANCH   3   5
TORSDOF 2
ENDMDL
MODEL      104
REMARK 921   NORMALIZED FREE ENERGY PREDICTED BY IDOCK:   -3.42 KCAL/MOL
REMARK 922        TOTAL FREE ENERGY PREDICTED BY IDOCK:   -3.88 KCAL/MOL
REMARK 923 INTER-LIGAND FREE ENERGY PREDICTED BY IDOCK:   -3.82 KCAL/MOL
REMARK 924 INTRA-LIGAND FREE ENERGY PREDICTED BY IDOCK:   -0.06 KCAL/MOL
REMARK 927      BINDING AFFINITY PREDICTED BY RF-SCORE:    0.00 PKD
ROOT
HETATM    1  N   UNL     1      -8.491  10.731  69.640  1.00  0.00    -0.366 NA 
HETATM    2  H2  UNL     1      -8.827  11.694  69.668  1.00  0.00     0.000 HD 
HETATM    3  C   UNL     1      -9.534   9.784  70.034  1.00  0.00    -0.238 C  
HETATM    4  H1  UNL     1      -7.654  10.606  70.209  1.00  0.00     0.000 HD 
ENDROOT
BRANCH   3   5
HETATM    5  C   UNL     1     -10.790   9.971  69.180  1.00  0.00    -0.253 C  
BRANCH   5   6
HETATM    6  C   UNL     1     -11.265  11.404  69.156  1.00  0.00    -0.335 A  
HETATM    7  C   UNL     1     -11.231  12.144  67.961  1.00  0.00    -0.319 A  
HETATM    8  C   UNL     1     -11.640  13.474  67.966  1.00  0.00    -0.337 A  
HETATM    9  O   UNL     1     -11.609  14.243  66.834  1.00  0.00    -0.351 OA 
HETATM   10  C   UNL     1     -12.092  14.068  69.139  1.00  0.00    -0.337 A  
HETATM   11  H   UNL     1     -11.888  15.151  66.837  1.00  0.00     0.000 HD 
HETATM   12  C   UNL     1     -12.156  13.348  70.322  1.00  0.00    -0.419 A  
HETATM   13  O   UNL     1     -12.471  15.381  69.137  1.00  0.00    -0.600 OA 
HETATM   14  H   UNL     1     -12.780  15.787  69.938  1.00  0.00     0.000 HD 
HETATM   15  C   UNL     1     -11.744  12.013  70.330  1.00  0.00    -0.267 A  
ENDBRANCH   5   6
ENDBRANCH   3   5
TORSDOF 2
ENDMDL
MODEL      105
REMARK 921   NORMALIZED FREE ENERGY PREDICTED BY IDOCK:   -3.42 KCAL/MOL
REMARK 922        TOTAL FREE ENERGY PREDICTED BY IDOCK:   -3.88 KCAL/MOL
REMARK 923 INTER-LIGAND FREE ENERGY PREDICTED BY IDOCK:   -3.80 KCAL/MOL
REMARK 924 INTRA-LIGAND FREE ENERGY PREDICTED BY IDOCK:   -0.09 KCAL/MOL
REMARK 927      BINDING AFFINITY PREDICTED BY RF-SCORE:    0.00 PKD
ROOT
HETATM    1  N   UNL     1      -7.084  20.240  66.207  1.00  0.00    -0.281 NA 
HETATM    2  H2  UNL     1      -7.379  20.841  65.436  1.00  0.00     0.000 HD 
HETATM    3  C   UNL     1      -7.852  20.504  67.424  1.00  0.00    -0.314 C  
HETATM    4  H1  UNL     1      -6.083  20.320  66.385  1.00  0.00     0.000 HD 
ENDROOT
BRANCH   3   5
HETATM    5  C   UNL     1      -9.354  20.384  67.155  1.00  0.00    -0.537 C  
BRANCH   5   6
HETATM    6  C   UNL     1      -9.848  18.961  67.255  1.00  0.00    -0.368 A  
HETATM    7  C   UNL     1     -10.049  18.365  68.512  1.00  0.00    -0.413 A  
HETATM    8  C   UNL     1     -10.471  17.041  68.584  1.00  0.00    -0.363 A  
HETATM    9  O   UNL     1     -10.664  16.409  69.783  1.00  0.00    -0.322 OA 
HETATM   10  C   UNL     1     -10.705  16.312  67.423  1.00  0.00    -0.287 A  
HETATM   11  H   UNL     1     -10.953  15.505  69.832  1.00  0.00     0.000 HD 
HETATM   12  C   UNL     1     -10.536  16.889  66.175  1.00  0.00    -0.276 A  
HETATM   13  O   UNL     1     -11.099  15.006  67.506  1.00  0.00    -0.299 OA 
HETATM   14  H   UNL     1     -11.259  14.508  66.713  1.00  0.00     0.000 HD 
HETATM   15  C   UNL     1     -10.109  18.217  66.090  1.00  0.00    -0.338 A  
ENDBRANCH   5   6
ENDBRANCH   3   5
TORSDOF 2
ENDMDL
MODEL      106
REMARK 921   NORMALIZED FREE ENERGY PREDICTED BY IDOCK:   -3.40 KCAL/MOL
REMARK 922        TOTAL FREE ENERGY PREDICTED BY IDOCK:   -3.87 KCAL/MOL
REMARK 923 INTER-LIGAND FREE ENERGY PREDICTED BY IDOCK:   -3.78 KCAL/MOL
REMARK 924 INTRA-LIGAND FREE ENERGY PREDICTED BY IDOCK:   -0.09 KCAL/MOL
REMARK 927      BINDING AFFINITY PREDICTED BY RF-SCORE:    0.00 PKD
ROOT
HETATM    1  N   UNL     1     -11.311   7.392  73.330  1.00  0.00    -0.600 NA 
HETATM    2  H2  UNL     1     -10.962   6.444  73.187  1.00  0.00     0.000 HD 
HETATM    3  C   UNL     1     -10.531   8.375  72.579  1.00  0.00    -0.302 C  
HETATM    4  H1  UNL     1     -11.344   7.636  74.321  1.00  0.00     0.000 HD 
ENDROOT
BRANCH   3   5
HETATM    5  C   UNL     1     -10.483   8.009  71.093  1.00  0.00    -0.230 C  
BRANCH   5   6
HETATM    6  C   UNL     1     -10.950   9.136  70.203  1.00  0.00    -0.267 A  
HETATM    7  C   UNL     1     -10.564   9.182  68.853  1.00  0.00    -0.214 A  
HETATM    8  C   UNL     1     -10.975  10.246  68.057  1.00  0.00    -0.289 A  
HETATM    9  O   UNL     1     -10.612  10.348  66.741  1.00  0.00    -0.242 OA 
HETATM   10  C   UNL     1     -11.774  11.255  68.587  1.00  0.00    -0.324 A  
HETATM   11  H   UNL     1     -10.893  11.075  66.198  1.00  0.00     0.000 HD 
HETATM   12  C   UNL     1     -12.185  11.214  69.910  1.00  0.00    -0.385 A  
HETATM   13  O   UNL     1     -12.155  12.306  67.802  1.00  0.00    -0.478 OA 
HETATM   14  H   UNL     1     -12.701  12.995  68.164  1.00  0.00     0.000 HD 
HETATM   15  C   UNL     1     -11.775  10.152  70.719  1.00  0.00    -0.446 A  
ENDBRANCH   5   6
ENDBRANCH   3   5
TORSDOF 2
ENDMDL
MODEL      107
REMARK 921   NORMALIZED FREE ENERGY PREDICTED BY IDOCK:   -3.40 KCAL/MOL
REMARK 922        TOTAL FREE ENERGY PREDICTED BY IDOCK:   -3.87 KCAL/MOL
REMARK 923 INTER-LIGAND FREE ENERGY PREDICTED BY IDOCK:   -3.79 KCAL/MOL
REMARK 924 INTRA-LIGAND FREE ENERGY PREDICTED BY IDOCK:   -0.08 KCAL/MOL
REMARK 927      BINDING AFFINITY PREDICTED BY RF-SCORE:    0.00 PKD
ROOT
HETATM    1  N   UNL     1      -6.695  20.875  64.623  1.00  0.00    -0.531 NA 
HETATM    2  H2  UNL     1      -7.530  20.623  64.093  1.00  0.00     0.000 HD 
HETATM    3  C   UNL     1      -6.666  20.219  65.930  1.00  0.00    -0.252 C  
HETATM    4  H1  UNL     1      -6.601  21.886  64.722  1.00  0.00     0.000 HD 
ENDROOT
BRANCH   3   5
HETATM    5  C   UNL     1      -6.807  18.702  65.781  1.00  0.00    -0.307 C  
BRANCH   5   6
HETATM    6  C   UNL     1      -8.005  18.155  66.521  1.00  0.00    -0.290 A  
HETATM    7  C   UNL     1      -8.625  18.915  67.527  1.00  0.00    -0.296 A  
HETATM    8  C   UNL     1      -9.706  18.381  68.222  1.00  0.00    -0.344 A  
HETATM    9  O   UNL     1     -10.334  19.072  69.223  1.00  0.00    -0.506 OA 
HETATM   10  C   UNL     1     -10.180  17.109  67.918  1.00  0.00    -0.330 A  
HETATM   11  H   UNL     1     -11.072  18.708  69.697  1.00  0.00     0.000 HD 
HETATM   12  C   UNL     1      -9.596  16.354  66.913  1.00  0.00    -0.255 A  
HETATM   13  O   UNL     1     -11.229  16.586  68.621  1.00  0.00    -0.353 OA 
HETATM   14  H   UNL     1     -11.552  15.717  68.414  1.00  0.00     0.000 HD 
HETATM   15  C   UNL     1      -8.508  16.879  66.211  1.00  0.00    -0.322 A  
ENDBRANCH   5   6
ENDBRANCH   3   5
TORSDOF 2
ENDMDL
MODEL      108
REMARK 921   NORMALIZED FREE ENERGY PREDICTED BY IDOCK:   -3.39 KCAL/MOL
REMARK 922        TOTAL FREE ENERGY PREDICTED BY IDOCK:   -3.85 KCAL/MOL
REMARK 923 INTER-LIGAND FREE ENERGY PREDICTED BY IDOCK:   -3.75 KCAL/MOL
REMARK 924 INTRA-LIGAND FREE ENERGY PREDICTED BY IDOCK:   -0.10 KCAL/MOL
REMARK 927      BINDING AFFINITY PREDICTED BY RF-SCORE:    0.00 PKD
ROOT
HETATM    1  N   UNL     1      -9.682  20.244  65.646  1.00  0.00    -0.528 NA 
HETATM    2  H2  UNL     1      -8.718  19.954  65.812  1.00  0.00     0.000 HD 
HETATM    3  C   UNL     1     -10.609  19.594  66.573  1.00  0.00    -0.482 C  
HETATM    4  H1  UNL     1      -9.964  20.082  64.679  1.00  0.00     0.000 HD 
ENDROOT
BRANCH   3   5
HETATM    5  C   UNL     1     -10.187  19.836  68.024  1.00  0.00    -0.581 C  
BRANCH   5   6
HETATM    6  C   UNL     1      -8.966  19.036  68.413  1.00  0.00    -0.378 A  
HETATM    7  C   UNL     1      -9.031  17.635  68.492  1.00  0.00    -0.289 A  
HETATM    8  C   UNL     1      -7.906  16.917  68.887  1.00  0.00    -0.233 A  
HETATM    9  O   UNL     1      -7.922  15.552  68.997  1.00  0.00    -0.169 OA 
HETATM   10  C   UNL     1      -6.720  17.577  69.190  1.00  0.00    -0.243 A  
HETATM   11  H   UNL     1      -7.154  15.062  69.266  1.00  0.00     0.000 HD 
HETATM   12  C   UNL     1      -6.630  18.956  69.095  1.00  0.00    -0.318 A  
HETATM   13  O   UNL     1      -5.628  16.863  69.597  1.00  0.00    -0.166 OA 
HETATM   14  H   UNL     1      -4.817  17.314  69.804  1.00  0.00     0.000 HD 
HETATM   15  C   UNL     1      -7.754  19.687  68.704  1.00  0.00    -0.363 A  
ENDBRANCH   5   6
ENDBRANCH   3   5
TORSDOF 2
ENDMDL
MODEL      109
REMARK 921   NORMALIZED FREE ENERGY PREDICTED BY IDOCK:   -3.39 KCAL/MOL
REMARK 922        TOTAL FREE ENERGY PREDICTED BY IDOCK:   -3.85 KCAL/MOL
REMARK 923 INTER-LIGAND FREE ENERGY PREDICTED BY IDOCK:   -3.76 KCAL/MOL
REMARK 924 INTRA-LIGAND FREE ENERGY PREDICTED BY IDOCK:   -0.09 KCAL/MOL
REMARK 927      BINDING AFFINITY PREDICTED BY RF-SCORE:    0.00 PKD
ROOT
HETATM    1  N   UNL     1      -6.626  14.393  67.305  1.00  0.00    -0.379 NA 
HETATM    2  H2  UNL     1      -6.563  13.866  68.177  1.00  0.00     0.000 HD 
HETATM    3  C   UNL     1      -7.974  14.915  67.085  1.00  0.00    -0.195 C  
HETATM    4  H1  UNL     1      -6.316  13.839  66.506  1.00  0.00     0.000 HD 
ENDROOT
BRANCH   3   5
HETATM    5  C   UNL     1      -8.438  15.746  68.284  1.00  0.00    -0.164 C  
BRANCH   5   6
HETATM    6  C   UNL     1      -8.725  17.183  67.916  1.00  0.00    -0.222 A  
HETATM    7  C   UNL     1      -8.117  17.763  66.790  1.00  0.00    -0.265 A  
HETATM    8  C   UNL     1      -8.365  19.098  66.488  1.00  0.00    -0.315 A  
HETATM    9  O   UNL     1      -7.784  19.716  65.413  1.00  0.00    -0.378 OA 
HETATM   10  C   UNL     1      -9.220  19.854  67.284  1.00  0.00    -0.348 A  
HETATM   11  H   UNL     1      -7.954  20.628  65.206  1.00  0.00     0.000 HD 
HETATM   12  C   UNL     1      -9.848  19.293  68.384  1.00  0.00    -0.492 A  
HETATM   13  O   UNL     1      -9.440  21.170  66.989  1.00  0.00    -0.668 OA 
HETATM   14  H   UNL     1     -10.023  21.686  67.533  1.00  0.00     0.000 HD 
HETATM   15  C   UNL     1      -9.602  17.954  68.700  1.00  0.00    -0.331 A  
ENDBRANCH   5   6
ENDBRANCH   3   5
TORSDOF 2
ENDMDL
MODEL      110
REMARK 921   NORMALIZED FREE ENERGY PREDICTED BY IDOCK:   -3.38 KCAL/MOL
REMARK 922        TOTAL FREE ENERGY PREDICTED BY IDOCK:   -3.84 KCAL/MOL
REMARK 923 INTER-LIGAND FREE ENERGY PREDICTED BY IDOCK:   -3.79 KCAL/MOL
REMARK 924 INTRA-LIGAND FREE ENERGY PREDICTED BY IDOCK:   -0.06 KCAL/MOL
REMARK 927      BINDING AFFINITY PREDICTED BY RF-SCORE:    0.00 PKD
ROOT
HETATM    1  N   UNL     1      -9.118  20.221  65.939  1.00  0.00    -0.565 NA 
HETATM    2  H2  UNL     1      -8.234  19.802  66.230  1.00  0.00     0.000 HD 
HETATM    3  C   UNL     1     -10.264  19.532  66.533  1.00  0.00    -0.467 C  
HETATM    4  H1  UNL     1      -9.203  20.256  64.922  1.00  0.00     0.000 HD 
ENDROOT
BRANCH   3   5
HETATM    5  C   UNL     1     -10.137  19.480  68.057  1.00  0.00    -0.531 C  
BRANCH   5   6
HETATM    6  C   UNL     1      -9.509  18.195  68.542  1.00  0.00    -0.339 A  
HETATM    7  C   UNL     1      -8.112  18.046  68.553  1.00  0.00    -0.306 A  
HETATM    8  C   UNL     1      -7.553  16.843  68.970  1.00  0.00    -0.210 A  
HETATM    9  O   UNL     1      -6.199  16.641  68.981  1.00  0.00    -0.153 OA 
HETATM   10  C   UNL     1      -8.367  15.794  69.386  1.00  0.00    -0.215 A  
HETATM   11  H   UNL     1      -5.817  15.818  69.266  1.00  0.00     0.000 HD 
HETATM   12  C   UNL     1      -9.746  15.930  69.405  1.00  0.00    -0.268 A  
HETATM   13  O   UNL     1      -7.808  14.609  69.773  1.00  0.00    -0.399 OA 
HETATM   14  H   UNL     1      -8.364  13.893  70.057  1.00  0.00     0.000 HD 
HETATM   15  C   UNL     1     -10.318  17.133  68.985  1.00  0.00    -0.331 A  
ENDBRANCH   5   6
ENDBRANCH   3   5
TORSDOF 2
ENDMDL
MODEL      111
REMARK 921   NORMALIZED FREE ENERGY PREDICTED BY IDOCK:   -3.38 KCAL/MOL
REMARK 922        TOTAL FREE ENERGY PREDICTED BY IDOCK:   -3.84 KCAL/MOL
REMARK 923 INTER-LIGAND FREE ENERGY PREDICTED BY IDOCK:   -3.77 KCAL/MOL
REMARK 924 INTRA-LIGAND FREE ENERGY PREDICTED BY IDOCK:   -0.07 KCAL/MOL
REMARK 927      BINDING AFFINITY PREDICTED BY RF-SCORE:    0.00 PKD
ROOT
HETATM    1  N   UNL     1      -9.171   9.071  64.612  1.00  0.00    -0.421 NA 
HETATM    2  H2  UNL     1      -9.566   9.169  63.677  1.00  0.00     0.000 HD 
HETATM    3  C   UNL     1      -9.016  10.368  65.271  1.00  0.00    -0.187 C  
HETATM    4  H1  UNL     1      -8.285   8.565  64.597  1.00  0.00     0.000 HD 
ENDROOT
BRANCH   3   5
HETATM    5  C   UNL     1     -10.346  11.128  65.295  1.00  0.00    -0.336 C  
BRANCH   5   6
HETATM    6  C   UNL     1     -10.748  11.548  66.688  1.00  0.00    -0.311 A  
HETATM    7  C   UNL     1     -11.262  10.604  67.594  1.00  0.00    -0.361 A  
HETATM    8  C   UNL     1     -11.661  11.016  68.862  1.00  0.00    -0.314 A  
HETATM    9  O   UNL     1     -12.185  10.141  69.774  1.00  0.00    -0.491 OA 
HETATM   10  C   UNL     1     -11.542  12.350  69.239  1.00  0.00    -0.319 A  
HETATM   11  H   UNL     1     -12.457  10.422  70.640  1.00  0.00     0.000 HD 
HETATM   12  C   UNL     1     -11.015  13.291  68.368  1.00  0.00    -0.289 A  
HETATM   13  O   UNL     1     -11.956  12.747  70.479  1.00  0.00    -0.493 OA 
HETATM   14  H   UNL     1     -11.875  13.658  70.736  1.00  0.00     0.000 HD 
HETATM   15  C   UNL     1     -10.616  12.889  67.091  1.00  0.00    -0.246 A  
ENDBRANCH   5   6
ENDBRANCH   3   5
TORSDOF 2
ENDMDL
MODEL      112
REMARK 921   NORMALIZED FREE ENERGY PREDICTED BY IDOCK:   -3.37 KCAL/MOL
REMARK 922        TOTAL FREE ENERGY PREDICTED BY IDOCK:   -3.83 KCAL/MOL
REMARK 923 INTER-LIGAND FREE ENERGY PREDICTED BY IDOCK:   -3.75 KCAL/MOL
REMARK 924 INTRA-LIGAND FREE ENERGY PREDICTED BY IDOCK:   -0.08 KCAL/MOL
REMARK 927      BINDING AFFINITY PREDICTED BY RF-SCORE:    0.00 PKD
ROOT
HETATM    1  N   UNL     1     -13.275  13.444  72.929  1.00  0.00    -0.436 NA 
HETATM    2  H2  UNL     1     -12.867  14.212  72.397  1.00  0.00     0.000 HD 
HETATM    3  C   UNL     1     -13.698  12.347  72.059  1.00  0.00    -0.107 C  
HETATM    4  H1  UNL     1     -14.048  13.759  73.516  1.00  0.00     0.000 HD 
ENDROOT
BRANCH   3   5
HETATM    5  C   UNL     1     -12.538  11.873  71.179  1.00  0.00    -0.390 C  
BRANCH   5   6
HETATM    6  C   UNL     1     -12.311  10.383  71.272  1.00  0.00    -0.507 A  
HETATM    7  C   UNL     1     -11.095   9.822  70.848  1.00  0.00    -0.428 A  
HETATM    8  C   UNL     1     -10.917   8.443  70.909  1.00  0.00    -0.243 A  
HETATM    9  O   UNL     1      -9.758   7.845  70.491  1.00  0.00    -0.174 OA 
HETATM   10  C   UNL     1     -11.929   7.623  71.396  1.00  0.00    -0.310 A  
HETATM   11  H   UNL     1      -9.637   6.903  70.533  1.00  0.00     0.000 HD 
HETATM   12  C   UNL     1     -13.127   8.160  71.841  1.00  0.00    -0.349 A  
HETATM   13  O   UNL     1     -11.751   6.269  71.432  1.00  0.00    -0.309 OA 
HETATM   14  H   UNL     1     -12.443   5.708  71.765  1.00  0.00     0.000 HD 
HETATM   15  C   UNL     1     -13.317   9.542  71.782  1.00  0.00    -0.501 A  
ENDBRANCH   5   6
ENDBRANCH   3   5
TORSDOF 2
ENDMDL
MODEL      113
REMARK 921   NORMALIZED FREE ENERGY PREDICTED BY IDOCK:   -3.36 KCAL/MOL
REMARK 922        TOTAL FREE ENERGY PREDICTED BY IDOCK:   -3.82 KCAL/MOL
REMARK 923 INTER-LIGAND FREE ENERGY PREDICTED BY IDOCK:   -3.75 KCAL/MOL
REMARK 924 INTRA-LIGAND FREE ENERGY PREDICTED BY IDOCK:   -0.07 KCAL/MOL
REMARK 927      BINDING AFFINITY PREDICTED BY RF-SCORE:    0.00 PKD
ROOT
HETATM    1  N   UNL     1     -10.380   7.706  66.592  1.00  0.00    -0.485 NA 
HETATM    2  H2  UNL     1      -9.571   7.540  65.993  1.00  0.00     0.000 HD 
HETATM    3  C   UNL     1     -10.349   9.043  67.184  1.00  0.00    -0.272 C  
HETATM    4  H1  UNL     1     -10.466   6.991  67.316  1.00  0.00     0.000 HD 
ENDROOT
BRANCH   3   5
HETATM    5  C   UNL     1     -10.220  10.115  66.099  1.00  0.00    -0.285 C  
BRANCH   5   6
HETATM    6  C   UNL     1     -10.713  11.467  66.558  1.00  0.00    -0.325 A  
HETATM    7  C   UNL     1     -10.352  12.630  65.858  1.00  0.00    -0.295 A  
HETATM    8  C   UNL     1     -10.786  13.870  66.316  1.00  0.00    -0.290 A  
HETATM    9  O   UNL     1     -10.448  15.034  65.680  1.00  0.00    -0.302 OA 
HETATM   10  C   UNL     1     -11.582  13.962  67.453  1.00  0.00    -0.368 A  
HETATM   11  H   UNL     1     -10.744  15.881  65.993  1.00  0.00     0.000 HD 
HETATM   12  C   UNL     1     -11.968  12.823  68.144  1.00  0.00    -0.295 A  
HETATM   13  O   UNL     1     -11.986  15.185  67.906  1.00  0.00    -0.473 OA 
HETATM   14  H   UNL     1     -12.530  15.248  68.683  1.00  0.00     0.000 HD 
HETATM   15  C   UNL     1     -11.535  11.574  67.694  1.00  0.00    -0.357 A  
ENDBRANCH   5   6
ENDBRANCH   3   5
TORSDOF 2
ENDMDL
MODEL      114
REMARK 921   NORMALIZED FREE ENERGY PREDICTED BY IDOCK:   -3.36 KCAL/MOL
REMARK 922        TOTAL FREE ENERGY PREDICTED BY IDOCK:   -3.81 KCAL/MOL
REMARK 923 INTER-LIGAND FREE ENERGY PREDICTED BY IDOCK:   -3.73 KCAL/MOL
REMARK 924 INTRA-LIGAND FREE ENERGY PREDICTED BY IDOCK:   -0.08 KCAL/MOL
REMARK 927      BINDING AFFINITY PREDICTED BY RF-SCORE:    0.00 PKD
ROOT
HETATM    1  N   UNL     1     -13.394  13.390  72.918  1.00  0.00    -0.519 NA 
HETATM    2  H2  UNL     1     -12.832  14.232  72.789  1.00  0.00     0.000 HD 
HETATM    3  C   UNL     1     -13.629  12.697  71.651  1.00  0.00     0.061 C  
HETATM    4  H1  UNL     1     -14.276  13.594  73.389  1.00  0.00     0.000 HD 
ENDROOT
BRANCH   3   5
HETATM    5  C   UNL     1     -12.306  12.392  70.945  1.00  0.00    -0.358 C  
BRANCH   5   6
HETATM    6  C   UNL     1     -11.992  10.915  70.917  1.00  0.00    -0.416 A  
HETATM    7  C   UNL     1     -12.640  10.034  71.799  1.00  0.00    -0.504 A  
HETATM    8  C   UNL     1     -12.312   8.682  71.783  1.00  0.00    -0.346 A  
HETATM    9  O   UNL     1     -12.901   7.786  72.633  1.00  0.00    -0.518 OA 
HETATM   10  C   UNL     1     -11.358   8.199  70.893  1.00  0.00    -0.268 A  
HETATM   11  H   UNL     1     -12.677   6.862  72.622  1.00  0.00     0.000 HD 
HETATM   12  C   UNL     1     -10.725   9.048  69.999  1.00  0.00    -0.247 A  
HETATM   13  O   UNL     1     -11.029   6.873  70.900  1.00  0.00    -0.237 OA 
HETATM   14  H   UNL     1     -10.377   6.543  70.293  1.00  0.00     0.000 HD 
HETATM   15  C   UNL     1     -11.044  10.408  70.010  1.00  0.00    -0.379 A  
ENDBRANCH   5   6
ENDBRANCH   3   5
TORSDOF 2
ENDMDL
MODEL      115
REMARK 921   NORMALIZED FREE ENERGY PREDICTED BY IDOCK:   -3.36 KCAL/MOL
REMARK 922        TOTAL FREE ENERGY PREDICTED BY IDOCK:   -3.81 KCAL/MOL
REMARK 923 INTER-LIGAND FREE ENERGY PREDICTED BY IDOCK:   -3.72 KCAL/MOL
REMARK 924 INTRA-LIGAND FREE ENERGY PREDICTED BY IDOCK:   -0.09 KCAL/MOL
REMARK 927      BINDING AFFINITY PREDICTED BY RF-SCORE:    0.00 PKD
ROOT
HETATM    1  N   UNL     1     -11.671   5.821  72.768  1.00  0.00    -0.513 NA 
HETATM    2  H2  UNL     1     -11.441   5.109  73.461  1.00  0.00     0.000 HD 
HETATM    3  C   UNL     1     -10.527   6.128  71.908  1.00  0.00    -0.213 C  
HETATM    4  H1  UNL     1     -12.034   6.669  73.203  1.00  0.00     0.000 HD 
ENDROOT
BRANCH   3   5
HETATM    5  C   UNL     1      -9.982   4.856  71.254  1.00  0.00    -0.271 C  
BRANCH   5   6
HETATM    6  C   UNL     1     -10.020   4.918  69.746  1.00  0.00    -0.314 A  
HETATM    7  C   UNL     1     -10.721   5.947  69.094  1.00  0.00    -0.394 A  
HETATM    8  C   UNL     1     -10.775   5.968  67.705  1.00  0.00    -0.296 A  
HETATM    9  O   UNL     1     -11.459   6.938  67.022  1.00  0.00    -0.670 OA 
HETATM   10  C   UNL     1     -10.129   4.987  66.959  1.00  0.00    -0.214 A  
HETATM   11  H   UNL     1     -11.496   6.952  66.073  1.00  0.00     0.000 HD 
HETATM   12  C   UNL     1      -9.413   3.977  67.583  1.00  0.00    -0.231 A  
HETATM   13  O   UNL     1     -10.206   5.005  65.595  1.00  0.00    -0.370 OA 
HETATM   14  H   UNL     1      -9.765   4.335  65.086  1.00  0.00     0.000 HD 
HETATM   15  C   UNL     1      -9.356   3.944  68.978  1.00  0.00    -0.237 A  
ENDBRANCH   5   6
ENDBRANCH   3   5
TORSDOF 2
ENDMDL
MODEL      116
REMARK 921   NORMALIZED FREE ENERGY PREDICTED BY IDOCK:   -3.33 KCAL/MOL
REMARK 922        TOTAL FREE ENERGY PREDICTED BY IDOCK:   -3.78 KCAL/MOL
REMARK 923 INTER-LIGAND FREE ENERGY PREDICTED BY IDOCK:   -3.72 KCAL/MOL
REMARK 924 INTRA-LIGAND FREE ENERGY PREDICTED BY IDOCK:   -0.07 KCAL/MOL
REMARK 927      BINDING AFFINITY PREDICTED BY RF-SCORE:    0.00 PKD
ROOT
HETATM    1  N   UNL     1      -8.125   5.455  73.788  1.00  0.00    -0.112 NA 
HETATM    2  H2  UNL     1      -8.187   5.900  74.704  1.00  0.00     0.000 HD 
HETATM    3  C   UNL     1      -9.199   4.483  73.585  1.00  0.00    -0.111 C  
HETATM    4  H1  UNL     1      -7.213   5.023  73.639  1.00  0.00     0.000 HD 
ENDROOT
BRANCH   3   5
HETATM    5  C   UNL     1     -10.568   5.131  73.809  1.00  0.00    -0.331 C  
BRANCH   5   6
HETATM    6  C   UNL     1     -10.876   6.200  72.787  1.00  0.00    -0.282 A  
HETATM    7  C   UNL     1     -11.196   5.849  71.465  1.00  0.00    -0.290 A  
HETATM    8  C   UNL     1     -11.442   6.849  70.530  1.00  0.00    -0.342 A  
HETATM    9  O   UNL     1     -11.739   6.560  69.225  1.00  0.00    -0.644 OA 
HETATM   10  C   UNL     1     -11.385   8.189  70.899  1.00  0.00    -0.268 A  
HETATM   11  H   UNL     1     -11.908   7.243  68.586  1.00  0.00     0.000 HD 
HETATM   12  C   UNL     1     -11.095   8.555  72.204  1.00  0.00    -0.436 A  
HETATM   13  O   UNL     1     -11.608   9.163  69.967  1.00  0.00    -0.452 OA 
HETATM   14  H   UNL     1     -11.569  10.078  70.219  1.00  0.00     0.000 HD 
HETATM   15  C   UNL     1     -10.842   7.559  73.150  1.00  0.00    -0.448 A  
ENDBRANCH   5   6
ENDBRANCH   3   5
TORSDOF 2
ENDMDL
MODEL      117
REMARK 921   NORMALIZED FREE ENERGY PREDICTED BY IDOCK:   -3.29 KCAL/MOL
REMARK 922        TOTAL FREE ENERGY PREDICTED BY IDOCK:   -3.74 KCAL/MOL
REMARK 923 INTER-LIGAND FREE ENERGY PREDICTED BY IDOCK:   -3.65 KCAL/MOL
REMARK 924 INTRA-LIGAND FREE ENERGY PREDICTED BY IDOCK:   -0.09 KCAL/MOL
REMARK 927      BINDING AFFINITY PREDICTED BY RF-SCORE:    0.00 PKD
ROOT
HETATM    1  N   UNL     1      -8.275  12.057  67.343  1.00  0.00    -0.159 NA 
HETATM    2  H2  UNL     1      -7.954  12.273  68.287  1.00  0.00     0.000 HD 
HETATM    3  C   UNL     1      -9.727  11.884  67.291  1.00  0.00    -0.184 C  
HETATM    4  H1  UNL     1      -7.799  11.240  66.959  1.00  0.00     0.000 HD 
ENDROOT
BRANCH   3   5
HETATM    5  C   UNL     1     -10.441  13.110  67.866  1.00  0.00    -0.245 C  
BRANCH   5   6
HETATM    6  C   UNL     1     -11.298  12.773  69.063  1.00  0.00    -0.346 A  
HETATM    7  C   UNL     1     -11.853  13.795  69.850  1.00  0.00    -0.394 A  
HETATM    8  C   UNL     1     -12.611  13.466  70.969  1.00  0.00    -0.343 A  
HETATM    9  O   UNL     1     -13.159  14.424  71.779  1.00  0.00    -0.320 OA 
HETATM   10  C   UNL     1     -12.831  12.133  71.304  1.00  0.00    -0.250 A  
HETATM   11  H   UNL     1     -13.676  14.199  72.543  1.00  0.00     0.000 HD 
HETATM   12  C   UNL     1     -12.312  11.110  70.526  1.00  0.00    -0.454 A  
HETATM   13  O   UNL     1     -13.559  11.821  72.417  1.00  0.00    -0.564 OA 
HETATM   14  H   UNL     1     -13.709  10.911  72.646  1.00  0.00     0.000 HD 
HETATM   15  C   UNL     1     -11.546  11.430  69.402  1.00  0.00    -0.391 A  
ENDBRANCH   5   6
ENDBRANCH   3   5
TORSDOF 2
ENDMDL
MODEL      118
REMARK 921   NORMALIZED FREE ENERGY PREDICTED BY IDOCK:   -3.26 KCAL/MOL
REMARK 922        TOTAL FREE ENERGY PREDICTED BY IDOCK:   -3.71 KCAL/MOL
REMARK 923 INTER-LIGAND FREE ENERGY PREDICTED BY IDOCK:   -3.65 KCAL/MOL
REMARK 924 INTRA-LIGAND FREE ENERGY PREDICTED BY IDOCK:   -0.06 KCAL/MOL
REMARK 927      BINDING AFFINITY PREDICTED BY RF-SCORE:    0.00 PKD
ROOT
HETATM    1  N   UNL     1      -7.384   5.787  72.850  1.00  0.00    -0.090 NA 
HETATM    2  H2  UNL     1      -6.828   6.063  73.660  1.00  0.00     0.000 HD 
HETATM    3  C   UNL     1      -8.811   6.022  73.068  1.00  0.00    -0.121 C  
HETATM    4  H1  UNL     1      -7.212   4.816  72.587  1.00  0.00     0.000 HD 
ENDROOT
BRANCH   3   5
HETATM    5  C   UNL     1      -9.068   7.478  73.462  1.00  0.00    -0.286 C  
BRANCH   5   6
HETATM    6  C   UNL     1     -10.099   8.143  72.581  1.00  0.00    -0.379 A  
HETATM    7  C   UNL     1      -9.699   8.997  71.539  1.00  0.00    -0.365 A  
HETATM    8  C   UNL     1     -10.664   9.629  70.760  1.00  0.00    -0.331 A  
HETATM    9  O   UNL     1     -10.327  10.484  69.746  1.00  0.00    -0.337 OA 
HETATM   10  C   UNL     1     -12.017   9.410  70.999  1.00  0.00    -0.315 A  
HETATM   11  H   UNL     1     -10.986  10.915  69.213  1.00  0.00     0.000 HD 
HETATM   12  C   UNL     1     -12.431   8.552  72.007  1.00  0.00    -0.417 A  
HETATM   13  O   UNL     1     -12.955  10.051  70.242  1.00  0.00    -0.578 OA 
HETATM   14  H   UNL     1     -13.880   9.901  70.405  1.00  0.00     0.000 HD 
HETATM   15  C   UNL     1     -11.470   7.916  72.797  1.00  0.00    -0.428 A  
ENDBRANCH   5   6
ENDBRANCH   3   5
TORSDOF 2
ENDMDL
MODEL      119
REMARK 921   NORMALIZED FREE ENERGY PREDICTED BY IDOCK:   -3.26 KCAL/MOL
REMARK 922        TOTAL FREE ENERGY PREDICTED BY IDOCK:   -3.71 KCAL/MOL
REMARK 923 INTER-LIGAND FREE ENERGY PREDICTED BY IDOCK:   -3.64 KCAL/MOL
REMARK 924 INTRA-LIGAND FREE ENERGY PREDICTED BY IDOCK:   -0.07 KCAL/MOL
REMARK 927      BINDING AFFINITY PREDICTED BY RF-SCORE:    0.00 PKD
ROOT
HETATM    1  N   UNL     1      -7.310  11.371  69.541  1.00  0.00    -0.344 NA 
HETATM    2  H2  UNL     1      -7.989  11.734  70.211  1.00  0.00     0.000 HD 
HETATM    3  C   UNL     1      -7.868  11.301  68.190  1.00  0.00    -0.127 C  
HETATM    4  H1  UNL     1      -6.943  10.464  69.828  1.00  0.00     0.000 HD 
ENDROOT
BRANCH   3   5
HETATM    5  C   UNL     1      -8.419  12.663  67.758  1.00  0.00    -0.172 C  
BRANCH   5   6
HETATM    6  C   UNL     1      -9.242  12.580  66.495  1.00  0.00    -0.210 A  
HETATM    7  C   UNL     1      -9.319  11.376  65.774  1.00  0.00    -0.247 A  
HETATM    8  C   UNL     1     -10.054  11.328  64.594  1.00  0.00    -0.290 A  
HETATM    9  O   UNL     1     -10.145  10.186  63.846  1.00  0.00    -0.474 OA 
HETATM   10  C   UNL     1     -10.720  12.459  64.132  1.00  0.00    -0.379 A  
HETATM   11  H   UNL     1     -10.647  10.153  63.039  1.00  0.00     0.000 HD 
HETATM   12  C   UNL     1     -10.675  13.649  64.841  1.00  0.00    -0.400 A  
HETATM   13  O   UNL     1     -11.421  12.406  62.961  1.00  0.00    -0.683 OA 
HETATM   14  H   UNL     1     -11.876  13.179  62.645  1.00  0.00     0.000 HD 
HETATM   15  C   UNL     1      -9.937  13.709  66.026  1.00  0.00    -0.313 A  
ENDBRANCH   5   6
ENDBRANCH   3   5
TORSDOF 2
ENDMDL
MODEL      120
REMARK 921   NORMALIZED FREE ENERGY PREDICTED BY IDOCK:   -3.25 KCAL/MOL
REMARK 922        TOTAL FREE ENERGY PREDICTED BY IDOCK:   -3.70 KCAL/MOL
REMARK 923 INTER-LIGAND FREE ENERGY PREDICTED BY IDOCK:   -3.60 KCAL/MOL
REMARK 924 INTRA-LIGAND FREE ENERGY PREDICTED BY IDOCK:   -0.10 KCAL/MOL
REMARK 927      BINDING AFFINITY PREDICTED BY RF-SCORE:    0.00 PKD
ROOT
HETATM    1  N   UNL     1      -8.125  10.981  62.739  1.00  0.00    -0.411 NA 
HETATM    2  H2  UNL     1      -7.762  11.474  63.555  1.00  0.00     0.000 HD 
HETATM    3  C   UNL     1      -9.492  10.507  62.958  1.00  0.00    -0.335 C  
HETATM    4  H1  UNL     1      -7.516  10.213  62.459  1.00  0.00     0.000 HD 
ENDROOT
BRANCH   3   5
HETATM    5  C   UNL     1     -10.407  11.660  63.378  1.00  0.00    -0.482 C  
BRANCH   5   6
HETATM    6  C   UNL     1     -10.417  11.877  64.872  1.00  0.00    -0.331 A  
HETATM    7  C   UNL     1     -10.605  13.164  65.402  1.00  0.00    -0.311 A  
HETATM    8  C   UNL     1     -10.576  13.350  66.781  1.00  0.00    -0.277 A  
HETATM    9  O   UNL     1     -10.736  14.586  67.347  1.00  0.00    -0.274 OA 
HETATM   10  C   UNL     1     -10.375  12.270  67.634  1.00  0.00    -0.204 A  
HETATM   11  H   UNL     1     -10.717  14.713  68.288  1.00  0.00     0.000 HD 
HETATM   12  C   UNL     1     -10.212  10.988  67.131  1.00  0.00    -0.243 A  
HETATM   13  O   UNL     1     -10.328  12.467  68.985  1.00  0.00    -0.412 OA 
HETATM   14  H   UNL     1     -10.191  11.729  69.567  1.00  0.00     0.000 HD 
HETATM   15  C   UNL     1     -10.235  10.791  65.748  1.00  0.00    -0.319 A  
ENDBRANCH   5   6
ENDBRANCH   3   5
TORSDOF 2
ENDMDL
MODEL      121
REMARK 921   NORMALIZED FREE ENERGY PREDICTED BY IDOCK:   -3.24 KCAL/MOL
REMARK 922        TOTAL FREE ENERGY PREDICTED BY IDOCK:   -3.68 KCAL/MOL
REMARK 923 INTER-LIGAND FREE ENERGY PREDICTED BY IDOCK:   -3.60 KCAL/MOL
REMARK 924 INTRA-LIGAND FREE ENERGY PREDICTED BY IDOCK:   -0.08 KCAL/MOL
REMARK 927      BINDING AFFINITY PREDICTED BY RF-SCORE:    0.00 PKD
ROOT
HETATM    1  N   UNL     1      -8.445  20.758  66.838  1.00  0.00    -0.571 NA 
HETATM    2  H2  UNL     1      -7.578  20.221  66.845  1.00  0.00     0.000 HD 
HETATM    3  C   UNL     1      -9.619  19.889  66.919  1.00  0.00    -0.394 C  
HETATM    4  H1  UNL     1      -8.503  21.371  66.025  1.00  0.00     0.000 HD 
ENDROOT
BRANCH   3   5
HETATM    5  C   UNL     1      -9.532  18.969  68.139  1.00  0.00    -0.387 C  
BRANCH   5   6
HETATM    6  C   UNL     1      -9.091  17.570  67.779  1.00  0.00    -0.249 A  
HETATM    7  C   UNL     1      -9.625  16.925  66.650  1.00  0.00    -0.282 A  
HETATM    8  C   UNL     1      -9.233  15.624  66.354  1.00  0.00    -0.311 A  
HETATM    9  O   UNL     1      -9.737  14.945  65.277  1.00  0.00    -0.426 OA 
HETATM   10  C   UNL     1      -8.311  14.964  67.160  1.00  0.00    -0.221 A  
HETATM   11  H   UNL     1      -9.469  14.056  65.075  1.00  0.00     0.000 HD 
HETATM   12  C   UNL     1      -7.755  15.592  68.264  1.00  0.00    -0.130 A  
HETATM   13  O   UNL     1      -7.949  13.679  66.872  1.00  0.00    -0.384 OA 
HETATM   14  H   UNL     1      -7.319  13.229  67.423  1.00  0.00     0.000 HD 
HETATM   15  C   UNL     1      -8.144  16.898  68.573  1.00  0.00    -0.244 A  
ENDBRANCH   5   6
ENDBRANCH   3   5
TORSDOF 2
ENDMDL
MODEL      122
REMARK 921   NORMALIZED FREE ENERGY PREDICTED BY IDOCK:   -3.22 KCAL/MOL
REMARK 922        TOTAL FREE ENERGY PREDICTED BY IDOCK:   -3.67 KCAL/MOL
REMARK 923 INTER-LIGAND FREE ENERGY PREDICTED BY IDOCK:   -3.62 KCAL/MOL
REMARK 924 INTRA-LIGAND FREE ENERGY PREDICTED BY IDOCK:   -0.05 KCAL/MOL
REMARK 927      BINDING AFFINITY PREDICTED BY RF-SCORE:    0.00 PKD
ROOT
HETATM    1  N   UNL     1     -12.810  13.983  70.592  1.00  0.00    -0.292 NA 
HETATM    2  H2  UNL     1     -12.268  13.289  71.107  1.00  0.00     0.000 HD 
HETATM    3  C   UNL     1     -12.425  15.347  70.952  1.00  0.00    -0.418 C  
HETATM    4  H1  UNL     1     -13.814  13.845  70.714  1.00  0.00     0.000 HD 
ENDROOT
BRANCH   3   5
HETATM    5  C   UNL     1     -10.919  15.553  70.768  1.00  0.00    -0.360 C  
BRANCH   5   6
HETATM    6  C   UNL     1     -10.559  15.972  69.362  1.00  0.00    -0.275 A  
HETATM    7  C   UNL     1     -10.504  17.333  69.018  1.00  0.00    -0.309 A  
HETATM    8  C   UNL     1     -10.206  17.699  67.710  1.00  0.00    -0.354 A  
HETATM    9  O   UNL     1     -10.158  19.010  67.319  1.00  0.00    -0.327 OA 
HETATM   10  C   UNL     1      -9.951  16.727  66.747  1.00  0.00    -0.282 A  
HETATM   11  H   UNL     1      -9.954  19.260  66.425  1.00  0.00     0.000 HD 
HETATM   12  C   UNL     1      -9.977  15.380  67.072  1.00  0.00    -0.239 A  
HETATM   13  O   UNL     1      -9.680  17.097  65.460  1.00  0.00    -0.532 OA 
HETATM   14  H   UNL     1      -9.506  16.434  64.802  1.00  0.00     0.000 HD 
HETATM   15  C   UNL     1     -10.280  15.002  68.383  1.00  0.00    -0.228 A  
ENDBRANCH   5   6
ENDBRANCH   3   5
TORSDOF 2
ENDMDL
MODEL      123
REMARK 921   NORMALIZED FREE ENERGY PREDICTED BY IDOCK:   -3.21 KCAL/MOL
REMARK 922        TOTAL FREE ENERGY PREDICTED BY IDOCK:   -3.65 KCAL/MOL
REMARK 923 INTER-LIGAND FREE ENERGY PREDICTED BY IDOCK:   -3.59 KCAL/MOL
REMARK 924 INTRA-LIGAND FREE ENERGY PREDICTED BY IDOCK:   -0.06 KCAL/MOL
REMARK 927      BINDING AFFINITY PREDICTED BY RF-SCORE:    0.00 PKD
ROOT
HETATM    1  N   UNL     1      -9.816   5.666  65.801  1.00  0.00    -0.372 NA 
HETATM    2  H2  UNL     1      -9.794   4.649  65.882  1.00  0.00     0.000 HD 
HETATM    3  C   UNL     1     -10.756   6.263  66.748  1.00  0.00    -0.293 C  
HETATM    4  H1  UNL     1     -10.023   5.965  64.847  1.00  0.00     0.000 HD 
ENDROOT
BRANCH   3   5
HETATM    5  C   UNL     1     -10.446   5.815  68.179  1.00  0.00    -0.277 C  
BRANCH   5   6
HETATM    6  C   UNL     1     -10.821   6.856  69.207  1.00  0.00    -0.270 A  
HETATM    7  C   UNL     1     -11.764   6.560  70.206  1.00  0.00    -0.430 A  
HETATM    8  C   UNL     1     -12.124   7.543  71.122  1.00  0.00    -0.307 A  
HETATM    9  O   UNL     1     -13.050   7.312  72.104  1.00  0.00    -0.511 OA 
HETATM   10  C   UNL     1     -11.549   8.809  71.062  1.00  0.00    -0.288 A  
HETATM   11  H   UNL     1     -13.296   7.983  72.730  1.00  0.00     0.000 HD 
HETATM   12  C   UNL     1     -10.600   9.112  70.098  1.00  0.00    -0.258 A  
HETATM   13  O   UNL     1     -11.925   9.772  71.954  1.00  0.00    -0.365 OA 
HETATM   14  H   UNL     1     -11.532  10.636  71.912  1.00  0.00     0.000 HD 
HETATM   15  C   UNL     1     -10.234   8.134  69.170  1.00  0.00    -0.219 A  
ENDBRANCH   5   6
ENDBRANCH   3   5
TORSDOF 2
ENDMDL
MODEL      124
REMARK 921   NORMALIZED FREE ENERGY PREDICTED BY IDOCK:   -3.20 KCAL/MOL
REMARK 922        TOTAL FREE ENERGY PREDICTED BY IDOCK:   -3.64 KCAL/MOL
REMARK 923 INTER-LIGAND FREE ENERGY PREDICTED BY IDOCK:   -3.54 KCAL/MOL
REMARK 924 INTRA-LIGAND FREE ENERGY PREDICTED BY IDOCK:   -0.10 KCAL/MOL
REMARK 927      BINDING AFFINITY PREDICTED BY RF-SCORE:    0.00 PKD
ROOT
HETATM    1  N   UNL     1      -7.865  12.642  68.762  1.00  0.00    -0.309 NA 
HETATM    2  H2  UNL     1      -8.228  11.719  68.999  1.00  0.00     0.000 HD 
HETATM    3  C   UNL     1      -8.285  13.061  67.424  1.00  0.00    -0.183 C  
HETATM    4  H1  UNL     1      -6.850  12.684  68.853  1.00  0.00     0.000 HD 
ENDROOT
BRANCH   3   5
HETATM    5  C   UNL     1      -9.809  12.998  67.288  1.00  0.00    -0.227 C  
BRANCH   5   6
HETATM    6  C   UNL     1     -10.516  13.894  68.277  1.00  0.00    -0.252 A  
HETATM    7  C   UNL     1     -10.239  15.272  68.312  1.00  0.00    -0.226 A  
HETATM    8  C   UNL     1     -10.874  16.076  69.253  1.00  0.00    -0.300 A  
HETATM    9  O   UNL     1     -10.627  17.419  69.340  1.00  0.00    -0.389 OA 
HETATM   10  C   UNL     1     -11.786  15.527  70.149  1.00  0.00    -0.356 A  
HETATM   11  H   UNL     1     -11.060  17.968  69.983  1.00  0.00     0.000 HD 
HETATM   12  C   UNL     1     -12.090  14.175  70.114  1.00  0.00    -0.411 A  
HETATM   13  O   UNL     1     -12.388  16.322  71.082  1.00  0.00    -0.536 OA 
HETATM   14  H   UNL     1     -13.011  15.947  71.694  1.00  0.00     0.000 HD 
HETATM   15  C   UNL     1     -11.455  13.357  69.176  1.00  0.00    -0.351 A  
ENDBRANCH   5   6
ENDBRANCH   3   5
TORSDOF 2
ENDMDL
MODEL      125
REMARK 921   NORMALIZED FREE ENERGY PREDICTED BY IDOCK:   -3.19 KCAL/MOL
REMARK 922        TOTAL FREE ENERGY PREDICTED BY IDOCK:   -3.63 KCAL/MOL
REMARK 923 INTER-LIGAND FREE ENERGY PREDICTED BY IDOCK:   -3.57 KCAL/MOL
REMARK 924 INTRA-LIGAND FREE ENERGY PREDICTED BY IDOCK:   -0.06 KCAL/MOL
REMARK 927      BINDING AFFINITY PREDICTED BY RF-SCORE:    0.00 PKD
ROOT
HETATM    1  N   UNL     1      -9.670  18.084  67.051  1.00  0.00    -0.291 NA 
HETATM    2  H2  UNL     1      -9.785  18.047  68.064  1.00  0.00     0.000 HD 
HETATM    3  C   UNL     1      -9.577  16.745  66.468  1.00  0.00    -0.266 C  
HETATM    4  H1  UNL     1      -8.866  18.652  66.783  1.00  0.00     0.000 HD 
ENDROOT
BRANCH   3   5
HETATM    5  C   UNL     1     -10.784  15.893  66.869  1.00  0.00    -0.289 C  
BRANCH   5   6
HETATM    6  C   UNL     1     -10.673  14.467  66.384  1.00  0.00    -0.309 A  
HETATM    7  C   UNL     1     -10.116  14.187  65.124  1.00  0.00    -0.348 A  
HETATM    8  C   UNL     1     -10.055  12.870  64.679  1.00  0.00    -0.231 A  
HETATM    9  O   UNL     1      -9.539  12.545  63.453  1.00  0.00    -0.622 OA 
HETATM   10  C   UNL     1     -10.529  11.833  65.476  1.00  0.00    -0.267 A  
HETATM   11  H   UNL     1      -9.496  11.646  63.149  1.00  0.00     0.000 HD 
HETATM   12  C   UNL     1     -11.059  12.088  66.731  1.00  0.00    -0.353 A  
HETATM   13  O   UNL     1     -10.482  10.546  65.020  1.00  0.00    -0.286 OA 
HETATM   14  H   UNL     1     -10.806   9.838  65.565  1.00  0.00     0.000 HD 
HETATM   15  C   UNL     1     -11.130  13.407  67.187  1.00  0.00    -0.303 A  
ENDBRANCH   5   6
ENDBRANCH   3   5
TORSDOF 2
ENDMDL
MODEL      126
REMARK 921   NORMALIZED FREE ENERGY PREDICTED BY IDOCK:   -3.17 KCAL/MOL
REMARK 922        TOTAL FREE ENERGY PREDICTED BY IDOCK:   -3.61 KCAL/MOL
REMARK 923 INTER-LIGAND FREE ENERGY PREDICTED BY IDOCK:   -3.54 KCAL/MOL
REMARK 924 INTRA-LIGAND FREE ENERGY PREDICTED BY IDOCK:   -0.07 KCAL/MOL
REMARK 927      BINDING AFFINITY PREDICTED BY RF-SCORE:    0.00 PKD
ROOT
HETATM    1  N   UNL     1     -11.327   4.587  65.128  1.00  0.00    -1.113 NA 
HETATM    2  H2  UNL     1     -11.152   5.288  64.408  1.00  0.00     0.000 HD 
HETATM    3  C   UNL     1     -10.595   4.880  66.360  1.00  0.00    -0.223 C  
HETATM    4  H1  UNL     1     -11.117   3.645  64.797  1.00  0.00     0.000 HD 
ENDROOT
BRANCH   3   5
HETATM    5  C   UNL     1     -10.911   6.293  66.857  1.00  0.00    -0.428 C  
BRANCH   5   6
HETATM    6  C   UNL     1     -10.625   6.466  68.330  1.00  0.00    -0.312 A  
HETATM    7  C   UNL     1     -10.393   5.345  69.145  1.00  0.00    -0.300 A  
HETATM    8  C   UNL     1     -10.167   5.522  70.506  1.00  0.00    -0.242 A  
HETATM    9  O   UNL     1      -9.953   4.462  71.347  1.00  0.00    -0.183 OA 
HETATM   10  C   UNL     1     -10.157   6.798  71.060  1.00  0.00    -0.189 A  
HETATM   11  H   UNL     1      -9.798   4.583  72.276  1.00  0.00     0.000 HD 
HETATM   12  C   UNL     1     -10.361   7.917  70.268  1.00  0.00    -0.212 A  
HETATM   13  O   UNL     1      -9.955   6.958  72.401  1.00  0.00    -0.165 OA 
HETATM   14  H   UNL     1      -9.949   7.830  72.779  1.00  0.00     0.000 HD 
HETATM   15  C   UNL     1     -10.593   7.751  68.900  1.00  0.00    -0.168 A  
ENDBRANCH   5   6
ENDBRANCH   3   5
TORSDOF 2
ENDMDL
MODEL      127
REMARK 921   NORMALIZED FREE ENERGY PREDICTED BY IDOCK:   -3.15 KCAL/MOL
REMARK 922        TOTAL FREE ENERGY PREDICTED BY IDOCK:   -3.58 KCAL/MOL
REMARK 923 INTER-LIGAND FREE ENERGY PREDICTED BY IDOCK:   -3.54 KCAL/MOL
REMARK 924 INTRA-LIGAND FREE ENERGY PREDICTED BY IDOCK:   -0.04 KCAL/MOL
REMARK 927      BINDING AFFINITY PREDICTED BY RF-SCORE:    0.00 PKD
ROOT
HETATM    1  N   UNL     1      -5.903  19.059  64.024  1.00  0.00    -0.430 NA 
HETATM    2  H2  UNL     1      -6.775  19.573  63.892  1.00  0.00     0.000 HD 
HETATM    3  C   UNL     1      -5.809  18.489  65.368  1.00  0.00    -0.231 C  
HETATM    4  H1  UNL     1      -5.088  19.638  63.818  1.00  0.00     0.000 HD 
ENDROOT
BRANCH   3   5
HETATM    5  C   UNL     1      -7.031  17.621  65.677  1.00  0.00    -0.000 C  
BRANCH   5   6
HETATM    6  C   UNL     1      -8.006  18.303  66.607  1.00  0.00    -0.273 A  
HETATM    7  C   UNL     1      -8.812  17.544  67.473  1.00  0.00    -0.229 A  
HETATM    8  C   UNL     1      -9.730  18.188  68.297  1.00  0.00    -0.337 A  
HETATM    9  O   UNL     1     -10.550  17.494  69.145  1.00  0.00    -0.387 OA 
HETATM   10  C   UNL     1      -9.844  19.574  68.276  1.00  0.00    -0.416 A  
HETATM   11  H   UNL     1     -11.177  17.933  69.708  1.00  0.00     0.000 HD 
HETATM   12  C   UNL     1      -9.042  20.341  67.447  1.00  0.00    -0.483 A  
HETATM   13  O   UNL     1     -10.763  20.194  69.075  1.00  0.00    -0.428 OA 
HETATM   14  H   UNL     1     -10.842  21.141  69.061  1.00  0.00     0.000 HD 
HETATM   15  C   UNL     1      -8.120  19.705  66.612  1.00  0.00    -0.330 A  
ENDBRANCH   5   6
ENDBRANCH   3   5
TORSDOF 2
ENDMDL
MODEL      128
REMARK 921   NORMALIZED FREE ENERGY PREDICTED BY IDOCK:   -3.12 KCAL/MOL
REMARK 922        TOTAL FREE ENERGY PREDICTED BY IDOCK:   -3.54 KCAL/MOL
REMARK 923 INTER-LIGAND FREE ENERGY PREDICTED BY IDOCK:   -3.45 KCAL/MOL
REMARK 924 INTRA-LIGAND FREE ENERGY PREDICTED BY IDOCK:   -0.09 KCAL/MOL
REMARK 927      BINDING AFFINITY PREDICTED BY RF-SCORE:    0.00 PKD
ROOT
HETATM    1  N   UNL     1      -6.704  20.875  64.616  1.00  0.00    -0.531 NA 
HETATM    2  H2  UNL     1      -7.528  20.636  64.064  1.00  0.00     0.000 HD 
HETATM    3  C   UNL     1      -6.686  20.164  65.895  1.00  0.00    -0.250 C  
HETATM    4  H1  UNL     1      -6.624  21.881  64.760  1.00  0.00     0.000 HD 
ENDROOT
BRANCH   3   5
HETATM    5  C   UNL     1      -6.805  18.653  65.678  1.00  0.00    -0.284 C  
BRANCH   5   6
HETATM    6  C   UNL     1      -8.013  18.063  66.367  1.00  0.00    -0.296 A  
HETATM    7  C   UNL     1      -8.131  16.672  66.527  1.00  0.00    -0.337 A  
HETATM    8  C   UNL     1      -9.267  16.145  67.131  1.00  0.00    -0.207 A  
HETATM    9  O   UNL     1      -9.439  14.797  67.295  1.00  0.00    -0.206 OA 
HETATM   10  C   UNL     1     -10.278  16.985  67.588  1.00  0.00    -0.317 A  
HETATM   11  H   UNL     1     -10.215  14.436  67.708  1.00  0.00     0.000 HD 
HETATM   12  C   UNL     1     -10.169  18.361  67.460  1.00  0.00    -0.393 A  
HETATM   13  O   UNL     1     -11.399  16.456  68.161  1.00  0.00    -0.324 OA 
HETATM   14  H   UNL     1     -12.089  17.030  68.473  1.00  0.00     0.000 HD 
HETATM   15  C   UNL     1      -9.033  18.901  66.851  1.00  0.00    -0.306 A  
ENDBRANCH   5   6
ENDBRANCH   3   5
TORSDOF 2
ENDMDL
MODEL      129
REMARK 921   NORMALIZED FREE ENERGY PREDICTED BY IDOCK:   -3.11 KCAL/MOL
REMARK 922        TOTAL FREE ENERGY PREDICTED BY IDOCK:   -3.53 KCAL/MOL
REMARK 923 INTER-LIGAND FREE ENERGY PREDICTED BY IDOCK:   -3.45 KCAL/MOL
REMARK 924 INTRA-LIGAND FREE ENERGY PREDICTED BY IDOCK:   -0.09 KCAL/MOL
REMARK 927      BINDING AFFINITY PREDICTED BY RF-SCORE:    0.00 PKD
ROOT
HETATM    1  N   UNL     1     -12.054  14.280  66.361  1.00  0.00    -0.431 NA 
HETATM    2  H2  UNL     1     -11.063  14.518  66.404  1.00  0.00     0.000 HD 
HETATM    3  C   UNL     1     -12.277  13.015  65.661  1.00  0.00    -0.466 C  
HETATM    4  H1  UNL     1     -12.604  15.030  65.940  1.00  0.00     0.000 HD 
ENDROOT
BRANCH   3   5
HETATM    5  C   UNL     1     -11.452  11.891  66.293  1.00  0.00    -0.367 C  
BRANCH   5   6
HETATM    6  C   UNL     1     -10.612  11.150  65.281  1.00  0.00    -0.303 A  
HETATM    7  C   UNL     1      -9.787  10.086  65.684  1.00  0.00    -0.363 A  
HETATM    8  C   UNL     1      -8.994   9.438  64.743  1.00  0.00    -0.194 A  
HETATM    9  O   UNL     1      -8.160   8.408  65.088  1.00  0.00    -0.130 OA 
HETATM   10  C   UNL     1      -9.022   9.828  63.408  1.00  0.00    -0.246 A  
HETATM   11  H   UNL     1      -7.618   7.965  64.445  1.00  0.00     0.000 HD 
HETATM   12  C   UNL     1      -9.847  10.859  62.987  1.00  0.00    -0.358 A  
HETATM   13  O   UNL     1      -8.224   9.198  62.496  1.00  0.00    -0.142 OA 
HETATM   14  H   UNL     1      -8.243   9.464  61.585  1.00  0.00     0.000 HD 
HETATM   15  C   UNL     1     -10.645  11.519  63.924  1.00  0.00    -0.448 A  
ENDBRANCH   5   6
ENDBRANCH   3   5
TORSDOF 2
ENDMDL
MODEL      130
REMARK 921   NORMALIZED FREE ENERGY PREDICTED BY IDOCK:   -3.10 KCAL/MOL
REMARK 922        TOTAL FREE ENERGY PREDICTED BY IDOCK:   -3.52 KCAL/MOL
REMARK 923 INTER-LIGAND FREE ENERGY PREDICTED BY IDOCK:   -3.42 KCAL/MOL
REMARK 924 INTRA-LIGAND FREE ENERGY PREDICTED BY IDOCK:   -0.10 KCAL/MOL
REMARK 927      BINDING AFFINITY PREDICTED BY RF-SCORE:    0.00 PKD
ROOT
HETATM    1  N   UNL     1     -10.658  17.990  67.677  1.00  0.00    -0.413 NA 
HETATM    2  H2  UNL     1     -10.542  17.165  68.266  1.00  0.00     0.000 HD 
HETATM    3  C   UNL     1     -10.032  17.811  66.367  1.00  0.00    -0.344 C  
HETATM    4  H1  UNL     1     -10.309  18.833  68.133  1.00  0.00     0.000 HD 
ENDROOT
BRANCH   3   5
HETATM    5  C   UNL     1     -10.556  16.546  65.681  1.00  0.00    -0.317 C  
BRANCH   5   6
HETATM    6  C   UNL     1     -10.257  15.294  66.470  1.00  0.00    -0.282 A  
HETATM    7  C   UNL     1     -11.299  14.439  66.869  1.00  0.00    -0.357 A  
HETATM    8  C   UNL     1     -11.008  13.309  67.625  1.00  0.00    -0.262 A  
HETATM    9  O   UNL     1     -11.988  12.454  68.054  1.00  0.00    -0.371 OA 
HETATM   10  C   UNL     1      -9.695  13.015  67.978  1.00  0.00    -0.224 A  
HETATM   11  H   UNL     1     -11.789  11.682  68.571  1.00  0.00     0.000 HD 
HETATM   12  C   UNL     1      -8.651  13.833  67.574  1.00  0.00    -0.194 A  
HETATM   13  O   UNL     1      -9.423  11.913  68.738  1.00  0.00    -0.366 OA 
HETATM   14  H   UNL     1      -8.526  11.713  68.979  1.00  0.00     0.000 HD 
HETATM   15  C   UNL     1      -8.932  14.973  66.817  1.00  0.00    -0.293 A  
ENDBRANCH   5   6
ENDBRANCH   3   5
TORSDOF 2
ENDMDL
MODEL      131
REMARK 921   NORMALIZED FREE ENERGY PREDICTED BY IDOCK:   -3.08 KCAL/MOL
REMARK 922        TOTAL FREE ENERGY PREDICTED BY IDOCK:   -3.51 KCAL/MOL
REMARK 923 INTER-LIGAND FREE ENERGY PREDICTED BY IDOCK:   -3.45 KCAL/MOL
REMARK 924 INTRA-LIGAND FREE ENERGY PREDICTED BY IDOCK:   -0.06 KCAL/MOL
REMARK 927      BINDING AFFINITY PREDICTED BY RF-SCORE:    0.00 PKD
ROOT
HETATM    1  N   UNL     1     -10.028   8.580  65.971  1.00  0.00    -0.465 NA 
HETATM    2  H2  UNL     1      -9.296   8.068  65.479  1.00  0.00     0.000 HD 
HETATM    3  C   UNL     1     -10.784   7.711  66.873  1.00  0.00    -0.201 C  
HETATM    4  H1  UNL     1     -10.653   9.061  65.323  1.00  0.00     0.000 HD 
ENDROOT
BRANCH   3   5
HETATM    5  C   UNL     1      -9.846   6.989  67.844  1.00  0.00    -0.161 C  
BRANCH   5   6
HETATM    6  C   UNL     1     -10.279   7.136  69.284  1.00  0.00    -0.193 A  
HETATM    7  C   UNL     1      -9.596   8.012  70.145  1.00  0.00    -0.175 A  
HETATM    8  C   UNL     1      -9.987   8.108  71.477  1.00  0.00    -0.182 A  
HETATM    9  O   UNL     1      -9.344   8.932  72.361  1.00  0.00    -0.342 OA 
HETATM   10  C   UNL     1     -11.054   7.353  71.955  1.00  0.00    -0.242 A  
HETATM   11  H   UNL     1      -9.611   8.998  73.271  1.00  0.00     0.000 HD 
HETATM   12  C   UNL     1     -11.754   6.502  71.115  1.00  0.00    -0.392 A  
HETATM   13  O   UNL     1     -11.415   7.440  73.269  1.00  0.00    -0.602 OA 
HETATM   14  H   UNL     1     -12.143   6.924  73.596  1.00  0.00     0.000 HD 
HETATM   15  C   UNL     1     -11.368   6.395  69.777  1.00  0.00    -0.494 A  
ENDBRANCH   5   6
ENDBRANCH   3   5
TORSDOF 2
ENDMDL
MODEL      132
REMARK 921   NORMALIZED FREE ENERGY PREDICTED BY IDOCK:   -3.08 KCAL/MOL
REMARK 922        TOTAL FREE ENERGY PREDICTED BY IDOCK:   -3.50 KCAL/MOL
REMARK 923 INTER-LIGAND FREE ENERGY PREDICTED BY IDOCK:   -3.45 KCAL/MOL
REMARK 924 INTRA-LIGAND FREE ENERGY PREDICTED BY IDOCK:   -0.05 KCAL/MOL
REMARK 927      BINDING AFFINITY PREDICTED BY RF-SCORE:    0.00 PKD
ROOT
HETATM    1  N   UNL     1     -10.941   7.103  66.706  1.00  0.00    -0.561 NA 
HETATM    2  H2  UNL     1     -10.879   7.384  65.727  1.00  0.00     0.000 HD 
HETATM    3  C   UNL     1     -10.136   7.968  67.569  1.00  0.00    -0.219 C  
HETATM    4  H1  UNL     1     -10.686   6.124  66.835  1.00  0.00     0.000 HD 
ENDROOT
BRANCH   3   5
HETATM    5  C   UNL     1     -10.519   9.437  67.376  1.00  0.00    -0.343 C  
BRANCH   5   6
HETATM    6  C   UNL     1     -10.008  10.002  66.071  1.00  0.00    -0.334 A  
HETATM    7  C   UNL     1     -10.740  10.989  65.389  1.00  0.00    -0.222 A  
HETATM    8  C   UNL     1     -10.272  11.471  64.171  1.00  0.00    -0.325 A  
HETATM    9  O   UNL     1     -10.956  12.419  63.459  1.00  0.00    -0.437 OA 
HETATM   10  C   UNL     1      -9.081  10.993  63.634  1.00  0.00    -0.145 A  
HETATM   11  H   UNL     1     -10.636  12.749  62.627  1.00  0.00     0.000 HD 
HETATM   12  C   UNL     1      -8.333  10.037  64.303  1.00  0.00    -0.169 A  
HETATM   13  O   UNL     1      -8.641  11.459  62.428  1.00  0.00    -0.494 OA 
HETATM   14  H   UNL     1      -7.828  11.132  62.060  1.00  0.00     0.000 HD 
HETATM   15  C   UNL     1      -8.796   9.542  65.525  1.00  0.00    -0.201 A  
ENDBRANCH   5   6
ENDBRANCH   3   5
TORSDOF 2
ENDMDL
MODEL      133
REMARK 921   NORMALIZED FREE ENERGY PREDICTED BY IDOCK:   -3.07 KCAL/MOL
REMARK 922        TOTAL FREE ENERGY PREDICTED BY IDOCK:   -3.49 KCAL/MOL
REMARK 923 INTER-LIGAND FREE ENERGY PREDICTED BY IDOCK:   -3.42 KCAL/MOL
REMARK 924 INTRA-LIGAND FREE ENERGY PREDICTED BY IDOCK:   -0.07 KCAL/MOL
REMARK 927      BINDING AFFINITY PREDICTED BY RF-SCORE:    0.00 PKD
ROOT
HETATM    1  N   UNL     1     -10.915   5.144  65.897  1.00  0.00    -0.777 NA 
HETATM    2  H2  UNL     1     -10.471   5.104  64.979  1.00  0.00     0.000 HD 
HETATM    3  C   UNL     1     -10.085   5.855  66.869  1.00  0.00    -0.188 C  
HETATM    4  H1  UNL     1     -11.158   4.214  66.239  1.00  0.00     0.000 HD 
ENDROOT
BRANCH   3   5
HETATM    5  C   UNL     1      -9.721   7.251  66.355  1.00  0.00    -0.148 C  
BRANCH   5   6
HETATM    6  C   UNL     1     -10.128   8.345  67.314  1.00  0.00    -0.321 A  
HETATM    7  C   UNL     1     -10.465   9.622  66.833  1.00  0.00    -0.282 A  
HETATM    8  C   UNL     1     -10.802  10.627  67.733  1.00  0.00    -0.286 A  
HETATM    9  O   UNL     1     -11.120  11.892  67.318  1.00  0.00    -0.254 OA 
HETATM   10  C   UNL     1     -10.819  10.372  69.101  1.00  0.00    -0.236 A  
HETATM   11  H   UNL     1     -11.351  12.579  67.933  1.00  0.00     0.000 HD 
HETATM   12  C   UNL     1     -10.513   9.113  69.592  1.00  0.00    -0.230 A  
HETATM   13  O   UNL     1     -11.132  11.372  69.977  1.00  0.00    -0.472 OA 
HETATM   14  H   UNL     1     -11.143  11.198  70.911  1.00  0.00     0.000 HD 
HETATM   15  C   UNL     1     -10.169   8.097  68.697  1.00  0.00    -0.226 A  
ENDBRANCH   5   6
ENDBRANCH   3   5
TORSDOF 2
ENDMDL
MODEL      134
REMARK 921   NORMALIZED FREE ENERGY PREDICTED BY IDOCK:   -3.07 KCAL/MOL
REMARK 922        TOTAL FREE ENERGY PREDICTED BY IDOCK:   -3.49 KCAL/MOL
REMARK 923 INTER-LIGAND FREE ENERGY PREDICTED BY IDOCK:   -3.42 KCAL/MOL
REMARK 924 INTRA-LIGAND FREE ENERGY PREDICTED BY IDOCK:   -0.07 KCAL/MOL
REMARK 927      BINDING AFFINITY PREDICTED BY RF-SCORE:    0.00 PKD
ROOT
HETATM    1  N   UNL     1      -8.587  18.494  68.111  1.00  0.00    -0.294 NA 
HETATM    2  H2  UNL     1      -8.585  18.795  67.136  1.00  0.00     0.000 HD 
HETATM    3  C   UNL     1      -9.938  18.192  68.581  1.00  0.00    -0.395 C  
HETATM    4  H1  UNL     1      -8.136  19.179  68.718  1.00  0.00     0.000 HD 
ENDROOT
BRANCH   3   5
HETATM    5  C   UNL     1     -10.613  17.163  67.670  1.00  0.00    -0.343 C  
BRANCH   5   6
HETATM    6  C   UNL     1     -10.893  15.858  68.377  1.00  0.00    -0.316 A  
HETATM    7  C   UNL     1     -10.135  14.713  68.081  1.00  0.00    -0.224 A  
HETATM    8  C   UNL     1     -10.430  13.511  68.716  1.00  0.00    -0.197 A  
HETATM    9  O   UNL     1      -9.733  12.363  68.450  1.00  0.00    -0.217 OA 
HETATM   10  C   UNL     1     -11.460  13.441  69.648  1.00  0.00    -0.207 A  
HETATM   11  H   UNL     1      -9.934  11.542  68.884  1.00  0.00     0.000 HD 
HETATM   12  C   UNL     1     -12.204  14.565  69.970  1.00  0.00    -0.396 A  
HETATM   13  O   UNL     1     -11.755  12.251  70.250  1.00  0.00    -0.509 OA 
HETATM   14  H   UNL     1     -12.459  12.203  70.886  1.00  0.00     0.000 HD 
HETATM   15  C   UNL     1     -11.919  15.776  69.336  1.00  0.00    -0.321 A  
ENDBRANCH   5   6
ENDBRANCH   3   5
TORSDOF 2
ENDMDL
MODEL      135
REMARK 921   NORMALIZED FREE ENERGY PREDICTED BY IDOCK:   -3.07 KCAL/MOL
REMARK 922        TOTAL FREE ENERGY PREDICTED BY IDOCK:   -3.49 KCAL/MOL
REMARK 923 INTER-LIGAND FREE ENERGY PREDICTED BY IDOCK:   -3.42 KCAL/MOL
REMARK 924 INTRA-LIGAND FREE ENERGY PREDICTED BY IDOCK:   -0.07 KCAL/MOL
REMARK 927      BINDING AFFINITY PREDICTED BY RF-SCORE:    0.00 PKD
ROOT
HETATM    1  N   UNL     1     -10.527  20.366  69.922  1.00  0.00    -0.488 NA 
HETATM    2  H2  UNL     1     -11.526  20.465  69.741  1.00  0.00     0.000 HD 
HETATM    3  C   UNL     1     -10.009  19.094  69.415  1.00  0.00    -0.039 C  
HETATM    4  H1  UNL     1     -10.309  20.477  70.912  1.00  0.00     0.000 HD 
ENDROOT
BRANCH   3   5
HETATM    5  C   UNL     1     -10.335  18.928  67.929  1.00  0.00    -0.473 C  
BRANCH   5   6
HETATM    6  C   UNL     1      -9.096  18.845  67.070  1.00  0.00    -0.310 A  
HETATM    7  C   UNL     1      -8.608  19.988  66.414  1.00  0.00    -0.350 A  
HETATM    8  C   UNL     1      -7.485  19.885  65.599  1.00  0.00    -0.268 A  
HETATM    9  O   UNL     1      -6.981  20.963  64.923  1.00  0.00    -0.530 OA 
HETATM   10  C   UNL     1      -6.839  18.663  65.440  1.00  0.00    -0.143 A  
HETATM   11  H   UNL     1      -6.214  20.893  64.367  1.00  0.00     0.000 HD 
HETATM   12  C   UNL     1      -7.291  17.530  66.098  1.00  0.00    -0.347 A  
HETATM   13  O   UNL     1      -5.750  18.568  64.621  1.00  0.00    -0.209 OA 
HETATM   14  H   UNL     1      -5.309  17.734  64.513  1.00  0.00     0.000 HD 
HETATM   15  C   UNL     1      -8.420  17.621  66.916  1.00  0.00    -0.261 A  
ENDBRANCH   5   6
ENDBRANCH   3   5
TORSDOF 2
ENDMDL
MODEL      136
REMARK 921   NORMALIZED FREE ENERGY PREDICTED BY IDOCK:   -3.06 KCAL/MOL
REMARK 922        TOTAL FREE ENERGY PREDICTED BY IDOCK:   -3.48 KCAL/MOL
REMARK 923 INTER-LIGAND FREE ENERGY PREDICTED BY IDOCK:   -3.43 KCAL/MOL
REMARK 924 INTRA-LIGAND FREE ENERGY PREDICTED BY IDOCK:   -0.06 KCAL/MOL
REMARK 927      BINDING AFFINITY PREDICTED BY RF-SCORE:    0.00 PKD
ROOT
HETATM    1  N   UNL     1     -11.053  12.081  69.700  1.00  0.00    -0.473 NA 
HETATM    2  H2  UNL     1     -11.725  12.214  70.457  1.00  0.00     0.000 HD 
HETATM    3  C   UNL     1     -11.151  13.143  68.699  1.00  0.00    -0.269 C  
HETATM    4  H1  UNL     1     -11.149  11.163  69.266  1.00  0.00     0.000 HD 
ENDROOT
BRANCH   3   5
HETATM    5  C   UNL     1     -11.006  14.521  69.350  1.00  0.00    -0.275 C  
BRANCH   5   6
HETATM    6  C   UNL     1     -10.295  15.511  68.459  1.00  0.00    -0.225 A  
HETATM    7  C   UNL     1      -9.253  16.305  68.969  1.00  0.00    -0.253 A  
HETATM    8  C   UNL     1      -8.634  17.237  68.143  1.00  0.00    -0.242 A  
HETATM    9  O   UNL     1      -7.627  18.047  68.595  1.00  0.00    -0.280 OA 
HETATM   10  C   UNL     1      -9.030  17.377  66.816  1.00  0.00    -0.254 A  
HETATM   11  H   UNL     1      -7.203  18.683  68.030  1.00  0.00     0.000 HD 
HETATM   12  C   UNL     1     -10.039  16.586  66.289  1.00  0.00    -0.347 A  
HETATM   13  O   UNL     1      -8.428  18.310  66.020  1.00  0.00    -0.494 OA 
HETATM   14  H   UNL     1      -8.699  18.405  65.114  1.00  0.00     0.000 HD 
HETATM   15  C   UNL     1     -10.671  15.650  67.111  1.00  0.00    -0.314 A  
ENDBRANCH   5   6
ENDBRANCH   3   5
TORSDOF 2
ENDMDL
MODEL      137
REMARK 921   NORMALIZED FREE ENERGY PREDICTED BY IDOCK:   -3.06 KCAL/MOL
REMARK 922        TOTAL FREE ENERGY PREDICTED BY IDOCK:   -3.48 KCAL/MOL
REMARK 923 INTER-LIGAND FREE ENERGY PREDICTED BY IDOCK:   -3.38 KCAL/MOL
REMARK 924 INTRA-LIGAND FREE ENERGY PREDICTED BY IDOCK:   -0.09 KCAL/MOL
REMARK 927      BINDING AFFINITY PREDICTED BY RF-SCORE:    0.00 PKD
ROOT
HETATM    1  N   UNL     1      -8.087  12.454  68.719  1.00  0.00    -0.334 NA 
HETATM    2  H2  UNL     1      -8.714  11.688  68.964  1.00  0.00     0.000 HD 
HETATM    3  C   UNL     1      -8.194  12.809  67.303  1.00  0.00    -0.181 C  
HETATM    4  H1  UNL     1      -7.120  12.245  68.967  1.00  0.00     0.000 HD 
ENDROOT
BRANCH   3   5
HETATM    5  C   UNL     1      -9.645  13.123  66.930  1.00  0.00    -0.248 C  
BRANCH   5   6
HETATM    6  C   UNL     1     -10.013  14.564  67.198  1.00  0.00    -0.252 A  
HETATM    7  C   UNL     1      -9.488  15.592  66.397  1.00  0.00    -0.320 A  
HETATM    8  C   UNL     1      -9.810  16.915  66.680  1.00  0.00    -0.287 A  
HETATM    9  O   UNL     1      -9.310  17.954  65.942  1.00  0.00    -0.520 OA 
HETATM   10  C   UNL     1     -10.655  17.223  67.742  1.00  0.00    -0.367 A  
HETATM   11  H   UNL     1      -9.530  18.858  66.136  1.00  0.00     0.000 HD 
HETATM   12  C   UNL     1     -11.202  16.222  68.528  1.00  0.00    -0.359 A  
HETATM   13  O   UNL     1     -10.948  18.527  68.024  1.00  0.00    -0.257 OA 
HETATM   14  H   UNL     1     -11.525  18.738  68.748  1.00  0.00     0.000 HD 
HETATM   15  C   UNL     1     -10.882  14.889  68.255  1.00  0.00    -0.257 A  
ENDBRANCH   5   6
ENDBRANCH   3   5
TORSDOF 2
ENDMDL
MODEL      138
REMARK 921   NORMALIZED FREE ENERGY PREDICTED BY IDOCK:   -3.05 KCAL/MOL
REMARK 922        TOTAL FREE ENERGY PREDICTED BY IDOCK:   -3.47 KCAL/MOL
REMARK 923 INTER-LIGAND FREE ENERGY PREDICTED BY IDOCK:   -3.40 KCAL/MOL
REMARK 924 INTRA-LIGAND FREE ENERGY PREDICTED BY IDOCK:   -0.07 KCAL/MOL
REMARK 927      BINDING AFFINITY PREDICTED BY RF-SCORE:    0.00 PKD
ROOT
HETATM    1  N   UNL     1     -12.780  14.514  64.070  1.00  0.00    -0.741 NA 
HETATM    2  H2  UNL     1     -13.588  14.007  63.709  1.00  0.00     0.000 HD 
HETATM    3  C   UNL     1     -11.739  13.604  64.546  1.00  0.00    -0.400 C  
HETATM    4  H1  UNL     1     -13.044  15.176  64.800  1.00  0.00     0.000 HD 
ENDROOT
BRANCH   3   5
HETATM    5  C   UNL     1     -11.342  12.612  63.449  1.00  0.00    -0.456 C  
BRANCH   5   6
HETATM    6  C   UNL     1     -10.182  11.734  63.855  1.00  0.00    -0.411 A  
HETATM    7  C   UNL     1      -9.378  11.122  62.879  1.00  0.00    -0.385 A  
HETATM    8  C   UNL     1      -8.336  10.288  63.271  1.00  0.00    -0.168 A  
HETATM    9  O   UNL     1      -7.535   9.654  62.359  1.00  0.00    -0.108 OA 
HETATM   10  C   UNL     1      -8.079  10.068  64.621  1.00  0.00    -0.155 A  
HETATM   11  H   UNL     1      -6.823   9.085  62.628  1.00  0.00     0.000 HD 
HETATM   12  C   UNL     1      -8.846  10.682  65.599  1.00  0.00    -0.201 A  
HETATM   13  O   UNL     1      -7.066   9.231  64.994  1.00  0.00    -0.093 OA 
HETATM   14  H   UNL     1      -6.891   9.081  65.916  1.00  0.00     0.000 HD 
HETATM   15  C   UNL     1      -9.897  11.518  65.216  1.00  0.00    -0.286 A  
ENDBRANCH   5   6
ENDBRANCH   3   5
TORSDOF 2
ENDMDL
MODEL      139
REMARK 921   NORMALIZED FREE ENERGY PREDICTED BY IDOCK:   -3.05 KCAL/MOL
REMARK 922        TOTAL FREE ENERGY PREDICTED BY IDOCK:   -3.47 KCAL/MOL
REMARK 923 INTER-LIGAND FREE ENERGY PREDICTED BY IDOCK:   -3.40 KCAL/MOL
REMARK 924 INTRA-LIGAND FREE ENERGY PREDICTED BY IDOCK:   -0.07 KCAL/MOL
REMARK 927      BINDING AFFINITY PREDICTED BY RF-SCORE:    0.00 PKD
ROOT
HETATM    1  N   UNL     1     -10.646  20.382  69.580  1.00  0.00    -0.281 NA 
HETATM    2  H2  UNL     1     -11.598  20.061  69.758  1.00  0.00     0.000 HD 
HETATM    3  C   UNL     1      -9.797  19.302  69.074  1.00  0.00    -0.401 C  
HETATM    4  H1  UNL     1     -10.231  20.812  70.407  1.00  0.00     0.000 HD 
ENDROOT
BRANCH   3   5
HETATM    5  C   UNL     1     -10.420  18.657  67.833  1.00  0.00    -0.431 C  
BRANCH   5   6
HETATM    6  C   UNL     1     -10.441  17.149  67.913  1.00  0.00    -0.369 A  
HETATM    7  C   UNL     1      -9.566  16.384  67.125  1.00  0.00    -0.239 A  
HETATM    8  C   UNL     1      -9.624  14.995  67.186  1.00  0.00    -0.217 A  
HETATM    9  O   UNL     1      -8.806  14.203  66.425  1.00  0.00    -0.462 OA 
HETATM   10  C   UNL     1     -10.533  14.364  68.029  1.00  0.00    -0.237 A  
HETATM   11  H   UNL     1      -8.846  13.255  66.467  1.00  0.00     0.000 HD 
HETATM   12  C   UNL     1     -11.388  15.102  68.832  1.00  0.00    -0.314 A  
HETATM   13  O   UNL     1     -10.595  13.000  68.065  1.00  0.00    -0.223 OA 
HETATM   14  H   UNL     1     -11.216  12.569  68.641  1.00  0.00     0.000 HD 
HETATM   15  C   UNL     1     -11.340  16.497  68.776  1.00  0.00    -0.221 A  
ENDBRANCH   5   6
ENDBRANCH   3   5
TORSDOF 2
ENDMDL
MODEL      140
REMARK 921   NORMALIZED FREE ENERGY PREDICTED BY IDOCK:   -3.03 KCAL/MOL
REMARK 922        TOTAL FREE ENERGY PREDICTED BY IDOCK:   -3.45 KCAL/MOL
REMARK 923 INTER-LIGAND FREE ENERGY PREDICTED BY IDOCK:   -3.38 KCAL/MOL
REMARK 924 INTRA-LIGAND FREE ENERGY PREDICTED BY IDOCK:   -0.07 KCAL/MOL
REMARK 927      BINDING AFFINITY PREDICTED BY RF-SCORE:    0.00 PKD
ROOT
HETATM    1  N   UNL     1     -11.291   6.509  67.076  1.00  0.00    -0.780 NA 
HETATM    2  H2  UNL     1     -11.436   7.519  67.077  1.00  0.00     0.000 HD 
HETATM    3  C   UNL     1     -10.694   6.047  68.330  1.00  0.00    -0.279 C  
HETATM    4  H1  UNL     1     -10.733   6.208  66.277  1.00  0.00     0.000 HD 
ENDROOT
BRANCH   3   5
HETATM    5  C   UNL     1     -11.532   6.498  69.529  1.00  0.00    -0.384 C  
BRANCH   5   6
HETATM    6  C   UNL     1     -10.691   7.104  70.628  1.00  0.00    -0.255 A  
HETATM    7  C   UNL     1     -10.470   6.400  71.824  1.00  0.00    -0.246 A  
HETATM    8  C   UNL     1      -9.722   6.988  72.838  1.00  0.00    -0.161 A  
HETATM    9  O   UNL     1      -9.493   6.352  74.029  1.00  0.00    -0.152 OA 
HETATM   10  C   UNL     1      -9.185   8.260  72.671  1.00  0.00    -0.274 A  
HETATM   11  H   UNL     1      -8.982   6.754  74.722  1.00  0.00     0.000 HD 
HETATM   12  C   UNL     1      -9.372   8.961  71.490  1.00  0.00    -0.335 A  
HETATM   13  O   UNL     1      -8.470   8.837  73.682  1.00  0.00    -0.307 OA 
HETATM   14  H   UNL     1      -8.103   9.706  73.568  1.00  0.00     0.000 HD 
HETATM   15  C   UNL     1     -10.124   8.381  70.466  1.00  0.00    -0.211 A  
ENDBRANCH   5   6
ENDBRANCH   3   5
TORSDOF 2
ENDMDL
MODEL      141
REMARK 921   NORMALIZED FREE ENERGY PREDICTED BY IDOCK:   -3.02 KCAL/MOL
REMARK 922        TOTAL FREE ENERGY PREDICTED BY IDOCK:   -3.43 KCAL/MOL
REMARK 923 INTER-LIGAND FREE ENERGY PREDICTED BY IDOCK:   -3.34 KCAL/MOL
REMARK 924 INTRA-LIGAND FREE ENERGY PREDICTED BY IDOCK:   -0.10 KCAL/MOL
REMARK 927      BINDING AFFINITY PREDICTED BY RF-SCORE:    0.00 PKD
ROOT
HETATM    1  N   UNL     1     -12.447   9.938  71.553  1.00  0.00    -0.382 NA 
HETATM    2  H2  UNL     1     -13.038  10.161  70.752  1.00  0.00     0.000 HD 
HETATM    3  C   UNL     1     -13.005   8.846  72.351  1.00  0.00    -0.404 C  
HETATM    4  H1  UNL     1     -12.272  10.759  72.134  1.00  0.00     0.000 HD 
ENDROOT
BRANCH   3   5
HETATM    5  C   UNL     1     -13.266   7.615  71.480  1.00  0.00    -0.380 C  
BRANCH   5   6
HETATM    6  C   UNL     1     -12.069   6.698  71.399  1.00  0.00    -0.400 A  
HETATM    7  C   UNL     1     -11.521   6.352  70.152  1.00  0.00    -0.484 A  
HETATM    8  C   UNL     1     -10.440   5.478  70.096  1.00  0.00    -0.300 A  
HETATM    9  O   UNL     1      -9.881   5.096  68.906  1.00  0.00    -0.147 OA 
HETATM   10  C   UNL     1      -9.894   4.957  71.264  1.00  0.00    -0.186 A  
HETATM   11  H   UNL     1      -9.143   4.499  68.868  1.00  0.00     0.000 HD 
HETATM   12  C   UNL     1     -10.405   5.305  72.505  1.00  0.00    -0.249 A  
HETATM   13  O   UNL     1      -8.846   4.083  71.196  1.00  0.00    -0.086 OA 
HETATM   14  H   UNL     1      -8.473   3.727  71.994  1.00  0.00     0.000 HD 
HETATM   15  C   UNL     1     -11.493   6.178  72.573  1.00  0.00    -0.318 A  
ENDBRANCH   5   6
ENDBRANCH   3   5
TORSDOF 2
ENDMDL
MODEL      142
REMARK 921   NORMALIZED FREE ENERGY PREDICTED BY IDOCK:   -3.02 KCAL/MOL
REMARK 922        TOTAL FREE ENERGY PREDICTED BY IDOCK:   -3.43 KCAL/MOL
REMARK 923 INTER-LIGAND FREE ENERGY PREDICTED BY IDOCK:   -3.37 KCAL/MOL
REMARK 924 INTRA-LIGAND FREE ENERGY PREDICTED BY IDOCK:   -0.06 KCAL/MOL
REMARK 927      BINDING AFFINITY PREDICTED BY RF-SCORE:    0.00 PKD
ROOT
HETATM    1  N   UNL     1     -10.564  16.977  67.839  1.00  0.00    -0.358 NA 
HETATM    2  H2  UNL     1     -10.857  17.483  68.676  1.00  0.00     0.000 HD 
HETATM    3  C   UNL     1     -10.308  15.565  68.122  1.00  0.00    -0.237 C  
HETATM    4  H1  UNL     1      -9.752  17.412  67.400  1.00  0.00     0.000 HD 
ENDROOT
BRANCH   3   5
HETATM    5  C   UNL     1     -11.527  14.913  68.781  1.00  0.00    -0.328 C  
BRANCH   5   6
HETATM    6  C   UNL     1     -11.403  13.410  68.868  1.00  0.00    -0.331 A  
HETATM    7  C   UNL     1     -11.028  12.661  67.739  1.00  0.00    -0.266 A  
HETATM    8  C   UNL     1     -10.953  11.275  67.829  1.00  0.00    -0.252 A  
HETATM    9  O   UNL     1     -10.611  10.499  66.755  1.00  0.00    -0.247 OA 
HETATM   10  C   UNL     1     -11.235  10.630  69.029  1.00  0.00    -0.265 A  
HETATM   11  H   UNL     1     -10.560   9.552  66.816  1.00  0.00     0.000 HD 
HETATM   12  C   UNL     1     -11.583  11.353  70.160  1.00  0.00    -0.368 A  
HETATM   13  O   UNL     1     -11.179   9.267  69.101  1.00  0.00    -0.440 OA 
HETATM   14  H   UNL     1     -11.372   8.827  69.920  1.00  0.00     0.000 HD 
HETATM   15  C   UNL     1     -11.665  12.746  70.080  1.00  0.00    -0.282 A  
ENDBRANCH   5   6
ENDBRANCH   3   5
TORSDOF 2
ENDMDL
MODEL      143
REMARK 921   NORMALIZED FREE ENERGY PREDICTED BY IDOCK:   -2.99 KCAL/MOL
REMARK 922        TOTAL FREE ENERGY PREDICTED BY IDOCK:   -3.41 KCAL/MOL
REMARK 923 INTER-LIGAND FREE ENERGY PREDICTED BY IDOCK:   -3.35 KCAL/MOL
REMARK 924 INTRA-LIGAND FREE ENERGY PREDICTED BY IDOCK:   -0.06 KCAL/MOL
REMARK 927      BINDING AFFINITY PREDICTED BY RF-SCORE:    0.00 PKD
ROOT
HETATM    1  N   UNL     1     -10.640  16.862  66.820  1.00  0.00    -0.253 NA 
HETATM    2  H2  UNL     1     -10.307  17.795  67.064  1.00  0.00     0.000 HD 
HETATM    3  C   UNL     1      -9.681  16.147  65.979  1.00  0.00    -0.344 C  
HETATM    4  H1  UNL     1     -11.559  16.893  66.377  1.00  0.00     0.000 HD 
ENDROOT
BRANCH   3   5
HETATM    5  C   UNL     1      -8.303  16.101  66.644  1.00  0.00    -0.321 C  
BRANCH   5   6
HETATM    6  C   UNL     1      -7.812  17.468  67.055  1.00  0.00    -0.240 A  
HETATM    7  C   UNL     1      -7.649  18.483  66.096  1.00  0.00    -0.273 A  
HETATM    8  C   UNL     1      -7.162  19.725  66.487  1.00  0.00    -0.241 A  
HETATM    9  O   UNL     1      -6.969  20.741  65.590  1.00  0.00    -0.481 OA 
HETATM   10  C   UNL     1      -6.847  19.971  67.820  1.00  0.00    -0.266 A  
HETATM   11  H   UNL     1      -6.636  21.590  65.857  1.00  0.00     0.000 HD 
HETATM   12  C   UNL     1      -7.023  18.991  68.784  1.00  0.00    -0.343 A  
HETATM   13  O   UNL     1      -6.350  21.189  68.190  1.00  0.00    -0.323 OA 
HETATM   14  H   UNL     1      -6.134  21.357  69.100  1.00  0.00     0.000 HD 
HETATM   15  C   UNL     1      -7.508  17.738  68.402  1.00  0.00    -0.263 A  
ENDBRANCH   5   6
ENDBRANCH   3   5
TORSDOF 2
ENDMDL
MODEL      144
REMARK 921   NORMALIZED FREE ENERGY PREDICTED BY IDOCK:   -2.98 KCAL/MOL
REMARK 922        TOTAL FREE ENERGY PREDICTED BY IDOCK:   -3.39 KCAL/MOL
REMARK 923 INTER-LIGAND FREE ENERGY PREDICTED BY IDOCK:   -3.33 KCAL/MOL
REMARK 924 INTRA-LIGAND FREE ENERGY PREDICTED BY IDOCK:   -0.06 KCAL/MOL
REMARK 927      BINDING AFFINITY PREDICTED BY RF-SCORE:    0.00 PKD
ROOT
HETATM    1  N   UNL     1      -7.340   6.840  66.965  1.00  0.00    -0.081 NA 
HETATM    2  H2  UNL     1      -6.358   7.093  66.849  1.00  0.00     0.000 HD 
HETATM    3  C   UNL     1      -8.181   8.019  67.173  1.00  0.00    -0.117 C  
HETATM    4  H1  UNL     1      -7.470   6.165  67.719  1.00  0.00     0.000 HD 
ENDROOT
BRANCH   3   5
HETATM    5  C   UNL     1      -7.987   9.032  66.041  1.00  0.00    -0.103 C  
BRANCH   5   6
HETATM    6  C   UNL     1      -9.191   9.922  65.847  1.00  0.00    -0.223 A  
HETATM    7  C   UNL     1      -9.693  10.168  64.558  1.00  0.00    -0.361 A  
HETATM    8  C   UNL     1     -10.781  11.019  64.395  1.00  0.00    -0.269 A  
HETATM    9  O   UNL     1     -11.296  11.306  63.160  1.00  0.00    -0.837 OA 
HETATM   10  C   UNL     1     -11.381  11.615  65.500  1.00  0.00    -0.160 A  
HETATM   11  H   UNL     1     -12.040  11.887  63.049  1.00  0.00     0.000 HD 
HETATM   12  C   UNL     1     -10.916  11.365  66.782  1.00  0.00    -0.347 A  
HETATM   13  O   UNL     1     -12.437  12.464  65.328  1.00  0.00    -0.611 OA 
HETATM   14  H   UNL     1     -12.846  12.871  66.082  1.00  0.00     0.000 HD 
HETATM   15  C   UNL     1      -9.821  10.515  66.956  1.00  0.00    -0.223 A  
ENDBRANCH   5   6
ENDBRANCH   3   5
TORSDOF 2
ENDMDL
MODEL      145
REMARK 921   NORMALIZED FREE ENERGY PREDICTED BY IDOCK:   -2.97 KCAL/MOL
REMARK 922        TOTAL FREE ENERGY PREDICTED BY IDOCK:   -3.38 KCAL/MOL
REMARK 923 INTER-LIGAND FREE ENERGY PREDICTED BY IDOCK:   -3.28 KCAL/MOL
REMARK 924 INTRA-LIGAND FREE ENERGY PREDICTED BY IDOCK:   -0.10 KCAL/MOL
REMARK 927      BINDING AFFINITY PREDICTED BY RF-SCORE:    0.00 PKD
ROOT
HETATM    1  N   UNL     1     -10.940  13.482  68.511  1.00  0.00    -0.258 NA 
HETATM    2  H2  UNL     1     -10.119  13.843  68.998  1.00  0.00     0.000 HD 
HETATM    3  C   UNL     1     -11.529  14.489  67.628  1.00  0.00    -0.353 C  
HETATM    4  H1  UNL     1     -11.636  13.119  69.162  1.00  0.00     0.000 HD 
ENDROOT
BRANCH   3   5
HETATM    5  C   UNL     1     -10.484  15.033  66.651  1.00  0.00    -0.284 C  
BRANCH   5   6
HETATM    6  C   UNL     1      -9.660  16.150  67.247  1.00  0.00    -0.231 A  
HETATM    7  C   UNL     1     -10.289  17.255  67.846  1.00  0.00    -0.360 A  
HETATM    8  C   UNL     1      -9.514  18.290  68.358  1.00  0.00    -0.323 A  
HETATM    9  O   UNL     1     -10.077  19.397  68.935  1.00  0.00    -0.465 OA 
HETATM   10  C   UNL     1      -8.125  18.231  68.292  1.00  0.00    -0.297 A  
HETATM   11  H   UNL     1      -9.548  20.104  69.285  1.00  0.00     0.000 HD 
HETATM   12  C   UNL     1      -7.487  17.139  67.726  1.00  0.00    -0.183 A  
HETATM   13  O   UNL     1      -7.375  19.264  68.779  1.00  0.00    -0.319 OA 
HETATM   14  H   UNL     1      -6.427  19.223  68.734  1.00  0.00     0.000 HD 
HETATM   15  C   UNL     1      -8.256  16.095  67.205  1.00  0.00    -0.203 A  
ENDBRANCH   5   6
ENDBRANCH   3   5
TORSDOF 2
ENDMDL
MODEL      146
REMARK 921   NORMALIZED FREE ENERGY PREDICTED BY IDOCK:   -2.96 KCAL/MOL
REMARK 922        TOTAL FREE ENERGY PREDICTED BY IDOCK:   -3.37 KCAL/MOL
REMARK 923 INTER-LIGAND FREE ENERGY PREDICTED BY IDOCK:   -3.28 KCAL/MOL
REMARK 924 INTRA-LIGAND FREE ENERGY PREDICTED BY IDOCK:   -0.09 KCAL/MOL
REMARK 927      BINDING AFFINITY PREDICTED BY RF-SCORE:    0.00 PKD
ROOT
HETATM    1  N   UNL     1     -11.444   4.616  65.111  1.00  0.00    -1.107 NA 
HETATM    2  H2  UNL     1     -11.603   5.403  64.482  1.00  0.00     0.000 HD 
HETATM    3  C   UNL     1     -10.407   4.914  66.099  1.00  0.00    -0.292 C  
HETATM    4  H1  UNL     1     -11.221   3.762  64.599  1.00  0.00     0.000 HD 
ENDROOT
BRANCH   3   5
HETATM    5  C   UNL     1     -10.742   6.195  66.868  1.00  0.00    -0.413 C  
BRANCH   5   6
HETATM    6  C   UNL     1      -9.945   7.384  66.386  1.00  0.00    -0.107 A  
HETATM    7  C   UNL     1      -8.728   7.197  65.708  1.00  0.00    -0.125 A  
HETATM    8  C   UNL     1      -7.990   8.304  65.303  1.00  0.00    -0.128 A  
HETATM    9  O   UNL     1      -6.791   8.176  64.655  1.00  0.00    -0.065 OA 
HETATM   10  C   UNL     1      -8.455   9.591  65.555  1.00  0.00    -0.140 A  
HETATM   11  H   UNL     1      -6.287   8.932  64.378  1.00  0.00     0.000 HD 
HETATM   12  C   UNL     1      -9.663   9.796  66.202  1.00  0.00    -0.309 A  
HETATM   13  O   UNL     1      -7.712  10.671  65.172  1.00  0.00    -0.293 OA 
HETATM   14  H   UNL     1      -8.029  11.550  65.344  1.00  0.00     0.000 HD 
HETATM   15  C   UNL     1     -10.411   8.691  66.616  1.00  0.00    -0.303 A  
ENDBRANCH   5   6
ENDBRANCH   3   5
TORSDOF 2
ENDMDL
MODEL      147
REMARK 921   NORMALIZED FREE ENERGY PREDICTED BY IDOCK:   -2.96 KCAL/MOL
REMARK 922        TOTAL FREE ENERGY PREDICTED BY IDOCK:   -3.37 KCAL/MOL
REMARK 923 INTER-LIGAND FREE ENERGY PREDICTED BY IDOCK:   -3.31 KCAL/MOL
REMARK 924 INTRA-LIGAND FREE ENERGY PREDICTED BY IDOCK:   -0.06 KCAL/MOL
REMARK 927      BINDING AFFINITY PREDICTED BY RF-SCORE:    0.00 PKD
ROOT
HETATM    1  N   UNL     1     -11.212   7.288  67.146  1.00  0.00    -0.506 NA 
HETATM    2  H2  UNL     1     -12.075   7.156  67.674  1.00  0.00     0.000 HD 
HETATM    3  C   UNL     1     -10.035   6.914  67.931  1.00  0.00    -0.147 C  
HETATM    4  H1  UNL     1     -11.125   8.243  66.796  1.00  0.00     0.000 HD 
ENDROOT
BRANCH   3   5
HETATM    5  C   UNL     1     -10.165   5.481  68.455  1.00  0.00    -0.250 C  
BRANCH   5   6
HETATM    6  C   UNL     1     -10.408   5.430  69.945  1.00  0.00    -0.377 A  
HETATM    7  C   UNL     1      -9.854   4.397  70.720  1.00  0.00    -0.273 A  
HETATM    8  C   UNL     1     -10.118   4.345  72.084  1.00  0.00    -0.195 A  
HETATM    9  O   UNL     1      -9.618   3.350  72.880  1.00  0.00    -0.111 OA 
HETATM   10  C   UNL     1     -10.914   5.315  72.686  1.00  0.00    -0.260 A  
HETATM   11  H   UNL     1      -9.798   3.315  73.813  1.00  0.00     0.000 HD 
HETATM   12  C   UNL     1     -11.449   6.355  71.942  1.00  0.00    -0.352 A  
HETATM   13  O   UNL     1     -11.183   5.244  74.023  1.00  0.00    -0.425 OA 
HETATM   14  H   UNL     1     -11.727   5.906  74.433  1.00  0.00     0.000 HD 
HETATM   15  C   UNL     1     -11.194   6.414  70.570  1.00  0.00    -0.414 A  
ENDBRANCH   5   6
ENDBRANCH   3   5
TORSDOF 2
ENDMDL
MODEL      148
REMARK 921   NORMALIZED FREE ENERGY PREDICTED BY IDOCK:   -2.95 KCAL/MOL
REMARK 922        TOTAL FREE ENERGY PREDICTED BY IDOCK:   -3.36 KCAL/MOL
REMARK 923 INTER-LIGAND FREE ENERGY PREDICTED BY IDOCK:   -3.28 KCAL/MOL
REMARK 924 INTRA-LIGAND FREE ENERGY PREDICTED BY IDOCK:   -0.09 KCAL/MOL
REMARK 927      BINDING AFFINITY PREDICTED BY RF-SCORE:    0.00 PKD
ROOT
HETATM    1  N   UNL     1     -12.637  12.758  65.431  1.00  0.00    -0.636 NA 
HETATM    2  H2  UNL     1     -13.124  11.933  65.080  1.00  0.00     0.000 HD 
HETATM    3  C   UNL     1     -11.424  12.398  66.166  1.00  0.00    -0.379 C  
HETATM    4  H1  UNL     1     -13.247  13.343  66.002  1.00  0.00     0.000 HD 
ENDROOT
BRANCH   3   5
HETATM    5  C   UNL     1     -10.508  11.521  65.309  1.00  0.00    -0.336 C  
BRANCH   5   6
HETATM    6  C   UNL     1     -10.138  10.227  65.994  1.00  0.00    -0.311 A  
HETATM    7  C   UNL     1     -10.666   9.916  67.258  1.00  0.00    -0.304 A  
HETATM    8  C   UNL     1     -10.286   8.736  67.890  1.00  0.00    -0.219 A  
HETATM    9  O   UNL     1     -10.757   8.395  69.129  1.00  0.00    -0.339 OA 
HETATM   10  C   UNL     1      -9.397   7.861  67.273  1.00  0.00    -0.148 A  
HETATM   11  H   UNL     1     -10.498   7.589  69.560  1.00  0.00     0.000 HD 
HETATM   12  C   UNL     1      -8.884   8.139  66.016  1.00  0.00    -0.206 A  
HETATM   13  O   UNL     1      -9.015   6.715  67.911  1.00  0.00    -0.115 OA 
HETATM   14  H   UNL     1      -8.408   6.118  67.489  1.00  0.00     0.000 HD 
HETATM   15  C   UNL     1      -9.256   9.323  65.374  1.00  0.00    -0.284 A  
ENDBRANCH   5   6
ENDBRANCH   3   5
TORSDOF 2
ENDMDL
MODEL      149
REMARK 921   NORMALIZED FREE ENERGY PREDICTED BY IDOCK:   -2.94 KCAL/MOL
REMARK 922        TOTAL FREE ENERGY PREDICTED BY IDOCK:   -3.35 KCAL/MOL
REMARK 923 INTER-LIGAND FREE ENERGY PREDICTED BY IDOCK:   -3.29 KCAL/MOL
REMARK 924 INTRA-LIGAND FREE ENERGY PREDICTED BY IDOCK:   -0.06 KCAL/MOL
REMARK 927      BINDING AFFINITY PREDICTED BY RF-SCORE:    0.00 PKD
ROOT
HETATM    1  N   UNL     1     -13.995   7.729  70.970  1.00  0.00    -0.633 NA 
HETATM    2  H2  UNL     1     -14.483   6.905  71.323  1.00  0.00     0.000 HD 
HETATM    3  C   UNL     1     -12.916   8.144  71.866  1.00  0.00    -0.333 C  
HETATM    4  H1  UNL     1     -14.638   8.502  70.794  1.00  0.00     0.000 HD 
ENDROOT
BRANCH   3   5
HETATM    5  C   UNL     1     -11.952   6.984  72.130  1.00  0.00    -0.299 C  
BRANCH   5   6
HETATM    6  C   UNL     1     -10.582   7.456  72.556  1.00  0.00    -0.304 A  
HETATM    7  C   UNL     1      -9.840   8.320  71.732  1.00  0.00    -0.284 A  
HETATM    8  C   UNL     1      -8.566   8.715  72.124  1.00  0.00    -0.120 A  
HETATM    9  O   UNL     1      -7.795   9.541  71.350  1.00  0.00    -0.282 OA 
HETATM   10  C   UNL     1      -8.028   8.271  73.328  1.00  0.00    -0.149 A  
HETATM   11  H   UNL     1      -6.925   9.811  71.617  1.00  0.00     0.000 HD 
HETATM   12  C   UNL     1      -8.754   7.438  74.165  1.00  0.00    -0.267 A  
HETATM   13  O   UNL     1      -6.768   8.649  73.693  1.00  0.00    -0.252 OA 
HETATM   14  H   UNL     1      -6.401   8.345  74.515  1.00  0.00     0.000 HD 
HETATM   15  C   UNL     1     -10.034   7.031  73.779  1.00  0.00    -0.367 A  
ENDBRANCH   5   6
ENDBRANCH   3   5
TORSDOF 2
ENDMDL
MODEL      150
REMARK 921   NORMALIZED FREE ENERGY PREDICTED BY IDOCK:   -2.92 KCAL/MOL
REMARK 922        TOTAL FREE ENERGY PREDICTED BY IDOCK:   -3.32 KCAL/MOL
REMARK 923 INTER-LIGAND FREE ENERGY PREDICTED BY IDOCK:   -3.27 KCAL/MOL
REMARK 924 INTRA-LIGAND FREE ENERGY PREDICTED BY IDOCK:   -0.05 KCAL/MOL
REMARK 927      BINDING AFFINITY PREDICTED BY RF-SCORE:    0.00 PKD
ROOT
HETATM    1  N   UNL     1      -5.986  18.944  68.553  1.00  0.00    -0.211 NA 
HETATM    2  H2  UNL     1      -5.366  18.939  67.744  1.00  0.00     0.000 HD 
HETATM    3  C   UNL     1      -7.323  18.457  68.213  1.00  0.00    -0.273 C  
HETATM    4  H1  UNL     1      -6.036  19.867  68.986  1.00  0.00     0.000 HD 
ENDROOT
BRANCH   3   5
HETATM    5  C   UNL     1      -7.249  17.072  67.565  1.00  0.00    -0.173 C  
BRANCH   5   6
HETATM    6  C   UNL     1      -8.586  16.371  67.542  1.00  0.00    -0.185 A  
HETATM    7  C   UNL     1      -9.225  16.099  66.320  1.00  0.00    -0.366 A  
HETATM    8  C   UNL     1     -10.472  15.484  66.319  1.00  0.00    -0.307 A  
HETATM    9  O   UNL     1     -11.145  15.214  65.158  1.00  0.00    -0.362 OA 
HETATM   10  C   UNL     1     -11.083  15.127  67.518  1.00  0.00    -0.319 A  
HETATM   11  H   UNL     1     -11.997  14.794  65.157  1.00  0.00     0.000 HD 
HETATM   12  C   UNL     1     -10.458  15.365  68.732  1.00  0.00    -0.231 A  
HETATM   13  O   UNL     1     -12.317  14.543  67.506  1.00  0.00    -0.619 OA 
HETATM   14  H   UNL     1     -12.734  14.299  68.325  1.00  0.00     0.000 HD 
HETATM   15  C   UNL     1      -9.206  15.986  68.744  1.00  0.00    -0.224 A  
ENDBRANCH   5   6
ENDBRANCH   3   5
TORSDOF 2
ENDMDL
MODEL      151
REMARK 921   NORMALIZED FREE ENERGY PREDICTED BY IDOCK:   -2.89 KCAL/MOL
REMARK 922        TOTAL FREE ENERGY PREDICTED BY IDOCK:   -3.29 KCAL/MOL
REMARK 923 INTER-LIGAND FREE ENERGY PREDICTED BY IDOCK:   -3.53 KCAL/MOL
REMARK 924 INTRA-LIGAND FREE ENERGY PREDICTED BY IDOCK:    0.24 KCAL/MOL
REMARK 927      BINDING AFFINITY PREDICTED BY RF-SCORE:    0.00 PKD
ROOT
HETATM    1  N   UNL     1     -11.887  14.445  70.968  1.00  0.00    -0.446 NA 
HETATM    2  H2  UNL     1     -11.074  13.878  71.210  1.00  0.00     0.000 HD 
HETATM    3  C   UNL     1     -11.548  15.865  70.873  1.00  0.00    -0.421 C  
HETATM    4  H1  UNL     1     -12.657  14.299  71.621  1.00  0.00     0.000 HD 
ENDROOT
BRANCH   3   5
HETATM    5  C   UNL     1     -10.392  16.083  69.892  1.00  0.00    -0.249 C  
BRANCH   5   6
HETATM    6  C   UNL     1     -10.463  15.160  68.699  1.00  0.00    -0.234 A  
HETATM    7  C   UNL     1      -9.334  14.423  68.303  1.00  0.00    -0.206 A  
HETATM    8  C   UNL     1      -9.407  13.605  67.181  1.00  0.00    -0.240 A  
HETATM    9  O   UNL     1      -8.331  12.881  66.743  1.00  0.00    -0.387 OA 
HETATM   10  C   UNL     1     -10.592  13.504  66.458  1.00  0.00    -0.281 A  
HETATM   11  H   UNL     1      -8.382  12.321  65.976  1.00  0.00     0.000 HD 
HETATM   12  C   UNL     1     -11.723  14.204  66.847  1.00  0.00    -0.437 A  
HETATM   13  O   UNL     1     -10.647  12.713  65.346  1.00  0.00    -0.270 OA 
HETATM   14  H   UNL     1     -11.456  12.645  64.852  1.00  0.00     0.000 HD 
HETATM   15  C   UNL     1     -11.659  15.032  67.971  1.00  0.00    -0.356 A  
ENDBRANCH   5   6
ENDBRANCH   3   5
TORSDOF 2
ENDMDL
MODEL      152
REMARK 921   NORMALIZED FREE ENERGY PREDICTED BY IDOCK:   -2.87 KCAL/MOL
REMARK 922        TOTAL FREE ENERGY PREDICTED BY IDOCK:   -3.27 KCAL/MOL
REMARK 923 INTER-LIGAND FREE ENERGY PREDICTED BY IDOCK:   -3.20 KCAL/MOL
REMARK 924 INTRA-LIGAND FREE ENERGY PREDICTED BY IDOCK:   -0.07 KCAL/MOL
REMARK 927      BINDING AFFINITY PREDICTED BY RF-SCORE:    0.00 PKD
ROOT
HETATM    1  N   UNL     1     -13.099  14.280  65.008  1.00  0.00    -0.610 NA 
HETATM    2  H2  UNL     1     -13.869  13.829  64.513  1.00  0.00     0.000 HD 
HETATM    3  C   UNL     1     -12.232  13.303  65.665  1.00  0.00    -0.462 C  
HETATM    4  H1  UNL     1     -13.435  14.974  65.677  1.00  0.00     0.000 HD 
ENDROOT
BRANCH   3   5
HETATM    5  C   UNL     1     -11.728  12.262  64.661  1.00  0.00    -0.420 C  
BRANCH   5   6
HETATM    6  C   UNL     1     -10.532  11.495  65.173  1.00  0.00    -0.340 A  
HETATM    7  C   UNL     1      -9.849  11.929  66.323  1.00  0.00    -0.246 A  
HETATM    8  C   UNL     1      -8.728  11.231  66.759  1.00  0.00    -0.166 A  
HETATM    9  O   UNL     1      -8.017  11.621  67.862  1.00  0.00    -0.119 OA 
HETATM   10  C   UNL     1      -8.288  10.103  66.073  1.00  0.00    -0.130 A  
HETATM   11  H   UNL     1      -7.251  11.144  68.160  1.00  0.00     0.000 HD 
HETATM   12  C   UNL     1      -8.962   9.647  64.951  1.00  0.00    -0.260 A  
HETATM   13  O   UNL     1      -7.174   9.437  66.498  1.00  0.00    -0.087 OA 
HETATM   14  H   UNL     1      -6.873   8.667  66.029  1.00  0.00     0.000 HD 
HETATM   15  C   UNL     1     -10.087  10.342  64.502  1.00  0.00    -0.365 A  
ENDBRANCH   5   6
ENDBRANCH   3   5
TORSDOF 2
ENDMDL
MODEL      153
REMARK 921   NORMALIZED FREE ENERGY PREDICTED BY IDOCK:   -2.86 KCAL/MOL
REMARK 922        TOTAL FREE ENERGY PREDICTED BY IDOCK:   -3.26 KCAL/MOL
REMARK 923 INTER-LIGAND FREE ENERGY PREDICTED BY IDOCK:   -3.16 KCAL/MOL
REMARK 924 INTRA-LIGAND FREE ENERGY PREDICTED BY IDOCK:   -0.10 KCAL/MOL
REMARK 927      BINDING AFFINITY PREDICTED BY RF-SCORE:    0.00 PKD
ROOT
HETATM    1  N   UNL     1     -12.405   9.707  71.353  1.00  0.00    -0.352 NA 
HETATM    2  H2  UNL     1     -12.686   9.687  70.372  1.00  0.00     0.000 HD 
HETATM    3  C   UNL     1     -13.297   8.904  72.188  1.00  0.00    -0.440 C  
HETATM    4  H1  UNL     1     -12.339  10.662  71.708  1.00  0.00     0.000 HD 
ENDROOT
BRANCH   3   5
HETATM    5  C   UNL     1     -13.396   7.471  71.656  1.00  0.00    -0.414 C  
BRANCH   5   6
HETATM    6  C   UNL     1     -12.054   6.781  71.598  1.00  0.00    -0.404 A  
HETATM    7  C   UNL     1     -11.323   6.549  72.776  1.00  0.00    -0.221 A  
HETATM    8  C   UNL     1     -10.073   5.944  72.699  1.00  0.00    -0.179 A  
HETATM    9  O   UNL     1      -9.313   5.712  73.814  1.00  0.00    -0.136 OA 
HETATM   10  C   UNL     1      -9.550   5.558  71.469  1.00  0.00    -0.150 A  
HETATM   11  H   UNL     1      -8.459   5.298  73.762  1.00  0.00     0.000 HD 
HETATM   12  C   UNL     1     -10.266   5.757  70.299  1.00  0.00    -0.295 A  
HETATM   13  O   UNL     1      -8.313   4.984  71.404  1.00  0.00    -0.113 OA 
HETATM   14  H   UNL     1      -7.956   4.721  70.563  1.00  0.00     0.000 HD 
HETATM   15  C   UNL     1     -11.521   6.368  70.364  1.00  0.00    -0.458 A  
ENDBRANCH   5   6
ENDBRANCH   3   5
TORSDOF 2
ENDMDL
MODEL      154
REMARK 921   NORMALIZED FREE ENERGY PREDICTED BY IDOCK:   -2.85 KCAL/MOL
REMARK 922        TOTAL FREE ENERGY PREDICTED BY IDOCK:   -3.25 KCAL/MOL
REMARK 923 INTER-LIGAND FREE ENERGY PREDICTED BY IDOCK:   -3.18 KCAL/MOL
REMARK 924 INTRA-LIGAND FREE ENERGY PREDICTED BY IDOCK:   -0.08 KCAL/MOL
REMARK 927      BINDING AFFINITY PREDICTED BY RF-SCORE:    0.00 PKD
ROOT
HETATM    1  N   UNL     1     -10.540   5.979  66.142  1.00  0.00    -0.459 NA 
HETATM    2  H2  UNL     1     -10.926   6.744  65.587  1.00  0.00     0.000 HD 
HETATM    3  C   UNL     1      -9.463   6.438  67.019  1.00  0.00    -0.139 C  
HETATM    4  H1  UNL     1     -10.226   5.207  65.554  1.00  0.00     0.000 HD 
ENDROOT
BRANCH   3   5
HETATM    5  C   UNL     1      -9.935   7.596  67.901  1.00  0.00    -0.208 C  
BRANCH   5   6
HETATM    6  C   UNL     1      -9.972   8.911  67.160  1.00  0.00    -0.289 A  
HETATM    7  C   UNL     1     -10.940   9.879  67.477  1.00  0.00    -0.239 A  
HETATM    8  C   UNL     1     -10.981  11.070  66.760  1.00  0.00    -0.217 A  
HETATM    9  O   UNL     1     -11.915  12.037  67.018  1.00  0.00    -0.609 OA 
HETATM   10  C   UNL     1     -10.064  11.312  65.742  1.00  0.00    -0.247 A  
HETATM   11  H   UNL     1     -11.943  12.851  66.528  1.00  0.00     0.000 HD 
HETATM   12  C   UNL     1      -9.087  10.379  65.430  1.00  0.00    -0.221 A  
HETATM   13  O   UNL     1     -10.127  12.476  65.030  1.00  0.00    -0.313 OA 
HETATM   14  H   UNL     1      -9.501  12.640  64.334  1.00  0.00     0.000 HD 
HETATM   15  C   UNL     1      -9.039   9.178  66.141  1.00  0.00    -0.234 A  
ENDBRANCH   5   6
ENDBRANCH   3   5
TORSDOF 2
ENDMDL
MODEL      155
REMARK 921   NORMALIZED FREE ENERGY PREDICTED BY IDOCK:   -2.85 KCAL/MOL
REMARK 922        TOTAL FREE ENERGY PREDICTED BY IDOCK:   -3.25 KCAL/MOL
REMARK 923 INTER-LIGAND FREE ENERGY PREDICTED BY IDOCK:   -3.16 KCAL/MOL
REMARK 924 INTRA-LIGAND FREE ENERGY PREDICTED BY IDOCK:   -0.09 KCAL/MOL
REMARK 927      BINDING AFFINITY PREDICTED BY RF-SCORE:    0.00 PKD
ROOT
HETATM    1  N   UNL     1      -6.700  12.348  69.374  1.00  0.00    -0.261 NA 
HETATM    2  H2  UNL     1      -6.761  11.831  70.252  1.00  0.00     0.000 HD 
HETATM    3  C   UNL     1      -7.239  11.576  68.254  1.00  0.00    -0.084 C  
HETATM    4  H1  UNL     1      -5.746  12.651  69.180  1.00  0.00     0.000 HD 
ENDROOT
BRANCH   3   5
HETATM    5  C   UNL     1      -8.672  11.122  68.546  1.00  0.00    -0.161 C  
BRANCH   5   6
HETATM    6  C   UNL     1      -9.699  11.908  67.765  1.00  0.00    -0.189 A  
HETATM    7  C   UNL     1      -9.294  12.813  66.769  1.00  0.00    -0.241 A  
HETATM    8  C   UNL     1     -10.252  13.554  66.085  1.00  0.00    -0.302 A  
HETATM    9  O   UNL     1      -9.910  14.462  65.120  1.00  0.00    -0.529 OA 
HETATM   10  C   UNL     1     -11.604  13.395  66.372  1.00  0.00    -0.346 A  
HETATM   11  H   UNL     1     -10.564  14.968  64.652  1.00  0.00     0.000 HD 
HETATM   12  C   UNL     1     -12.024  12.489  67.334  1.00  0.00    -0.283 A  
HETATM   13  O   UNL     1     -12.535  14.142  65.708  1.00  0.00    -0.466 OA 
HETATM   14  H   UNL     1     -13.458  14.034  65.905  1.00  0.00     0.000 HD 
HETATM   15  C   UNL     1     -11.070  11.743  68.030  1.00  0.00    -0.297 A  
ENDBRANCH   5   6
ENDBRANCH   3   5
TORSDOF 2
ENDMDL
MODEL      156
REMARK 921   NORMALIZED FREE ENERGY PREDICTED BY IDOCK:   -2.85 KCAL/MOL
REMARK 922        TOTAL FREE ENERGY PREDICTED BY IDOCK:   -3.25 KCAL/MOL
REMARK 923 INTER-LIGAND FREE ENERGY PREDICTED BY IDOCK:   -3.20 KCAL/MOL
REMARK 924 INTRA-LIGAND FREE ENERGY PREDICTED BY IDOCK:   -0.05 KCAL/MOL
REMARK 927      BINDING AFFINITY PREDICTED BY RF-SCORE:    0.00 PKD
ROOT
HETATM    1  N   UNL     1      -8.555   8.146  69.987  1.00  0.00    -0.128 NA 
HETATM    2  H2  UNL     1      -9.104   7.286  69.995  1.00  0.00     0.000 HD 
HETATM    3  C   UNL     1      -8.771   8.915  68.762  1.00  0.00    -0.137 C  
HETATM    4  H1  UNL     1      -7.562   7.961  70.129  1.00  0.00     0.000 HD 
ENDROOT
BRANCH   3   5
HETATM    5  C   UNL     1     -10.262   9.193  68.550  1.00  0.00    -0.223 C  
BRANCH   5   6
HETATM    6  C   UNL     1     -10.523  10.062  67.342  1.00  0.00    -0.316 A  
HETATM    7  C   UNL     1     -10.037   9.687  66.078  1.00  0.00    -0.318 A  
HETATM    8  C   UNL     1     -10.256  10.517  64.984  1.00  0.00    -0.295 A  
HETATM    9  O   UNL     1      -9.788  10.206  63.736  1.00  0.00    -0.403 OA 
HETATM   10  C   UNL     1     -10.962  11.707  65.133  1.00  0.00    -0.266 A  
HETATM   11  H   UNL     1      -9.939  10.774  62.988  1.00  0.00     0.000 HD 
HETATM   12  C   UNL     1     -11.470  12.082  66.366  1.00  0.00    -0.417 A  
HETATM   13  O   UNL     1     -11.154  12.525  64.055  1.00  0.00    -0.337 OA 
HETATM   14  H   UNL     1     -11.636  13.337  64.157  1.00  0.00     0.000 HD 
HETATM   15  C   UNL     1     -11.252  11.257  67.473  1.00  0.00    -0.357 A  
ENDBRANCH   5   6
ENDBRANCH   3   5
TORSDOF 2
ENDMDL
MODEL      157
REMARK 921   NORMALIZED FREE ENERGY PREDICTED BY IDOCK:   -2.85 KCAL/MOL
REMARK 922        TOTAL FREE ENERGY PREDICTED BY IDOCK:   -3.25 KCAL/MOL
REMARK 923 INTER-LIGAND FREE ENERGY PREDICTED BY IDOCK:   -3.17 KCAL/MOL
REMARK 924 INTRA-LIGAND FREE ENERGY PREDICTED BY IDOCK:   -0.07 KCAL/MOL
REMARK 927      BINDING AFFINITY PREDICTED BY RF-SCORE:    0.00 PKD
ROOT
HETATM    1  N   UNL     1     -13.558  15.924  73.260  1.00  0.00    -0.708 NA 
HETATM    2  H2  UNL     1     -12.792  16.589  73.376  1.00  0.00     0.000 HD 
HETATM    3  C   UNL     1     -13.503  15.260  71.958  1.00  0.00    -0.448 C  
HETATM    4  H1  UNL     1     -14.466  16.365  73.404  1.00  0.00     0.000 HD 
ENDROOT
BRANCH   3   5
HETATM    5  C   UNL     1     -12.140  14.598  71.742  1.00  0.00    -0.391 C  
BRANCH   5   6
HETATM    6  C   UNL     1     -11.460  15.071  70.478  1.00  0.00    -0.333 A  
HETATM    7  C   UNL     1     -10.058  15.093  70.391  1.00  0.00     0.155 A  
HETATM    8  C   UNL     1      -9.450  15.565  69.233  1.00  0.00    -0.263 A  
HETATM    9  O   UNL     1      -8.088  15.625  69.104  1.00  0.00    -0.203 OA 
HETATM   10  C   UNL     1     -10.220  16.001  68.159  1.00  0.00    -0.243 A  
HETATM   11  H   UNL     1      -7.672  15.947  68.313  1.00  0.00     0.000 HD 
HETATM   12  C   UNL     1     -11.604  15.964  68.217  1.00  0.00    -0.274 A  
HETATM   13  O   UNL     1      -9.612  16.482  67.035  1.00  0.00    -0.233 OA 
HETATM   14  H   UNL     1     -10.138  16.780  66.302  1.00  0.00     0.000 HD 
HETATM   15  C   UNL     1     -12.226  15.496  69.377  1.00  0.00    -0.233 A  
ENDBRANCH   5   6
ENDBRANCH   3   5
TORSDOF 2
ENDMDL
MODEL      158
REMARK 921   NORMALIZED FREE ENERGY PREDICTED BY IDOCK:   -2.85 KCAL/MOL
REMARK 922        TOTAL FREE ENERGY PREDICTED BY IDOCK:   -3.25 KCAL/MOL
REMARK 923 INTER-LIGAND FREE ENERGY PREDICTED BY IDOCK:   -3.18 KCAL/MOL
REMARK 924 INTRA-LIGAND FREE ENERGY PREDICTED BY IDOCK:   -0.07 KCAL/MOL
REMARK 927      BINDING AFFINITY PREDICTED BY RF-SCORE:    0.00 PKD
ROOT
HETATM    1  N   UNL     1     -12.955   8.505  72.846  1.00  0.00    -0.694 NA 
HETATM    2  H2  UNL     1     -12.038   8.744  73.226  1.00  0.00     0.000 HD 
HETATM    3  C   UNL     1     -12.843   7.679  71.644  1.00  0.00    -0.349 C  
HETATM    4  H1  UNL     1     -13.516   9.337  72.663  1.00  0.00     0.000 HD 
ENDROOT
BRANCH   3   5
HETATM    5  C   UNL     1     -12.001   6.430  71.919  1.00  0.00    -0.381 C  
BRANCH   5   6
HETATM    6  C   UNL     1     -11.066   6.100  70.780  1.00  0.00    -0.375 A  
HETATM    7  C   UNL     1      -9.833   5.476  71.031  1.00  0.00    -0.238 A  
HETATM    8  C   UNL     1      -8.969   5.212  69.973  1.00  0.00    -0.122 A  
HETATM    9  O   UNL     1      -7.748   4.622  70.167  1.00  0.00    -0.053 OA 
HETATM   10  C   UNL     1      -9.324   5.550  68.671  1.00  0.00    -0.125 A  
HETATM   11  H   UNL     1      -7.158   4.442  69.444  1.00  0.00     0.000 HD 
HETATM   12  C   UNL     1     -10.547   6.144  68.401  1.00  0.00    -0.324 A  
HETATM   13  O   UNL     1      -8.460   5.305  67.643  1.00  0.00    -0.106 OA 
HETATM   14  H   UNL     1      -8.703   5.536  66.754  1.00  0.00     0.000 HD 
HETATM   15  C   UNL     1     -11.420   6.418  69.456  1.00  0.00    -0.412 A  
ENDBRANCH   5   6
ENDBRANCH   3   5
TORSDOF 2
ENDMDL
MODEL      159
REMARK 921   NORMALIZED FREE ENERGY PREDICTED BY IDOCK:   -2.84 KCAL/MOL
REMARK 922        TOTAL FREE ENERGY PREDICTED BY IDOCK:   -3.24 KCAL/MOL
REMARK 923 INTER-LIGAND FREE ENERGY PREDICTED BY IDOCK:   -3.15 KCAL/MOL
REMARK 924 INTRA-LIGAND FREE ENERGY PREDICTED BY IDOCK:   -0.08 KCAL/MOL
REMARK 927      BINDING AFFINITY PREDICTED BY RF-SCORE:    0.00 PKD
ROOT
HETATM    1  N   UNL     1     -12.151   8.138  72.032  1.00  0.00    -0.320 NA 
HETATM    2  H2  UNL     1     -12.692   7.841  71.220  1.00  0.00     0.000 HD 
HETATM    3  C   UNL     1     -11.198   9.194  71.689  1.00  0.00    -0.377 C  
HETATM    4  H1  UNL     1     -11.676   7.353  72.478  1.00  0.00     0.000 HD 
ENDROOT
BRANCH   3   5
HETATM    5  C   UNL     1     -11.911  10.373  71.021  1.00  0.00    -0.458 C  
BRANCH   5   6
HETATM    6  C   UNL     1     -11.341  10.698  69.660  1.00  0.00    -0.360 A  
HETATM    7  C   UNL     1     -10.135  10.113  69.237  1.00  0.00    -0.237 A  
HETATM    8  C   UNL     1      -9.608  10.451  67.995  1.00  0.00    -0.143 A  
HETATM    9  O   UNL     1      -8.428   9.924  67.543  1.00  0.00    -0.115 OA 
HETATM   10  C   UNL     1     -10.271  11.353  67.169  1.00  0.00    -0.202 A  
HETATM   11  H   UNL     1      -8.067  10.155  66.695  1.00  0.00     0.000 HD 
HETATM   12  C   UNL     1     -11.473  11.922  67.559  1.00  0.00    -0.396 A  
HETATM   13  O   UNL     1      -9.733  11.694  65.960  1.00  0.00    -0.219 OA 
HETATM   14  H   UNL     1     -10.187  12.310  65.396  1.00  0.00     0.000 HD 
HETATM   15  C   UNL     1     -12.010  11.592  68.806  1.00  0.00    -0.326 A  
ENDBRANCH   5   6
ENDBRANCH   3   5
TORSDOF 2
ENDMDL
MODEL      160
REMARK 921   NORMALIZED FREE ENERGY PREDICTED BY IDOCK:   -2.82 KCAL/MOL
REMARK 922        TOTAL FREE ENERGY PREDICTED BY IDOCK:   -3.22 KCAL/MOL
REMARK 923 INTER-LIGAND FREE ENERGY PREDICTED BY IDOCK:   -3.16 KCAL/MOL
REMARK 924 INTRA-LIGAND FREE ENERGY PREDICTED BY IDOCK:   -0.05 KCAL/MOL
REMARK 927      BINDING AFFINITY PREDICTED BY RF-SCORE:    0.00 PKD
ROOT
HETATM    1  N   UNL     1     -13.359  14.968  70.358  1.00  0.00    -0.658 NA 
HETATM    2  H2  UNL     1     -13.918  14.243  69.907  1.00  0.00     0.000 HD 
HETATM    3  C   UNL     1     -11.956  14.904  69.946  1.00  0.00    -0.330 C  
HETATM    4  H1  UNL     1     -13.440  14.930  71.374  1.00  0.00     0.000 HD 
ENDROOT
BRANCH   3   5
HETATM    5  C   UNL     1     -11.834  14.961  68.421  1.00  0.00    -0.309 C  
BRANCH   5   6
HETATM    6  C   UNL     1     -10.720  14.087  67.897  1.00  0.00    -0.246 A  
HETATM    7  C   UNL     1     -11.012  12.943  67.136  1.00  0.00    -0.290 A  
HETATM    8  C   UNL     1      -9.974  12.131  66.691  1.00  0.00    -0.206 A  
HETATM    9  O   UNL     1     -10.206  10.995  65.962  1.00  0.00    -0.237 OA 
HETATM   10  C   UNL     1      -8.652  12.452  66.984  1.00  0.00    -0.191 A  
HETATM   11  H   UNL     1      -9.497  10.441  65.658  1.00  0.00     0.000 HD 
HETATM   12  C   UNL     1      -8.343  13.589  67.713  1.00  0.00    -0.181 A  
HETATM   13  O   UNL     1      -7.642  11.636  66.560  1.00  0.00    -0.312 OA 
HETATM   14  H   UNL     1      -6.740  11.855  66.760  1.00  0.00     0.000 HD 
HETATM   15  C   UNL     1      -9.378  14.410  68.168  1.00  0.00    -0.203 A  
ENDBRANCH   5   6
ENDBRANCH   3   5
TORSDOF 2
ENDMDL
MODEL      161
REMARK 921   NORMALIZED FREE ENERGY PREDICTED BY IDOCK:   -2.81 KCAL/MOL
REMARK 922        TOTAL FREE ENERGY PREDICTED BY IDOCK:   -3.21 KCAL/MOL
REMARK 923 INTER-LIGAND FREE ENERGY PREDICTED BY IDOCK:   -3.14 KCAL/MOL
REMARK 924 INTRA-LIGAND FREE ENERGY PREDICTED BY IDOCK:   -0.07 KCAL/MOL
REMARK 927      BINDING AFFINITY PREDICTED BY RF-SCORE:    0.00 PKD
ROOT
HETATM    1  N   UNL     1     -12.924  11.197  71.817  1.00  0.00    -0.457 NA 
HETATM    2  H2  UNL     1     -13.318  11.272  70.879  1.00  0.00     0.000 HD 
HETATM    3  C   UNL     1     -13.274   9.926  72.451  1.00  0.00    -0.225 C  
HETATM    4  H1  UNL     1     -13.198  11.984  72.406  1.00  0.00     0.000 HD 
ENDROOT
BRANCH   3   5
HETATM    5  C   UNL     1     -12.862   8.746  71.567  1.00  0.00    -0.366 C  
BRANCH   5   6
HETATM    6  C   UNL     1     -11.691   7.979  72.134  1.00  0.00    -0.399 A  
HETATM    7  C   UNL     1     -10.473   8.629  72.392  1.00  0.00    -0.307 A  
HETATM    8  C   UNL     1      -9.395   7.899  72.881  1.00  0.00    -0.246 A  
HETATM    9  O   UNL     1      -8.182   8.482  73.132  1.00  0.00    -0.368 OA 
HETATM   10  C   UNL     1      -9.520   6.535  73.127  1.00  0.00    -0.145 A  
HETATM   11  H   UNL     1      -7.445   7.983  73.466  1.00  0.00     0.000 HD 
HETATM   12  C   UNL     1     -10.721   5.881  72.901  1.00  0.00    -0.281 A  
HETATM   13  O   UNL     1      -8.449   5.824  73.587  1.00  0.00    -0.117 OA 
HETATM   14  H   UNL     1      -8.535   4.893  73.755  1.00  0.00     0.000 HD 
HETATM   15  C   UNL     1     -11.809   6.604  72.406  1.00  0.00    -0.226 A  
ENDBRANCH   5   6
ENDBRANCH   3   5
TORSDOF 2
ENDMDL
MODEL      162
REMARK 921   NORMALIZED FREE ENERGY PREDICTED BY IDOCK:   -2.81 KCAL/MOL
REMARK 922        TOTAL FREE ENERGY PREDICTED BY IDOCK:   -3.21 KCAL/MOL
REMARK 923 INTER-LIGAND FREE ENERGY PREDICTED BY IDOCK:   -3.11 KCAL/MOL
REMARK 924 INTRA-LIGAND FREE ENERGY PREDICTED BY IDOCK:   -0.10 KCAL/MOL
REMARK 927      BINDING AFFINITY PREDICTED BY RF-SCORE:    0.00 PKD
ROOT
HETATM    1  N   UNL     1     -10.766  16.039  66.824  1.00  0.00    -0.298 NA 
HETATM    2  H2  UNL     1     -11.101  16.406  65.933  1.00  0.00     0.000 HD 
HETATM    3  C   UNL     1      -9.431  15.453  66.698  1.00  0.00    -0.259 C  
HETATM    4  H1  UNL     1     -11.420  15.368  67.227  1.00  0.00     0.000 HD 
ENDROOT
BRANCH   3   5
HETATM    5  C   UNL     1      -8.449  16.460  66.094  1.00  0.00    -0.329 C  
BRANCH   5   6
HETATM    6  C   UNL     1      -7.943  17.456  67.110  1.00  0.00    -0.226 A  
HETATM    7  C   UNL     1      -7.088  17.043  68.145  1.00  0.00    -0.178 A  
HETATM    8  C   UNL     1      -6.660  17.968  69.092  1.00  0.00    -0.253 A  
HETATM    9  O   UNL     1      -5.841  17.613  70.130  1.00  0.00    -0.247 OA 
HETATM   10  C   UNL     1      -7.064  19.297  69.012  1.00  0.00    -0.356 A  
HETATM   11  H   UNL     1      -5.549  18.245  70.777  1.00  0.00     0.000 HD 
HETATM   12  C   UNL     1      -7.888  19.728  67.985  1.00  0.00    -0.342 A  
HETATM   13  O   UNL     1      -6.655  20.192  69.960  1.00  0.00    -0.339 OA 
HETATM   14  H   UNL     1      -6.931  21.100  69.905  1.00  0.00     0.000 HD 
HETATM   15  C   UNL     1      -8.327  18.807  67.031  1.00  0.00    -0.280 A  
ENDBRANCH   5   6
ENDBRANCH   3   5
TORSDOF 2
ENDMDL
MODEL      163
REMARK 921   NORMALIZED FREE ENERGY PREDICTED BY IDOCK:   -2.81 KCAL/MOL
REMARK 922        TOTAL FREE ENERGY PREDICTED BY IDOCK:   -3.20 KCAL/MOL
REMARK 923 INTER-LIGAND FREE ENERGY PREDICTED BY IDOCK:   -3.11 KCAL/MOL
REMARK 924 INTRA-LIGAND FREE ENERGY PREDICTED BY IDOCK:   -0.09 KCAL/MOL
REMARK 927      BINDING AFFINITY PREDICTED BY RF-SCORE:    0.00 PKD
ROOT
HETATM    1  N   UNL     1      -6.570   7.999  73.160  1.00  0.00    -0.080 NA 
HETATM    2  H2  UNL     1      -6.120   7.145  72.829  1.00  0.00     0.000 HD 
HETATM    3  C   UNL     1      -7.057   8.819  72.052  1.00  0.00     0.000 C  
HETATM    4  H1  UNL     1      -5.954   8.539  73.768  1.00  0.00     0.000 HD 
ENDROOT
BRANCH   3   5
HETATM    5  C   UNL     1      -7.983   8.009  71.141  1.00  0.00    -0.095 C  
BRANCH   5   6
HETATM    6  C   UNL     1      -9.436   8.133  71.533  1.00  0.00    -0.222 A  
HETATM    7  C   UNL     1     -10.177   9.268  71.163  1.00  0.00    -0.387 A  
HETATM    8  C   UNL     1     -11.504   9.382  71.563  1.00  0.00    -0.397 A  
HETATM    9  O   UNL     1     -12.264  10.475  71.244  1.00  0.00    -0.357 OA 
HETATM   10  C   UNL     1     -12.102   8.375  72.315  1.00  0.00    -0.392 A  
HETATM   11  H   UNL     1     -13.171  10.552  71.518  1.00  0.00     0.000 HD 
HETATM   12  C   UNL     1     -11.395   7.238  72.670  1.00  0.00    -0.333 A  
HETATM   13  O   UNL     1     -13.400   8.507  72.721  1.00  0.00    -0.647 OA 
HETATM   14  H   UNL     1     -13.808   7.820  73.235  1.00  0.00     0.000 HD 
HETATM   15  C   UNL     1     -10.060   7.115  72.276  1.00  0.00    -0.202 A  
ENDBRANCH   5   6
ENDBRANCH   3   5
TORSDOF 2
ENDMDL
MODEL      164
REMARK 921   NORMALIZED FREE ENERGY PREDICTED BY IDOCK:   -2.80 KCAL/MOL
REMARK 922        TOTAL FREE ENERGY PREDICTED BY IDOCK:   -3.19 KCAL/MOL
REMARK 923 INTER-LIGAND FREE ENERGY PREDICTED BY IDOCK:   -3.11 KCAL/MOL
REMARK 924 INTRA-LIGAND FREE ENERGY PREDICTED BY IDOCK:   -0.08 KCAL/MOL
REMARK 927      BINDING AFFINITY PREDICTED BY RF-SCORE:    0.00 PKD
ROOT
HETATM    1  N   UNL     1      -5.942  10.914  71.173  1.00  0.00    -0.352 NA 
HETATM    2  H2  UNL     1      -6.633  11.601  71.476  1.00  0.00     0.000 HD 
HETATM    3  C   UNL     1      -6.535   9.588  71.003  1.00  0.00    -0.071 C  
HETATM    4  H1  UNL     1      -5.144  10.876  71.808  1.00  0.00     0.000 HD 
ENDROOT
BRANCH   3   5
HETATM    5  C   UNL     1      -7.732   9.646  70.050  1.00  0.00    -0.162 C  
BRANCH   5   6
HETATM    6  C   UNL     1      -8.918   8.862  70.561  1.00  0.00    -0.224 A  
HETATM    7  C   UNL     1      -9.771   8.197  69.663  1.00  0.00    -0.170 A  
HETATM    8  C   UNL     1     -10.877   7.510  70.149  1.00  0.00    -0.249 A  
HETATM    9  O   UNL     1     -11.749   6.862  69.316  1.00  0.00    -0.580 OA 
HETATM   10  C   UNL     1     -11.136   7.466  71.516  1.00  0.00    -0.239 A  
HETATM   11  H   UNL     1     -12.505   6.391  69.648  1.00  0.00     0.000 HD 
HETATM   12  C   UNL     1     -10.293   8.095  72.419  1.00  0.00    -0.382 A  
HETATM   13  O   UNL     1     -12.238   6.805  71.980  1.00  0.00    -0.362 OA 
HETATM   14  H   UNL     1     -12.415   6.776  72.914  1.00  0.00     0.000 HD 
HETATM   15  C   UNL     1      -9.181   8.792  71.941  1.00  0.00    -0.320 A  
ENDBRANCH   5   6
ENDBRANCH   3   5
TORSDOF 2
ENDMDL
MODEL      165
REMARK 921   NORMALIZED FREE ENERGY PREDICTED BY IDOCK:   -2.80 KCAL/MOL
REMARK 922        TOTAL FREE ENERGY PREDICTED BY IDOCK:   -3.19 KCAL/MOL
REMARK 923 INTER-LIGAND FREE ENERGY PREDICTED BY IDOCK:   -3.15 KCAL/MOL
REMARK 924 INTRA-LIGAND FREE ENERGY PREDICTED BY IDOCK:   -0.04 KCAL/MOL
REMARK 927      BINDING AFFINITY PREDICTED BY RF-SCORE:    0.00 PKD
ROOT
HETATM    1  N   UNL     1      -9.018  10.852  67.823  1.00  0.00    -0.137 NA 
HETATM    2  H2  UNL     1      -9.354  10.425  66.960  1.00  0.00     0.000 HD 
HETATM    3  C   UNL     1     -10.115  11.137  68.748  1.00  0.00    -0.201 C  
HETATM    4  H1  UNL     1      -8.470  11.694  67.640  1.00  0.00     0.000 HD 
ENDROOT
BRANCH   3   5
HETATM    5  C   UNL     1     -10.935   9.874  69.023  1.00  0.00    -0.223 C  
BRANCH   5   6
HETATM    6  C   UNL     1     -10.657   9.288  70.387  1.00  0.00    -0.298 A  
HETATM    7  C   UNL     1      -9.337   9.162  70.851  1.00  0.00    -0.335 A  
HETATM    8  C   UNL     1      -9.098   8.587  72.095  1.00  0.00    -0.249 A  
HETATM    9  O   UNL     1      -7.830   8.426  72.584  1.00  0.00    -0.211 OA 
HETATM   10  C   UNL     1     -10.156   8.149  72.884  1.00  0.00    -0.278 A  
HETATM   11  H   UNL     1      -7.666   8.033  73.434  1.00  0.00     0.000 HD 
HETATM   12  C   UNL     1     -11.467   8.286  72.454  1.00  0.00    -0.463 A  
HETATM   13  O   UNL     1      -9.909   7.567  74.095  1.00  0.00    -0.403 OA 
HETATM   14  H   UNL     1     -10.632   7.267  74.633  1.00  0.00     0.000 HD 
HETATM   15  C   UNL     1     -11.718   8.858  71.205  1.00  0.00    -0.356 A  
ENDBRANCH   5   6
ENDBRANCH   3   5
TORSDOF 2
ENDMDL
MODEL      166
REMARK 921   NORMALIZED FREE ENERGY PREDICTED BY IDOCK:   -2.78 KCAL/MOL
REMARK 922        TOTAL FREE ENERGY PREDICTED BY IDOCK:   -3.17 KCAL/MOL
REMARK 923 INTER-LIGAND FREE ENERGY PREDICTED BY IDOCK:   -3.12 KCAL/MOL
REMARK 924 INTRA-LIGAND FREE ENERGY PREDICTED BY IDOCK:   -0.04 KCAL/MOL
REMARK 927      BINDING AFFINITY PREDICTED BY RF-SCORE:    0.00 PKD
ROOT
HETATM    1  N   UNL     1      -7.033  12.515  69.702  1.00  0.00    -0.337 NA 
HETATM    2  H2  UNL     1      -7.540  11.964  70.395  1.00  0.00     0.000 HD 
HETATM    3  C   UNL     1      -7.396  12.135  68.337  1.00  0.00    -0.108 C  
HETATM    4  H1  UNL     1      -6.024  12.457  69.839  1.00  0.00     0.000 HD 
ENDROOT
BRANCH   3   5
HETATM    5  C   UNL     1      -8.910  12.223  68.132  1.00  0.00    -0.187 C  
BRANCH   5   6
HETATM    6  C   UNL     1      -9.324  13.479  67.404  1.00  0.00    -0.228 A  
HETATM    7  C   UNL     1     -10.624  13.604  66.885  1.00  0.00    -0.271 A  
HETATM    8  C   UNL     1     -10.977  14.754  66.186  1.00  0.00    -0.332 A  
HETATM    9  O   UNL     1     -12.224  14.917  65.645  1.00  0.00    -0.127 OA 
HETATM   10  C   UNL     1     -10.056  15.782  66.009  1.00  0.00    -0.337 A  
HETATM   11  H   UNL     1     -12.464  15.703  65.168  1.00  0.00     0.000 HD 
HETATM   12  C   UNL     1      -8.777  15.687  66.535  1.00  0.00    -0.342 A  
HETATM   13  O   UNL     1     -10.406  16.898  65.304  1.00  0.00    -0.624 OA 
HETATM   14  H   UNL     1      -9.777  17.599  65.183  1.00  0.00     0.000 HD 
HETATM   15  C   UNL     1      -8.411  14.535  67.235  1.00  0.00    -0.232 A  
ENDBRANCH   5   6
ENDBRANCH   3   5
TORSDOF 2
ENDMDL
MODEL      167
REMARK 921   NORMALIZED FREE ENERGY PREDICTED BY IDOCK:   -2.77 KCAL/MOL
REMARK 922        TOTAL FREE ENERGY PREDICTED BY IDOCK:   -3.16 KCAL/MOL
REMARK 923 INTER-LIGAND FREE ENERGY PREDICTED BY IDOCK:   -3.11 KCAL/MOL
REMARK 924 INTRA-LIGAND FREE ENERGY PREDICTED BY IDOCK:   -0.05 KCAL/MOL
REMARK 927      BINDING AFFINITY PREDICTED BY RF-SCORE:    0.00 PKD
ROOT
HETATM    1  N   UNL     1     -12.884  15.338  70.009  1.00  0.00    -0.643 NA 
HETATM    2  H2  UNL     1     -12.757  14.344  69.817  1.00  0.00     0.000 HD 
HETATM    3  C   UNL     1     -11.606  16.050  70.040  1.00  0.00    -0.312 C  
HETATM    4  H1  UNL     1     -13.406  15.493  70.872  1.00  0.00     0.000 HD 
ENDROOT
BRANCH   3   5
HETATM    5  C   UNL     1     -10.823  15.818  68.745  1.00  0.00    -0.274 C  
BRANCH   5   6
HETATM    6  C   UNL     1      -9.453  16.453  68.775  1.00  0.00    -0.247 A  
HETATM    7  C   UNL     1      -8.357  15.755  69.310  1.00  0.00    -0.249 A  
HETATM    8  C   UNL     1      -7.111  16.370  69.361  1.00  0.00    -0.190 A  
HETATM    9  O   UNL     1      -6.015  15.741  69.888  1.00  0.00    -0.152 OA 
HETATM   10  C   UNL     1      -6.942  17.663  68.876  1.00  0.00    -0.251 A  
HETATM   11  H   UNL     1      -5.164  16.161  69.923  1.00  0.00     0.000 HD 
HETATM   12  C   UNL     1      -8.005  18.359  68.322  1.00  0.00    -0.317 A  
HETATM   13  O   UNL     1      -5.718  18.265  68.950  1.00  0.00    -0.196 OA 
HETATM   14  H   UNL     1      -5.603  19.148  68.619  1.00  0.00     0.000 HD 
HETATM   15  C   UNL     1      -9.263  17.752  68.270  1.00  0.00    -0.280 A  
ENDBRANCH   5   6
ENDBRANCH   3   5
TORSDOF 2
ENDMDL
MODEL      168
REMARK 921   NORMALIZED FREE ENERGY PREDICTED BY IDOCK:   -2.76 KCAL/MOL
REMARK 922        TOTAL FREE ENERGY PREDICTED BY IDOCK:   -3.15 KCAL/MOL
REMARK 923 INTER-LIGAND FREE ENERGY PREDICTED BY IDOCK:   -3.07 KCAL/MOL
REMARK 924 INTRA-LIGAND FREE ENERGY PREDICTED BY IDOCK:   -0.08 KCAL/MOL
REMARK 927      BINDING AFFINITY PREDICTED BY RF-SCORE:    0.00 PKD
ROOT
HETATM    1  N   UNL     1     -11.126   5.121  65.585  1.00  0.00    -0.785 NA 
HETATM    2  H2  UNL     1     -11.959   5.239  66.162  1.00  0.00     0.000 HD 
HETATM    3  C   UNL     1      -9.899   5.325  66.356  1.00  0.00    -0.186 C  
HETATM    4  H1  UNL     1     -11.144   5.729  64.766  1.00  0.00     0.000 HD 
ENDROOT
BRANCH   3   5
HETATM    5  C   UNL     1      -9.872   4.412  67.584  1.00  0.00    -0.168 C  
BRANCH   5   6
HETATM    6  C   UNL     1      -9.896   5.185  68.881  1.00  0.00    -0.241 A  
HETATM    7  C   UNL     1     -10.760   6.282  69.039  1.00  0.00    -0.362 A  
HETATM    8  C   UNL     1     -10.743   7.004  70.227  1.00  0.00    -0.241 A  
HETATM    9  O   UNL     1     -11.551   8.091  70.424  1.00  0.00    -0.435 OA 
HETATM   10  C   UNL     1      -9.886   6.639  71.262  1.00  0.00    -0.177 A  
HETATM   11  H   UNL     1     -11.539   8.585  71.237  1.00  0.00     0.000 HD 
HETATM   12  C   UNL     1      -9.044   5.546  71.134  1.00  0.00    -0.159 A  
HETATM   13  O   UNL     1      -9.863   7.368  72.417  1.00  0.00    -0.159 OA 
HETATM   14  H   UNL     1      -9.278   7.119  73.123  1.00  0.00     0.000 HD 
HETATM   15  C   UNL     1      -9.050   4.816  69.943  1.00  0.00    -0.155 A  
ENDBRANCH   5   6
ENDBRANCH   3   5
TORSDOF 2
ENDMDL
MODEL      169
REMARK 921   NORMALIZED FREE ENERGY PREDICTED BY IDOCK:   -2.75 KCAL/MOL
REMARK 922        TOTAL FREE ENERGY PREDICTED BY IDOCK:   -3.14 KCAL/MOL
REMARK 923 INTER-LIGAND FREE ENERGY PREDICTED BY IDOCK:   -3.05 KCAL/MOL
REMARK 924 INTRA-LIGAND FREE ENERGY PREDICTED BY IDOCK:   -0.09 KCAL/MOL
REMARK 927      BINDING AFFINITY PREDICTED BY RF-SCORE:    0.00 PKD
ROOT
HETATM    1  N   UNL     1      -6.576   7.989  73.157  1.00  0.00    -0.080 NA 
HETATM    2  H2  UNL     1      -6.123   7.129  72.846  1.00  0.00     0.000 HD 
HETATM    3  C   UNL     1      -7.073   8.778  72.030  1.00  0.00     0.000 C  
HETATM    4  H1  UNL     1      -5.960   8.548  73.748  1.00  0.00     0.000 HD 
ENDROOT
BRANCH   3   5
HETATM    5  C   UNL     1      -7.998   7.939  71.145  1.00  0.00    -0.091 C  
BRANCH   5   6
HETATM    6  C   UNL     1      -9.451   8.075  71.533  1.00  0.00    -0.204 A  
HETATM    7  C   UNL     1     -10.185   6.949  71.943  1.00  0.00    -0.206 A  
HETATM    8  C   UNL     1     -11.532   7.087  72.263  1.00  0.00    -0.270 A  
HETATM    9  O   UNL     1     -12.296   6.019  72.650  1.00  0.00    -0.544 OA 
HETATM   10  C   UNL     1     -12.150   8.332  72.191  1.00  0.00    -0.367 A  
HETATM   11  H   UNL     1     -13.216   6.114  72.869  1.00  0.00     0.000 HD 
HETATM   12  C   UNL     1     -11.436   9.458  71.812  1.00  0.00    -0.413 A  
HETATM   13  O   UNL     1     -13.478   8.452  72.488  1.00  0.00    -0.568 OA 
HETATM   14  H   UNL     1     -13.899   9.302  72.438  1.00  0.00     0.000 HD 
HETATM   15  C   UNL     1     -10.084   9.330  71.485  1.00  0.00    -0.306 A  
ENDBRANCH   5   6
ENDBRANCH   3   5
TORSDOF 2
ENDMDL
MODEL      170
REMARK 921   NORMALIZED FREE ENERGY PREDICTED BY IDOCK:   -2.69 KCAL/MOL
REMARK 922        TOTAL FREE ENERGY PREDICTED BY IDOCK:   -3.07 KCAL/MOL
REMARK 923 INTER-LIGAND FREE ENERGY PREDICTED BY IDOCK:   -3.13 KCAL/MOL
REMARK 924 INTRA-LIGAND FREE ENERGY PREDICTED BY IDOCK:    0.06 KCAL/MOL
REMARK 927      BINDING AFFINITY PREDICTED BY RF-SCORE:    0.00 PKD
ROOT
HETATM    1  N   UNL     1     -11.183   9.688  70.088  1.00  0.00    -0.253 NA 
HETATM    2  H2  UNL     1     -10.242   9.934  70.396  1.00  0.00     0.000 HD 
HETATM    3  C   UNL     1     -12.158  10.714  70.458  1.00  0.00    -0.355 C  
HETATM    4  H1  UNL     1     -11.469   8.773  70.437  1.00  0.00     0.000 HD 
ENDROOT
BRANCH   3   5
HETATM    5  C   UNL     1     -11.730  12.087  69.933  1.00  0.00    -0.374 C  
BRANCH   5   6
HETATM    6  C   UNL     1     -11.095  12.011  68.565  1.00  0.00    -0.289 A  
HETATM    7  C   UNL     1      -9.716  12.230  68.408  1.00  0.00    -0.191 A  
HETATM    8  C   UNL     1      -9.156  12.192  67.135  1.00  0.00    -0.189 A  
HETATM    9  O   UNL     1      -7.821  12.416  66.926  1.00  0.00    -0.337 OA 
HETATM   10  C   UNL     1      -9.949  11.926  66.023  1.00  0.00    -0.232 A  
HETATM   11  H   UNL     1      -7.438  12.390  66.057  1.00  0.00     0.000 HD 
HETATM   12  C   UNL     1     -11.306  11.684  66.161  1.00  0.00    -0.275 A  
HETATM   13  O   UNL     1      -9.391  11.911  64.776  1.00  0.00    -0.424 OA 
HETATM   14  H   UNL     1      -9.933  11.730  64.017  1.00  0.00     0.000 HD 
HETATM   15  C   UNL     1     -11.880  11.724  67.433  1.00  0.00    -0.210 A  
ENDBRANCH   5   6
ENDBRANCH   3   5
TORSDOF 2
ENDMDL
MODEL      171
REMARK 921   NORMALIZED FREE ENERGY PREDICTED BY IDOCK:   -2.68 KCAL/MOL
REMARK 922        TOTAL FREE ENERGY PREDICTED BY IDOCK:   -3.06 KCAL/MOL
REMARK 923 INTER-LIGAND FREE ENERGY PREDICTED BY IDOCK:   -3.29 KCAL/MOL
REMARK 924 INTRA-LIGAND FREE ENERGY PREDICTED BY IDOCK:    0.24 KCAL/MOL
REMARK 927      BINDING AFFINITY PREDICTED BY RF-SCORE:    0.00 PKD
ROOT
HETATM    1  N   UNL     1     -10.441   8.342  68.955  1.00  0.00    -0.283 NA 
HETATM    2  H2  UNL     1      -9.426   8.346  69.054  1.00  0.00     0.000 HD 
HETATM    3  C   UNL     1     -11.066   9.405  69.742  1.00  0.00    -0.172 C  
HETATM    4  H1  UNL     1     -10.840   7.434  69.192  1.00  0.00     0.000 HD 
ENDROOT
BRANCH   3   5
HETATM    5  C   UNL     1     -10.468  10.769  69.386  1.00  0.00    -0.229 C  
BRANCH   5   6
HETATM    6  C   UNL     1     -10.515  11.053  67.903  1.00  0.00    -0.223 A  
HETATM    7  C   UNL     1     -11.579  11.789  67.354  1.00  0.00    -0.352 A  
HETATM    8  C   UNL     1     -11.624  12.010  65.982  1.00  0.00    -0.305 A  
HETATM    9  O   UNL     1     -12.647  12.705  65.395  1.00  0.00    -0.641 OA 
HETATM   10  C   UNL     1     -10.619  11.518  65.155  1.00  0.00    -0.293 A  
HETATM   11  H   UNL     1     -12.678  12.856  64.457  1.00  0.00     0.000 HD 
HETATM   12  C   UNL     1      -9.549  10.811  65.680  1.00  0.00    -0.263 A  
HETATM   13  O   UNL     1     -10.684  11.724  63.806  1.00  0.00    -0.340 OA 
HETATM   14  H   UNL     1      -9.998  11.388  63.241  1.00  0.00     0.000 HD 
HETATM   15  C   UNL     1      -9.496  10.579  67.057  1.00  0.00    -0.188 A  
ENDBRANCH   5   6
ENDBRANCH   3   5
TORSDOF 2
ENDMDL
MODEL      172
REMARK 921   NORMALIZED FREE ENERGY PREDICTED BY IDOCK:   -2.67 KCAL/MOL
REMARK 922        TOTAL FREE ENERGY PREDICTED BY IDOCK:   -3.04 KCAL/MOL
REMARK 923 INTER-LIGAND FREE ENERGY PREDICTED BY IDOCK:   -2.97 KCAL/MOL
REMARK 924 INTRA-LIGAND FREE ENERGY PREDICTED BY IDOCK:   -0.07 KCAL/MOL
REMARK 927      BINDING AFFINITY PREDICTED BY RF-SCORE:    0.00 PKD
ROOT
HETATM    1  N   UNL     1      -6.502  10.730  68.304  1.00  0.00    -0.057 NA 
HETATM    2  H2  UNL     1      -6.364   9.778  67.965  1.00  0.00     0.000 HD 
HETATM    3  C   UNL     1      -7.758  10.865  69.041  1.00  0.00    -0.135 C  
HETATM    4  H1  UNL     1      -6.450  11.412  67.547  1.00  0.00     0.000 HD 
ENDROOT
BRANCH   3   5
HETATM    5  C   UNL     1      -7.834   9.842  70.178  1.00  0.00    -0.186 C  
BRANCH   5   6
HETATM    6  C   UNL     1      -9.250   9.404  70.468  1.00  0.00    -0.314 A  
HETATM    7  C   UNL     1     -10.337  10.091  69.901  1.00  0.00    -0.315 A  
HETATM    8  C   UNL     1     -11.634   9.695  70.208  1.00  0.00    -0.198 A  
HETATM    9  O   UNL     1     -12.727  10.341  69.697  1.00  0.00    -0.599 OA 
HETATM   10  C   UNL     1     -11.860   8.618  71.060  1.00  0.00    -0.265 A  
HETATM   11  H   UNL     1     -13.614  10.071  69.907  1.00  0.00     0.000 HD 
HETATM   12  C   UNL     1     -10.801   7.913  71.610  1.00  0.00    -0.275 A  
HETATM   13  O   UNL     1     -13.138   8.251  71.371  1.00  0.00    -0.411 OA 
HETATM   14  H   UNL     1     -13.292   7.516  71.953  1.00  0.00     0.000 HD 
HETATM   15  C   UNL     1      -9.493   8.305  71.311  1.00  0.00    -0.219 A  
ENDBRANCH   5   6
ENDBRANCH   3   5
TORSDOF 2
ENDMDL
MODEL      173
REMARK 921   NORMALIZED FREE ENERGY PREDICTED BY IDOCK:   -2.66 KCAL/MOL
REMARK 922        TOTAL FREE ENERGY PREDICTED BY IDOCK:   -3.04 KCAL/MOL
REMARK 923 INTER-LIGAND FREE ENERGY PREDICTED BY IDOCK:   -2.95 KCAL/MOL
REMARK 924 INTRA-LIGAND FREE ENERGY PREDICTED BY IDOCK:   -0.08 KCAL/MOL
REMARK 927      BINDING AFFINITY PREDICTED BY RF-SCORE:    0.00 PKD
ROOT
HETATM    1  N   UNL     1      -7.071  10.091  70.832  1.00  0.00    -0.344 NA 
HETATM    2  H2  UNL     1      -6.902   9.131  70.531  1.00  0.00     0.000 HD 
HETATM    3  C   UNL     1      -6.795  11.049  69.762  1.00  0.00    -0.116 C  
HETATM    4  H1  UNL     1      -6.541  10.323  71.672  1.00  0.00     0.000 HD 
ENDROOT
BRANCH   3   5
HETATM    5  C   UNL     1      -7.591  10.701  68.501  1.00  0.00    -0.097 C  
BRANCH   5   6
HETATM    6  C   UNL     1      -8.864  11.506  68.379  1.00  0.00    -0.163 A  
HETATM    7  C   UNL     1     -10.114  10.891  68.562  1.00  0.00    -0.193 A  
HETATM    8  C   UNL     1     -11.276  11.640  68.410  1.00  0.00    -0.249 A  
HETATM    9  O   UNL     1     -12.518  11.084  68.560  1.00  0.00    -0.713 OA 
HETATM   10  C   UNL     1     -11.207  12.992  68.092  1.00  0.00    -0.272 A  
HETATM   11  H   UNL     1     -13.312  11.596  68.457  1.00  0.00     0.000 HD 
HETATM   12  C   UNL     1      -9.983  13.622  67.932  1.00  0.00    -0.244 A  
HETATM   13  O   UNL     1     -12.355  13.713  67.926  1.00  0.00    -0.367 OA 
HETATM   14  H   UNL     1     -12.307  14.637  67.708  1.00  0.00     0.000 HD 
HETATM   15  C   UNL     1      -8.809  12.879  68.078  1.00  0.00    -0.195 A  
ENDBRANCH   5   6
ENDBRANCH   3   5
TORSDOF 2
ENDMDL
MODEL      174
REMARK 921   NORMALIZED FREE ENERGY PREDICTED BY IDOCK:   -2.65 KCAL/MOL
REMARK 922        TOTAL FREE ENERGY PREDICTED BY IDOCK:   -3.03 KCAL/MOL
REMARK 923 INTER-LIGAND FREE ENERGY PREDICTED BY IDOCK:   -2.96 KCAL/MOL
REMARK 924 INTRA-LIGAND FREE ENERGY PREDICTED BY IDOCK:   -0.06 KCAL/MOL
REMARK 927      BINDING AFFINITY PREDICTED BY RF-SCORE:    0.00 PKD
ROOT
HETATM    1  N   UNL     1      -7.065   7.791  70.097  1.00  0.00    -0.053 NA 
HETATM    2  H2  UNL     1      -6.305   8.353  69.714  1.00  0.00     0.000 HD 
HETATM    3  C   UNL     1      -8.374   8.301  69.687  1.00  0.00    -0.123 C  
HETATM    4  H1  UNL     1      -7.007   7.718  71.113  1.00  0.00     0.000 HD 
ENDROOT
BRANCH   3   5
HETATM    5  C   UNL     1      -8.461   8.410  68.162  1.00  0.00    -0.132 C  
BRANCH   5   6
HETATM    6  C   UNL     1      -9.421   9.487  67.713  1.00  0.00    -0.151 A  
HETATM    7  C   UNL     1     -10.504   9.858  68.527  1.00  0.00    -0.232 A  
HETATM    8  C   UNL     1     -11.398  10.826  68.081  1.00  0.00    -0.308 A  
HETATM    9  O   UNL     1     -12.479  11.210  68.828  1.00  0.00    -0.619 OA 
HETATM   10  C   UNL     1     -11.218  11.435  66.843  1.00  0.00    -0.264 A  
HETATM   11  H   UNL     1     -13.090  11.872  68.523  1.00  0.00     0.000 HD 
HETATM   12  C   UNL     1     -10.142  11.100  66.037  1.00  0.00    -0.292 A  
HETATM   13  O   UNL     1     -12.113  12.370  66.406  1.00  0.00    -0.607 OA 
HETATM   14  H   UNL     1     -11.990  12.785  65.561  1.00  0.00     0.000 HD 
HETATM   15  C   UNL     1      -9.240  10.126  66.473  1.00  0.00    -0.182 A  
ENDBRANCH   5   6
ENDBRANCH   3   5
TORSDOF 2
ENDMDL
MODEL      175
REMARK 921   NORMALIZED FREE ENERGY PREDICTED BY IDOCK:   -2.64 KCAL/MOL
REMARK 922        TOTAL FREE ENERGY PREDICTED BY IDOCK:   -3.01 KCAL/MOL
REMARK 923 INTER-LIGAND FREE ENERGY PREDICTED BY IDOCK:   -2.91 KCAL/MOL
REMARK 924 INTRA-LIGAND FREE ENERGY PREDICTED BY IDOCK:   -0.09 KCAL/MOL
REMARK 927      BINDING AFFINITY PREDICTED BY RF-SCORE:    0.00 PKD
ROOT
HETATM    1  N   UNL     1      -9.749   6.993  67.014  1.00  0.00    -0.157 NA 
HETATM    2  H2  UNL     1      -9.928   6.376  67.807  1.00  0.00     0.000 HD 
HETATM    3  C   UNL     1      -9.930   8.400  67.372  1.00  0.00    -0.212 C  
HETATM    4  H1  UNL     1     -10.322   6.748  66.207  1.00  0.00     0.000 HD 
ENDROOT
BRANCH   3   5
HETATM    5  C   UNL     1      -9.068   8.768  68.582  1.00  0.00    -0.141 C  
BRANCH   5   6
HETATM    6  C   UNL     1      -9.733   8.422  69.893  1.00  0.00    -0.179 A  
HETATM    7  C   UNL     1     -10.836   9.164  70.349  1.00  0.00    -0.285 A  
HETATM    8  C   UNL     1     -11.414   8.853  71.575  1.00  0.00    -0.321 A  
HETATM    9  O   UNL     1     -12.478   9.556  72.072  1.00  0.00    -0.371 OA 
HETATM   10  C   UNL     1     -10.914   7.806  72.344  1.00  0.00    -0.311 A  
HETATM   11  H   UNL     1     -12.872   9.343  72.910  1.00  0.00     0.000 HD 
HETATM   12  C   UNL     1      -9.842   7.048  71.901  1.00  0.00    -0.173 A  
HETATM   13  O   UNL     1     -11.476   7.523  73.557  1.00  0.00    -0.608 OA 
HETATM   14  H   UNL     1     -11.134   6.808  74.082  1.00  0.00     0.000 HD 
HETATM   15  C   UNL     1      -9.252   7.354  70.673  1.00  0.00    -0.157 A  
ENDBRANCH   5   6
ENDBRANCH   3   5
TORSDOF 2
ENDMDL
MODEL      176
REMARK 921   NORMALIZED FREE ENERGY PREDICTED BY IDOCK:   -2.63 KCAL/MOL
REMARK 922        TOTAL FREE ENERGY PREDICTED BY IDOCK:   -3.01 KCAL/MOL
REMARK 923 INTER-LIGAND FREE ENERGY PREDICTED BY IDOCK:   -3.14 KCAL/MOL
REMARK 924 INTRA-LIGAND FREE ENERGY PREDICTED BY IDOCK:    0.13 KCAL/MOL
REMARK 927      BINDING AFFINITY PREDICTED BY RF-SCORE:    0.00 PKD
ROOT
HETATM    1  N   UNL     1      -6.988   9.864  70.858  1.00  0.00    -0.334 NA 
HETATM    2  H2  UNL     1      -7.900  10.307  70.976  1.00  0.00     0.000 HD 
HETATM    3  C   UNL     1      -6.911   8.588  71.569  1.00  0.00    -0.079 C  
HETATM    4  H1  UNL     1      -6.229  10.484  71.142  1.00  0.00     0.000 HD 
ENDROOT
BRANCH   3   5
HETATM    5  C   UNL     1      -8.050   7.659  71.143  1.00  0.00    -0.098 C  
BRANCH   5   6
HETATM    6  C   UNL     1      -9.311   8.412  70.790  1.00  0.00    -0.191 A  
HETATM    7  C   UNL     1      -9.638   8.660  69.447  1.00  0.00    -0.166 A  
HETATM    8  C   UNL     1     -10.785   9.386  69.142  1.00  0.00    -0.197 A  
HETATM    9  O   UNL     1     -11.139   9.671  67.851  1.00  0.00    -0.488 OA 
HETATM   10  C   UNL     1     -11.612   9.856  70.158  1.00  0.00    -0.218 A  
HETATM   11  H   UNL     1     -11.922  10.167  67.643  1.00  0.00     0.000 HD 
HETATM   12  C   UNL     1     -11.319   9.601  71.488  1.00  0.00    -0.420 A  
HETATM   13  O   UNL     1     -12.725  10.586  69.848  1.00  0.00    -0.533 OA 
HETATM   14  H   UNL     1     -13.290  10.906  70.542  1.00  0.00     0.000 HD 
HETATM   15  C   UNL     1     -10.168   8.876  71.805  1.00  0.00    -0.414 A  
ENDBRANCH   5   6
ENDBRANCH   3   5
TORSDOF 2
ENDMDL
MODEL      177
REMARK 921   NORMALIZED FREE ENERGY PREDICTED BY IDOCK:   -2.62 KCAL/MOL
REMARK 922        TOTAL FREE ENERGY PREDICTED BY IDOCK:   -2.99 KCAL/MOL
REMARK 923 INTER-LIGAND FREE ENERGY PREDICTED BY IDOCK:   -3.04 KCAL/MOL
REMARK 924 INTRA-LIGAND FREE ENERGY PREDICTED BY IDOCK:    0.05 KCAL/MOL
REMARK 927      BINDING AFFINITY PREDICTED BY RF-SCORE:    0.00 PKD
ROOT
HETATM    1  N   UNL     1     -11.245  11.455  69.910  1.00  0.00    -0.462 NA 
HETATM    2  H2  UNL     1     -11.916  11.761  70.614  1.00  0.00     0.000 HD 
HETATM    3  C   UNL     1     -11.786  11.581  68.556  1.00  0.00    -0.297 C  
HETATM    4  H1  UNL     1     -10.923  10.503  70.084  1.00  0.00     0.000 HD 
ENDROOT
BRANCH   3   5
HETATM    5  C   UNL     1     -12.270  13.010  68.295  1.00  0.00    -0.033 C  
BRANCH   5   6
HETATM    6  C   UNL     1     -11.208  13.872  67.655  1.00  0.00    -0.316 A  
HETATM    7  C   UNL     1      -9.863  13.467  67.663  1.00  0.00    -0.226 A  
HETATM    8  C   UNL     1      -8.894  14.291  67.099  1.00  0.00    -0.229 A  
HETATM    9  O   UNL     1      -7.568  13.950  67.097  1.00  0.00    -0.347 OA 
HETATM   10  C   UNL     1      -9.251  15.504  66.519  1.00  0.00    -0.293 A  
HETATM   11  H   UNL     1      -6.906  14.513  66.712  1.00  0.00     0.000 HD 
HETATM   12  C   UNL     1     -10.576  15.910  66.480  1.00  0.00    -0.297 A  
HETATM   13  O   UNL     1      -8.289  16.315  65.987  1.00  0.00    -0.296 OA 
HETATM   14  H   UNL     1      -8.533  17.143  65.591  1.00  0.00     0.000 HD 
HETATM   15  C   UNL     1     -11.556  15.092  67.047  1.00  0.00    -0.248 A  
ENDBRANCH   5   6
ENDBRANCH   3   5
TORSDOF 2
ENDMDL
MODEL      178
REMARK 921   NORMALIZED FREE ENERGY PREDICTED BY IDOCK:   -2.59 KCAL/MOL
REMARK 922        TOTAL FREE ENERGY PREDICTED BY IDOCK:   -2.96 KCAL/MOL
REMARK 923 INTER-LIGAND FREE ENERGY PREDICTED BY IDOCK:   -2.89 KCAL/MOL
REMARK 924 INTRA-LIGAND FREE ENERGY PREDICTED BY IDOCK:   -0.06 KCAL/MOL
REMARK 927      BINDING AFFINITY PREDICTED BY RF-SCORE:    0.00 PKD
ROOT
HETATM    1  N   UNL     1     -10.255   5.433  65.490  1.00  0.00    -0.379 NA 
HETATM    2  H2  UNL     1      -9.613   5.674  64.734  1.00  0.00     0.000 HD 
HETATM    3  C   UNL     1      -9.922   6.138  66.728  1.00  0.00    -0.172 C  
HETATM    4  H1  UNL     1     -10.293   4.425  65.646  1.00  0.00     0.000 HD 
ENDROOT
BRANCH   3   5
HETATM    5  C   UNL     1      -9.866   7.650  66.493  1.00  0.00    -0.242 C  
BRANCH   5   6
HETATM    6  C   UNL     1     -10.328   8.440  67.695  1.00  0.00    -0.317 A  
HETATM    7  C   UNL     1     -10.190   7.910  68.989  1.00  0.00    -0.216 A  
HETATM    8  C   UNL     1     -10.653   8.637  70.081  1.00  0.00    -0.225 A  
HETATM    9  O   UNL     1     -10.559   8.158  71.360  1.00  0.00    -0.212 OA 
HETATM   10  C   UNL     1     -11.239   9.886  69.900  1.00  0.00    -0.250 A  
HETATM   11  H   UNL     1     -10.875   8.655  72.106  1.00  0.00     0.000 HD 
HETATM   12  C   UNL     1     -11.362  10.435  68.633  1.00  0.00    -0.277 A  
HETATM   13  O   UNL     1     -11.709  10.581  70.977  1.00  0.00    -0.338 OA 
HETATM   14  H   UNL     1     -12.110  11.434  70.853  1.00  0.00     0.000 HD 
HETATM   15  C   UNL     1     -10.904   9.712  67.529  1.00  0.00    -0.265 A  
ENDBRANCH   5   6
ENDBRANCH   3   5
TORSDOF 2
ENDMDL
MODEL      179
REMARK 921   NORMALIZED FREE ENERGY PREDICTED BY IDOCK:   -2.57 KCAL/MOL
REMARK 922        TOTAL FREE ENERGY PREDICTED BY IDOCK:   -2.94 KCAL/MOL
REMARK 923 INTER-LIGAND FREE ENERGY PREDICTED BY IDOCK:   -2.86 KCAL/MOL
REMARK 924 INTRA-LIGAND FREE ENERGY PREDICTED BY IDOCK:   -0.07 KCAL/MOL
REMARK 927      BINDING AFFINITY PREDICTED BY RF-SCORE:    0.00 PKD
ROOT
HETATM    1  N   UNL     1     -13.665   9.446  70.924  1.00  0.00    -0.551 NA 
HETATM    2  H2  UNL     1     -14.124   8.602  71.265  1.00  0.00     0.000 HD 
HETATM    3  C   UNL     1     -12.275   9.527  71.375  1.00  0.00    -0.371 C  
HETATM    4  H1  UNL     1     -14.179  10.288  71.184  1.00  0.00     0.000 HD 
ENDROOT
BRANCH   3   5
HETATM    5  C   UNL     1     -11.503   8.264  70.983  1.00  0.00    -0.303 C  
BRANCH   5   6
HETATM    6  C   UNL     1     -10.871   8.373  69.615  1.00  0.00    -0.153 A  
HETATM    7  C   UNL     1     -10.667   9.632  69.025  1.00  0.00    -0.232 A  
HETATM    8  C   UNL     1     -10.116   9.711  67.751  1.00  0.00    -0.187 A  
HETATM    9  O   UNL     1      -9.913  10.911  67.124  1.00  0.00    -0.181 OA 
HETATM   10  C   UNL     1      -9.756   8.555  67.065  1.00  0.00    -0.204 A  
HETATM   11  H   UNL     1      -9.536  10.965  66.253  1.00  0.00     0.000 HD 
HETATM   12  C   UNL     1      -9.928   7.305  67.640  1.00  0.00    -0.207 A  
HETATM   13  O   UNL     1      -9.235   8.643  65.805  1.00  0.00    -0.258 OA 
HETATM   14  H   UNL     1      -8.990   7.853  65.337  1.00  0.00     0.000 HD 
HETATM   15  C   UNL     1     -10.484   7.214  68.918  1.00  0.00    -0.218 A  
ENDBRANCH   5   6
ENDBRANCH   3   5
TORSDOF 2
ENDMDL
MODEL      180
REMARK 921   NORMALIZED FREE ENERGY PREDICTED BY IDOCK:   -2.57 KCAL/MOL
REMARK 922        TOTAL FREE ENERGY PREDICTED BY IDOCK:   -2.93 KCAL/MOL
REMARK 923 INTER-LIGAND FREE ENERGY PREDICTED BY IDOCK:   -2.84 KCAL/MOL
REMARK 924 INTRA-LIGAND FREE ENERGY PREDICTED BY IDOCK:   -0.09 KCAL/MOL
REMARK 927      BINDING AFFINITY PREDICTED BY RF-SCORE:    0.00 PKD
ROOT
HETATM    1  N   UNL     1      -6.937  13.541  69.261  1.00  0.00    -0.262 NA 
HETATM    2  H2  UNL     1      -7.755  13.809  69.809  1.00  0.00     0.000 HD 
HETATM    3  C   UNL     1      -7.112  12.232  68.633  1.00  0.00    -0.103 C  
HETATM    4  H1  UNL     1      -6.084  13.564  69.820  1.00  0.00     0.000 HD 
ENDROOT
BRANCH   3   5
HETATM    5  C   UNL     1      -8.393  12.198  67.794  1.00  0.00    -0.159 C  
BRANCH   5   6
HETATM    6  C   UNL     1      -9.559  11.598  68.542  1.00  0.00    -0.181 A  
HETATM    7  C   UNL     1      -9.492  10.279  69.024  1.00  0.00    -0.206 A  
HETATM    8  C   UNL     1     -10.590   9.731  69.680  1.00  0.00    -0.239 A  
HETATM    9  O   UNL     1     -10.582   8.446  70.151  1.00  0.00    -0.224 OA 
HETATM   10  C   UNL     1     -11.744  10.484  69.871  1.00  0.00    -0.294 A  
HETATM   11  H   UNL     1     -11.332   8.072  70.600  1.00  0.00     0.000 HD 
HETATM   12  C   UNL     1     -11.821  11.794  69.425  1.00  0.00    -0.398 A  
HETATM   13  O   UNL     1     -12.824   9.929  70.499  1.00  0.00    -0.536 OA 
HETATM   14  H   UNL     1     -13.612  10.443  70.629  1.00  0.00     0.000 HD 
HETATM   15  C   UNL     1     -10.726  12.353  68.762  1.00  0.00    -0.242 A  
ENDBRANCH   5   6
ENDBRANCH   3   5
TORSDOF 2
ENDMDL
MODEL      181
REMARK 921   NORMALIZED FREE ENERGY PREDICTED BY IDOCK:   -2.56 KCAL/MOL
REMARK 922        TOTAL FREE ENERGY PREDICTED BY IDOCK:   -2.93 KCAL/MOL
REMARK 923 INTER-LIGAND FREE ENERGY PREDICTED BY IDOCK:   -2.86 KCAL/MOL
REMARK 924 INTRA-LIGAND FREE ENERGY PREDICTED BY IDOCK:   -0.07 KCAL/MOL
REMARK 927      BINDING AFFINITY PREDICTED BY RF-SCORE:    0.00 PKD
ROOT
HETATM    1  N   UNL     1      -8.537  13.614  68.675  1.00  0.00    -0.338 NA 
HETATM    2  H2  UNL     1      -9.240  14.079  68.100  1.00  0.00     0.000 HD 
HETATM    3  C   UNL     1      -7.272  14.348  68.681  1.00  0.00    -0.123 C  
HETATM    4  H1  UNL     1      -8.392  12.646  68.385  1.00  0.00     0.000 HD 
ENDROOT
BRANCH   3   5
HETATM    5  C   UNL     1      -7.489  15.800  69.115  1.00  0.00    -0.207 C  
BRANCH   5   6
HETATM    6  C   UNL     1      -7.258  16.782  67.991  1.00  0.00    -0.163 A  
HETATM    7  C   UNL     1      -8.271  17.680  67.613  1.00  0.00    -0.225 A  
HETATM    8  C   UNL     1      -8.053  18.553  66.552  1.00  0.00    -0.280 A  
HETATM    9  O   UNL     1      -9.013  19.435  66.133  1.00  0.00    -0.355 OA 
HETATM   10  C   UNL     1      -6.839  18.548  65.873  1.00  0.00    -0.283 A  
HETATM   11  H   UNL     1      -8.865  20.031  65.408  1.00  0.00     0.000 HD 
HETATM   12  C   UNL     1      -5.820  17.686  66.246  1.00  0.00    -0.252 A  
HETATM   13  O   UNL     1      -6.644  19.395  64.819  1.00  0.00    -0.430 OA 
HETATM   14  H   UNL     1      -5.815  19.392  64.355  1.00  0.00     0.000 HD 
HETATM   15  C   UNL     1      -6.029  16.803  67.308  1.00  0.00    -0.200 A  
ENDBRANCH   5   6
ENDBRANCH   3   5
TORSDOF 2
ENDMDL
MODEL      182
REMARK 921   NORMALIZED FREE ENERGY PREDICTED BY IDOCK:   -2.55 KCAL/MOL
REMARK 922        TOTAL FREE ENERGY PREDICTED BY IDOCK:   -2.92 KCAL/MOL
REMARK 923 INTER-LIGAND FREE ENERGY PREDICTED BY IDOCK:   -2.93 KCAL/MOL
REMARK 924 INTRA-LIGAND FREE ENERGY PREDICTED BY IDOCK:    0.02 KCAL/MOL
REMARK 927      BINDING AFFINITY PREDICTED BY RF-SCORE:    0.00 PKD
ROOT
HETATM    1  N   UNL     1     -10.471  16.384  65.137  1.00  0.00    -0.657 NA 
HETATM    2  H2  UNL     1      -9.655  16.168  65.710  1.00  0.00     0.000 HD 
HETATM    3  C   UNL     1     -11.299  15.200  64.906  1.00  0.00    -0.399 C  
HETATM    4  H1  UNL     1     -10.208  16.820  64.253  1.00  0.00     0.000 HD 
ENDROOT
BRANCH   3   5
HETATM    5  C   UNL     1     -11.695  14.547  66.232  1.00  0.00    -0.364 C  
BRANCH   5   6
HETATM    6  C   UNL     1     -10.551  13.796  66.872  1.00  0.00    -0.276 A  
HETATM    7  C   UNL     1     -10.336  12.440  66.574  1.00  0.00    -0.248 A  
HETATM    8  C   UNL     1      -9.299  11.756  67.200  1.00  0.00    -0.177 A  
HETATM    9  O   UNL     1      -9.059  10.430  66.959  1.00  0.00    -0.139 OA 
HETATM   10  C   UNL     1      -8.470  12.409  68.107  1.00  0.00    -0.180 A  
HETATM   11  H   UNL     1      -8.350   9.962  67.386  1.00  0.00     0.000 HD 
HETATM   12  C   UNL     1      -8.652  13.752  68.395  1.00  0.00    -0.156 A  
HETATM   13  O   UNL     1      -7.468  11.722  68.731  1.00  0.00    -0.116 OA 
HETATM   14  H   UNL     1      -6.902  12.168  69.351  1.00  0.00     0.000 HD 
HETATM   15  C   UNL     1      -9.692  14.448  67.776  1.00  0.00    -0.221 A  
ENDBRANCH   5   6
ENDBRANCH   3   5
TORSDOF 2
ENDMDL
MODEL      183
REMARK 921   NORMALIZED FREE ENERGY PREDICTED BY IDOCK:   -2.54 KCAL/MOL
REMARK 922        TOTAL FREE ENERGY PREDICTED BY IDOCK:   -2.90 KCAL/MOL
REMARK 923 INTER-LIGAND FREE ENERGY PREDICTED BY IDOCK:   -2.82 KCAL/MOL
REMARK 924 INTRA-LIGAND FREE ENERGY PREDICTED BY IDOCK:   -0.08 KCAL/MOL
REMARK 927      BINDING AFFINITY PREDICTED BY RF-SCORE:    0.00 PKD
ROOT
HETATM    1  N   UNL     1      -6.205   4.339  70.743  1.00  0.00    -0.018 NA 
HETATM    2  H2  UNL     1      -6.346   5.220  70.248  1.00  0.00     0.000 HD 
HETATM    3  C   UNL     1      -7.354   4.003  71.585  1.00  0.00    -0.058 C  
HETATM    4  H1  UNL     1      -5.345   4.347  71.292  1.00  0.00     0.000 HD 
ENDROOT
BRANCH   3   5
HETATM    5  C   UNL     1      -8.645   3.990  70.762  1.00  0.00    -0.106 C  
BRANCH   5   6
HETATM    6  C   UNL     1      -9.671   4.971  71.279  1.00  0.00    -0.235 A  
HETATM    7  C   UNL     1     -10.695   5.437  70.437  1.00  0.00    -0.276 A  
HETATM    8  C   UNL     1     -11.610   6.367  70.920  1.00  0.00    -0.331 A  
HETATM    9  O   UNL     1     -12.615   6.866  70.136  1.00  0.00    -0.533 OA 
HETATM   10  C   UNL     1     -11.523   6.827  72.230  1.00  0.00    -0.276 A  
HETATM   11  H   UNL     1     -13.240   7.501  70.466  1.00  0.00     0.000 HD 
HETATM   12  C   UNL     1     -10.534   6.362  73.082  1.00  0.00    -0.265 A  
HETATM   13  O   UNL     1     -12.413   7.757  72.687  1.00  0.00    -0.556 OA 
HETATM   14  H   UNL     1     -12.353   8.071  73.582  1.00  0.00     0.000 HD 
HETATM   15  C   UNL     1      -9.607   5.430  72.607  1.00  0.00    -0.169 A  
ENDBRANCH   5   6
ENDBRANCH   3   5
TORSDOF 2
ENDMDL
MODEL      184
REMARK 921   NORMALIZED FREE ENERGY PREDICTED BY IDOCK:   -2.51 KCAL/MOL
REMARK 922        TOTAL FREE ENERGY PREDICTED BY IDOCK:   -2.87 KCAL/MOL
REMARK 923 INTER-LIGAND FREE ENERGY PREDICTED BY IDOCK:   -2.78 KCAL/MOL
REMARK 924 INTRA-LIGAND FREE ENERGY PREDICTED BY IDOCK:   -0.10 KCAL/MOL
REMARK 927      BINDING AFFINITY PREDICTED BY RF-SCORE:    0.00 PKD
ROOT
HETATM    1  N   UNL     1      -6.149   9.414  67.900  1.00  0.00    -0.052 NA 
HETATM    2  H2  UNL     1      -6.863   9.350  68.626  1.00  0.00     0.000 HD 
HETATM    3  C   UNL     1      -6.694   9.945  66.651  1.00  0.00    -0.080 C  
HETATM    4  H1  UNL     1      -5.689   8.517  67.742  1.00  0.00     0.000 HD 
ENDROOT
BRANCH   3   5
HETATM    5  C   UNL     1      -7.383  11.291  66.888  1.00  0.00    -0.145 C  
BRANCH   5   6
HETATM    6  C   UNL     1      -8.779  11.137  67.445  1.00  0.00    -0.133 A  
HETATM    7  C   UNL     1      -9.275  12.059  68.382  1.00  0.00    -0.160 A  
HETATM    8  C   UNL     1     -10.549  11.881  68.911  1.00  0.00    -0.173 A  
HETATM    9  O   UNL     1     -11.073  12.740  69.840  1.00  0.00    -0.473 OA 
HETATM   10  C   UNL     1     -11.335  10.805  68.510  1.00  0.00    -0.295 A  
HETATM   11  H   UNL     1     -11.943  12.619  70.201  1.00  0.00     0.000 HD 
HETATM   12  C   UNL     1     -10.872   9.899  67.570  1.00  0.00    -0.307 A  
HETATM   13  O   UNL     1     -12.577  10.629  69.052  1.00  0.00    -0.746 OA 
HETATM   14  H   UNL     1     -13.113   9.894  68.778  1.00  0.00     0.000 HD 
HETATM   15  C   UNL     1      -9.593  10.066  67.035  1.00  0.00    -0.212 A  
ENDBRANCH   5   6
ENDBRANCH   3   5
TORSDOF 2
ENDMDL
MODEL      185
REMARK 921   NORMALIZED FREE ENERGY PREDICTED BY IDOCK:   -2.51 KCAL/MOL
REMARK 922        TOTAL FREE ENERGY PREDICTED BY IDOCK:   -2.87 KCAL/MOL
REMARK 923 INTER-LIGAND FREE ENERGY PREDICTED BY IDOCK:   -2.81 KCAL/MOL
REMARK 924 INTRA-LIGAND FREE ENERGY PREDICTED BY IDOCK:   -0.06 KCAL/MOL
REMARK 927      BINDING AFFINITY PREDICTED BY RF-SCORE:    0.00 PKD
ROOT
HETATM    1  N   UNL     1     -11.242   5.871  66.594  1.00  0.00    -0.706 NA 
HETATM    2  H2  UNL     1     -11.271   6.706  66.009  1.00  0.00     0.000 HD 
HETATM    3  C   UNL     1     -10.266   6.001  67.676  1.00  0.00    -0.181 C  
HETATM    4  H1  UNL     1     -11.064   5.030  66.044  1.00  0.00     0.000 HD 
ENDROOT
BRANCH   3   5
HETATM    5  C   UNL     1     -10.533   7.262  68.501  1.00  0.00    -0.215 C  
BRANCH   5   6
HETATM    6  C   UNL     1     -10.423   7.016  69.987  1.00  0.00    -0.233 A  
HETATM    7  C   UNL     1      -9.231   6.516  70.538  1.00  0.00    -0.156 A  
HETATM    8  C   UNL     1      -9.160   6.262  71.904  1.00  0.00    -0.143 A  
HETATM    9  O   UNL     1      -8.029   5.759  72.487  1.00  0.00    -0.102 OA 
HETATM   10  C   UNL     1     -10.255   6.511  72.725  1.00  0.00    -0.186 A  
HETATM   11  H   UNL     1      -7.980   5.585  73.421  1.00  0.00     0.000 HD 
HETATM   12  C   UNL     1     -11.432   7.026  72.204  1.00  0.00    -0.312 A  
HETATM   13  O   UNL     1     -10.181   6.238  74.062  1.00  0.00    -0.255 OA 
HETATM   14  H   UNL     1     -10.929   6.408  74.623  1.00  0.00     0.000 HD 
HETATM   15  C   UNL     1     -11.515   7.281  70.833  1.00  0.00    -0.321 A  
ENDBRANCH   5   6
ENDBRANCH   3   5
TORSDOF 2
ENDMDL
MODEL      186
REMARK 921   NORMALIZED FREE ENERGY PREDICTED BY IDOCK:   -2.50 KCAL/MOL
REMARK 922        TOTAL FREE ENERGY PREDICTED BY IDOCK:   -2.86 KCAL/MOL
REMARK 923 INTER-LIGAND FREE ENERGY PREDICTED BY IDOCK:   -2.84 KCAL/MOL
REMARK 924 INTRA-LIGAND FREE ENERGY PREDICTED BY IDOCK:   -0.02 KCAL/MOL
REMARK 927      BINDING AFFINITY PREDICTED BY RF-SCORE:    0.00 PKD
ROOT
HETATM    1  N   UNL     1      -9.454   5.014  63.109  1.00  0.00    -0.339 NA 
HETATM    2  H2  UNL     1     -10.181   5.674  63.388  1.00  0.00     0.000 HD 
HETATM    3  C   UNL     1      -8.407   4.901  64.123  1.00  0.00    -0.131 C  
HETATM    4  H1  UNL     1      -9.055   5.254  62.201  1.00  0.00     0.000 HD 
ENDROOT
BRANCH   3   5
HETATM    5  C   UNL     1      -9.006   4.540  65.485  1.00  0.00    -0.138 C  
BRANCH   5   6
HETATM    6  C   UNL     1      -9.542   5.746  66.220  1.00  0.00    -0.159 A  
HETATM    7  C   UNL     1     -10.448   5.586  67.282  1.00  0.00    -0.300 A  
HETATM    8  C   UNL     1     -10.958   6.710  67.924  1.00  0.00    -0.257 A  
HETATM    9  O   UNL     1     -11.856   6.609  68.952  1.00  0.00    -0.454 OA 
HETATM   10  C   UNL     1     -10.568   7.985  67.529  1.00  0.00    -0.232 A  
HETATM   11  H   UNL     1     -12.205   7.377  69.391  1.00  0.00     0.000 HD 
HETATM   12  C   UNL     1      -9.658   8.163  66.499  1.00  0.00    -0.303 A  
HETATM   13  O   UNL     1     -11.092   9.082  68.152  1.00  0.00    -0.479 OA 
HETATM   14  H   UNL     1     -10.826   9.954  67.882  1.00  0.00     0.000 HD 
HETATM   15  C   UNL     1      -9.142   7.041  65.845  1.00  0.00    -0.048 A  
ENDBRANCH   5   6
ENDBRANCH   3   5
TORSDOF 2
ENDMDL
MODEL      187
REMARK 921   NORMALIZED FREE ENERGY PREDICTED BY IDOCK:   -2.50 KCAL/MOL
REMARK 922        TOTAL FREE ENERGY PREDICTED BY IDOCK:   -2.85 KCAL/MOL
REMARK 923 INTER-LIGAND FREE ENERGY PREDICTED BY IDOCK:   -2.76 KCAL/MOL
REMARK 924 INTRA-LIGAND FREE ENERGY PREDICTED BY IDOCK:   -0.09 KCAL/MOL
REMARK 927      BINDING AFFINITY PREDICTED BY RF-SCORE:    0.00 PKD
ROOT
HETATM    1  N   UNL     1      -9.275   8.581  65.391  1.00  0.00    -0.427 NA 
HETATM    2  H2  UNL     1      -9.731   7.770  64.972  1.00  0.00     0.000 HD 
HETATM    3  C   UNL     1      -9.984   9.042  66.585  1.00  0.00    -0.278 C  
HETATM    4  H1  UNL     1      -9.163   9.340  64.720  1.00  0.00     0.000 HD 
ENDROOT
BRANCH   3   5
HETATM    5  C   UNL     1     -10.152   7.902  67.593  1.00  0.00    -0.262 C  
BRANCH   5   6
HETATM    6  C   UNL     1      -9.579   8.239  68.948  1.00  0.00    -0.153 A  
HETATM    7  C   UNL     1      -8.603   9.242  69.078  1.00  0.00    -0.134 A  
HETATM    8  C   UNL     1      -8.060   9.514  70.330  1.00  0.00    -0.181 A  
HETATM    9  O   UNL     1      -7.095  10.468  70.507  1.00  0.00    -0.447 OA 
HETATM   10  C   UNL     1      -8.486   8.810  71.451  1.00  0.00    -0.188 A  
HETATM   11  H   UNL     1      -6.724  10.655  71.362  1.00  0.00     0.000 HD 
HETATM   12  C   UNL     1      -9.465   7.834  71.347  1.00  0.00    -0.173 A  
HETATM   13  O   UNL     1      -7.932   9.071  72.672  1.00  0.00    -0.326 OA 
HETATM   14  H   UNL     1      -8.223   8.589  73.438  1.00  0.00     0.000 HD 
HETATM   15  C   UNL     1     -10.013   7.549  70.094  1.00  0.00    -0.192 A  
ENDBRANCH   5   6
ENDBRANCH   3   5
TORSDOF 2
ENDMDL
MODEL      188
REMARK 921   NORMALIZED FREE ENERGY PREDICTED BY IDOCK:   -2.49 KCAL/MOL
REMARK 922        TOTAL FREE ENERGY PREDICTED BY IDOCK:   -2.85 KCAL/MOL
REMARK 923 INTER-LIGAND FREE ENERGY PREDICTED BY IDOCK:   -2.76 KCAL/MOL
REMARK 924 INTRA-LIGAND FREE ENERGY PREDICTED BY IDOCK:   -0.09 KCAL/MOL
REMARK 927      BINDING AFFINITY PREDICTED BY RF-SCORE:    0.00 PKD
ROOT
HETATM    1  N   UNL     1      -8.607   5.791  63.920  1.00  0.00    -0.341 NA 
HETATM    2  H2  UNL     1      -8.840   6.531  64.584  1.00  0.00     0.000 HD 
HETATM    3  C   UNL     1      -8.729   4.464  64.525  1.00  0.00    -0.144 C  
HETATM    4  H1  UNL     1      -7.679   5.922  63.518  1.00  0.00     0.000 HD 
ENDROOT
BRANCH   3   5
HETATM    5  C   UNL     1     -10.123   4.268  65.128  1.00  0.00    -0.221 C  
BRANCH   5   6
HETATM    6  C   UNL     1     -10.214   4.767  66.550  1.00  0.00    -0.294 A  
HETATM    7  C   UNL     1      -9.630   4.037  67.598  1.00  0.00    -0.210 A  
HETATM    8  C   UNL     1      -9.754   4.494  68.906  1.00  0.00    -0.154 A  
HETATM    9  O   UNL     1      -9.219   3.811  69.965  1.00  0.00    -0.116 OA 
HETATM   10  C   UNL     1     -10.442   5.673  69.179  1.00  0.00    -0.269 A  
HETATM   11  H   UNL     1      -9.304   4.123  70.858  1.00  0.00     0.000 HD 
HETATM   12  C   UNL     1     -11.005   6.419  68.155  1.00  0.00    -0.393 A  
HETATM   13  O   UNL     1     -10.576   6.101  70.469  1.00  0.00    -0.221 OA 
HETATM   14  H   UNL     1     -11.046   6.906  70.654  1.00  0.00     0.000 HD 
HETATM   15  C   UNL     1     -10.889   5.967  66.839  1.00  0.00    -0.396 A  
ENDBRANCH   5   6
ENDBRANCH   3   5
TORSDOF 2
ENDMDL
MODEL      189
REMARK 921   NORMALIZED FREE ENERGY PREDICTED BY IDOCK:   -2.47 KCAL/MOL
REMARK 922        TOTAL FREE ENERGY PREDICTED BY IDOCK:   -2.83 KCAL/MOL
REMARK 923 INTER-LIGAND FREE ENERGY PREDICTED BY IDOCK:   -2.72 KCAL/MOL
REMARK 924 INTRA-LIGAND FREE ENERGY PREDICTED BY IDOCK:   -0.11 KCAL/MOL
REMARK 927      BINDING AFFINITY PREDICTED BY RF-SCORE:    0.00 PKD
ROOT
HETATM    1  N   UNL     1      -9.494   4.867  62.951  1.00  0.00    -0.353 NA 
HETATM    2  H2  UNL     1     -10.281   5.338  63.398  1.00  0.00     0.000 HD 
HETATM    3  C   UNL     1      -8.236   5.138  63.646  1.00  0.00    -0.118 C  
HETATM    4  H1  UNL     1      -9.421   5.109  61.963  1.00  0.00     0.000 HD 
ENDROOT
BRANCH   3   5
HETATM    5  C   UNL     1      -8.345   4.775  65.130  1.00  0.00    -0.129 C  
BRANCH   5   6
HETATM    6  C   UNL     1      -9.097   5.815  65.927  1.00  0.00    -0.148 A  
HETATM    7  C   UNL     1      -8.587   7.119  66.053  1.00  0.00    -0.158 A  
HETATM    8  C   UNL     1      -9.275   8.053  66.820  1.00  0.00    -0.165 A  
HETATM    9  O   UNL     1      -8.812   9.330  66.989  1.00  0.00    -0.122 OA 
HETATM   10  C   UNL     1     -10.466   7.708  67.450  1.00  0.00    -0.297 A  
HETATM   11  H   UNL     1      -9.282   9.969  67.513  1.00  0.00     0.000 HD 
HETATM   12  C   UNL     1     -10.997   6.435  67.318  1.00  0.00    -0.474 A  
HETATM   13  O   UNL     1     -11.122   8.628  68.218  1.00  0.00    -0.446 OA 
HETATM   14  H   UNL     1     -11.936   8.392  68.649  1.00  0.00     0.000 HD 
HETATM   15  C   UNL     1     -10.312   5.487  66.553  1.00  0.00    -0.309 A  
ENDBRANCH   5   6
ENDBRANCH   3   5
TORSDOF 2
ENDMDL
MODEL      190
REMARK 921   NORMALIZED FREE ENERGY PREDICTED BY IDOCK:   -2.43 KCAL/MOL
REMARK 922        TOTAL FREE ENERGY PREDICTED BY IDOCK:   -2.78 KCAL/MOL
REMARK 923 INTER-LIGAND FREE ENERGY PREDICTED BY IDOCK:   -2.71 KCAL/MOL
REMARK 924 INTRA-LIGAND FREE ENERGY PREDICTED BY IDOCK:   -0.07 KCAL/MOL
REMARK 927      BINDING AFFINITY PREDICTED BY RF-SCORE:    0.00 PKD
ROOT
HETATM    1  N   UNL     1     -10.131  19.865  68.458  1.00  0.00    -0.440 NA 
HETATM    2  H2  UNL     1      -9.455  20.601  68.665  1.00  0.00     0.000 HD 
HETATM    3  C   UNL     1      -9.529  18.782  67.680  1.00  0.00    -0.300 C  
HETATM    4  H1  UNL     1     -10.959  20.232  67.989  1.00  0.00     0.000 HD 
ENDROOT
BRANCH   3   5
HETATM    5  C   UNL     1      -8.287  18.230  68.385  1.00  0.00    -0.323 C  
BRANCH   5   6
HETATM    6  C   UNL     1      -8.184  16.727  68.285  1.00  0.00    -0.204 A  
HETATM    7  C   UNL     1      -7.482  15.996  69.258  1.00  0.00    -0.228 A  
HETATM    8  C   UNL     1      -7.368  14.616  69.131  1.00  0.00    -0.143 A  
HETATM    9  O   UNL     1      -6.680  13.860  70.041  1.00  0.00    -0.341 OA 
HETATM   10  C   UNL     1      -7.953  13.957  68.054  1.00  0.00    -0.154 A  
HETATM   11  H   UNL     1      -6.601  12.917  69.954  1.00  0.00     0.000 HD 
HETATM   12  C   UNL     1      -8.669  14.657  67.096  1.00  0.00    -0.242 A  
HETATM   13  O   UNL     1      -7.816  12.603  67.927  1.00  0.00    -0.128 OA 
HETATM   14  H   UNL     1      -8.216  12.153  67.192  1.00  0.00     0.000 HD 
HETATM   15  C   UNL     1      -8.787  16.044  67.213  1.00  0.00    -0.207 A  
ENDBRANCH   5   6
ENDBRANCH   3   5
TORSDOF 2
ENDMDL
MODEL      191
REMARK 921   NORMALIZED FREE ENERGY PREDICTED BY IDOCK:   -2.42 KCAL/MOL
REMARK 922        TOTAL FREE ENERGY PREDICTED BY IDOCK:   -2.77 KCAL/MOL
REMARK 923 INTER-LIGAND FREE ENERGY PREDICTED BY IDOCK:   -2.71 KCAL/MOL
REMARK 924 INTRA-LIGAND FREE ENERGY PREDICTED BY IDOCK:   -0.06 KCAL/MOL
REMARK 927      BINDING AFFINITY PREDICTED BY RF-SCORE:    0.00 PKD
ROOT
HETATM    1  N   UNL     1      -7.043  13.974  69.982  1.00  0.00    -0.361 NA 
HETATM    2  H2  UNL     1      -8.016  14.090  70.264  1.00  0.00     0.000 HD 
HETATM    3  C   UNL     1      -6.886  12.889  69.013  1.00  0.00    -0.080 C  
HETATM    4  H1  UNL     1      -6.431  13.833  70.786  1.00  0.00     0.000 HD 
ENDROOT
BRANCH   3   5
HETATM    5  C   UNL     1      -7.805  13.100  67.806  1.00  0.00    -0.152 C  
BRANCH   5   6
HETATM    6  C   UNL     1      -8.558  11.848  67.425  1.00  0.00    -0.164 A  
HETATM    7  C   UNL     1      -9.882  11.657  67.854  1.00  0.00    -0.189 A  
HETATM    8  C   UNL     1     -10.548  10.482  67.524  1.00  0.00    -0.259 A  
HETATM    9  O   UNL     1     -11.832  10.239  67.932  1.00  0.00    -0.647 OA 
HETATM   10  C   UNL     1      -9.916   9.504  66.762  1.00  0.00    -0.233 A  
HETATM   11  H   UNL     1     -12.288   9.436  67.706  1.00  0.00     0.000 HD 
HETATM   12  C   UNL     1      -8.619   9.684  66.310  1.00  0.00    -0.137 A  
HETATM   13  O   UNL     1     -10.573   8.344  66.461  1.00  0.00    -0.338 OA 
HETATM   14  H   UNL     1     -10.141   7.676  65.941  1.00  0.00     0.000 HD 
HETATM   15  C   UNL     1      -7.939  10.859  66.640  1.00  0.00    -0.148 A  
ENDBRANCH   5   6
ENDBRANCH   3   5
TORSDOF 2
ENDMDL
MODEL      192
REMARK 921   NORMALIZED FREE ENERGY PREDICTED BY IDOCK:   -2.41 KCAL/MOL
REMARK 922        TOTAL FREE ENERGY PREDICTED BY IDOCK:   -2.76 KCAL/MOL
REMARK 923 INTER-LIGAND FREE ENERGY PREDICTED BY IDOCK:   -2.70 KCAL/MOL
REMARK 924 INTRA-LIGAND FREE ENERGY PREDICTED BY IDOCK:   -0.06 KCAL/MOL
REMARK 927      BINDING AFFINITY PREDICTED BY RF-SCORE:    0.00 PKD
ROOT
HETATM    1  N   UNL     1     -11.265   5.877  66.574  1.00  0.00    -0.741 NA 
HETATM    2  H2  UNL     1     -11.335   6.613  65.872  1.00  0.00     0.000 HD 
HETATM    3  C   UNL     1     -10.295   6.215  67.616  1.00  0.00    -0.201 C  
HETATM    4  H1  UNL     1     -11.045   4.973  66.154  1.00  0.00     0.000 HD 
ENDROOT
BRANCH   3   5
HETATM    5  C   UNL     1     -10.624   7.570  68.247  1.00  0.00    -0.185 C  
BRANCH   5   6
HETATM    6  C   UNL     1      -9.668   8.657  67.817  1.00  0.00    -0.202 A  
HETATM    7  C   UNL     1      -9.455   9.781  68.633  1.00  0.00    -0.151 A  
HETATM    8  C   UNL     1      -8.598  10.788  68.204  1.00  0.00    -0.129 A  
HETATM    9  O   UNL     1      -8.371  11.912  68.953  1.00  0.00    -0.350 OA 
HETATM   10  C   UNL     1      -7.943  10.684  66.981  1.00  0.00    -0.121 A  
HETATM   11  H   UNL     1      -7.785  12.600  68.661  1.00  0.00     0.000 HD 
HETATM   12  C   UNL     1      -8.121   9.572  66.173  1.00  0.00    -0.111 A  
HETATM   13  O   UNL     1      -7.119  11.689  66.561  1.00  0.00    -0.332 OA 
HETATM   14  H   UNL     1      -6.672  11.617  65.726  1.00  0.00     0.000 HD 
HETATM   15  C   UNL     1      -8.983   8.556  66.592  1.00  0.00    -0.178 A  
ENDBRANCH   5   6
ENDBRANCH   3   5
TORSDOF 2
ENDMDL
MODEL      193
REMARK 921   NORMALIZED FREE ENERGY PREDICTED BY IDOCK:   -2.38 KCAL/MOL
REMARK 922        TOTAL FREE ENERGY PREDICTED BY IDOCK:   -2.73 KCAL/MOL
REMARK 923 INTER-LIGAND FREE ENERGY PREDICTED BY IDOCK:   -2.68 KCAL/MOL
REMARK 924 INTRA-LIGAND FREE ENERGY PREDICTED BY IDOCK:   -0.05 KCAL/MOL
REMARK 927      BINDING AFFINITY PREDICTED BY RF-SCORE:    0.00 PKD
ROOT
HETATM    1  N   UNL     1      -6.231  12.744  68.484  1.00  0.00    -0.064 NA 
HETATM    2  H2  UNL     1      -6.468  12.280  69.361  1.00  0.00     0.000 HD 
HETATM    3  C   UNL     1      -7.186  13.805  68.160  1.00  0.00    -0.121 C  
HETATM    4  H1  UNL     1      -6.153  12.080  67.713  1.00  0.00     0.000 HD 
ENDROOT
BRANCH   3   5
HETATM    5  C   UNL     1      -7.303  14.802  69.316  1.00  0.00    -0.168 C  
BRANCH   5   6
HETATM    6  C   UNL     1      -8.250  15.937  69.008  1.00  0.00    -0.234 A  
HETATM    7  C   UNL     1      -7.809  17.052  68.275  1.00  0.00    -0.216 A  
HETATM    8  C   UNL     1      -8.686  18.104  68.031  1.00  0.00    -0.269 A  
HETATM    9  O   UNL     1      -8.301  19.220  67.338  1.00  0.00    -0.279 OA 
HETATM   10  C   UNL     1      -9.996  18.052  68.497  1.00  0.00    -0.390 A  
HETATM   11  H   UNL     1      -8.900  19.939  67.172  1.00  0.00     0.000 HD 
HETATM   12  C   UNL     1     -10.457  16.951  69.201  1.00  0.00    -0.335 A  
HETATM   13  O   UNL     1     -10.843  19.100  68.269  1.00  0.00    -0.338 OA 
HETATM   14  H   UNL     1     -11.737  19.065  68.588  1.00  0.00     0.000 HD 
HETATM   15  C   UNL     1      -9.583  15.890  69.455  1.00  0.00    -0.265 A  
ENDBRANCH   5   6
ENDBRANCH   3   5
TORSDOF 2
ENDMDL
MODEL      194
REMARK 921   NORMALIZED FREE ENERGY PREDICTED BY IDOCK:   -2.37 KCAL/MOL
REMARK 922        TOTAL FREE ENERGY PREDICTED BY IDOCK:   -2.72 KCAL/MOL
REMARK 923 INTER-LIGAND FREE ENERGY PREDICTED BY IDOCK:   -2.63 KCAL/MOL
REMARK 924 INTRA-LIGAND FREE ENERGY PREDICTED BY IDOCK:   -0.09 KCAL/MOL
REMARK 927      BINDING AFFINITY PREDICTED BY RF-SCORE:    0.00 PKD
ROOT
HETATM    1  N   UNL     1     -11.958   8.865  70.654  1.00  0.00    -0.471 NA 
HETATM    2  H2  UNL     1     -12.288   7.900  70.603  1.00  0.00     0.000 HD 
HETATM    3  C   UNL     1     -10.508   8.931  70.833  1.00  0.00    -0.236 C  
HETATM    4  H1  UNL     1     -12.438   9.389  71.386  1.00  0.00     0.000 HD 
ENDROOT
BRANCH   3   5
HETATM    5  C   UNL     1      -9.788   8.144  69.735  1.00  0.00    -0.187 C  
BRANCH   5   6
HETATM    6  C   UNL     1      -9.345   9.022  68.589  1.00  0.00    -0.136 A  
HETATM    7  C   UNL     1      -9.939   8.890  67.322  1.00  0.00    -0.277 A  
HETATM    8  C   UNL     1      -9.494   9.683  66.269  1.00  0.00    -0.199 A  
HETATM    9  O   UNL     1     -10.027   9.580  65.012  1.00  0.00    -0.421 OA 
HETATM   10  C   UNL     1      -8.477  10.611  66.467  1.00  0.00    -0.144 A  
HETATM   11  H   UNL     1      -9.723  10.122  64.293  1.00  0.00     0.000 HD 
HETATM   12  C   UNL     1      -7.895  10.772  67.714  1.00  0.00    -0.109 A  
HETATM   13  O   UNL     1      -8.033  11.369  65.421  1.00  0.00    -0.328 OA 
HETATM   14  H   UNL     1      -7.338  12.003  65.556  1.00  0.00     0.000 HD 
HETATM   15  C   UNL     1      -8.331   9.979  68.778  1.00  0.00    -0.121 A  
ENDBRANCH   5   6
ENDBRANCH   3   5
TORSDOF 2
ENDMDL
MODEL      195
REMARK 921   NORMALIZED FREE ENERGY PREDICTED BY IDOCK:   -2.35 KCAL/MOL
REMARK 922        TOTAL FREE ENERGY PREDICTED BY IDOCK:   -2.68 KCAL/MOL
REMARK 923 INTER-LIGAND FREE ENERGY PREDICTED BY IDOCK:   -2.63 KCAL/MOL
REMARK 924 INTRA-LIGAND FREE ENERGY PREDICTED BY IDOCK:   -0.06 KCAL/MOL
REMARK 927      BINDING AFFINITY PREDICTED BY RF-SCORE:    0.00 PKD
ROOT
HETATM    1  N   UNL     1     -10.156  10.906  69.574  1.00  0.00    -0.437 NA 
HETATM    2  H2  UNL     1     -11.110  11.235  69.423  1.00  0.00     0.000 HD 
HETATM    3  C   UNL     1     -10.123   9.714  70.421  1.00  0.00    -0.276 C  
HETATM    4  H1  UNL     1      -9.559  11.640  69.958  1.00  0.00     0.000 HD 
ENDROOT
BRANCH   3   5
HETATM    5  C   UNL     1     -11.017   8.613  69.845  1.00  0.00    -0.169 C  
BRANCH   5   6
HETATM    6  C   UNL     1     -10.632   7.238  70.336  1.00  0.00    -0.240 A  
HETATM    7  C   UNL     1     -10.227   7.046  71.668  1.00  0.00    -0.208 A  
HETATM    8  C   UNL     1      -9.842   5.779  72.093  1.00  0.00    -0.156 A  
HETATM    9  O   UNL     1      -9.422   5.543  73.375  1.00  0.00    -0.138 OA 
HETATM   10  C   UNL     1      -9.867   4.702  71.212  1.00  0.00    -0.190 A  
HETATM   11  H   UNL     1      -9.159   4.677  73.665  1.00  0.00     0.000 HD 
HETATM   12  C   UNL     1     -10.286   4.867  69.901  1.00  0.00    -0.299 A  
HETATM   13  O   UNL     1      -9.466   3.467  71.635  1.00  0.00    -0.125 OA 
HETATM   14  H   UNL     1      -9.483   2.731  71.033  1.00  0.00     0.000 HD 
HETATM   15  C   UNL     1     -10.671   6.136  69.463  1.00  0.00    -0.386 A  
ENDBRANCH   5   6
ENDBRANCH   3   5
TORSDOF 2
ENDMDL
MODEL      196
REMARK 921   NORMALIZED FREE ENERGY PREDICTED BY IDOCK:   -2.31 KCAL/MOL
REMARK 922        TOTAL FREE ENERGY PREDICTED BY IDOCK:   -2.65 KCAL/MOL
REMARK 923 INTER-LIGAND FREE ENERGY PREDICTED BY IDOCK:   -2.93 KCAL/MOL
REMARK 924 INTRA-LIGAND FREE ENERGY PREDICTED BY IDOCK:    0.28 KCAL/MOL
REMARK 927      BINDING AFFINITY PREDICTED BY RF-SCORE:    0.00 PKD
ROOT
HETATM    1  N   UNL     1      -8.478  12.906  67.734  1.00  0.00    -0.171 NA 
HETATM    2  H2  UNL     1      -9.447  13.147  67.524  1.00  0.00     0.000 HD 
HETATM    3  C   UNL     1      -7.560  13.984  67.366  1.00  0.00    -0.148 C  
HETATM    4  H1  UNL     1      -8.202  12.028  67.292  1.00  0.00     0.000 HD 
ENDROOT
BRANCH   3   5
HETATM    5  C   UNL     1      -7.974  15.300  68.029  1.00  0.00    -0.135 C  
BRANCH   5   6
HETATM    6  C   UNL     1      -9.388  15.263  68.558  1.00  0.00    -0.200 A  
HETATM    7  C   UNL     1      -9.628  15.218  69.942  1.00  0.00    -0.061 A  
HETATM    8  C   UNL     1     -10.936  15.148  70.409  1.00  0.00    -0.238 A  
HETATM    9  O   UNL     1     -11.223  15.084  71.746  1.00  0.00    -0.558 OA 
HETATM   10  C   UNL     1     -12.004  15.136  69.517  1.00  0.00    -0.321 A  
HETATM   11  H   UNL     1     -12.117  15.036  72.066  1.00  0.00     0.000 HD 
HETATM   12  C   UNL     1     -11.788  15.204  68.150  1.00  0.00    -0.252 A  
HETATM   13  O   UNL     1     -13.284  15.047  69.987  1.00  0.00    -0.582 OA 
HETATM   14  H   UNL     1     -14.013  15.038  69.377  1.00  0.00     0.000 HD 
HETATM   15  C   UNL     1     -10.478  15.270  67.669  1.00  0.00    -0.263 A  
ENDBRANCH   5   6
ENDBRANCH   3   5
TORSDOF 2
ENDMDL
MODEL      197
REMARK 921   NORMALIZED FREE ENERGY PREDICTED BY IDOCK:   -2.29 KCAL/MOL
REMARK 922        TOTAL FREE ENERGY PREDICTED BY IDOCK:   -2.62 KCAL/MOL
REMARK 923 INTER-LIGAND FREE ENERGY PREDICTED BY IDOCK:   -2.53 KCAL/MOL
REMARK 924 INTRA-LIGAND FREE ENERGY PREDICTED BY IDOCK:   -0.09 KCAL/MOL
REMARK 927      BINDING AFFINITY PREDICTED BY RF-SCORE:    0.00 PKD
ROOT
HETATM    1  N   UNL     1     -12.755  12.969  71.362  1.00  0.00    -0.334 NA 
HETATM    2  H2  UNL     1     -12.850  13.568  70.541  1.00  0.00     0.000 HD 
HETATM    3  C   UNL     1     -13.230  11.611  71.098  1.00  0.00     0.098 C  
HETATM    4  H1  UNL     1     -13.225  13.366  72.176  1.00  0.00     0.000 HD 
ENDROOT
BRANCH   3   5
HETATM    5  C   UNL     1     -12.524  11.015  69.877  1.00  0.00    -0.286 C  
BRANCH   5   6
HETATM    6  C   UNL     1     -11.389  10.095  70.257  1.00  0.00    -0.387 A  
HETATM    7  C   UNL     1     -10.296   9.920  69.391  1.00  0.00    -0.238 A  
HETATM    8  C   UNL     1      -9.276   9.041  69.741  1.00  0.00    -0.167 A  
HETATM    9  O   UNL     1      -8.199   8.822  68.925  1.00  0.00    -0.115 OA 
HETATM   10  C   UNL     1      -9.327   8.346  70.946  1.00  0.00    -0.166 A  
HETATM   11  H   UNL     1      -7.502   8.222  69.165  1.00  0.00     0.000 HD 
HETATM   12  C   UNL     1     -10.385   8.523  71.824  1.00  0.00    -0.354 A  
HETATM   13  O   UNL     1      -8.330   7.470  71.270  1.00  0.00    -0.109 OA 
HETATM   14  H   UNL     1      -8.365   6.996  72.092  1.00  0.00     0.000 HD 
HETATM   15  C   UNL     1     -11.416   9.400  71.480  1.00  0.00    -0.467 A  
ENDBRANCH   5   6
ENDBRANCH   3   5
TORSDOF 2
ENDMDL
MODEL      198
REMARK 921   NORMALIZED FREE ENERGY PREDICTED BY IDOCK:   -2.26 KCAL/MOL
REMARK 922        TOTAL FREE ENERGY PREDICTED BY IDOCK:   -2.59 KCAL/MOL
REMARK 923 INTER-LIGAND FREE ENERGY PREDICTED BY IDOCK:   -2.52 KCAL/MOL
REMARK 924 INTRA-LIGAND FREE ENERGY PREDICTED BY IDOCK:   -0.07 KCAL/MOL
REMARK 927      BINDING AFFINITY PREDICTED BY RF-SCORE:    0.00 PKD
ROOT
HETATM    1  N   UNL     1     -10.678   6.723  66.601  1.00  0.00    -0.533 NA 
HETATM    2  H2  UNL     1     -11.469   7.130  66.102  1.00  0.00     0.000 HD 
HETATM    3  C   UNL     1      -9.836   7.752  67.211  1.00  0.00    -0.189 C  
HETATM    4  H1  UNL     1     -10.125   6.112  66.000  1.00  0.00     0.000 HD 
ENDROOT
BRANCH   3   5
HETATM    5  C   UNL     1     -10.665   8.669  68.114  1.00  0.00    -0.116 C  
BRANCH   5   6
HETATM    6  C   UNL     1     -10.381   8.448  69.581  1.00  0.00    -0.218 A  
HETATM    7  C   UNL     1     -10.537   7.174  70.152  1.00  0.00    -0.247 A  
HETATM    8  C   UNL     1     -10.305   6.997  71.512  1.00  0.00    -0.203 A  
HETATM    9  O   UNL     1     -10.461   5.780  72.120  1.00  0.00    -0.199 OA 
HETATM   10  C   UNL     1      -9.908   8.070  72.304  1.00  0.00    -0.236 A  
HETATM   11  H   UNL     1     -10.302   5.660  73.049  1.00  0.00     0.000 HD 
HETATM   12  C   UNL     1      -9.725   9.329  71.755  1.00  0.00     0.018 A  
HETATM   13  O   UNL     1      -9.703   7.889  73.643  1.00  0.00    -0.274 OA 
HETATM   14  H   UNL     1      -9.432   8.622  74.184  1.00  0.00     0.000 HD 
HETATM   15  C   UNL     1      -9.960   9.518  70.391  1.00  0.00    -0.325 A  
ENDBRANCH   5   6
ENDBRANCH   3   5
TORSDOF 2
ENDMDL
MODEL      199
REMARK 921   NORMALIZED FREE ENERGY PREDICTED BY IDOCK:   -2.25 KCAL/MOL
REMARK 922        TOTAL FREE ENERGY PREDICTED BY IDOCK:   -2.58 KCAL/MOL
REMARK 923 INTER-LIGAND FREE ENERGY PREDICTED BY IDOCK:   -2.49 KCAL/MOL
REMARK 924 INTRA-LIGAND FREE ENERGY PREDICTED BY IDOCK:   -0.09 KCAL/MOL
REMARK 927      BINDING AFFINITY PREDICTED BY RF-SCORE:    0.00 PKD
ROOT
HETATM    1  N   UNL     1      -8.698  10.297  68.917  1.00  0.00    -0.142 NA 
HETATM    2  H2  UNL     1      -9.292  11.004  68.483  1.00  0.00     0.000 HD 
HETATM    3  C   UNL     1      -9.391   9.600  70.000  1.00  0.00    -0.241 C  
HETATM    4  H1  UNL     1      -7.818  10.695  69.247  1.00  0.00     0.000 HD 
ENDROOT
BRANCH   3   5
HETATM    5  C   UNL     1     -10.711   9.003  69.506  1.00  0.00    -0.215 C  
BRANCH   5   6
HETATM    6  C   UNL     1     -10.521   7.679  68.805  1.00  0.00    -0.208 A  
HETATM    7  C   UNL     1     -10.224   6.520  69.543  1.00  0.00    -0.219 A  
HETATM    8  C   UNL     1     -10.017   5.316  68.877  1.00  0.00    -0.180 A  
HETATM    9  O   UNL     1      -9.708   4.164  69.547  1.00  0.00    -0.200 OA 
HETATM   10  C   UNL     1     -10.116   5.252  67.490  1.00  0.00    -0.179 A  
HETATM   11  H   UNL     1      -9.567   3.341  69.092  1.00  0.00     0.000 HD 
HETATM   12  C   UNL     1     -10.431   6.378  66.747  1.00  0.00    -0.304 A  
HETATM   13  O   UNL     1      -9.890   4.069  66.846  1.00  0.00    -0.243 OA 
HETATM   14  H   UNL     1      -9.957   4.025  65.899  1.00  0.00     0.000 HD 
HETATM   15  C   UNL     1     -10.637   7.593  67.406  1.00  0.00    -0.356 A  
ENDBRANCH   5   6
ENDBRANCH   3   5
TORSDOF 2
ENDMDL
MODEL      200
REMARK 921   NORMALIZED FREE ENERGY PREDICTED BY IDOCK:   -2.25 KCAL/MOL
REMARK 922        TOTAL FREE ENERGY PREDICTED BY IDOCK:   -2.58 KCAL/MOL
REMARK 923 INTER-LIGAND FREE ENERGY PREDICTED BY IDOCK:   -2.49 KCAL/MOL
REMARK 924 INTRA-LIGAND FREE ENERGY PREDICTED BY IDOCK:   -0.09 KCAL/MOL
REMARK 927      BINDING AFFINITY PREDICTED BY RF-SCORE:    0.00 PKD
ROOT
HETATM    1  N   UNL     1      -9.827   8.599  65.869  1.00  0.00    -0.464 NA 
HETATM    2  H2  UNL     1      -9.019   8.083  65.521  1.00  0.00     0.000 HD 
HETATM    3  C   UNL     1     -10.582   7.823  66.853  1.00  0.00    -0.277 C  
HETATM    4  H1  UNL     1     -10.433   8.908  65.109  1.00  0.00     0.000 HD 
ENDROOT
BRANCH   3   5
HETATM    5  C   UNL     1      -9.672   7.360  67.993  1.00  0.00    -0.161 C  
BRANCH   5   6
HETATM    6  C   UNL     1      -9.577   5.855  68.084  1.00  0.00    -0.130 A  
HETATM    7  C   UNL     1      -9.676   5.066  66.925  1.00  0.00    -0.182 A  
HETATM    8  C   UNL     1      -9.622   3.681  67.032  1.00  0.00    -0.152 A  
HETATM    9  O   UNL     1      -9.733   2.867  65.937  1.00  0.00    -0.383 OA 
HETATM   10  C   UNL     1      -9.458   3.075  68.274  1.00  0.00    -0.154 A  
HETATM   11  H   UNL     1      -9.695   1.920  66.009  1.00  0.00     0.000 HD 
HETATM   12  C   UNL     1      -9.334   3.837  69.424  1.00  0.00    -0.245 A  
HETATM   13  O   UNL     1      -9.427   1.713  68.369  1.00  0.00    -0.177 OA 
HETATM   14  H   UNL     1      -9.315   1.299  69.217  1.00  0.00     0.000 HD 
HETATM   15  C   UNL     1      -9.391   5.229  69.329  1.00  0.00    -0.167 A  
ENDBRANCH   5   6
ENDBRANCH   3   5
TORSDOF 2
ENDMDL
MODEL      201
REMARK 921   NORMALIZED FREE ENERGY PREDICTED BY IDOCK:   -2.25 KCAL/MOL
REMARK 922        TOTAL FREE ENERGY PREDICTED BY IDOCK:   -2.57 KCAL/MOL
REMARK 923 INTER-LIGAND FREE ENERGY PREDICTED BY IDOCK:   -2.48 KCAL/MOL
REMARK 924 INTRA-LIGAND FREE ENERGY PREDICTED BY IDOCK:   -0.09 KCAL/MOL
REMARK 927      BINDING AFFINITY PREDICTED BY RF-SCORE:    0.00 PKD
ROOT
HETATM    1  N   UNL     1     -13.497   9.428  71.426  1.00  0.00    -0.457 NA 
HETATM    2  H2  UNL     1     -14.237   8.766  71.662  1.00  0.00     0.000 HD 
HETATM    3  C   UNL     1     -12.230   9.072  72.065  1.00  0.00    -0.375 C  
HETATM    4  H1  UNL     1     -13.762  10.387  71.655  1.00  0.00     0.000 HD 
ENDROOT
BRANCH   3   5
HETATM    5  C   UNL     1     -11.833   7.634  71.722  1.00  0.00    -0.324 C  
BRANCH   5   6
HETATM    6  C   UNL     1     -10.670   7.568  70.761  1.00  0.00    -0.238 A  
HETATM    7  C   UNL     1      -9.824   8.677  70.592  1.00  0.00    -0.220 A  
HETATM    8  C   UNL     1      -8.778   8.610  69.677  1.00  0.00    -0.132 A  
HETATM    9  O   UNL     1      -7.937   9.668  69.462  1.00  0.00    -0.099 OA 
HETATM   10  C   UNL     1      -8.560   7.450  68.939  1.00  0.00    -0.129 A  
HETATM   11  H   UNL     1      -7.223   9.622  68.836  1.00  0.00     0.000 HD 
HETATM   12  C   UNL     1      -9.370   6.338  69.109  1.00  0.00    -0.133 A  
HETATM   13  O   UNL     1      -7.544   7.402  68.028  1.00  0.00    -0.108 OA 
HETATM   14  H   UNL     1      -7.395   6.611  67.524  1.00  0.00     0.000 HD 
HETATM   15  C   UNL     1     -10.425   6.396  70.023  1.00  0.00    -0.267 A  
ENDBRANCH   5   6
ENDBRANCH   3   5
TORSDOF 2
ENDMDL
MODEL      202
REMARK 921   NORMALIZED FREE ENERGY PREDICTED BY IDOCK:   -2.25 KCAL/MOL
REMARK 922        TOTAL FREE ENERGY PREDICTED BY IDOCK:   -2.57 KCAL/MOL
REMARK 923 INTER-LIGAND FREE ENERGY PREDICTED BY IDOCK:   -2.51 KCAL/MOL
REMARK 924 INTRA-LIGAND FREE ENERGY PREDICTED BY IDOCK:   -0.06 KCAL/MOL
REMARK 927      BINDING AFFINITY PREDICTED BY RF-SCORE:    0.00 PKD
ROOT
HETATM    1  N   UNL     1      -6.597  10.025  68.843  1.00  0.00    -0.048 NA 
HETATM    2  H2  UNL     1      -6.513  11.020  69.054  1.00  0.00     0.000 HD 
HETATM    3  C   UNL     1      -7.660   9.394  69.625  1.00  0.00    -0.095 C  
HETATM    4  H1  UNL     1      -5.712   9.535  68.973  1.00  0.00     0.000 HD 
ENDROOT
BRANCH   3   5
HETATM    5  C   UNL     1      -8.989  10.130  69.430  1.00  0.00    -0.205 C  
BRANCH   5   6
HETATM    6  C   UNL     1      -9.361  10.277  67.974  1.00  0.00    -0.145 A  
HETATM    7  C   UNL     1      -9.344  11.541  67.360  1.00  0.00    -0.168 A  
HETATM    8  C   UNL     1      -9.724  11.662  66.028  1.00  0.00    -0.232 A  
HETATM    9  O   UNL     1      -9.742  12.873  65.389  1.00  0.00    -0.455 OA 
HETATM   10  C   UNL     1     -10.107  10.541  65.299  1.00  0.00    -0.300 A  
HETATM   11  H   UNL     1     -10.001  12.956  64.478  1.00  0.00     0.000 HD 
HETATM   12  C   UNL     1     -10.108   9.282  65.880  1.00  0.00    -0.188 A  
HETATM   13  O   UNL     1     -10.498  10.674  63.997  1.00  0.00    -0.453 OA 
HETATM   14  H   UNL     1     -10.761   9.908  63.500  1.00  0.00     0.000 HD 
HETATM   15  C   UNL     1      -9.732   9.150  67.219  1.00  0.00    -0.225 A  
ENDBRANCH   5   6
ENDBRANCH   3   5
TORSDOF 2
ENDMDL
MODEL      203
REMARK 921   NORMALIZED FREE ENERGY PREDICTED BY IDOCK:   -2.23 KCAL/MOL
REMARK 922        TOTAL FREE ENERGY PREDICTED BY IDOCK:   -2.56 KCAL/MOL
REMARK 923 INTER-LIGAND FREE ENERGY PREDICTED BY IDOCK:   -2.46 KCAL/MOL
REMARK 924 INTRA-LIGAND FREE ENERGY PREDICTED BY IDOCK:   -0.09 KCAL/MOL
REMARK 927      BINDING AFFINITY PREDICTED BY RF-SCORE:    0.00 PKD
ROOT
HETATM    1  N   UNL     1      -6.183  13.170  70.165  1.00  0.00    -0.332 NA 
HETATM    2  H2  UNL     1      -7.009  13.112  70.762  1.00  0.00     0.000 HD 
HETATM    3  C   UNL     1      -6.059  11.998  69.299  1.00  0.00    -0.088 C  
HETATM    4  H1  UNL     1      -5.332  13.310  70.710  1.00  0.00     0.000 HD 
ENDROOT
BRANCH   3   5
HETATM    5  C   UNL     1      -7.336  11.788  68.481  1.00  0.00    -0.103 C  
BRANCH   5   6
HETATM    6  C   UNL     1      -8.317  10.865  69.165  1.00  0.00    -0.077 A  
HETATM    7  C   UNL     1      -9.689  10.941  68.870  1.00  0.00    -0.198 A  
HETATM    8  C   UNL     1     -10.581  10.107  69.536  1.00  0.00    -0.245 A  
HETATM    9  O   UNL     1     -11.928  10.154  69.298  1.00  0.00    -0.501 OA 
HETATM   10  C   UNL     1     -10.122   9.193  70.479  1.00  0.00    -0.235 A  
HETATM   11  H   UNL     1     -12.538   9.584  69.753  1.00  0.00     0.000 HD 
HETATM   12  C   UNL     1      -8.770   9.087  70.766  1.00  0.00    -0.269 A  
HETATM   13  O   UNL     1     -11.010   8.394  71.142  1.00  0.00    -0.231 OA 
HETATM   14  H   UNL     1     -10.696   7.770  71.787  1.00  0.00     0.000 HD 
HETATM   15  C   UNL     1      -7.866   9.922  70.107  1.00  0.00    -0.186 A  
ENDBRANCH   5   6
ENDBRANCH   3   5
TORSDOF 2
ENDMDL
MODEL      204
REMARK 921   NORMALIZED FREE ENERGY PREDICTED BY IDOCK:   -2.22 KCAL/MOL
REMARK 922        TOTAL FREE ENERGY PREDICTED BY IDOCK:   -2.55 KCAL/MOL
REMARK 923 INTER-LIGAND FREE ENERGY PREDICTED BY IDOCK:   -2.50 KCAL/MOL
REMARK 924 INTRA-LIGAND FREE ENERGY PREDICTED BY IDOCK:   -0.05 KCAL/MOL
REMARK 927      BINDING AFFINITY PREDICTED BY RF-SCORE:    0.00 PKD
ROOT
HETATM    1  N   UNL     1      -6.609  10.007  68.992  1.00  0.00    -0.051 NA 
HETATM    2  H2  UNL     1      -6.627  10.851  69.564  1.00  0.00     0.000 HD 
HETATM    3  C   UNL     1      -7.383   8.925  69.600  1.00  0.00    -0.056 C  
HETATM    4  H1  UNL     1      -5.654   9.703  68.796  1.00  0.00     0.000 HD 
ENDROOT
BRANCH   3   5
HETATM    5  C   UNL     1      -8.815   9.380  69.893  1.00  0.00    -0.212 C  
BRANCH   5   6
HETATM    6  C   UNL     1      -9.644   8.300  70.548  1.00  0.00    -0.180 A  
HETATM    7  C   UNL     1     -10.064   8.438  71.882  1.00  0.00    -0.337 A  
HETATM    8  C   UNL     1     -10.796   7.418  72.480  1.00  0.00    -0.283 A  
HETATM    9  O   UNL     1     -11.213   7.494  73.782  1.00  0.00    -0.498 OA 
HETATM   10  C   UNL     1     -11.123   6.271  71.763  1.00  0.00    -0.273 A  
HETATM   11  H   UNL     1     -11.713   6.797  74.190  1.00  0.00     0.000 HD 
HETATM   12  C   UNL     1     -10.738   6.128  70.439  1.00  0.00    -0.347 A  
HETATM   13  O   UNL     1     -11.824   5.266  72.366  1.00  0.00    -0.079 OA 
HETATM   14  H   UNL     1     -12.047   4.483  71.876  1.00  0.00     0.000 HD 
HETATM   15  C   UNL     1      -9.999   7.145  69.830  1.00  0.00    -0.180 A  
ENDBRANCH   5   6
ENDBRANCH   3   5
TORSDOF 2
ENDMDL
MODEL      205
REMARK 921   NORMALIZED FREE ENERGY PREDICTED BY IDOCK:   -2.15 KCAL/MOL
REMARK 922        TOTAL FREE ENERGY PREDICTED BY IDOCK:   -2.46 KCAL/MOL
REMARK 923 INTER-LIGAND FREE ENERGY PREDICTED BY IDOCK:   -2.39 KCAL/MOL
REMARK 924 INTRA-LIGAND FREE ENERGY PREDICTED BY IDOCK:   -0.07 KCAL/MOL
REMARK 927      BINDING AFFINITY PREDICTED BY RF-SCORE:    0.00 PKD
ROOT
HETATM    1  N   UNL     1      -8.595   4.030  66.265  1.00  0.00    -0.109 NA 
HETATM    2  H2  UNL     1      -9.203   4.537  65.621  1.00  0.00     0.000 HD 
HETATM    3  C   UNL     1      -8.662   4.582  67.618  1.00  0.00    -0.104 C  
HETATM    4  H1  UNL     1      -7.631   4.003  65.932  1.00  0.00     0.000 HD 
ENDROOT
BRANCH   3   5
HETATM    5  C   UNL     1     -10.108   4.623  68.118  1.00  0.00    -0.072 C  
BRANCH   5   6
HETATM    6  C   UNL     1     -10.432   5.902  68.853  1.00  0.00    -0.325 A  
HETATM    7  C   UNL     1     -10.306   7.144  68.207  1.00  0.00    -0.227 A  
HETATM    8  C   UNL     1     -10.574   8.313  68.911  1.00  0.00    -0.139 A  
HETATM    9  O   UNL     1     -10.450   9.549  68.334  1.00  0.00    -0.208 OA 
HETATM   10  C   UNL     1     -10.976   8.259  70.242  1.00  0.00    -0.232 A  
HETATM   11  H   UNL     1     -10.633  10.348  68.814  1.00  0.00     0.000 HD 
HETATM   12  C   UNL     1     -11.128   7.043  70.889  1.00  0.00    -0.300 A  
HETATM   13  O   UNL     1     -11.216   9.415  70.929  1.00  0.00    -0.272 OA 
HETATM   14  H   UNL     1     -11.490   9.378  71.838  1.00  0.00     0.000 HD 
HETATM   15  C   UNL     1     -10.858   5.862  70.193  1.00  0.00    -0.402 A  
ENDBRANCH   5   6
ENDBRANCH   3   5
TORSDOF 2
ENDMDL
MODEL      206
REMARK 921   NORMALIZED FREE ENERGY PREDICTED BY IDOCK:   -2.14 KCAL/MOL
REMARK 922        TOTAL FREE ENERGY PREDICTED BY IDOCK:   -2.46 KCAL/MOL
REMARK 923 INTER-LIGAND FREE ENERGY PREDICTED BY IDOCK:   -2.39 KCAL/MOL
REMARK 924 INTRA-LIGAND FREE ENERGY PREDICTED BY IDOCK:   -0.07 KCAL/MOL
REMARK 927      BINDING AFFINITY PREDICTED BY RF-SCORE:    0.00 PKD
ROOT
HETATM    1  N   UNL     1     -12.629  12.715  65.211  1.00  0.00    -0.663 NA 
HETATM    2  H2  UNL     1     -13.164  11.895  64.922  1.00  0.00     0.000 HD 
HETATM    3  C   UNL     1     -11.489  12.347  66.050  1.00  0.00    -0.382 C  
HETATM    4  H1  UNL     1     -13.218  13.403  65.681  1.00  0.00     0.000 HD 
ENDROOT
BRANCH   3   5
HETATM    5  C   UNL     1     -10.606  11.314  65.345  1.00  0.00    -0.312 C  
BRANCH   5   6
HETATM    6  C   UNL     1      -9.217  11.242  65.934  1.00  0.00    -0.229 A  
HETATM    7  C   UNL     1      -8.217  10.482  65.303  1.00  0.00    -0.146 A  
HETATM    8  C   UNL     1      -6.953  10.398  65.879  1.00  0.00    -0.131 A  
HETATM    9  O   UNL     1      -5.950   9.657  65.314  1.00  0.00    -0.062 OA 
HETATM   10  C   UNL     1      -6.672  11.069  67.064  1.00  0.00    -0.108 A  
HETATM   11  H   UNL     1      -5.086   9.600  65.707  1.00  0.00     0.000 HD 
HETATM   12  C   UNL     1      -7.639  11.843  67.688  1.00  0.00    -0.136 A  
HETATM   13  O   UNL     1      -5.434  10.963  67.632  1.00  0.00    -0.040 OA 
HETATM   14  H   UNL     1      -5.243  11.421  68.442  1.00  0.00     0.000 HD 
HETATM   15  C   UNL     1      -8.912  11.931  67.121  1.00  0.00    -0.178 A  
ENDBRANCH   5   6
ENDBRANCH   3   5
TORSDOF 2
ENDMDL
MODEL      207
REMARK 921   NORMALIZED FREE ENERGY PREDICTED BY IDOCK:   -2.11 KCAL/MOL
REMARK 922        TOTAL FREE ENERGY PREDICTED BY IDOCK:   -2.42 KCAL/MOL
REMARK 923 INTER-LIGAND FREE ENERGY PREDICTED BY IDOCK:   -2.37 KCAL/MOL
REMARK 924 INTRA-LIGAND FREE ENERGY PREDICTED BY IDOCK:   -0.04 KCAL/MOL
REMARK 927      BINDING AFFINITY PREDICTED BY RF-SCORE:    0.00 PKD
ROOT
HETATM    1  N   UNL     1     -12.253   6.743  70.166  1.00  0.00    -0.605 NA 
HETATM    2  H2  UNL     1     -11.944   7.417  70.867  1.00  0.00     0.000 HD 
HETATM    3  C   UNL     1     -11.147   6.303  69.315  1.00  0.00    -0.393 C  
HETATM    4  H1  UNL     1     -13.020   7.110  69.603  1.00  0.00     0.000 HD 
ENDROOT
BRANCH   3   5
HETATM    5  C   UNL     1      -9.996   5.753  70.160  1.00  0.00    -0.258 C  
BRANCH   5   6
HETATM    6  C   UNL     1      -9.018   6.827  70.575  1.00  0.00    -0.152 A  
HETATM    7  C   UNL     1      -8.057   6.568  71.568  1.00  0.00    -0.112 A  
HETATM    8  C   UNL     1      -7.188   7.580  71.962  1.00  0.00    -0.068 A  
HETATM    9  O   UNL     1      -6.246   7.385  72.936  1.00  0.00    -0.054 OA 
HETATM   10  C   UNL     1      -7.256   8.838  71.371  1.00  0.00    -0.090 A  
HETATM   11  H   UNL     1      -5.652   8.076  73.205  1.00  0.00     0.000 HD 
HETATM   12  C   UNL     1      -8.181   9.105  70.374  1.00  0.00    -0.188 A  
HETATM   13  O   UNL     1      -6.411   9.830  71.781  1.00  0.00    -0.302 OA 
HETATM   14  H   UNL     1      -6.458  10.689  71.378  1.00  0.00     0.000 HD 
HETATM   15  C   UNL     1      -9.061   8.097  69.973  1.00  0.00    -0.151 A  
ENDBRANCH   5   6
ENDBRANCH   3   5
TORSDOF 2
ENDMDL
MODEL      208
REMARK 921   NORMALIZED FREE ENERGY PREDICTED BY IDOCK:   -2.11 KCAL/MOL
REMARK 922        TOTAL FREE ENERGY PREDICTED BY IDOCK:   -2.42 KCAL/MOL
REMARK 923 INTER-LIGAND FREE ENERGY PREDICTED BY IDOCK:   -2.37 KCAL/MOL
REMARK 924 INTRA-LIGAND FREE ENERGY PREDICTED BY IDOCK:   -0.05 KCAL/MOL
REMARK 927      BINDING AFFINITY PREDICTED BY RF-SCORE:    0.00 PKD
ROOT
HETATM    1  N   UNL     1     -10.447  14.071  68.906  1.00  0.00    -0.312 NA 
HETATM    2  H2  UNL     1     -10.053  14.995  68.727  1.00  0.00     0.000 HD 
HETATM    3  C   UNL     1     -11.164  13.553  67.741  1.00  0.00    -0.282 C  
HETATM    4  H1  UNL     1     -11.048  14.070  69.731  1.00  0.00     0.000 HD 
ENDROOT
BRANCH   3   5
HETATM    5  C   UNL     1     -10.262  13.554  66.504  1.00  0.00    -0.283 C  
BRANCH   5   6
HETATM    6  C   UNL     1      -9.621  12.209  66.253  1.00  0.00    -0.246 A  
HETATM    7  C   UNL     1      -8.534  11.783  67.035  1.00  0.00    -0.175 A  
HETATM    8  C   UNL     1      -7.934  10.557  66.767  1.00  0.00    -0.121 A  
HETATM    9  O   UNL     1      -6.861  10.105  67.487  1.00  0.00    -0.075 OA 
HETATM   10  C   UNL     1      -8.412   9.749  65.740  1.00  0.00    -0.133 A  
HETATM   11  H   UNL     1      -6.452   9.267  67.304  1.00  0.00     0.000 HD 
HETATM   12  C   UNL     1      -9.498  10.141  64.974  1.00  0.00    -0.330 A  
HETATM   13  O   UNL     1      -7.802   8.556  65.472  1.00  0.00    -0.095 OA 
HETATM   14  H   UNL     1      -8.128   8.004  64.771  1.00  0.00     0.000 HD 
HETATM   15  C   UNL     1     -10.105  11.372  65.232  1.00  0.00    -0.315 A  
ENDBRANCH   5   6
ENDBRANCH   3   5
TORSDOF 2
ENDMDL
MODEL      209
REMARK 921   NORMALIZED FREE ENERGY PREDICTED BY IDOCK:   -2.10 KCAL/MOL
REMARK 922        TOTAL FREE ENERGY PREDICTED BY IDOCK:   -2.41 KCAL/MOL
REMARK 923 INTER-LIGAND FREE ENERGY PREDICTED BY IDOCK:   -2.32 KCAL/MOL
REMARK 924 INTRA-LIGAND FREE ENERGY PREDICTED BY IDOCK:   -0.09 KCAL/MOL
REMARK 927      BINDING AFFINITY PREDICTED BY RF-SCORE:    0.00 PKD
ROOT
HETATM    1  N   UNL     1      -7.450   4.860  68.696  1.00  0.00    -0.069 NA 
HETATM    2  H2  UNL     1      -7.028   3.932  68.737  1.00  0.00     0.000 HD 
HETATM    3  C   UNL     1      -8.910   4.790  68.639  1.00  0.00    -0.099 C  
HETATM    4  H1  UNL     1      -7.082   5.409  67.918  1.00  0.00     0.000 HD 
ENDROOT
BRANCH   3   5
HETATM    5  C   UNL     1      -9.461   3.968  69.807  1.00  0.00    -0.265 C  
BRANCH   5   6
HETATM    6  C   UNL     1      -9.690   4.802  71.045  1.00  0.00    -0.257 A  
HETATM    7  C   UNL     1      -8.862   4.648  72.169  1.00  0.00    -0.135 A  
HETATM    8  C   UNL     1      -9.110   5.400  73.313  1.00  0.00    -0.126 A  
HETATM    9  O   UNL     1      -8.345   5.274  74.441  1.00  0.00    -0.104 OA 
HETATM   10  C   UNL     1     -10.163   6.309  73.344  1.00  0.00    -0.222 A  
HETATM   11  H   UNL     1      -8.514   5.787  75.222  1.00  0.00     0.000 HD 
HETATM   12  C   UNL     1     -10.976   6.493  72.237  1.00  0.00    -0.281 A  
HETATM   13  O   UNL     1     -10.410   7.027  74.480  1.00  0.00    -0.434 OA 
HETATM   14  H   UNL     1     -11.129   7.648  74.501  1.00  0.00     0.000 HD 
HETATM   15  C   UNL     1     -10.738   5.740  71.084  1.00  0.00    -0.327 A  
ENDBRANCH   5   6
ENDBRANCH   3   5
TORSDOF 2
ENDMDL
MODEL      210
REMARK 921   NORMALIZED FREE ENERGY PREDICTED BY IDOCK:   -2.07 KCAL/MOL
REMARK 922        TOTAL FREE ENERGY PREDICTED BY IDOCK:   -2.38 KCAL/MOL
REMARK 923 INTER-LIGAND FREE ENERGY PREDICTED BY IDOCK:   -2.30 KCAL/MOL
REMARK 924 INTRA-LIGAND FREE ENERGY PREDICTED BY IDOCK:   -0.07 KCAL/MOL
REMARK 927      BINDING AFFINITY PREDICTED BY RF-SCORE:    0.00 PKD
ROOT
HETATM    1  N   UNL     1      -6.111   3.785  70.412  1.00  0.00    -0.018 NA 
HETATM    2  H2  UNL     1      -5.701   4.630  70.013  1.00  0.00     0.000 HD 
HETATM    3  C   UNL     1      -7.502   3.995  70.813  1.00  0.00    -0.041 C  
HETATM    4  H1  UNL     1      -5.559   3.429  71.193  1.00  0.00     0.000 HD 
ENDROOT
BRANCH   3   5
HETATM    5  C   UNL     1      -8.331   4.528  69.641  1.00  0.00    -0.079 C  
BRANCH   5   6
HETATM    6  C   UNL     1      -9.291   5.617  70.058  1.00  0.00    -0.183 A  
HETATM    7  C   UNL     1      -8.827   6.742  70.761  1.00  0.00    -0.150 A  
HETATM    8  C   UNL     1      -9.731   7.718  71.167  1.00  0.00    -0.158 A  
HETATM    9  O   UNL     1      -9.333   8.824  71.870  1.00  0.00    -0.268 OA 
HETATM   10  C   UNL     1     -11.085   7.591  70.873  1.00  0.00    -0.263 A  
HETATM   11  H   UNL     1      -9.950   9.491  72.147  1.00  0.00     0.000 HD 
HETATM   12  C   UNL     1     -11.558   6.501  70.161  1.00  0.00    -0.466 A  
HETATM   13  O   UNL     1     -11.966   8.545  71.296  1.00  0.00    -0.288 OA 
HETATM   14  H   UNL     1     -12.891   8.459  71.095  1.00  0.00     0.000 HD 
HETATM   15  C   UNL     1     -10.659   5.513  69.750  1.00  0.00    -0.388 A  
ENDBRANCH   5   6
ENDBRANCH   3   5
TORSDOF 2
ENDMDL
MODEL      211
REMARK 921   NORMALIZED FREE ENERGY PREDICTED BY IDOCK:   -2.06 KCAL/MOL
REMARK 922        TOTAL FREE ENERGY PREDICTED BY IDOCK:   -2.37 KCAL/MOL
REMARK 923 INTER-LIGAND FREE ENERGY PREDICTED BY IDOCK:   -2.30 KCAL/MOL
REMARK 924 INTRA-LIGAND FREE ENERGY PREDICTED BY IDOCK:   -0.07 KCAL/MOL
REMARK 927      BINDING AFFINITY PREDICTED BY RF-SCORE:    0.00 PKD
ROOT
HETATM    1  N   UNL     1     -11.237  12.450  66.818  1.00  0.00    -0.292 NA 
HETATM    2  H2  UNL     1     -12.085  12.145  66.339  1.00  0.00     0.000 HD 
HETATM    3  C   UNL     1     -10.321  11.334  67.058  1.00  0.00    -0.227 C  
HETATM    4  H1  UNL     1     -11.449  12.938  67.688  1.00  0.00     0.000 HD 
ENDROOT
BRANCH   3   5
HETATM    5  C   UNL     1     -10.003  10.601  65.752  1.00  0.00    -0.315 C  
BRANCH   5   6
HETATM    6  C   UNL     1      -9.513   9.192  65.984  1.00  0.00    -0.321 A  
HETATM    7  C   UNL     1      -9.956   8.460  67.099  1.00  0.00    -0.304 A  
HETATM    8  C   UNL     1      -9.467   7.176  67.315  1.00  0.00    -0.140 A  
HETATM    9  O   UNL     1      -9.852   6.428  68.395  1.00  0.00    -0.132 OA 
HETATM   10  C   UNL     1      -8.554   6.611  66.430  1.00  0.00    -0.130 A  
HETATM   11  H   UNL     1      -9.518   5.551  68.543  1.00  0.00     0.000 HD 
HETATM   12  C   UNL     1      -8.123   7.308  65.312  1.00  0.00    -0.134 A  
HETATM   13  O   UNL     1      -8.064   5.357  66.664  1.00  0.00    -0.104 OA 
HETATM   14  H   UNL     1      -7.441   4.971  66.060  1.00  0.00     0.000 HD 
HETATM   15  C   UNL     1      -8.605   8.599  65.088  1.00  0.00    -0.200 A  
ENDBRANCH   5   6
ENDBRANCH   3   5
TORSDOF 2
ENDMDL
MODEL      212
REMARK 921   NORMALIZED FREE ENERGY PREDICTED BY IDOCK:   -2.06 KCAL/MOL
REMARK 922        TOTAL FREE ENERGY PREDICTED BY IDOCK:   -2.36 KCAL/MOL
REMARK 923 INTER-LIGAND FREE ENERGY PREDICTED BY IDOCK:   -2.28 KCAL/MOL
REMARK 924 INTRA-LIGAND FREE ENERGY PREDICTED BY IDOCK:   -0.08 KCAL/MOL
REMARK 927      BINDING AFFINITY PREDICTED BY RF-SCORE:    0.00 PKD
ROOT
HETATM    1  N   UNL     1     -11.475   8.497  72.260  1.00  0.00    -0.374 NA 
HETATM    2  H2  UNL     1     -11.695   7.551  71.946  1.00  0.00     0.000 HD 
HETATM    3  C   UNL     1     -10.692   9.229  71.265  1.00  0.00    -0.352 C  
HETATM    4  H1  UNL     1     -11.001   8.494  73.164  1.00  0.00     0.000 HD 
ENDROOT
BRANCH   3   5
HETATM    5  C   UNL     1     -11.404   9.233  69.909  1.00  0.00    -0.083 C  
BRANCH   5   6
HETATM    6  C   UNL     1     -10.542   8.678  68.801  1.00  0.00    -0.169 A  
HETATM    7  C   UNL     1      -9.836   7.477  68.984  1.00  0.00    -0.170 A  
HETATM    8  C   UNL     1      -9.019   6.998  67.964  1.00  0.00    -0.126 A  
HETATM    9  O   UNL     1      -8.296   5.843  68.099  1.00  0.00    -0.114 OA 
HETATM   10  C   UNL     1      -8.908   7.694  66.765  1.00  0.00    -0.136 A  
HETATM   11  H   UNL     1      -7.739   5.517  67.403  1.00  0.00     0.000 HD 
HETATM   12  C   UNL     1      -9.615   8.868  66.556  1.00  0.00    -0.297 A  
HETATM   13  O   UNL     1      -8.087   7.226  65.778  1.00  0.00    -0.114 OA 
HETATM   14  H   UNL     1      -8.011   7.702  64.959  1.00  0.00     0.000 HD 
HETATM   15  C   UNL     1     -10.435   9.359  67.575  1.00  0.00    -0.343 A  
ENDBRANCH   5   6
ENDBRANCH   3   5
TORSDOF 2
ENDMDL
MODEL      213
REMARK 921   NORMALIZED FREE ENERGY PREDICTED BY IDOCK:   -2.05 KCAL/MOL
REMARK 922        TOTAL FREE ENERGY PREDICTED BY IDOCK:   -2.36 KCAL/MOL
REMARK 923 INTER-LIGAND FREE ENERGY PREDICTED BY IDOCK:   -2.29 KCAL/MOL
REMARK 924 INTRA-LIGAND FREE ENERGY PREDICTED BY IDOCK:   -0.07 KCAL/MOL
REMARK 927      BINDING AFFINITY PREDICTED BY RF-SCORE:    0.00 PKD
ROOT
HETATM    1  N   UNL     1      -8.873   4.374  66.643  1.00  0.00    -0.112 NA 
HETATM    2  H2  UNL     1      -9.245   4.540  67.579  1.00  0.00     0.000 HD 
HETATM    3  C   UNL     1      -8.734   5.618  65.888  1.00  0.00    -0.147 C  
HETATM    4  H1  UNL     1      -9.437   3.697  66.127  1.00  0.00     0.000 HD 
ENDROOT
BRANCH   3   5
HETATM    5  C   UNL     1      -7.888   6.633  66.662  1.00  0.00    -0.104 C  
BRANCH   5   6
HETATM    6  C   UNL     1      -8.229   8.061  66.308  1.00  0.00    -0.116 A  
HETATM    7  C   UNL     1      -7.209   9.006  66.107  1.00  0.00    -0.090 A  
HETATM    8  C   UNL     1      -7.543  10.325  65.817  1.00  0.00    -0.143 A  
HETATM    9  O   UNL     1      -6.587  11.288  65.630  1.00  0.00    -0.366 OA 
HETATM   10  C   UNL     1      -8.876  10.709  65.714  1.00  0.00    -0.184 A  
HETATM   11  H   UNL     1      -6.815  12.189  65.432  1.00  0.00     0.000 HD 
HETATM   12  C   UNL     1      -9.896   9.786  65.886  1.00  0.00    -0.352 A  
HETATM   13  O   UNL     1      -9.192  12.011  65.450  1.00  0.00    -0.428 OA 
HETATM   14  H   UNL     1     -10.103  12.273  65.380  1.00  0.00     0.000 HD 
HETATM   15  C   UNL     1      -9.572   8.459  66.181  1.00  0.00    -0.246 A  
ENDBRANCH   5   6
ENDBRANCH   3   5
TORSDOF 2
ENDMDL
MODEL      214
REMARK 921   NORMALIZED FREE ENERGY PREDICTED BY IDOCK:   -2.03 KCAL/MOL
REMARK 922        TOTAL FREE ENERGY PREDICTED BY IDOCK:   -2.33 KCAL/MOL
REMARK 923 INTER-LIGAND FREE ENERGY PREDICTED BY IDOCK:   -2.65 KCAL/MOL
REMARK 924 INTRA-LIGAND FREE ENERGY PREDICTED BY IDOCK:    0.32 KCAL/MOL
REMARK 927      BINDING AFFINITY PREDICTED BY RF-SCORE:    0.00 PKD
ROOT
HETATM    1  N   UNL     1      -8.351   9.980  70.087  1.00  0.00    -0.336 NA 
HETATM    2  H2  UNL     1      -8.096   9.001  70.222  1.00  0.00     0.000 HD 
HETATM    3  C   UNL     1      -9.330  10.141  69.012  1.00  0.00    -0.188 C  
HETATM    4  H1  UNL     1      -7.532  10.565  69.922  1.00  0.00     0.000 HD 
ENDROOT
BRANCH   3   5
HETATM    5  C   UNL     1     -10.560   9.264  69.260  1.00  0.00    -0.234 C  
BRANCH   5   6
HETATM    6  C   UNL     1     -10.390   8.353  70.453  1.00  0.00    -0.219 A  
HETATM    7  C   UNL     1      -9.952   7.029  70.279  1.00  0.00    -0.186 A  
HETATM    8  C   UNL     1      -9.836   6.194  71.385  1.00  0.00    -0.175 A  
HETATM    9  O   UNL     1      -9.431   4.891  71.268  1.00  0.00    -0.143 OA 
HETATM   10  C   UNL     1     -10.138   6.664  72.659  1.00  0.00    -0.174 A  
HETATM   11  H   UNL     1      -9.351   4.320  72.024  1.00  0.00     0.000 HD 
HETATM   12  C   UNL     1     -10.548   7.974  72.853  1.00  0.00    -0.399 A  
HETATM   13  O   UNL     1     -10.040   5.829  73.736  1.00  0.00    -0.182 OA 
HETATM   14  H   UNL     1     -10.246   6.151  74.606  1.00  0.00     0.000 HD 
HETATM   15  C   UNL     1     -10.672   8.820  71.749  1.00  0.00    -0.413 A  
ENDBRANCH   5   6
ENDBRANCH   3   5
TORSDOF 2
ENDMDL
MODEL      215
REMARK 921   NORMALIZED FREE ENERGY PREDICTED BY IDOCK:   -2.01 KCAL/MOL
REMARK 922        TOTAL FREE ENERGY PREDICTED BY IDOCK:   -2.31 KCAL/MOL
REMARK 923 INTER-LIGAND FREE ENERGY PREDICTED BY IDOCK:   -2.23 KCAL/MOL
REMARK 924 INTRA-LIGAND FREE ENERGY PREDICTED BY IDOCK:   -0.08 KCAL/MOL
REMARK 927      BINDING AFFINITY PREDICTED BY RF-SCORE:    0.00 PKD
ROOT
HETATM    1  N   UNL     1      -9.541   8.121  65.733  1.00  0.00    -0.432 NA 
HETATM    2  H2  UNL     1      -8.735   7.505  65.842  1.00  0.00     0.000 HD 
HETATM    3  C   UNL     1     -10.513   7.934  66.810  1.00  0.00    -0.247 C  
HETATM    4  H1  UNL     1      -9.984   8.007  64.821  1.00  0.00     0.000 HD 
ENDROOT
BRANCH   3   5
HETATM    5  C   UNL     1      -9.849   8.105  68.179  1.00  0.00    -0.194 C  
BRANCH   5   6
HETATM    6  C   UNL     1      -9.792   6.815  68.961  1.00  0.00    -0.152 A  
HETATM    7  C   UNL     1      -8.960   5.764  68.540  1.00  0.00    -0.112 A  
HETATM    8  C   UNL     1      -8.947   4.570  69.253  1.00  0.00    -0.096 A  
HETATM    9  O   UNL     1      -8.168   3.510  68.874  1.00  0.00    -0.060 OA 
HETATM   10  C   UNL     1      -9.744   4.416  70.384  1.00  0.00    -0.214 A  
HETATM   11  H   UNL     1      -8.160   2.694  69.362  1.00  0.00     0.000 HD 
HETATM   12  C   UNL     1     -10.553   5.449  70.828  1.00  0.00    -0.293 A  
HETATM   13  O   UNL     1      -9.739   3.231  71.064  1.00  0.00    -0.165 OA 
HETATM   14  H   UNL     1     -10.283   3.126  71.836  1.00  0.00     0.000 HD 
HETATM   15  C   UNL     1     -10.576   6.651  70.117  1.00  0.00    -0.264 A  
ENDBRANCH   5   6
ENDBRANCH   3   5
TORSDOF 2
ENDMDL
MODEL      216
REMARK 921   NORMALIZED FREE ENERGY PREDICTED BY IDOCK:   -1.96 KCAL/MOL
REMARK 922        TOTAL FREE ENERGY PREDICTED BY IDOCK:   -2.25 KCAL/MOL
REMARK 923 INTER-LIGAND FREE ENERGY PREDICTED BY IDOCK:   -2.15 KCAL/MOL
REMARK 924 INTRA-LIGAND FREE ENERGY PREDICTED BY IDOCK:   -0.09 KCAL/MOL
REMARK 927      BINDING AFFINITY PREDICTED BY RF-SCORE:    0.00 PKD
ROOT
HETATM    1  N   UNL     1      -6.170   6.434  68.796  1.00  0.00    -0.028 NA 
HETATM    2  H2  UNL     1      -6.656   6.643  69.668  1.00  0.00     0.000 HD 
HETATM    3  C   UNL     1      -6.229   5.008  68.472  1.00  0.00    -0.031 C  
HETATM    4  H1  UNL     1      -5.204   6.762  68.813  1.00  0.00     0.000 HD 
ENDROOT
BRANCH   3   5
HETATM    5  C   UNL     1      -7.679   4.517  68.445  1.00  0.00    -0.079 C  
BRANCH   5   6
HETATM    6  C   UNL     1      -8.239   4.443  67.045  1.00  0.00    -0.101 A  
HETATM    7  C   UNL     1      -9.628   4.471  66.833  1.00  0.00    -0.208 A  
HETATM    8  C   UNL     1     -10.127   4.367  65.538  1.00  0.00    -0.236 A  
HETATM    9  O   UNL     1     -11.471   4.371  65.280  1.00  0.00    -1.003 OA 
HETATM   10  C   UNL     1      -9.260   4.247  64.456  1.00  0.00    -0.155 A  
HETATM   11  H   UNL     1     -11.812   4.300  64.395  1.00  0.00     0.000 HD 
HETATM   12  C   UNL     1      -7.887   4.242  64.643  1.00  0.00    -0.085 A  
HETATM   13  O   UNL     1      -9.762   4.125  63.192  1.00  0.00    -0.150 OA 
HETATM   14  H   UNL     1      -9.170   4.043  62.453  1.00  0.00     0.000 HD 
HETATM   15  C   UNL     1      -7.375   4.342  65.939  1.00  0.00    -0.077 A  
ENDBRANCH   5   6
ENDBRANCH   3   5
TORSDOF 2
ENDMDL
MODEL      217
REMARK 921   NORMALIZED FREE ENERGY PREDICTED BY IDOCK:   -1.94 KCAL/MOL
REMARK 922        TOTAL FREE ENERGY PREDICTED BY IDOCK:   -2.23 KCAL/MOL
REMARK 923 INTER-LIGAND FREE ENERGY PREDICTED BY IDOCK:   -2.13 KCAL/MOL
REMARK 924 INTRA-LIGAND FREE ENERGY PREDICTED BY IDOCK:   -0.10 KCAL/MOL
REMARK 927      BINDING AFFINITY PREDICTED BY RF-SCORE:    0.00 PKD
ROOT
HETATM    1  N   UNL     1      -9.190  11.771  66.754  1.00  0.00    -0.188 NA 
HETATM    2  H2  UNL     1      -9.335  11.612  65.756  1.00  0.00     0.000 HD 
HETATM    3  C   UNL     1     -10.435  11.634  67.510  1.00  0.00    -0.200 C  
HETATM    4  H1  UNL     1      -8.755  12.676  66.933  1.00  0.00     0.000 HD 
ENDROOT
BRANCH   3   5
HETATM    5  C   UNL     1     -11.089  10.276  67.241  1.00  0.00    -0.215 C  
BRANCH   5   6
HETATM    6  C   UNL     1     -10.581   9.196  68.166  1.00  0.00    -0.235 A  
HETATM    7  C   UNL     1     -10.069   7.996  67.644  1.00  0.00    -0.269 A  
HETATM    8  C   UNL     1      -9.639   6.998  68.513  1.00  0.00    -0.137 A  
HETATM    9  O   UNL     1      -9.149   5.804  68.056  1.00  0.00    -0.112 OA 
HETATM   10  C   UNL     1      -9.702   7.187  69.890  1.00  0.00    -0.170 A  
HETATM   11  H   UNL     1      -8.855   5.122  68.649  1.00  0.00     0.000 HD 
HETATM   12  C   UNL     1     -10.182   8.373  70.423  1.00  0.00    -0.212 A  
HETATM   13  O   UNL     1      -9.296   6.192  70.734  1.00  0.00    -0.156 OA 
HETATM   14  H   UNL     1      -9.340   6.321  71.674  1.00  0.00     0.000 HD 
HETATM   15  C   UNL     1     -10.620   9.380  69.560  1.00  0.00    -0.237 A  
ENDBRANCH   5   6
ENDBRANCH   3   5
TORSDOF 2
ENDMDL
MODEL      218
REMARK 921   NORMALIZED FREE ENERGY PREDICTED BY IDOCK:   -1.93 KCAL/MOL
REMARK 922        TOTAL FREE ENERGY PREDICTED BY IDOCK:   -2.22 KCAL/MOL
REMARK 923 INTER-LIGAND FREE ENERGY PREDICTED BY IDOCK:   -2.12 KCAL/MOL
REMARK 924 INTRA-LIGAND FREE ENERGY PREDICTED BY IDOCK:   -0.10 KCAL/MOL
REMARK 927      BINDING AFFINITY PREDICTED BY RF-SCORE:    0.00 PKD
ROOT
HETATM    1  N   UNL     1      -9.345  15.443  65.596  1.00  0.00    -0.377 NA 
HETATM    2  H2  UNL     1      -9.075  14.460  65.638  1.00  0.00     0.000 HD 
HETATM    3  C   UNL     1     -10.252  15.802  66.686  1.00  0.00    -0.285 C  
HETATM    4  H1  UNL     1      -9.751  15.685  64.692  1.00  0.00     0.000 HD 
ENDROOT
BRANCH   3   5
HETATM    5  C   UNL     1      -9.642  15.439  68.043  1.00  0.00    -0.206 C  
BRANCH   5   6
HETATM    6  C   UNL     1      -9.339  13.965  68.166  1.00  0.00    -0.203 A  
HETATM    7  C   UNL     1      -8.013  13.520  68.295  1.00  0.00    -0.147 A  
HETATM    8  C   UNL     1      -7.750  12.156  68.372  1.00  0.00    -0.134 A  
HETATM    9  O   UNL     1      -6.475  11.670  68.480  1.00  0.00    -0.051 OA 
HETATM   10  C   UNL     1      -8.792  11.234  68.334  1.00  0.00    -0.159 A  
HETATM   11  H   UNL     1      -6.296  10.738  68.532  1.00  0.00     0.000 HD 
HETATM   12  C   UNL     1     -10.109  11.655  68.231  1.00  0.00    -0.206 A  
HETATM   13  O   UNL     1      -8.521   9.897  68.389  1.00  0.00    -0.109 OA 
HETATM   14  H   UNL     1      -9.233   9.267  68.362  1.00  0.00     0.000 HD 
HETATM   15  C   UNL     1     -10.383  13.022  68.149  1.00  0.00    -0.244 A  
ENDBRANCH   5   6
ENDBRANCH   3   5
TORSDOF 2
ENDMDL
MODEL      219
REMARK 921   NORMALIZED FREE ENERGY PREDICTED BY IDOCK:   -1.91 KCAL/MOL
REMARK 922        TOTAL FREE ENERGY PREDICTED BY IDOCK:   -2.20 KCAL/MOL
REMARK 923 INTER-LIGAND FREE ENERGY PREDICTED BY IDOCK:   -2.13 KCAL/MOL
REMARK 924 INTRA-LIGAND FREE ENERGY PREDICTED BY IDOCK:   -0.06 KCAL/MOL
REMARK 927      BINDING AFFINITY PREDICTED BY RF-SCORE:    0.00 PKD
ROOT
HETATM    1  N   UNL     1     -10.865  20.777  69.904  1.00  0.00    -0.043 NA 
HETATM    2  H2  UNL     1     -11.829  20.499  69.716  1.00  0.00     0.000 HD 
HETATM    3  C   UNL     1      -9.920  19.710  69.572  1.00  0.00    -0.052 C  
HETATM    4  H1  UNL     1     -10.741  21.083  70.869  1.00  0.00     0.000 HD 
ENDROOT
BRANCH   3   5
HETATM    5  C   UNL     1     -10.106  19.251  68.123  1.00  0.00    -0.507 C  
BRANCH   5   6
HETATM    6  C   UNL     1      -8.819  18.764  67.500  1.00  0.00    -0.292 A  
HETATM    7  C   UNL     1      -7.817  18.188  68.298  1.00  0.00    -0.301 A  
HETATM    8  C   UNL     1      -6.624  17.778  67.712  1.00  0.00    -0.187 A  
HETATM    9  O   UNL     1      -5.609  17.228  68.448  1.00  0.00    -0.137 OA 
HETATM   10  C   UNL     1      -6.424  17.925  66.343  1.00  0.00    -0.228 A  
HETATM   11  H   UNL     1      -4.794  16.948  68.048  1.00  0.00     0.000 HD 
HETATM   12  C   UNL     1      -7.410  18.469  65.536  1.00  0.00     0.050 A  
HETATM   13  O   UNL     1      -5.240  17.538  65.781  1.00  0.00    -0.249 OA 
HETATM   14  H   UNL     1      -5.104  17.638  64.846  1.00  0.00     0.000 HD 
HETATM   15  C   UNL     1      -8.611  18.887  66.115  1.00  0.00    -0.185 A  
ENDBRANCH   5   6
ENDBRANCH   3   5
TORSDOF 2
ENDMDL
MODEL      220
REMARK 921   NORMALIZED FREE ENERGY PREDICTED BY IDOCK:   -1.89 KCAL/MOL
REMARK 922        TOTAL FREE ENERGY PREDICTED BY IDOCK:   -2.17 KCAL/MOL
REMARK 923 INTER-LIGAND FREE ENERGY PREDICTED BY IDOCK:   -2.12 KCAL/MOL
REMARK 924 INTRA-LIGAND FREE ENERGY PREDICTED BY IDOCK:   -0.05 KCAL/MOL
REMARK 927      BINDING AFFINITY PREDICTED BY RF-SCORE:    0.00 PKD
ROOT
HETATM    1  N   UNL     1     -11.729   8.801  72.142  1.00  0.00    -0.369 NA 
HETATM    2  H2  UNL     1     -10.909   9.088  72.678  1.00  0.00     0.000 HD 
HETATM    3  C   UNL     1     -11.362   7.962  71.002  1.00  0.00    -0.274 C  
HETATM    4  H1  UNL     1     -12.282   9.603  71.839  1.00  0.00     0.000 HD 
ENDROOT
BRANCH   3   5
HETATM    5  C   UNL     1     -10.533   6.758  71.456  1.00  0.00    -0.236 C  
BRANCH   5   6
HETATM    6  C   UNL     1      -9.786   6.106  70.317  1.00  0.00    -0.195 A  
HETATM    7  C   UNL     1      -8.688   6.753  69.725  1.00  0.00    -0.141 A  
HETATM    8  C   UNL     1      -8.034   6.153  68.654  1.00  0.00    -0.101 A  
HETATM    9  O   UNL     1      -6.971   6.750  68.031  1.00  0.00    -0.074 OA 
HETATM   10  C   UNL     1      -8.452   4.915  68.176  1.00  0.00    -0.102 A  
HETATM   11  H   UNL     1      -6.524   6.340  67.299  1.00  0.00     0.000 HD 
HETATM   12  C   UNL     1      -9.518   4.251  68.762  1.00  0.00    -0.230 A  
HETATM   13  O   UNL     1      -7.815   4.345  67.110  1.00  0.00    -0.095 OA 
HETATM   14  H   UNL     1      -8.102   3.500  66.784  1.00  0.00     0.000 HD 
HETATM   15  C   UNL     1     -10.184   4.846  69.836  1.00  0.00    -0.299 A  
ENDBRANCH   5   6
ENDBRANCH   3   5
TORSDOF 2
ENDMDL
MODEL      221
REMARK 921   NORMALIZED FREE ENERGY PREDICTED BY IDOCK:   -1.85 KCAL/MOL
REMARK 922        TOTAL FREE ENERGY PREDICTED BY IDOCK:   -2.13 KCAL/MOL
REMARK 923 INTER-LIGAND FREE ENERGY PREDICTED BY IDOCK:   -2.07 KCAL/MOL
REMARK 924 INTRA-LIGAND FREE ENERGY PREDICTED BY IDOCK:   -0.06 KCAL/MOL
REMARK 927      BINDING AFFINITY PREDICTED BY RF-SCORE:    0.00 PKD
ROOT
HETATM    1  N   UNL     1      -8.074  10.289  69.965  1.00  0.00    -0.343 NA 
HETATM    2  H2  UNL     1      -8.835  10.909  70.240  1.00  0.00     0.000 HD 
HETATM    3  C   UNL     1      -8.475   8.883  70.020  1.00  0.00    -0.139 C  
HETATM    4  H1  UNL     1      -7.235  10.449  70.524  1.00  0.00     0.000 HD 
ENDROOT
BRANCH   3   5
HETATM    5  C   UNL     1      -9.732   8.643  69.180  1.00  0.00    -0.173 C  
BRANCH   5   6
HETATM    6  C   UNL     1      -9.566   7.504  68.202  1.00  0.00    -0.155 A  
HETATM    7  C   UNL     1      -9.090   7.748  66.902  1.00  0.00    -0.171 A  
HETATM    8  C   UNL     1      -8.978   6.692  66.004  1.00  0.00    -0.112 A  
HETATM    9  O   UNL     1      -8.537   6.878  64.721  1.00  0.00    -0.351 OA 
HETATM   10  C   UNL     1      -9.321   5.399  66.388  1.00  0.00    -0.150 A  
HETATM   11  H   UNL     1      -8.460   6.157  64.107  1.00  0.00     0.000 HD 
HETATM   12  C   UNL     1      -9.770   5.136  67.673  1.00  0.00    -0.178 A  
HETATM   13  O   UNL     1      -9.227   4.373  65.491  1.00  0.00    -0.134 OA 
HETATM   14  H   UNL     1      -9.462   3.491  65.753  1.00  0.00     0.000 HD 
HETATM   15  C   UNL     1      -9.891   6.189  68.582  1.00  0.00    -0.160 A  
ENDBRANCH   5   6
ENDBRANCH   3   5
TORSDOF 2
ENDMDL
MODEL      222
REMARK 921   NORMALIZED FREE ENERGY PREDICTED BY IDOCK:   -1.85 KCAL/MOL
REMARK 922        TOTAL FREE ENERGY PREDICTED BY IDOCK:   -2.13 KCAL/MOL
REMARK 923 INTER-LIGAND FREE ENERGY PREDICTED BY IDOCK:   -2.25 KCAL/MOL
REMARK 924 INTRA-LIGAND FREE ENERGY PREDICTED BY IDOCK:    0.12 KCAL/MOL
REMARK 927      BINDING AFFINITY PREDICTED BY RF-SCORE:    0.00 PKD
ROOT
HETATM    1  N   UNL     1      -6.160   9.421  67.993  1.00  0.00    -0.052 NA 
HETATM    2  H2  UNL     1      -6.996   9.435  68.578  1.00  0.00     0.000 HD 
HETATM    3  C   UNL     1      -6.398  10.050  66.694  1.00  0.00    -0.070 C  
HETATM    4  H1  UNL     1      -5.796   8.475  67.876  1.00  0.00     0.000 HD 
ENDROOT
BRANCH   3   5
HETATM    5  C   UNL     1      -6.943  11.470  66.869  1.00  0.00    -0.134 C  
BRANCH   5   6
HETATM    6  C   UNL     1      -8.391  11.485  67.298  1.00  0.00    -0.154 A  
HETATM    7  C   UNL     1      -9.159  10.309  67.251  1.00  0.00    -0.150 A  
HETATM    8  C   UNL     1     -10.500  10.350  67.617  1.00  0.00    -0.233 A  
HETATM    9  O   UNL     1     -11.296   9.237  67.571  1.00  0.00    -0.315 OA 
HETATM   10  C   UNL     1     -11.080  11.542  68.038  1.00  0.00    -0.254 A  
HETATM   11  H   UNL     1     -12.212   9.264  67.821  1.00  0.00     0.000 HD 
HETATM   12  C   UNL     1     -10.333  12.707  68.114  1.00  0.00    -0.238 A  
HETATM   13  O   UNL     1     -12.404  11.575  68.375  1.00  0.00    -0.461 OA 
HETATM   14  H   UNL     1     -12.800  12.389  68.663  1.00  0.00     0.000 HD 
HETATM   15  C   UNL     1      -8.986  12.678  67.746  1.00  0.00    -0.189 A  
ENDBRANCH   5   6
ENDBRANCH   3   5
TORSDOF 2
ENDMDL
MODEL      223
REMARK 921   NORMALIZED FREE ENERGY PREDICTED BY IDOCK:   -1.84 KCAL/MOL
REMARK 922        TOTAL FREE ENERGY PREDICTED BY IDOCK:   -2.12 KCAL/MOL
REMARK 923 INTER-LIGAND FREE ENERGY PREDICTED BY IDOCK:   -2.07 KCAL/MOL
REMARK 924 INTRA-LIGAND FREE ENERGY PREDICTED BY IDOCK:   -0.05 KCAL/MOL
REMARK 927      BINDING AFFINITY PREDICTED BY RF-SCORE:    0.00 PKD
ROOT
HETATM    1  N   UNL     1     -12.070   7.107  70.242  1.00  0.00    -0.588 NA 
HETATM    2  H2  UNL     1     -11.520   7.499  71.007  1.00  0.00     0.000 HD 
HETATM    3  C   UNL     1     -11.244   6.304  69.339  1.00  0.00    -0.420 C  
HETATM    4  H1  UNL     1     -12.571   7.831  69.727  1.00  0.00     0.000 HD 
ENDROOT
BRANCH   3   5
HETATM    5  C   UNL     1     -10.493   5.217  70.112  1.00  0.00    -0.338 C  
BRANCH   5   6
HETATM    6  C   UNL     1      -9.201   4.816  69.439  1.00  0.00    -0.169 A  
HETATM    7  C   UNL     1      -9.218   3.984  68.307  1.00  0.00    -0.202 A  
HETATM    8  C   UNL     1      -8.018   3.597  67.722  1.00  0.00    -0.081 A  
HETATM    9  O   UNL     1      -7.979   2.773  66.629  1.00  0.00    -0.076 OA 
HETATM   10  C   UNL     1      -6.805   4.037  68.243  1.00  0.00    -0.047 A  
HETATM   11  H   UNL     1      -7.158   2.508  66.229  1.00  0.00     0.000 HD 
HETATM   12  C   UNL     1      -6.769   4.877  69.345  1.00  0.00    -0.051 A  
HETATM   13  O   UNL     1      -5.631   3.633  67.673  1.00  0.00    -0.019 OA 
HETATM   14  H   UNL     1      -4.803   3.934  68.029  1.00  0.00     0.000 HD 
HETATM   15  C   UNL     1      -7.969   5.269  69.942  1.00  0.00    -0.083 A  
ENDBRANCH   5   6
ENDBRANCH   3   5
TORSDOF 2
ENDMDL
MODEL      224
REMARK 921   NORMALIZED FREE ENERGY PREDICTED BY IDOCK:   -1.84 KCAL/MOL
REMARK 922        TOTAL FREE ENERGY PREDICTED BY IDOCK:   -2.12 KCAL/MOL
REMARK 923 INTER-LIGAND FREE ENERGY PREDICTED BY IDOCK:   -2.04 KCAL/MOL
REMARK 924 INTRA-LIGAND FREE ENERGY PREDICTED BY IDOCK:   -0.08 KCAL/MOL
REMARK 927      BINDING AFFINITY PREDICTED BY RF-SCORE:    0.00 PKD
ROOT
HETATM    1  N   UNL     1      -5.418   9.271  68.995  1.00  0.00    -0.037 NA 
HETATM    2  H2  UNL     1      -5.593   8.363  69.426  1.00  0.00     0.000 HD 
HETATM    3  C   UNL     1      -6.420   9.590  67.978  1.00  0.00    -0.061 C  
HETATM    4  H1  UNL     1      -4.476   9.329  68.607  1.00  0.00     0.000 HD 
ENDROOT
BRANCH   3   5
HETATM    5  C   UNL     1      -7.833   9.503  68.561  1.00  0.00    -0.085 C  
BRANCH   5   6
HETATM    6  C   UNL     1      -8.651   8.399  67.934  1.00  0.00    -0.131 A  
HETATM    7  C   UNL     1      -8.064   7.155  67.647  1.00  0.00    -0.114 A  
HETATM    8  C   UNL     1      -8.823   6.162  67.037  1.00  0.00    -0.110 A  
HETATM    9  O   UNL     1      -8.294   4.940  66.719  1.00  0.00    -0.107 OA 
HETATM   10  C   UNL     1     -10.159   6.390  66.722  1.00  0.00    -0.179 A  
HETATM   11  H   UNL     1      -8.813   4.262  66.303  1.00  0.00     0.000 HD 
HETATM   12  C   UNL     1     -10.762   7.602  67.020  1.00  0.00    -0.340 A  
HETATM   13  O   UNL     1     -10.890   5.415  66.105  1.00  0.00    -0.623 OA 
HETATM   14  H   UNL     1     -11.802   5.570  65.890  1.00  0.00     0.000 HD 
HETATM   15  C   UNL     1     -10.008   8.607  67.629  1.00  0.00    -0.248 A  
ENDBRANCH   5   6
ENDBRANCH   3   5
TORSDOF 2
ENDMDL
MODEL      225
REMARK 921   NORMALIZED FREE ENERGY PREDICTED BY IDOCK:   -1.84 KCAL/MOL
REMARK 922        TOTAL FREE ENERGY PREDICTED BY IDOCK:   -2.12 KCAL/MOL
REMARK 923 INTER-LIGAND FREE ENERGY PREDICTED BY IDOCK:   -2.05 KCAL/MOL
REMARK 924 INTRA-LIGAND FREE ENERGY PREDICTED BY IDOCK:   -0.07 KCAL/MOL
REMARK 927      BINDING AFFINITY PREDICTED BY RF-SCORE:    0.00 PKD
ROOT
HETATM    1  N   UNL     1     -10.666   6.809  72.710  1.00  0.00    -0.232 NA 
HETATM    2  H2  UNL     1     -10.759   5.884  72.290  1.00  0.00     0.000 HD 
HETATM    3  C   UNL     1      -9.764   7.665  71.940  1.00  0.00    -0.164 C  
HETATM    4  H1  UNL     1     -10.369   6.753  73.685  1.00  0.00     0.000 HD 
ENDROOT
BRANCH   3   5
HETATM    5  C   UNL     1     -10.210   7.748  70.478  1.00  0.00    -0.201 C  
BRANCH   5   6
HETATM    6  C   UNL     1      -9.435   8.780  69.694  1.00  0.00    -0.170 A  
HETATM    7  C   UNL     1      -8.451   9.560  70.325  1.00  0.00    -0.237 A  
HETATM    8  C   UNL     1      -7.772  10.530  69.595  1.00  0.00    -0.110 A  
HETATM    9  O   UNL     1      -6.818  11.329  70.166  1.00  0.00    -0.411 OA 
HETATM   10  C   UNL     1      -8.052  10.722  68.245  1.00  0.00    -0.121 A  
HETATM   11  H   UNL     1      -6.354  11.991  69.667  1.00  0.00     0.000 HD 
HETATM   12  C   UNL     1      -9.001   9.945  67.600  1.00  0.00    -0.133 A  
HETATM   13  O   UNL     1      -7.393  11.691  67.543  1.00  0.00    -0.103 OA 
HETATM   14  H   UNL     1      -7.584  11.822  66.622  1.00  0.00     0.000 HD 
HETATM   15  C   UNL     1      -9.692   8.971  68.324  1.00  0.00    -0.169 A  
ENDBRANCH   5   6
ENDBRANCH   3   5
TORSDOF 2
ENDMDL
MODEL      226
REMARK 921   NORMALIZED FREE ENERGY PREDICTED BY IDOCK:   -1.83 KCAL/MOL
REMARK 922        TOTAL FREE ENERGY PREDICTED BY IDOCK:   -2.11 KCAL/MOL
REMARK 923 INTER-LIGAND FREE ENERGY PREDICTED BY IDOCK:   -2.18 KCAL/MOL
REMARK 924 INTRA-LIGAND FREE ENERGY PREDICTED BY IDOCK:    0.07 KCAL/MOL
REMARK 927      BINDING AFFINITY PREDICTED BY RF-SCORE:    0.00 PKD
ROOT
HETATM    1  N   UNL     1      -7.974  12.170  66.800  1.00  0.00    -0.360 NA 
HETATM    2  H2  UNL     1      -8.344  12.782  66.072  1.00  0.00     0.000 HD 
HETATM    3  C   UNL     1      -9.045  11.506  67.543  1.00  0.00    -0.166 C  
HETATM    4  H1  UNL     1      -7.349  12.670  67.433  1.00  0.00     0.000 HD 
ENDROOT
BRANCH   3   5
HETATM    5  C   UNL     1      -9.982  10.756  66.594  1.00  0.00    -0.251 C  
BRANCH   5   6
HETATM    6  C   UNL     1      -9.479   9.371  66.258  1.00  0.00    -0.273 A  
HETATM    7  C   UNL     1      -8.369   9.204  65.413  1.00  0.00    -0.147 A  
HETATM    8  C   UNL     1      -7.942   7.921  65.087  1.00  0.00    -0.132 A  
HETATM    9  O   UNL     1      -6.878   7.703  64.254  1.00  0.00    -0.054 OA 
HETATM   10  C   UNL     1      -8.599   6.807  65.602  1.00  0.00    -0.117 A  
HETATM   11  H   UNL     1      -6.586   6.826  64.032  1.00  0.00     0.000 HD 
HETATM   12  C   UNL     1      -9.681   6.952  66.456  1.00  0.00    -0.185 A  
HETATM   13  O   UNL     1      -8.184   5.552  65.258  1.00  0.00    -0.122 OA 
HETATM   14  H   UNL     1      -8.633   4.791  65.609  1.00  0.00     0.000 HD 
HETATM   15  C   UNL     1     -10.121   8.236  66.787  1.00  0.00    -0.373 A  
ENDBRANCH   5   6
ENDBRANCH   3   5
TORSDOF 2
ENDMDL
MODEL      227
REMARK 921   NORMALIZED FREE ENERGY PREDICTED BY IDOCK:   -1.73 KCAL/MOL
REMARK 922        TOTAL FREE ENERGY PREDICTED BY IDOCK:   -2.00 KCAL/MOL
REMARK 923 INTER-LIGAND FREE ENERGY PREDICTED BY IDOCK:   -2.11 KCAL/MOL
REMARK 924 INTRA-LIGAND FREE ENERGY PREDICTED BY IDOCK:    0.11 KCAL/MOL
REMARK 927      BINDING AFFINITY PREDICTED BY RF-SCORE:    0.00 PKD
ROOT
HETATM    1  N   UNL     1      -9.382  12.761  67.653  1.00  0.00    -0.184 NA 
HETATM    2  H2  UNL     1      -9.485  12.545  66.661  1.00  0.00     0.000 HD 
HETATM    3  C   UNL     1     -10.642  12.593  68.377  1.00  0.00    -0.243 C  
HETATM    4  H1  UNL     1      -9.002  13.696  67.799  1.00  0.00     0.000 HD 
ENDROOT
BRANCH   3   5
HETATM    5  C   UNL     1     -11.211  11.188  68.159  1.00  0.00    -0.356 C  
BRANCH   5   6
HETATM    6  C   UNL     1     -10.135  10.130  68.101  1.00  0.00    -0.178 A  
HETATM    7  C   UNL     1      -9.989   9.328  66.956  1.00  0.00    -0.286 A  
HETATM    8  C   UNL     1      -9.015   8.335  66.934  1.00  0.00    -0.146 A  
HETATM    9  O   UNL     1      -8.843   7.515  65.851  1.00  0.00    -0.195 OA 
HETATM   10  C   UNL     1      -8.182   8.140  68.031  1.00  0.00    -0.129 A  
HETATM   11  H   UNL     1      -8.178   6.837  65.836  1.00  0.00     0.000 HD 
HETATM   12  C   UNL     1      -8.296   8.936  69.160  1.00  0.00    -0.124 A  
HETATM   13  O   UNL     1      -7.243   7.148  68.007  1.00  0.00    -0.086 OA 
HETATM   14  H   UNL     1      -6.674   7.015  68.756  1.00  0.00     0.000 HD 
HETATM   15  C   UNL     1      -9.272   9.935  69.194  1.00  0.00    -0.184 A  
ENDBRANCH   5   6
ENDBRANCH   3   5
TORSDOF 2
ENDMDL
MODEL      228
REMARK 921   NORMALIZED FREE ENERGY PREDICTED BY IDOCK:   -1.67 KCAL/MOL
REMARK 922        TOTAL FREE ENERGY PREDICTED BY IDOCK:   -1.93 KCAL/MOL
REMARK 923 INTER-LIGAND FREE ENERGY PREDICTED BY IDOCK:   -2.15 KCAL/MOL
REMARK 924 INTRA-LIGAND FREE ENERGY PREDICTED BY IDOCK:    0.22 KCAL/MOL
REMARK 927      BINDING AFFINITY PREDICTED BY RF-SCORE:    0.00 PKD
ROOT
HETATM    1  N   UNL     1      -6.413  10.761  70.839  1.00  0.00    -0.414 NA 
HETATM    2  H2  UNL     1      -7.412  10.964  70.874  1.00  0.00     0.000 HD 
HETATM    3  C   UNL     1      -6.154   9.393  70.389  1.00  0.00    -0.054 C  
HETATM    4  H1  UNL     1      -5.960  10.939  71.736  1.00  0.00     0.000 HD 
ENDROOT
BRANCH   3   5
HETATM    5  C   UNL     1      -6.833   9.126  69.044  1.00  0.00    -0.055 C  
BRANCH   5   6
HETATM    6  C   UNL     1      -7.962  10.089  68.763  1.00  0.00    -0.096 A  
HETATM    7  C   UNL     1      -7.803  11.114  67.814  1.00  0.00    -0.114 A  
HETATM    8  C   UNL     1      -8.841  12.013  67.595  1.00  0.00    -0.172 A  
HETATM    9  O   UNL     1      -8.730  13.039  66.695  1.00  0.00    -0.392 OA 
HETATM   10  C   UNL     1     -10.035  11.897  68.299  1.00  0.00    -0.202 A  
HETATM   11  H   UNL     1      -9.439  13.654  66.545  1.00  0.00     0.000 HD 
HETATM   12  C   UNL     1     -10.220  10.879  69.221  1.00  0.00    -0.190 A  
HETATM   13  O   UNL     1     -11.040  12.798  68.090  1.00  0.00    -0.231 OA 
HETATM   14  H   UNL     1     -11.856  12.719  68.571  1.00  0.00     0.000 HD 
HETATM   15  C   UNL     1      -9.183   9.972  69.452  1.00  0.00    -0.229 A  
ENDBRANCH   5   6
ENDBRANCH   3   5
TORSDOF 2
ENDMDL
MODEL      229
REMARK 921   NORMALIZED FREE ENERGY PREDICTED BY IDOCK:   -1.67 KCAL/MOL
REMARK 922        TOTAL FREE ENERGY PREDICTED BY IDOCK:   -1.93 KCAL/MOL
REMARK 923 INTER-LIGAND FREE ENERGY PREDICTED BY IDOCK:   -1.88 KCAL/MOL
REMARK 924 INTRA-LIGAND FREE ENERGY PREDICTED BY IDOCK:   -0.05 KCAL/MOL
REMARK 927      BINDING AFFINITY PREDICTED BY RF-SCORE:    0.00 PKD
ROOT
HETATM    1  N   UNL     1      -7.183  10.706  63.110  1.00  0.00    -0.344 NA 
HETATM    2  H2  UNL     1      -6.274  10.319  62.856  1.00  0.00     0.000 HD 
HETATM    3  C   UNL     1      -8.255   9.726  62.938  1.00  0.00    -0.153 C  
HETATM    4  H1  UNL     1      -7.388  11.561  62.592  1.00  0.00     0.000 HD 
ENDROOT
BRANCH   3   5
HETATM    5  C   UNL     1      -7.949   8.443  63.715  1.00  0.00    -0.159 C  
BRANCH   5   6
HETATM    6  C   UNL     1      -8.797   8.301  64.957  1.00  0.00     0.026 A  
HETATM    7  C   UNL     1      -9.158   7.028  65.429  1.00  0.00     0.286 A  
HETATM    8  C   UNL     1      -9.969   6.917  66.554  1.00  0.00    -0.081 A  
HETATM    9  O   UNL     1     -10.363   5.702  67.044  1.00  0.00    -0.199 OA 
HETATM   10  C   UNL     1     -10.414   8.057  67.217  1.00  0.00    -0.314 A  
HETATM   11  H   UNL     1     -10.917   5.626  67.812  1.00  0.00     0.000 HD 
HETATM   12  C   UNL     1     -10.049   9.321  66.780  1.00  0.00    -0.331 A  
HETATM   13  O   UNL     1     -11.227   7.937  68.308  1.00  0.00    -0.323 OA 
HETATM   14  H   UNL     1     -11.531   8.715  68.760  1.00  0.00     0.000 HD 
HETATM   15  C   UNL     1      -9.238   9.443  65.649  1.00  0.00    -0.285 A  
ENDBRANCH   5   6
ENDBRANCH   3   5
TORSDOF 2
ENDMDL
MODEL      230
REMARK 921   NORMALIZED FREE ENERGY PREDICTED BY IDOCK:   -1.62 KCAL/MOL
REMARK 922        TOTAL FREE ENERGY PREDICTED BY IDOCK:   -1.88 KCAL/MOL
REMARK 923 INTER-LIGAND FREE ENERGY PREDICTED BY IDOCK:   -2.11 KCAL/MOL
REMARK 924 INTRA-LIGAND FREE ENERGY PREDICTED BY IDOCK:    0.23 KCAL/MOL
REMARK 927      BINDING AFFINITY PREDICTED BY RF-SCORE:    0.00 PKD
ROOT
HETATM    1  N   UNL     1      -7.561   9.465  70.809  1.00  0.00    -0.228 NA 
HETATM    2  H2  UNL     1      -7.599  10.473  70.959  1.00  0.00     0.000 HD 
HETATM    3  C   UNL     1      -8.716   8.787  71.399  1.00  0.00    -0.214 C  
HETATM    4  H1  UNL     1      -6.690   9.063  71.156  1.00  0.00     0.000 HD 
ENDROOT
BRANCH   3   5
HETATM    5  C   UNL     1     -10.024   9.388  70.879  1.00  0.00    -0.353 C  
BRANCH   5   6
HETATM    6  C   UNL     1      -9.881   9.975  69.494  1.00  0.00    -0.249 A  
HETATM    7  C   UNL     1      -9.493   9.163  68.415  1.00  0.00    -0.150 A  
HETATM    8  C   UNL     1      -9.332   9.729  67.154  1.00  0.00    -0.142 A  
HETATM    9  O   UNL     1      -8.938   8.985  66.074  1.00  0.00    -0.160 OA 
HETATM   10  C   UNL     1      -9.564  11.086  66.955  1.00  0.00    -0.177 A  
HETATM   11  H   UNL     1      -8.828   9.371  65.213  1.00  0.00     0.000 HD 
HETATM   12  C   UNL     1      -9.971  11.898  68.002  1.00  0.00    -0.192 A  
HETATM   13  O   UNL     1      -9.383  11.634  65.717  1.00  0.00    -0.229 OA 
HETATM   14  H   UNL     1      -9.542  12.561  65.581  1.00  0.00     0.000 HD 
HETATM   15  C   UNL     1     -10.132  11.341  69.273  1.00  0.00    -0.018 A  
ENDBRANCH   5   6
ENDBRANCH   3   5
TORSDOF 2
ENDMDL
MODEL      231
REMARK 921   NORMALIZED FREE ENERGY PREDICTED BY IDOCK:   -1.57 KCAL/MOL
REMARK 922        TOTAL FREE ENERGY PREDICTED BY IDOCK:   -1.82 KCAL/MOL
REMARK 923 INTER-LIGAND FREE ENERGY PREDICTED BY IDOCK:   -1.72 KCAL/MOL
REMARK 924 INTRA-LIGAND FREE ENERGY PREDICTED BY IDOCK:   -0.09 KCAL/MOL
REMARK 927      BINDING AFFINITY PREDICTED BY RF-SCORE:    0.00 PKD
ROOT
HETATM    1  N   UNL     1      -7.115  10.684  63.145  1.00  0.00    -0.344 NA 
HETATM    2  H2  UNL     1      -6.208  10.450  62.741  1.00  0.00     0.000 HD 
HETATM    3  C   UNL     1      -8.002   9.522  63.193  1.00  0.00    -0.141 C  
HETATM    4  H1  UNL     1      -7.559  11.459  62.653  1.00  0.00     0.000 HD 
ENDROOT
BRANCH   3   5
HETATM    5  C   UNL     1      -7.335   8.359  63.933  1.00  0.00    -0.102 C  
BRANCH   5   6
HETATM    6  C   UNL     1      -7.691   8.326  65.400  1.00  0.00    -0.103 A  
HETATM    7  C   UNL     1      -8.974   8.706  65.829  1.00  0.00    -0.244 A  
HETATM    8  C   UNL     1      -9.273   8.703  67.187  1.00  0.00    -0.144 A  
HETATM    9  O   UNL     1     -10.501   9.082  67.658  1.00  0.00    -0.245 OA 
HETATM   10  C   UNL     1      -8.315   8.314  68.119  1.00  0.00    -0.129 A  
HETATM   11  H   UNL     1     -10.706   9.080  68.586  1.00  0.00     0.000 HD 
HETATM   12  C   UNL     1      -7.052   7.913  67.714  1.00  0.00    -0.086 A  
HETATM   13  O   UNL     1      -8.613   8.335  69.452  1.00  0.00    -0.131 OA 
HETATM   14  H   UNL     1      -7.959   8.070  70.088  1.00  0.00     0.000 HD 
HETATM   15  C   UNL     1      -6.740   7.916  66.352  1.00  0.00    -0.054 A  
ENDBRANCH   5   6
ENDBRANCH   3   5
TORSDOF 2
ENDMDL
MODEL      232
REMARK 921   NORMALIZED FREE ENERGY PREDICTED BY IDOCK:   -1.55 KCAL/MOL
REMARK 922        TOTAL FREE ENERGY PREDICTED BY IDOCK:   -1.79 KCAL/MOL
REMARK 923 INTER-LIGAND FREE ENERGY PREDICTED BY IDOCK:   -1.70 KCAL/MOL
REMARK 924 INTRA-LIGAND FREE ENERGY PREDICTED BY IDOCK:   -0.09 KCAL/MOL
REMARK 927      BINDING AFFINITY PREDICTED BY RF-SCORE:    0.00 PKD
ROOT
HETATM    1  N   UNL     1     -11.292   6.023  66.625  1.00  0.00    -0.686 NA 
HETATM    2  H2  UNL     1     -11.539   6.873  66.118  1.00  0.00     0.000 HD 
HETATM    3  C   UNL     1      -9.996   6.150  67.292  1.00  0.00    -0.144 C  
HETATM    4  H1  UNL     1     -11.309   5.203  66.019  1.00  0.00     0.000 HD 
ENDROOT
BRANCH   3   5
HETATM    5  C   UNL     1      -9.971   7.380  68.202  1.00  0.00    -0.190 C  
BRANCH   5   6
HETATM    6  C   UNL     1      -8.796   8.286  67.919  1.00  0.00    -0.138 A  
HETATM    7  C   UNL     1      -7.933   8.015  66.844  1.00  0.00    -0.104 A  
HETATM    8  C   UNL     1      -6.836   8.840  66.619  1.00  0.00    -0.072 A  
HETATM    9  O   UNL     1      -5.955   8.609  65.598  1.00  0.00    -0.050 OA 
HETATM   10  C   UNL     1      -6.597   9.935  67.444  1.00  0.00    -0.069 A  
HETATM   11  H   UNL     1      -5.206   9.173  65.444  1.00  0.00     0.000 HD 
HETATM   12  C   UNL     1      -7.451  10.233  68.494  1.00  0.00    -0.084 A  
HETATM   13  O   UNL     1      -5.505  10.727  67.227  1.00  0.00    -0.040 OA 
HETATM   14  H   UNL     1      -5.342  11.475  67.790  1.00  0.00     0.000 HD 
HETATM   15  C   UNL     1      -8.554   9.409  68.731  1.00  0.00    -0.127 A  
ENDBRANCH   5   6
ENDBRANCH   3   5
TORSDOF 2
ENDMDL
MODEL      233
REMARK 921   NORMALIZED FREE ENERGY PREDICTED BY IDOCK:   -1.52 KCAL/MOL
REMARK 922        TOTAL FREE ENERGY PREDICTED BY IDOCK:   -1.76 KCAL/MOL
REMARK 923 INTER-LIGAND FREE ENERGY PREDICTED BY IDOCK:   -2.12 KCAL/MOL
REMARK 924 INTRA-LIGAND FREE ENERGY PREDICTED BY IDOCK:    0.36 KCAL/MOL
REMARK 927      BINDING AFFINITY PREDICTED BY RF-SCORE:    0.00 PKD
ROOT
HETATM    1  N   UNL     1      -7.648   9.398  70.720  1.00  0.00    -0.228 NA 
HETATM    2  H2  UNL     1      -7.932  10.373  70.615  1.00  0.00     0.000 HD 
HETATM    3  C   UNL     1      -8.690   8.599  71.365  1.00  0.00    -0.204 C  
HETATM    4  H1  UNL     1      -6.764   9.314  71.221  1.00  0.00     0.000 HD 
ENDROOT
BRANCH   3   5
HETATM    5  C   UNL     1     -10.017   8.725  70.612  1.00  0.00    -0.242 C  
BRANCH   5   6
HETATM    6  C   UNL     1      -9.850   8.589  69.117  1.00  0.00    -0.186 A  
HETATM    7  C   UNL     1      -9.411   9.681  68.349  1.00  0.00    -0.143 A  
HETATM    8  C   UNL     1      -9.297   9.548  66.969  1.00  0.00    -0.148 A  
HETATM    9  O   UNL     1      -8.892  10.586  66.174  1.00  0.00    -0.150 OA 
HETATM   10  C   UNL     1      -9.603   8.340  66.350  1.00  0.00    -0.230 A  
HETATM   11  H   UNL     1      -8.814  10.494  65.231  1.00  0.00     0.000 HD 
HETATM   12  C   UNL     1     -10.014   7.245  67.094  1.00  0.00    -0.279 A  
HETATM   13  O   UNL     1      -9.507   8.226  64.992  1.00  0.00    -0.128 OA 
HETATM   14  H   UNL     1      -9.716   7.401  64.569  1.00  0.00     0.000 HD 
HETATM   15  C   UNL     1     -10.136   7.369  68.480  1.00  0.00    -0.187 A  
ENDBRANCH   5   6
ENDBRANCH   3   5
TORSDOF 2
ENDMDL
MODEL      234
REMARK 921   NORMALIZED FREE ENERGY PREDICTED BY IDOCK:   -1.48 KCAL/MOL
REMARK 922        TOTAL FREE ENERGY PREDICTED BY IDOCK:   -1.72 KCAL/MOL
REMARK 923 INTER-LIGAND FREE ENERGY PREDICTED BY IDOCK:   -1.65 KCAL/MOL
REMARK 924 INTRA-LIGAND FREE ENERGY PREDICTED BY IDOCK:   -0.07 KCAL/MOL
REMARK 927      BINDING AFFINITY PREDICTED BY RF-SCORE:    0.00 PKD
ROOT
HETATM    1  N   UNL     1      -6.797  12.123  69.142  1.00  0.00    -0.169 NA 
HETATM    2  H2  UNL     1      -6.883  12.248  70.151  1.00  0.00     0.000 HD 
HETATM    3  C   UNL     1      -7.342  10.836  68.709  1.00  0.00    -0.104 C  
HETATM    4  H1  UNL     1      -5.833  12.232  68.828  1.00  0.00     0.000 HD 
ENDROOT
BRANCH   3   5
HETATM    5  C   UNL     1      -8.790  10.673  69.180  1.00  0.00    -0.133 C  
BRANCH   5   6
HETATM    6  C   UNL     1      -9.274   9.246  69.079  1.00  0.00    -0.144 A  
HETATM    7  C   UNL     1      -8.556   8.304  68.323  1.00  0.00    -0.133 A  
HETATM    8  C   UNL     1      -9.036   7.003  68.212  1.00  0.00    -0.126 A  
HETATM    9  O   UNL     1      -8.384   6.052  67.474  1.00  0.00    -0.109 OA 
HETATM   10  C   UNL     1     -10.213   6.629  68.853  1.00  0.00    -0.177 A  
HETATM   11  H   UNL     1      -8.712   5.164  67.398  1.00  0.00     0.000 HD 
HETATM   12  C   UNL     1     -10.923   7.538  69.623  1.00  0.00    -0.164 A  
HETATM   13  O   UNL     1     -10.686   5.354  68.721  1.00  0.00    -0.174 OA 
HETATM   14  H   UNL     1     -11.490   5.099  69.158  1.00  0.00     0.000 HD 
HETATM   15  C   UNL     1     -10.451   8.848  69.737  1.00  0.00    -0.217 A  
ENDBRANCH   5   6
ENDBRANCH   3   5
TORSDOF 2
ENDMDL
MODEL      235
REMARK 921   NORMALIZED FREE ENERGY PREDICTED BY IDOCK:   -1.45 KCAL/MOL
REMARK 922        TOTAL FREE ENERGY PREDICTED BY IDOCK:   -1.68 KCAL/MOL
REMARK 923 INTER-LIGAND FREE ENERGY PREDICTED BY IDOCK:   -1.63 KCAL/MOL
REMARK 924 INTRA-LIGAND FREE ENERGY PREDICTED BY IDOCK:   -0.05 KCAL/MOL
REMARK 927      BINDING AFFINITY PREDICTED BY RF-SCORE:    0.00 PKD
ROOT
HETATM    1  N   UNL     1     -11.219   4.829  71.986  1.00  0.00     0.202 NA 
HETATM    2  H2  UNL     1     -11.950   4.266  71.552  1.00  0.00     0.000 HD 
HETATM    3  C   UNL     1     -10.391   5.505  70.987  1.00  0.00    -0.239 C  
HETATM    4  H1  UNL     1     -10.642   4.276  72.621  1.00  0.00     0.000 HD 
ENDROOT
BRANCH   3   5
HETATM    5  C   UNL     1     -11.256   6.335  70.035  1.00  0.00    -0.480 C  
BRANCH   5   6
HETATM    6  C   UNL     1     -10.438   7.260  69.166  1.00  0.00    -0.222 A  
HETATM    7  C   UNL     1      -9.431   6.745  68.332  1.00  0.00    -0.126 A  
HETATM    8  C   UNL     1      -8.664   7.616  67.565  1.00  0.00    -0.125 A  
HETATM    9  O   UNL     1      -7.659   7.167  66.750  1.00  0.00    -0.090 OA 
HETATM   10  C   UNL     1      -8.895   8.987  67.611  1.00  0.00    -0.124 A  
HETATM   11  H   UNL     1      -7.135   7.762  66.226  1.00  0.00     0.000 HD 
HETATM   12  C   UNL     1      -9.899   9.511  68.410  1.00  0.00    -0.175 A  
HETATM   13  O   UNL     1      -8.121   9.834  66.869  1.00  0.00    -0.112 OA 
HETATM   14  H   UNL     1      -8.279  10.771  66.901  1.00  0.00     0.000 HD 
HETATM   15  C   UNL     1     -10.673   8.646  69.187  1.00  0.00    -0.136 A  
ENDBRANCH   5   6
ENDBRANCH   3   5
TORSDOF 2
ENDMDL
MODEL      236
REMARK 921   NORMALIZED FREE ENERGY PREDICTED BY IDOCK:   -1.43 KCAL/MOL
REMARK 922        TOTAL FREE ENERGY PREDICTED BY IDOCK:   -1.66 KCAL/MOL
REMARK 923 INTER-LIGAND FREE ENERGY PREDICTED BY IDOCK:   -1.57 KCAL/MOL
REMARK 924 INTRA-LIGAND FREE ENERGY PREDICTED BY IDOCK:   -0.09 KCAL/MOL
REMARK 927      BINDING AFFINITY PREDICTED BY RF-SCORE:    0.00 PKD
ROOT
HETATM    1  N   UNL     1     -10.526   7.605  73.097  1.00  0.00    -0.359 NA 
HETATM    2  H2  UNL     1     -10.626   6.681  72.676  1.00  0.00     0.000 HD 
HETATM    3  C   UNL     1      -9.623   8.457  72.323  1.00  0.00    -0.304 C  
HETATM    4  H1  UNL     1     -10.224   7.546  74.070  1.00  0.00     0.000 HD 
ENDROOT
BRANCH   3   5
HETATM    5  C   UNL     1     -10.077   8.545  70.864  1.00  0.00    -0.246 C  
BRANCH   5   6
HETATM    6  C   UNL     1      -8.987   8.153  69.894  1.00  0.00    -0.143 A  
HETATM    7  C   UNL     1      -7.713   7.793  70.364  1.00  0.00    -0.088 A  
HETATM    8  C   UNL     1      -6.712   7.469  69.454  1.00  0.00    -0.041 A  
HETATM    9  O   UNL     1      -5.449   7.129  69.860  1.00  0.00    -0.022 OA 
HETATM   10  C   UNL     1      -6.968   7.488  68.087  1.00  0.00    -0.072 A  
HETATM   11  H   UNL     1      -4.765   6.908  69.238  1.00  0.00     0.000 HD 
HETATM   12  C   UNL     1      -8.225   7.817  67.605  1.00  0.00    -0.125 A  
HETATM   13  O   UNL     1      -5.972   7.188  67.202  1.00  0.00    -0.036 OA 
HETATM   14  H   UNL     1      -6.147   7.202  66.268  1.00  0.00     0.000 HD 
HETATM   15  C   UNL     1      -9.237   8.148  68.510  1.00  0.00    -0.136 A  
ENDBRANCH   5   6
ENDBRANCH   3   5
TORSDOF 2
ENDMDL
MODEL      237
REMARK 921   NORMALIZED FREE ENERGY PREDICTED BY IDOCK:   -1.41 KCAL/MOL
REMARK 922        TOTAL FREE ENERGY PREDICTED BY IDOCK:   -1.63 KCAL/MOL
REMARK 923 INTER-LIGAND FREE ENERGY PREDICTED BY IDOCK:   -1.75 KCAL/MOL
REMARK 924 INTRA-LIGAND FREE ENERGY PREDICTED BY IDOCK:    0.12 KCAL/MOL
REMARK 927      BINDING AFFINITY PREDICTED BY RF-SCORE:    0.00 PKD
ROOT
HETATM    1  N   UNL     1      -8.721   5.294  63.557  1.00  0.00    -0.320 NA 
HETATM    2  H2  UNL     1      -8.167   5.364  64.411  1.00  0.00     0.000 HD 
HETATM    3  C   UNL     1      -9.387   3.995  63.449  1.00  0.00    -0.139 C  
HETATM    4  H1  UNL     1      -8.160   5.483  62.726  1.00  0.00     0.000 HD 
ENDROOT
BRANCH   3   5
HETATM    5  C   UNL     1     -10.229   3.711  64.695  1.00  0.00    -0.142 C  
BRANCH   5   6
HETATM    6  C   UNL     1      -9.642   4.327  65.944  1.00  0.00    -0.191 A  
HETATM    7  C   UNL     1     -10.262   5.434  66.548  1.00  0.00    -0.287 A  
HETATM    8  C   UNL     1      -9.687   6.010  67.677  1.00  0.00    -0.115 A  
HETATM    9  O   UNL     1     -10.241   7.100  68.293  1.00  0.00    -0.171 OA 
HETATM   10  C   UNL     1      -8.514   5.489  68.215  1.00  0.00    -0.097 A  
HETATM   11  H   UNL     1      -9.849   7.493  69.064  1.00  0.00     0.000 HD 
HETATM   12  C   UNL     1      -7.902   4.384  67.646  1.00  0.00    -0.085 A  
HETATM   13  O   UNL     1      -7.948   6.075  69.311  1.00  0.00    -0.100 OA 
HETATM   14  H   UNL     1      -7.147   5.720  69.678  1.00  0.00     0.000 HD 
HETATM   15  C   UNL     1      -8.468   3.800  66.510  1.00  0.00    -0.106 A  
ENDBRANCH   5   6
ENDBRANCH   3   5
TORSDOF 2
ENDMDL
MODEL      238
REMARK 921   NORMALIZED FREE ENERGY PREDICTED BY IDOCK:   -1.29 KCAL/MOL
REMARK 922        TOTAL FREE ENERGY PREDICTED BY IDOCK:   -1.51 KCAL/MOL
REMARK 923 INTER-LIGAND FREE ENERGY PREDICTED BY IDOCK:   -1.42 KCAL/MOL
REMARK 924 INTRA-LIGAND FREE ENERGY PREDICTED BY IDOCK:   -0.08 KCAL/MOL
REMARK 927      BINDING AFFINITY PREDICTED BY RF-SCORE:    0.00 PKD
ROOT
HETATM    1  N   UNL     1      -6.486  12.277  68.750  1.00  0.00    -0.076 NA 
HETATM    2  H2  UNL     1      -6.442  12.308  67.731  1.00  0.00     0.000 HD 
HETATM    3  C   UNL     1      -7.432  13.259  69.280  1.00  0.00     0.277 C  
HETATM    4  H1  UNL     1      -5.565  12.396  69.172  1.00  0.00     0.000 HD 
ENDROOT
BRANCH   3   5
HETATM    5  C   UNL     1      -8.814  13.080  68.647  1.00  0.00     0.060 C  
BRANCH   5   6
HETATM    6  C   UNL     1      -9.133  14.158  67.638  1.00  0.00    -0.194 A  
HETATM    7  C   UNL     1      -8.661  15.468  67.825  1.00  0.00    -0.170 A  
HETATM    8  C   UNL     1      -8.994  16.456  66.904  1.00  0.00    -0.216 A  
HETATM    9  O   UNL     1      -8.575  17.751  67.050  1.00  0.00    -0.224 OA 
HETATM   10  C   UNL     1      -9.780  16.151  65.797  1.00  0.00    -0.290 A  
HETATM   11  H   UNL     1      -8.803  18.426  66.421  1.00  0.00     0.000 HD 
HETATM   12  C   UNL     1     -10.235  14.860  65.583  1.00  0.00    -0.382 A  
HETATM   13  O   UNL     1     -10.118  17.133  64.910  1.00  0.00     0.088 OA 
HETATM   14  H   UNL     1     -10.655  16.925  64.154  1.00  0.00     0.000 HD 
HETATM   15  C   UNL     1      -9.909  13.861  66.504  1.00  0.00    -0.296 A  
ENDBRANCH   5   6
ENDBRANCH   3   5
TORSDOF 2
ENDMDL
MODEL      239
REMARK 921   NORMALIZED FREE ENERGY PREDICTED BY IDOCK:   -1.22 KCAL/MOL
REMARK 922        TOTAL FREE ENERGY PREDICTED BY IDOCK:   -1.42 KCAL/MOL
REMARK 923 INTER-LIGAND FREE ENERGY PREDICTED BY IDOCK:   -1.33 KCAL/MOL
REMARK 924 INTRA-LIGAND FREE ENERGY PREDICTED BY IDOCK:   -0.10 KCAL/MOL
REMARK 927      BINDING AFFINITY PREDICTED BY RF-SCORE:    0.00 PKD
ROOT
HETATM    1  N   UNL     1      -8.675  11.556  67.336  1.00  0.00    -0.144 NA 
HETATM    2  H2  UNL     1      -8.944  11.883  66.408  1.00  0.00     0.000 HD 
HETATM    3  C   UNL     1      -9.650  10.610  67.879  1.00  0.00    -0.162 C  
HETATM    4  H1  UNL     1      -8.525  12.332  67.982  1.00  0.00     0.000 HD 
ENDROOT
BRANCH   3   5
HETATM    5  C   UNL     1      -9.875   9.445  66.911  1.00  0.00    -0.261 C  
BRANCH   5   6
HETATM    6  C   UNL     1      -8.914   8.304  67.145  1.00  0.00    -0.154 A  
HETATM    7  C   UNL     1      -8.262   7.690  66.062  1.00  0.00    -0.128 A  
HETATM    8  C   UNL     1      -7.407   6.617  66.293  1.00  0.00    -0.073 A  
HETATM    9  O   UNL     1      -6.762   5.974  65.272  1.00  0.00    -0.042 OA 
HETATM   10  C   UNL     1      -7.187   6.159  67.588  1.00  0.00    -0.079 A  
HETATM   11  H   UNL     1      -6.178   5.241  65.430  1.00  0.00     0.000 HD 
HETATM   12  C   UNL     1      -7.802   6.766  68.671  1.00  0.00    -0.118 A  
HETATM   13  O   UNL     1      -6.362   5.091  67.802  1.00  0.00    -0.037 OA 
HETATM   14  H   UNL     1      -6.211   4.778  68.686  1.00  0.00     0.000 HD 
HETATM   15  C   UNL     1      -8.665   7.842  68.450  1.00  0.00    -0.127 A  
ENDBRANCH   5   6
ENDBRANCH   3   5
TORSDOF 2
ENDMDL
MODEL      240
REMARK 921   NORMALIZED FREE ENERGY PREDICTED BY IDOCK:   -1.22 KCAL/MOL
REMARK 922        TOTAL FREE ENERGY PREDICTED BY IDOCK:   -1.42 KCAL/MOL
REMARK 923 INTER-LIGAND FREE ENERGY PREDICTED BY IDOCK:   -1.34 KCAL/MOL
REMARK 924 INTRA-LIGAND FREE ENERGY PREDICTED BY IDOCK:   -0.08 KCAL/MOL
REMARK 927      BINDING AFFINITY PREDICTED BY RF-SCORE:    0.00 PKD
ROOT
HETATM    1  N   UNL     1      -8.156   8.990  69.997  1.00  0.00    -0.111 NA 
HETATM    2  H2  UNL     1      -9.013   9.435  70.325  1.00  0.00     0.000 HD 
HETATM    3  C   UNL     1      -8.396   7.617  69.553  1.00  0.00    -0.130 C  
HETATM    4  H1  UNL     1      -7.421   9.019  70.704  1.00  0.00     0.000 HD 
ENDROOT
BRANCH   3   5
HETATM    5  C   UNL     1      -9.499   7.573  68.492  1.00  0.00    -0.146 C  
BRANCH   5   6
HETATM    6  C   UNL     1      -8.967   7.245  67.117  1.00  0.00    -0.132 A  
HETATM    7  C   UNL     1      -8.601   8.274  66.233  1.00  0.00    -0.152 A  
HETATM    8  C   UNL     1      -8.146   7.953  64.958  1.00  0.00    -0.144 A  
HETATM    9  O   UNL     1      -7.794   8.918  64.052  1.00  0.00    -0.122 OA 
HETATM   10  C   UNL     1      -8.042   6.624  64.560  1.00  0.00    -0.073 A  
HETATM   11  H   UNL     1      -7.483   8.699  63.181  1.00  0.00     0.000 HD 
HETATM   12  C   UNL     1      -8.376   5.595  65.426  1.00  0.00    -0.144 A  
HETATM   13  O   UNL     1      -7.614   6.321  63.298  1.00  0.00    -0.072 OA 
HETATM   14  H   UNL     1      -7.544   5.414  63.026  1.00  0.00     0.000 HD 
HETATM   15  C   UNL     1      -8.837   5.906  66.707  1.00  0.00    -0.118 A  
ENDBRANCH   5   6
ENDBRANCH   3   5
TORSDOF 2
ENDMDL
MODEL      241
REMARK 921   NORMALIZED FREE ENERGY PREDICTED BY IDOCK:   -1.06 KCAL/MOL
REMARK 922        TOTAL FREE ENERGY PREDICTED BY IDOCK:   -1.24 KCAL/MOL
REMARK 923 INTER-LIGAND FREE ENERGY PREDICTED BY IDOCK:   -2.03 KCAL/MOL
REMARK 924 INTRA-LIGAND FREE ENERGY PREDICTED BY IDOCK:    0.79 KCAL/MOL
REMARK 927      BINDING AFFINITY PREDICTED BY RF-SCORE:    0.00 PKD
ROOT
HETATM    1  N   UNL     1      -9.959  10.913  65.139  1.00  0.00    -0.263 NA 
HETATM    2  H2  UNL     1     -10.215   9.972  64.839  1.00  0.00     0.000 HD 
HETATM    3  C   UNL     1     -10.964  11.489  66.033  1.00  0.00    -0.259 C  
HETATM    4  H1  UNL     1      -9.786  11.529  64.344  1.00  0.00     0.000 HD 
ENDROOT
BRANCH   3   5
HETATM    5  C   UNL     1     -11.223  10.565  67.226  1.00  0.00    -0.202 C  
BRANCH   5   6
HETATM    6  C   UNL     1      -9.974  10.296  68.031  1.00  0.00    -0.177 A  
HETATM    7  C   UNL     1     -10.067   9.787  69.338  1.00  0.00    -0.221 A  
HETATM    8  C   UNL     1      -8.908   9.578  70.078  1.00  0.00    -0.223 A  
HETATM    9  O   UNL     1      -8.945   9.101  71.360  1.00  0.00    -0.283 OA 
HETATM   10  C   UNL     1      -7.661   9.859  69.528  1.00  0.00    -0.125 A  
HETATM   11  H   UNL     1      -8.153   8.958  71.866  1.00  0.00     0.000 HD 
HETATM   12  C   UNL     1      -7.547  10.339  68.233  1.00  0.00    -0.091 A  
HETATM   13  O   UNL     1      -6.530   9.670  70.271  1.00  0.00    -0.062 OA 
HETATM   14  H   UNL     1      -5.679   9.862  69.896  1.00  0.00     0.000 HD 
HETATM   15  C   UNL     1      -8.705  10.556  67.482  1.00  0.00    -0.125 A  
ENDBRANCH   5   6
ENDBRANCH   3   5
TORSDOF 2
ENDMDL
MODEL      242
REMARK 921   NORMALIZED FREE ENERGY PREDICTED BY IDOCK:   -0.44 KCAL/MOL
REMARK 922        TOTAL FREE ENERGY PREDICTED BY IDOCK:   -0.55 KCAL/MOL
REMARK 923 INTER-LIGAND FREE ENERGY PREDICTED BY IDOCK:   -1.09 KCAL/MOL
REMARK 924 INTRA-LIGAND FREE ENERGY PREDICTED BY IDOCK:    0.53 KCAL/MOL
REMARK 927      BINDING AFFINITY PREDICTED BY RF-SCORE:    0.00 PKD
ROOT
HETATM    1  N   UNL     1      -7.587  11.304  63.296  1.00  0.00     0.112 NA 
HETATM    2  H2  UNL     1      -6.690  11.269  62.812  1.00  0.00     0.000 HD 
HETATM    3  C   UNL     1      -8.616  10.547  62.583  1.00  0.00    -0.215 C  
HETATM    4  H1  UNL     1      -7.892  12.264  63.460  1.00  0.00     0.000 HD 
ENDROOT
BRANCH   3   5
HETATM    5  C   UNL     1      -8.159   9.106  62.338  1.00  0.00    -0.143 C  
BRANCH   5   6
HETATM    6  C   UNL     1      -8.061   8.304  63.614  1.00  0.00    -0.126 A  
HETATM    7  C   UNL     1      -8.036   6.900  63.571  1.00  0.00    -0.066 A  
HETATM    8  C   UNL     1      -7.981   6.178  64.758  1.00  0.00    -0.124 A  
HETATM    9  O   UNL     1      -7.972   4.809  64.772  1.00  0.00    -0.089 OA 
HETATM   10  C   UNL     1      -7.939   6.837  65.983  1.00  0.00    -0.109 A  
HETATM   11  H   UNL     1      -7.934   4.315  65.583  1.00  0.00     0.000 HD 
HETATM   12  C   UNL     1      -7.939   8.221  66.045  1.00  0.00    -0.098 A  
HETATM   13  O   UNL     1      -7.906   6.117  67.143  1.00  0.00    -0.100 OA 
HETATM   14  H   UNL     1      -7.878   6.567  67.980  1.00  0.00     0.000 HD 
HETATM   15  C   UNL     1      -7.998   8.957  64.858  1.00  0.00    -0.129 A  
ENDBRANCH   5   6
ENDBRANCH   3   5
TORSDOF 2
ENDMDL
