MODEL        1
REMARK 921   NORMALIZED FREE ENERGY PREDICTED BY IDOCK:   -6.27 KCAL/MOL
REMARK 922        TOTAL FREE ENERGY PREDICTED BY IDOCK:  -13.79 KCAL/MOL
REMARK 923 INTER-LIGAND FREE ENERGY PREDICTED BY IDOCK:  -11.04 KCAL/MOL
REMARK 924 INTRA-LIGAND FREE ENERGY PREDICTED BY IDOCK:   -2.75 KCAL/MOL
REMARK 927      BINDING AFFINITY PREDICTED BY RF-SCORE:    0.00 PKD
ROOT
HETATM    1  O   UNL     1     -12.464  14.045  63.156  1.00  0.00    -1.137 OA 
HETATM    2  H   UNL     1     -13.281  14.525  63.096  1.00  0.00     0.000 HD 
HETATM    3  C   UNL     1     -11.949  13.579  64.336  1.00  0.00    -0.422 A  
HETATM    4  C   UNL     1     -10.752  12.874  64.425  1.00  0.00    -0.386 A  
HETATM    5  C   UNL     1     -10.309  12.397  65.660  1.00  0.00    -0.284 A  
HETATM    6  O   UNL     1      -9.966  12.614  63.339  1.00  0.00    -0.627 OA 
HETATM    7  H   UNL     1      -9.149  12.133  63.400  1.00  0.00     0.000 HD 
HETATM    8  C   UNL     1     -11.070  12.612  66.815  1.00  0.00    -0.318 A  
HETATM    9  C   UNL     1     -12.690  13.840  65.485  1.00  0.00    -0.530 A  
HETATM   10  C   UNL     1     -12.252  13.362  66.722  1.00  0.00    -0.367 A  
ENDROOT
BRANCH   8  11
HETATM   11  C   UNL     1     -10.624  12.059  68.146  1.00  0.00    -0.233 C  
BRANCH  11  12
HETATM   12  C   UNL     1     -11.171  10.651  68.384  1.00  0.00    -0.288 C  
BRANCH  12  13
HETATM   13  N   UNL     1     -12.378  10.699  69.218  1.00  0.00    -0.717 NA 
HETATM   14  H   UNL     1     -13.122  10.103  68.854  1.00  0.00     0.000 HD 
BRANCH  13  15
HETATM   15  C   UNL     1     -12.034  10.368  70.598  1.00  0.00    -0.351 C  
BRANCH  15  16
HETATM   16  C   UNL     1     -12.968  11.084  71.568  1.00  0.00    -0.553 C  
BRANCH  16  17
HETATM   17  C   UNL     1     -12.811  12.594  71.405  1.00  0.00    -0.358 C  
BRANCH  17  18
HETATM   18  C   UNL     1     -13.650  13.343  72.426  1.00  0.00    -0.708 C  
BRANCH  18  19
HETATM   19  C   UNL     1     -13.610  14.848  72.166  1.00  0.00    -0.522 C  
BRANCH  19  20
HETATM   20  C   UNL     1     -12.259  15.391  72.612  1.00  0.00    -0.416 C  
BRANCH  20  21
HETATM   21  N   UNL     1     -11.805  16.460  71.725  1.00  0.00    -0.662 NA 
HETATM   22  H   UNL     1     -10.916  16.852  72.036  1.00  0.00     0.000 HD 
BRANCH  21  23
HETATM   23  C   UNL     1     -11.735  16.000  70.331  1.00  0.00    -0.309 C  
BRANCH  23  24
HETATM   24  C   UNL     1     -10.405  15.309  69.991  1.00  0.00    -0.240 C  
BRANCH  24  25
HETATM   25  C   UNL     1      -9.917  15.657  68.610  1.00  0.00    -0.208 A  
HETATM   26  C   UNL     1     -10.777  16.294  67.707  1.00  0.00    -0.325 A  
HETATM   27  C   UNL     1     -10.329  16.630  66.428  1.00  0.00    -0.310 A  
HETATM   28  C   UNL     1      -9.024  16.324  66.049  1.00  0.00    -0.325 A  
HETATM   29  C   UNL     1      -8.168  15.680  66.940  1.00  0.00    -0.288 A  
HETATM   30  C   UNL     1      -8.613  15.344  68.218  1.00  0.00    -0.158 A  
ENDBRANCH  24  25
ENDBRANCH  23  24
ENDBRANCH  21  23
ENDBRANCH  20  21
ENDBRANCH  19  20
ENDBRANCH  18  19
ENDBRANCH  17  18
ENDBRANCH  16  17
ENDBRANCH  15  16
ENDBRANCH  13  15
ENDBRANCH  12  13
ENDBRANCH  11  12
ENDBRANCH   8  11
TORSDOF 13
ENDMDL
MODEL        2
REMARK 921   NORMALIZED FREE ENERGY PREDICTED BY IDOCK:   -6.12 KCAL/MOL
REMARK 922        TOTAL FREE ENERGY PREDICTED BY IDOCK:  -13.52 KCAL/MOL
REMARK 923 INTER-LIGAND FREE ENERGY PREDICTED BY IDOCK:  -11.88 KCAL/MOL
REMARK 924 INTRA-LIGAND FREE ENERGY PREDICTED BY IDOCK:   -1.64 KCAL/MOL
REMARK 927      BINDING AFFINITY PREDICTED BY RF-SCORE:    0.00 PKD
ROOT
HETATM    1  O   UNL     1     -11.457  16.425  63.929  1.00  0.00    -1.569 OA 
HETATM    2  H   UNL     1     -11.063  17.225  64.254  1.00  0.00     0.000 HD 
HETATM    3  C   UNL     1     -11.372  15.224  64.580  1.00  0.00    -0.358 A  
HETATM    4  C   UNL     1     -11.949  14.051  64.104  1.00  0.00    -0.408 A  
HETATM    5  C   UNL     1     -11.852  12.870  64.844  1.00  0.00    -0.409 A  
HETATM    6  O   UNL     1     -12.626  13.989  62.920  1.00  0.00    -0.958 OA 
HETATM    7  H   UNL     1     -13.020  13.188  62.594  1.00  0.00     0.000 HD 
HETATM    8  C   UNL     1     -11.187  12.861  66.075  1.00  0.00    -0.325 A  
HETATM    9  C   UNL     1     -10.666  15.215  65.780  1.00  0.00    -0.359 A  
HETATM   10  C   UNL     1     -10.570  14.038  66.525  1.00  0.00    -0.279 A  
ENDROOT
BRANCH   8  11
HETATM   11  C   UNL     1     -11.118  11.602  66.904  1.00  0.00    -0.365 C  
BRANCH  11  12
HETATM   12  C   UNL     1     -11.860  11.762  68.232  1.00  0.00    -0.271 C  
BRANCH  12  13
HETATM   13  N   UNL     1     -11.920  10.482  68.948  1.00  0.00    -0.694 NA 
HETATM   14  H   UNL     1     -11.202   9.830  68.631  1.00  0.00     0.000 HD 
BRANCH  13  15
HETATM   15  C   UNL     1     -11.850  10.721  70.387  1.00  0.00    -0.358 C  
BRANCH  15  16
HETATM   16  C   UNL     1     -12.398  12.103  70.726  1.00  0.00    -0.391 C  
BRANCH  16  17
HETATM   17  C   UNL     1     -13.280  12.010  71.968  1.00  0.00    -0.481 C  
BRANCH  17  18
HETATM   18  C   UNL     1     -13.730  13.388  72.422  1.00  0.00    -0.698 C  
BRANCH  18  19
HETATM   19  C   UNL     1     -13.209  14.471  71.479  1.00  0.00    -0.431 C  
BRANCH  19  20
HETATM   20  C   UNL     1     -12.363  15.455  72.276  1.00  0.00    -0.383 C  
BRANCH  20  21
HETATM   21  N   UNL     1     -11.621  16.347  71.388  1.00  0.00    -0.597 NA 
HETATM   22  H   UNL     1     -10.706  16.583  71.773  1.00  0.00     0.000 HD 
BRANCH  21  23
HETATM   23  C   UNL     1     -11.509  15.779  70.037  1.00  0.00    -0.356 C  
BRANCH  23  24
HETATM   24  C   UNL     1     -10.062  15.728  69.523  1.00  0.00    -0.279 C  
BRANCH  24  25
HETATM   25  C   UNL     1      -9.658  16.996  68.821  1.00  0.00    -0.269 A  
HETATM   26  C   UNL     1     -10.640  17.900  68.397  1.00  0.00    -0.275 A  
HETATM   27  C   UNL     1     -10.274  19.084  67.754  1.00  0.00    -0.481 A  
HETATM   28  C   UNL     1      -8.928  19.363  67.530  1.00  0.00    -0.358 A  
HETATM   29  C   UNL     1      -7.947  18.460  67.940  1.00  0.00    -0.269 A  
HETATM   30  C   UNL     1      -8.311  17.278  68.581  1.00  0.00    -0.255 A  
ENDBRANCH  24  25
ENDBRANCH  23  24
ENDBRANCH  21  23
ENDBRANCH  20  21
ENDBRANCH  19  20
ENDBRANCH  18  19
ENDBRANCH  17  18
ENDBRANCH  16  17
ENDBRANCH  15  16
ENDBRANCH  13  15
ENDBRANCH  12  13
ENDBRANCH  11  12
ENDBRANCH   8  11
TORSDOF 13
ENDMDL
MODEL        3
REMARK 921   NORMALIZED FREE ENERGY PREDICTED BY IDOCK:   -6.10 KCAL/MOL
REMARK 922        TOTAL FREE ENERGY PREDICTED BY IDOCK:  -13.49 KCAL/MOL
REMARK 923 INTER-LIGAND FREE ENERGY PREDICTED BY IDOCK:  -12.23 KCAL/MOL
REMARK 924 INTRA-LIGAND FREE ENERGY PREDICTED BY IDOCK:   -1.26 KCAL/MOL
REMARK 927      BINDING AFFINITY PREDICTED BY RF-SCORE:    0.00 PKD
ROOT
HETATM    1  O   UNL     1     -11.564  16.311  63.950  1.00  0.00    -1.489 OA 
HETATM    2  H   UNL     1     -11.239  17.154  64.245  1.00  0.00     0.000 HD 
HETATM    3  C   UNL     1     -11.569  15.190  64.734  1.00  0.00    -0.364 A  
HETATM    4  C   UNL     1     -12.047  13.956  64.302  1.00  0.00    -0.440 A  
HETATM    5  C   UNL     1     -12.055  12.863  65.172  1.00  0.00    -0.489 A  
HETATM    6  O   UNL     1     -12.522  13.748  63.039  1.00  0.00    -1.068 OA 
HETATM    7  H   UNL     1     -12.848  12.905  62.744  1.00  0.00     0.000 HD 
HETATM    8  C   UNL     1     -11.597  13.004  66.487  1.00  0.00    -0.407 A  
HETATM    9  C   UNL     1     -11.067  15.329  66.023  1.00  0.00    -0.278 A  
HETATM   10  C   UNL     1     -11.077  14.241  66.898  1.00  0.00    -0.315 A  
ENDROOT
BRANCH   8  11
HETATM   11  C   UNL     1     -11.647  11.843  67.449  1.00  0.00    -0.367 C  
BRANCH  11  12
HETATM   12  C   UNL     1     -10.702  10.717  67.024  1.00  0.00    -0.265 C  
BRANCH  12  13
HETATM   13  N   UNL     1     -11.064   9.460  67.688  1.00  0.00    -0.459 NA 
HETATM   14  H   UNL     1     -12.073   9.367  67.811  1.00  0.00     0.000 HD 
BRANCH  13  15
HETATM   15  C   UNL     1     -10.493   8.334  66.954  1.00  0.00    -0.295 C  
BRANCH  15  16
HETATM   16  C   UNL     1     -10.325   7.128  67.872  1.00  0.00    -0.248 C  
BRANCH  16  17
HETATM   17  C   UNL     1     -10.547   7.557  69.320  1.00  0.00    -0.215 C  
BRANCH  17  18
HETATM   18  C   UNL     1     -11.161   6.431  70.134  1.00  0.00    -0.428 C  
BRANCH  18  19
HETATM   19  C   UNL     1     -12.239   6.963  71.077  1.00  0.00    -0.427 C  
BRANCH  19  20
HETATM   20  C   UNL     1     -11.918   8.410  71.427  1.00  0.00    -0.297 C  
BRANCH  20  21
HETATM   21  N   UNL     1     -12.874   9.324  70.806  1.00  0.00    -0.516 NA 
HETATM   22  H   UNL     1     -13.811   9.203  71.189  1.00  0.00     0.000 HD 
BRANCH  21  23
HETATM   23  C   UNL     1     -12.421  10.718  70.913  1.00  0.00    -0.402 C  
BRANCH  23  24
HETATM   24  C   UNL     1     -13.277  11.557  71.874  1.00  0.00    -0.479 C  
BRANCH  24  25
HETATM   25  C   UNL     1     -13.078  13.036  71.675  1.00  0.00    -0.440 A  
HETATM   26  C   UNL     1     -12.339  13.498  70.579  1.00  0.00    -0.412 A  
HETATM   27  C   UNL     1     -12.159  14.868  70.381  1.00  0.00    -0.386 A  
HETATM   28  C   UNL     1     -12.710  15.776  71.281  1.00  0.00    -0.498 A  
HETATM   29  C   UNL     1     -13.436  15.321  72.381  1.00  0.00    -0.565 A  
HETATM   30  C   UNL     1     -13.617  13.953  72.580  1.00  0.00    -0.680 A  
ENDBRANCH  24  25
ENDBRANCH  23  24
ENDBRANCH  21  23
ENDBRANCH  20  21
ENDBRANCH  19  20
ENDBRANCH  18  19
ENDBRANCH  17  18
ENDBRANCH  16  17
ENDBRANCH  15  16
ENDBRANCH  13  15
ENDBRANCH  12  13
ENDBRANCH  11  12
ENDBRANCH   8  11
TORSDOF 13
ENDMDL
MODEL        4
REMARK 921   NORMALIZED FREE ENERGY PREDICTED BY IDOCK:   -6.03 KCAL/MOL
REMARK 922        TOTAL FREE ENERGY PREDICTED BY IDOCK:  -13.36 KCAL/MOL
REMARK 923 INTER-LIGAND FREE ENERGY PREDICTED BY IDOCK:  -11.58 KCAL/MOL
REMARK 924 INTRA-LIGAND FREE ENERGY PREDICTED BY IDOCK:   -1.77 KCAL/MOL
REMARK 927      BINDING AFFINITY PREDICTED BY RF-SCORE:    0.00 PKD
ROOT
HETATM    1  O   UNL     1     -11.680  16.348  63.826  1.00  0.00    -1.553 OA 
HETATM    2  H   UNL     1     -11.398  17.203  64.131  1.00  0.00     0.000 HD 
HETATM    3  C   UNL     1     -11.620  15.217  64.594  1.00  0.00    -0.333 A  
HETATM    4  C   UNL     1     -12.033  13.965  64.147  1.00  0.00    -0.428 A  
HETATM    5  C   UNL     1     -11.977  12.862  65.002  1.00  0.00    -0.445 A  
HETATM    6  O   UNL     1     -12.505  13.750  62.884  1.00  0.00    -1.009 OA 
HETATM    7  H   UNL     1     -12.786  12.895  62.579  1.00  0.00     0.000 HD 
HETATM    8  C   UNL     1     -11.518  13.009  66.316  1.00  0.00    -0.379 A  
HETATM    9  C   UNL     1     -11.117  15.365  65.883  1.00  0.00    -0.247 A  
HETATM   10  C   UNL     1     -11.063  14.266  66.742  1.00  0.00    -0.316 A  
ENDROOT
BRANCH   8  11
HETATM   11  C   UNL     1     -11.500  11.834  67.262  1.00  0.00    -0.373 C  
BRANCH  11  12
HETATM   12  C   UNL     1     -10.082  11.522  67.746  1.00  0.00    -0.182 C  
BRANCH  12  13
HETATM   13  N   UNL     1      -9.644  10.211  67.251  1.00  0.00    -0.157 NA 
HETATM   14  H   UNL     1      -9.029  10.292  66.441  1.00  0.00     0.000 HD 
BRANCH  13  15
HETATM   15  C   UNL     1      -9.025   9.459  68.339  1.00  0.00    -0.128 C  
BRANCH  15  16
HETATM   16  C   UNL     1     -10.019   9.250  69.477  1.00  0.00    -0.194 C  
BRANCH  16  17
HETATM   17  C   UNL     1      -9.273   9.247  70.809  1.00  0.00    -0.316 C  
BRANCH  17  18
HETATM   18  C   UNL     1     -10.083   8.545  71.886  1.00  0.00    -0.367 C  
BRANCH  18  19
HETATM   19  C   UNL     1     -11.276   7.809  71.279  1.00  0.00    -0.280 C  
BRANCH  19  20
HETATM   20  C   UNL     1     -12.539   8.219  72.023  1.00  0.00    -0.349 C  
BRANCH  20  21
HETATM   21  N   UNL     1     -13.333   9.155  71.230  1.00  0.00    -0.517 NA 
HETATM   22  H   UNL     1     -14.298   8.840  71.134  1.00  0.00     0.000 HD 
BRANCH  21  23
HETATM   23  C   UNL     1     -13.262  10.515  71.785  1.00  0.00    -0.417 C  
BRANCH  23  24
HETATM   24  C   UNL     1     -12.393  11.463  70.945  1.00  0.00    -0.483 C  
BRANCH  24  25
HETATM   25  C   UNL     1     -12.747  12.909  71.165  1.00  0.00    -0.366 A  
HETATM   26  C   UNL     1     -13.608  13.265  72.210  1.00  0.00    -0.703 A  
HETATM   27  C   UNL     1     -13.933  14.604  72.428  1.00  0.00    -0.578 A  
HETATM   28  C   UNL     1     -13.403  15.589  71.598  1.00  0.00    -0.585 A  
HETATM   29  C   UNL     1     -12.555  15.240  70.548  1.00  0.00    -0.450 A  
HETATM   30  C   UNL     1     -12.229  13.902  70.329  1.00  0.00    -0.428 A  
ENDBRANCH  24  25
ENDBRANCH  23  24
ENDBRANCH  21  23
ENDBRANCH  20  21
ENDBRANCH  19  20
ENDBRANCH  18  19
ENDBRANCH  17  18
ENDBRANCH  16  17
ENDBRANCH  15  16
ENDBRANCH  13  15
ENDBRANCH  12  13
ENDBRANCH  11  12
ENDBRANCH   8  11
TORSDOF 13
ENDMDL
MODEL        5
REMARK 921   NORMALIZED FREE ENERGY PREDICTED BY IDOCK:   -5.95 KCAL/MOL
REMARK 922        TOTAL FREE ENERGY PREDICTED BY IDOCK:  -13.22 KCAL/MOL
REMARK 923 INTER-LIGAND FREE ENERGY PREDICTED BY IDOCK:   -9.80 KCAL/MOL
REMARK 924 INTRA-LIGAND FREE ENERGY PREDICTED BY IDOCK:   -3.42 KCAL/MOL
REMARK 927      BINDING AFFINITY PREDICTED BY RF-SCORE:    0.00 PKD
ROOT
HETATM    1  O   UNL     1     -12.442  13.844  62.914  1.00  0.00    -1.034 OA 
HETATM    2  H   UNL     1     -13.269  14.300  62.810  1.00  0.00     0.000 HD 
HETATM    3  C   UNL     1     -11.971  13.407  64.123  1.00  0.00    -0.450 A  
HETATM    4  C   UNL     1     -10.760  12.738  64.276  1.00  0.00    -0.394 A  
HETATM    5  C   UNL     1     -10.362  12.288  65.537  1.00  0.00    -0.296 A  
HETATM    6  O   UNL     1      -9.915  12.490  63.232  1.00  0.00    -0.558 OA 
HETATM    7  H   UNL     1      -9.088  12.034  63.337  1.00  0.00     0.000 HD 
HETATM    8  C   UNL     1     -11.182  12.493  66.652  1.00  0.00    -0.357 A  
HETATM    9  C   UNL     1     -12.772  13.658  65.231  1.00  0.00    -0.478 A  
HETATM   10  C   UNL     1     -12.380  13.207  66.493  1.00  0.00    -0.252 A  
ENDROOT
BRANCH   8  11
HETATM   11  C   UNL     1     -10.784  11.968  68.009  1.00  0.00    -0.244 C  
BRANCH  11  12
HETATM   12  C   UNL     1     -11.578  12.643  69.129  1.00  0.00    -0.320 C  
BRANCH  12  13
HETATM   13  N   UNL     1     -10.853  13.810  69.646  1.00  0.00    -0.449 NA 
HETATM   14  H   UNL     1     -10.089  14.090  69.031  1.00  0.00     0.000 HD 
BRANCH  13  15
HETATM   15  C   UNL     1     -11.792  14.901  69.891  1.00  0.00    -0.311 C  
BRANCH  15  16
HETATM   16  C   UNL     1     -11.709  15.937  68.774  1.00  0.00    -0.355 C  
BRANCH  16  17
HETATM   17  C   UNL     1     -10.292  15.960  68.207  1.00  0.00    -0.242 C  
BRANCH  17  18
HETATM   18  C   UNL     1     -10.312  16.113  66.695  1.00  0.00    -0.297 C  
BRANCH  18  19
HETATM   19  C   UNL     1      -8.963  15.729  66.090  1.00  0.00    -0.372 C  
BRANCH  19  20
HETATM   20  C   UNL     1      -8.001  15.372  67.215  1.00  0.00    -0.202 C  
BRANCH  20  21
HETATM   21  N   UNL     1      -6.719  16.050  67.044  1.00  0.00    -0.264 NA 
HETATM   22  H   UNL     1      -6.649  16.495  66.129  1.00  0.00     0.000 HD 
BRANCH  21  23
HETATM   23  C   UNL     1      -6.476  17.009  68.131  1.00  0.00    -0.146 C  
BRANCH  23  24
HETATM   24  C   UNL     1      -6.521  18.472  67.665  1.00  0.00    -0.204 C  
BRANCH  24  25
HETATM   25  C   UNL     1      -7.928  18.999  67.572  1.00  0.00    -0.276 A  
HETATM   26  C   UNL     1      -8.677  19.197  68.739  1.00  0.00    -0.365 A  
HETATM   27  C   UNL     1      -9.978  19.695  68.663  1.00  0.00    -0.553 A  
HETATM   28  C   UNL     1     -10.535  19.991  67.421  1.00  0.00    -0.490 A  
HETATM   29  C   UNL     1      -9.798  19.786  66.255  1.00  0.00    -0.557 A  
HETATM   30  C   UNL     1      -8.498  19.288  66.330  1.00  0.00    -0.328 A  
ENDBRANCH  24  25
ENDBRANCH  23  24
ENDBRANCH  21  23
ENDBRANCH  20  21
ENDBRANCH  19  20
ENDBRANCH  18  19
ENDBRANCH  17  18
ENDBRANCH  16  17
ENDBRANCH  15  16
ENDBRANCH  13  15
ENDBRANCH  12  13
ENDBRANCH  11  12
ENDBRANCH   8  11
TORSDOF 13
ENDMDL
MODEL        6
REMARK 921   NORMALIZED FREE ENERGY PREDICTED BY IDOCK:   -5.94 KCAL/MOL
REMARK 922        TOTAL FREE ENERGY PREDICTED BY IDOCK:  -13.21 KCAL/MOL
REMARK 923 INTER-LIGAND FREE ENERGY PREDICTED BY IDOCK:  -10.70 KCAL/MOL
REMARK 924 INTRA-LIGAND FREE ENERGY PREDICTED BY IDOCK:   -2.51 KCAL/MOL
REMARK 927      BINDING AFFINITY PREDICTED BY RF-SCORE:    0.00 PKD
ROOT
HETATM    1  O   UNL     1     -12.526  13.811  62.799  1.00  0.00    -0.879 OA 
HETATM    2  H   UNL     1     -12.900  13.038  62.393  1.00  0.00     0.000 HD 
HETATM    3  C   UNL     1     -12.253  13.901  64.137  1.00  0.00    -0.393 A  
HETATM    4  C   UNL     1     -11.704  15.033  64.732  1.00  0.00    -0.370 A  
HETATM    5  C   UNL     1     -11.417  15.038  66.099  1.00  0.00    -0.222 A  
HETATM    6  O   UNL     1     -11.422  16.172  64.034  1.00  0.00    -1.231 OA 
HETATM    7  H   UNL     1     -11.048  16.945  64.440  1.00  0.00     0.000 HD 
HETATM    8  C   UNL     1     -11.666  13.901  66.877  1.00  0.00    -0.425 A  
HETATM    9  C   UNL     1     -12.548  12.782  64.909  1.00  0.00    -0.541 A  
HETATM   10  C   UNL     1     -12.260  12.781  66.275  1.00  0.00    -0.289 A  
ENDROOT
BRANCH   8  11
HETATM   11  C   UNL     1     -11.315  13.879  68.344  1.00  0.00    -0.316 C  
BRANCH  11  12
HETATM   12  C   UNL     1     -11.260  15.290  68.932  1.00  0.00    -0.285 C  
BRANCH  12  13
HETATM   13  N   UNL     1     -12.429  15.539  69.785  1.00  0.00    -0.581 NA 
HETATM   14  H   UNL     1     -13.081  14.755  69.783  1.00  0.00     0.000 HD 
BRANCH  13  15
HETATM   15  C   UNL     1     -11.987  15.885  71.134  1.00  0.00    -0.427 C  
BRANCH  15  16
HETATM   16  C   UNL     1     -13.064  15.531  72.154  1.00  0.00    -0.521 C  
BRANCH  16  17
HETATM   17  C   UNL     1     -13.967  14.441  71.583  1.00  0.00    -0.506 C  
BRANCH  17  18
HETATM   18  C   UNL     1     -13.687  13.100  72.238  1.00  0.00    -0.647 C  
BRANCH  18  19
HETATM   19  C   UNL     1     -12.869  12.200  71.313  1.00  0.00    -0.349 C  
BRANCH  19  20
HETATM   20  C   UNL     1     -13.054  10.752  71.742  1.00  0.00    -0.468 C  
BRANCH  20  21
HETATM   21  N   UNL     1     -11.971   9.912  71.234  1.00  0.00    -0.374 NA 
HETATM   22  H   UNL     1     -12.263   8.939  71.144  1.00  0.00     0.000 HD 
BRANCH  21  23
HETATM   23  C   UNL     1     -11.441  10.437  69.968  1.00  0.00    -0.308 C  
BRANCH  23  24
HETATM   24  C   UNL     1     -10.678   9.383  69.151  1.00  0.00    -0.216 C  
BRANCH  24  25
HETATM   25  C   UNL     1     -10.109   9.948  67.878  1.00  0.00    -0.210 A  
HETATM   26  C   UNL     1      -9.211  11.020  67.931  1.00  0.00    -0.155 A  
HETATM   27  C   UNL     1      -8.670  11.544  66.756  1.00  0.00    -0.178 A  
HETATM   28  C   UNL     1      -9.031  11.001  65.525  1.00  0.00    -0.208 A  
HETATM   29  C   UNL     1      -9.935   9.941  65.465  1.00  0.00    -0.363 A  
HETATM   30  C   UNL     1     -10.475   9.417  66.638  1.00  0.00    -0.238 A  
ENDBRANCH  24  25
ENDBRANCH  23  24
ENDBRANCH  21  23
ENDBRANCH  20  21
ENDBRANCH  19  20
ENDBRANCH  18  19
ENDBRANCH  17  18
ENDBRANCH  16  17
ENDBRANCH  15  16
ENDBRANCH  13  15
ENDBRANCH  12  13
ENDBRANCH  11  12
ENDBRANCH   8  11
TORSDOF 13
ENDMDL
MODEL        7
REMARK 921   NORMALIZED FREE ENERGY PREDICTED BY IDOCK:   -5.94 KCAL/MOL
REMARK 922        TOTAL FREE ENERGY PREDICTED BY IDOCK:  -13.21 KCAL/MOL
REMARK 923 INTER-LIGAND FREE ENERGY PREDICTED BY IDOCK:  -11.59 KCAL/MOL
REMARK 924 INTRA-LIGAND FREE ENERGY PREDICTED BY IDOCK:   -1.62 KCAL/MOL
REMARK 927      BINDING AFFINITY PREDICTED BY RF-SCORE:    0.00 PKD
ROOT
HETATM    1  O   UNL     1     -11.729   7.169  73.056  1.00  0.00    -0.543 OA 
HETATM    2  H   UNL     1     -10.971   6.598  73.009  1.00  0.00     0.000 HD 
HETATM    3  C   UNL     1     -11.855   8.315  72.319  1.00  0.00    -0.388 A  
HETATM    4  C   UNL     1     -12.964   9.152  72.388  1.00  0.00    -0.398 A  
HETATM    5  C   UNL     1     -13.039  10.286  71.576  1.00  0.00    -0.534 A  
HETATM    6  O   UNL     1     -14.015   8.919  73.228  1.00  0.00    -1.203 OA 
HETATM    7  H   UNL     1     -14.772   9.491  73.275  1.00  0.00     0.000 HD 
HETATM    8  C   UNL     1     -12.007  10.582  70.678  1.00  0.00    -0.455 A  
HETATM    9  C   UNL     1     -10.801   8.625  71.465  1.00  0.00    -0.352 A  
HETATM   10  C   UNL     1     -10.873   9.756  70.649  1.00  0.00    -0.396 A  
ENDROOT
BRANCH   8  11
HETATM   11  C   UNL     1     -12.100  11.777  69.763  1.00  0.00    -0.338 C  
BRANCH  11  12
HETATM   12  C   UNL     1     -11.582  11.455  68.360  1.00  0.00    -0.315 C  
BRANCH  12  13
HETATM   13  N   UNL     1     -11.958  12.512  67.414  1.00  0.00    -0.488 NA 
HETATM   14  H   UNL     1     -11.508  13.401  67.633  1.00  0.00     0.000 HD 
BRANCH  13  15
HETATM   15  C   UNL     1     -11.677  12.073  66.050  1.00  0.00    -0.241 C  
BRANCH  15  16
HETATM   16  C   UNL     1     -12.571  12.808  65.058  1.00  0.00    -0.538 C  
BRANCH  16  17
HETATM   17  C   UNL     1     -11.705  13.499  64.008  1.00  0.00    -0.440 C  
BRANCH  17  18
HETATM   18  C   UNL     1     -10.388  13.963  64.605  1.00  0.00    -0.366 C  
BRANCH  18  19
HETATM   19  C   UNL     1     -10.483  15.413  65.077  1.00  0.00    -0.411 C  
BRANCH  19  20
HETATM   20  C   UNL     1     -10.209  15.465  66.573  1.00  0.00    -0.280 C  
BRANCH  20  21
HETATM   21  N   UNL     1     -11.455  15.537  67.332  1.00  0.00    -0.214 NA 
HETATM   22  H   UNL     1     -11.859  14.613  67.479  1.00  0.00     0.000 HD 
BRANCH  21  23
HETATM   23  C   UNL     1     -11.262  16.252  68.602  1.00  0.00    -0.354 C  
BRANCH  23  24
HETATM   24  C   UNL     1     -10.858  15.325  69.759  1.00  0.00    -0.300 C  
BRANCH  24  25
HETATM   25  C   UNL     1     -11.870  15.325  70.873  1.00  0.00    -0.387 A  
HETATM   26  C   UNL     1     -11.462  15.587  72.186  1.00  0.00    -0.512 A  
HETATM   27  C   UNL     1     -12.396  15.600  73.223  1.00  0.00    -0.609 A  
HETATM   28  C   UNL     1     -13.738  15.344  72.950  1.00  0.00    -0.567 A  
HETATM   29  C   UNL     1     -14.148  15.071  71.646  1.00  0.00    -0.619 A  
HETATM   30  C   UNL     1     -13.216  15.058  70.609  1.00  0.00    -0.339 A  
ENDBRANCH  24  25
ENDBRANCH  23  24
ENDBRANCH  21  23
ENDBRANCH  20  21
ENDBRANCH  19  20
ENDBRANCH  18  19
ENDBRANCH  17  18
ENDBRANCH  16  17
ENDBRANCH  15  16
ENDBRANCH  13  15
ENDBRANCH  12  13
ENDBRANCH  11  12
ENDBRANCH   8  11
TORSDOF 13
ENDMDL
MODEL        8
REMARK 921   NORMALIZED FREE ENERGY PREDICTED BY IDOCK:   -5.90 KCAL/MOL
REMARK 922        TOTAL FREE ENERGY PREDICTED BY IDOCK:  -13.14 KCAL/MOL
REMARK 923 INTER-LIGAND FREE ENERGY PREDICTED BY IDOCK:  -11.65 KCAL/MOL
REMARK 924 INTRA-LIGAND FREE ENERGY PREDICTED BY IDOCK:   -1.49 KCAL/MOL
REMARK 927      BINDING AFFINITY PREDICTED BY RF-SCORE:    0.00 PKD
ROOT
HETATM    1  O   UNL     1     -12.553  13.889  62.877  1.00  0.00    -0.966 OA 
HETATM    2  H   UNL     1     -12.245  13.789  61.984  1.00  0.00     0.000 HD 
HETATM    3  C   UNL     1     -12.060  13.167  63.930  1.00  0.00    -0.470 A  
HETATM    4  C   UNL     1     -12.510  13.315  65.238  1.00  0.00    -0.489 A  
HETATM    5  C   UNL     1     -11.933  12.568  66.268  1.00  0.00    -0.410 A  
HETATM    6  O   UNL     1     -13.514  14.175  65.581  1.00  0.00    -0.725 OA 
HETATM    7  H   UNL     1     -13.822  14.275  66.474  1.00  0.00     0.000 HD 
HETATM    8  C   UNL     1     -10.889  11.677  65.994  1.00  0.00    -0.339 A  
HETATM    9  C   UNL     1     -11.055  12.249  63.639  1.00  0.00    -0.537 A  
HETATM   10  C   UNL     1     -10.472  11.503  64.665  1.00  0.00    -0.356 A  
ENDROOT
BRANCH   8  11
HETATM   11  C   UNL     1     -10.225  10.902  67.106  1.00  0.00    -0.249 C  
BRANCH  11  12
HETATM   12  C   UNL     1     -11.211  10.571  68.228  1.00  0.00    -0.291 C  
BRANCH  12  13
HETATM   13  N   UNL     1     -10.740  11.115  69.507  1.00  0.00    -0.415 NA 
HETATM   14  H   UNL     1     -11.011  12.091  69.633  1.00  0.00     0.000 HD 
BRANCH  13  15
HETATM   15  C   UNL     1     -11.206  10.269  70.602  1.00  0.00    -0.325 C  
BRANCH  15  16
HETATM   16  C   UNL     1     -12.552  10.763  71.122  1.00  0.00    -0.532 C  
BRANCH  16  17
HETATM   17  C   UNL     1     -12.582  12.288  71.086  1.00  0.00    -0.353 C  
BRANCH  17  18
HETATM   18  C   UNL     1     -13.472  12.843  72.185  1.00  0.00    -0.619 C  
BRANCH  18  19
HETATM   19  C   UNL     1     -13.100  14.288  72.512  1.00  0.00    -0.550 C  
BRANCH  19  20
HETATM   20  C   UNL     1     -13.996  15.222  71.711  1.00  0.00    -0.539 C  
BRANCH  20  21
HETATM   21  N   UNL     1     -13.393  15.548  70.420  1.00  0.00    -0.779 NA 
HETATM   22  H   UNL     1     -13.872  16.326  69.968  1.00  0.00     0.000 HD 
BRANCH  21  23
HETATM   23  C   UNL     1     -11.952  15.807  70.558  1.00  0.00    -0.371 C  
BRANCH  23  24
HETATM   24  C   UNL     1     -11.122  15.216  69.407  1.00  0.00    -0.283 C  
BRANCH  24  25
HETATM   25  C   UNL     1     -10.715  16.259  68.402  1.00  0.00    -0.311 A  
HETATM   26  C   UNL     1     -10.659  15.932  67.042  1.00  0.00    -0.306 A  
HETATM   27  C   UNL     1     -10.294  16.896  66.101  1.00  0.00    -0.327 A  
HETATM   28  C   UNL     1      -9.977  18.187  66.519  1.00  0.00    -0.374 A  
HETATM   29  C   UNL     1     -10.020  18.515  67.874  1.00  0.00    -0.374 A  
HETATM   30  C   UNL     1     -10.385  17.553  68.814  1.00  0.00    -0.358 A  
ENDBRANCH  24  25
ENDBRANCH  23  24
ENDBRANCH  21  23
ENDBRANCH  20  21
ENDBRANCH  19  20
ENDBRANCH  18  19
ENDBRANCH  17  18
ENDBRANCH  16  17
ENDBRANCH  15  16
ENDBRANCH  13  15
ENDBRANCH  12  13
ENDBRANCH  11  12
ENDBRANCH   8  11
TORSDOF 13
ENDMDL
MODEL        9
REMARK 921   NORMALIZED FREE ENERGY PREDICTED BY IDOCK:   -5.89 KCAL/MOL
REMARK 922        TOTAL FREE ENERGY PREDICTED BY IDOCK:  -13.12 KCAL/MOL
REMARK 923 INTER-LIGAND FREE ENERGY PREDICTED BY IDOCK:  -11.42 KCAL/MOL
REMARK 924 INTRA-LIGAND FREE ENERGY PREDICTED BY IDOCK:   -1.71 KCAL/MOL
REMARK 927      BINDING AFFINITY PREDICTED BY RF-SCORE:    0.00 PKD
ROOT
HETATM    1  O   UNL     1     -12.607  13.898  62.749  1.00  0.00    -0.846 OA 
HETATM    2  H   UNL     1     -13.155  14.673  62.704  1.00  0.00     0.000 HD 
HETATM    3  C   UNL     1     -12.147  13.368  63.924  1.00  0.00    -0.455 A  
HETATM    4  C   UNL     1     -11.346  12.232  63.991  1.00  0.00    -0.399 A  
HETATM    5  C   UNL     1     -10.946  11.727  65.230  1.00  0.00    -0.350 A  
HETATM    6  O   UNL     1     -10.917  11.564  62.879  1.00  0.00    -0.711 OA 
HETATM    7  H   UNL     1     -10.370  10.789  62.924  1.00  0.00     0.000 HD 
HETATM    8  C   UNL     1     -11.358  12.350  66.413  1.00  0.00    -0.392 A  
HETATM    9  C   UNL     1     -12.524  14.023  65.092  1.00  0.00    -0.472 A  
HETATM   10  C   UNL     1     -12.129  13.520  66.334  1.00  0.00    -0.467 A  
ENDROOT
BRANCH   8  11
HETATM   11  C   UNL     1     -10.972  11.784  67.757  1.00  0.00    -0.277 C  
BRANCH  11  12
HETATM   12  C   UNL     1     -12.132  11.853  68.752  1.00  0.00    -0.124 C  
BRANCH  12  13
HETATM   13  N   UNL     1     -11.639  12.161  70.100  1.00  0.00    -0.536 NA 
HETATM   14  H   UNL     1     -11.810  13.133  70.359  1.00  0.00     0.000 HD 
BRANCH  13  15
HETATM   15  C   UNL     1     -12.218  11.225  71.060  1.00  0.00    -0.311 C  
BRANCH  15  16
HETATM   16  C   UNL     1     -13.382  11.874  71.802  1.00  0.00    -0.334 C  
BRANCH  16  17
HETATM   17  C   UNL     1     -12.948  13.237  72.336  1.00  0.00    -0.334 C  
BRANCH  17  18
HETATM   18  C   UNL     1     -13.831  14.344  71.786  1.00  0.00    -0.527 C  
BRANCH  18  19
HETATM   19  C   UNL     1     -12.987  15.492  71.233  1.00  0.00    -0.565 C  
BRANCH  19  20
HETATM   20  C   UNL     1     -11.537  15.281  71.646  1.00  0.00    -0.408 C  
BRANCH  20  21
HETATM   21  N   UNL     1     -10.667  15.184  70.476  1.00  0.00    -0.507 NA 
HETATM   22  H   UNL     1     -10.357  14.226  70.318  1.00  0.00     0.000 HD 
BRANCH  21  23
HETATM   23  C   UNL     1     -11.316  15.747  69.284  1.00  0.00    -0.350 C  
BRANCH  23  24
HETATM   24  C   UNL     1     -10.341  15.978  68.120  1.00  0.00    -0.260 C  
BRANCH  24  25
HETATM   25  C   UNL     1     -10.293  17.421  67.692  1.00  0.00    -0.355 A  
HETATM   26  C   UNL     1     -10.138  18.428  68.652  1.00  0.00    -0.407 A  
HETATM   27  C   UNL     1     -10.082  19.767  68.264  1.00  0.00    -0.575 A  
HETATM   28  C   UNL     1     -10.187  20.102  66.916  1.00  0.00    -0.566 A  
HETATM   29  C   UNL     1     -10.354  19.104  65.957  1.00  0.00    -0.538 A  
HETATM   30  C   UNL     1     -10.410  17.766  66.344  1.00  0.00    -0.351 A  
ENDBRANCH  24  25
ENDBRANCH  23  24
ENDBRANCH  21  23
ENDBRANCH  20  21
ENDBRANCH  19  20
ENDBRANCH  18  19
ENDBRANCH  17  18
ENDBRANCH  16  17
ENDBRANCH  15  16
ENDBRANCH  13  15
ENDBRANCH  12  13
ENDBRANCH  11  12
ENDBRANCH   8  11
TORSDOF 13
ENDMDL
MODEL       10
REMARK 921   NORMALIZED FREE ENERGY PREDICTED BY IDOCK:   -5.79 KCAL/MOL
REMARK 922        TOTAL FREE ENERGY PREDICTED BY IDOCK:  -12.95 KCAL/MOL
REMARK 923 INTER-LIGAND FREE ENERGY PREDICTED BY IDOCK:  -10.42 KCAL/MOL
REMARK 924 INTRA-LIGAND FREE ENERGY PREDICTED BY IDOCK:   -2.53 KCAL/MOL
REMARK 927      BINDING AFFINITY PREDICTED BY RF-SCORE:    0.00 PKD
ROOT
HETATM    1  O   UNL     1     -12.636  13.853  63.051  1.00  0.00    -1.030 OA 
HETATM    2  H   UNL     1     -13.045  13.029  62.813  1.00  0.00     0.000 HD 
HETATM    3  C   UNL     1     -12.193  14.137  64.314  1.00  0.00    -0.420 A  
HETATM    4  C   UNL     1     -11.594  15.344  64.662  1.00  0.00    -0.311 A  
HETATM    5  C   UNL     1     -11.132  15.548  65.964  1.00  0.00    -0.185 A  
HETATM    6  O   UNL     1     -11.427  16.369  63.776  1.00  0.00    -1.590 OA 
HETATM    7  H   UNL     1     -11.019  17.193  64.014  1.00  0.00     0.000 HD 
HETATM    8  C   UNL     1     -11.254  14.536  66.924  1.00  0.00    -0.340 A  
HETATM    9  C   UNL     1     -12.363  13.143  65.272  1.00  0.00    -0.532 A  
HETATM   10  C   UNL     1     -11.900  13.340  66.574  1.00  0.00    -0.450 A  
ENDROOT
BRANCH   8  11
HETATM   11  C   UNL     1     -10.715  14.728  68.320  1.00  0.00    -0.242 C  
BRANCH  11  12
HETATM   12  C   UNL     1     -11.818  14.602  69.373  1.00  0.00    -0.329 C  
BRANCH  12  13
HETATM   13  N   UNL     1     -11.444  13.620  70.397  1.00  0.00    -0.506 NA 
HETATM   14  H   UNL     1     -11.376  14.039  71.325  1.00  0.00     0.000 HD 
BRANCH  13  15
HETATM   15  C   UNL     1     -12.380  12.500  70.367  1.00  0.00    -0.232 C  
BRANCH  15  16
HETATM   16  C   UNL     1     -11.627  11.177  70.272  1.00  0.00    -0.388 C  
BRANCH  16  17
HETATM   17  C   UNL     1     -11.754  10.620  68.856  1.00  0.00    -0.282 C  
BRANCH  17  18
HETATM   18  C   UNL     1     -10.409  10.144  68.334  1.00  0.00    -0.210 C  
BRANCH  18  19
HETATM   19  C   UNL     1     -10.519   9.686  66.880  1.00  0.00    -0.282 C  
BRANCH  19  20
HETATM   20  C   UNL     1      -9.933   8.287  66.757  1.00  0.00    -0.285 C  
BRANCH  20  21
HETATM   21  N   UNL     1     -10.961   7.268  66.953  1.00  0.00    -0.588 NA 
HETATM   22  H   UNL     1     -11.149   6.754  66.093  1.00  0.00     0.000 HD 
BRANCH  21  23
HETATM   23  C   UNL     1     -10.609   6.364  68.058  1.00  0.00    -0.254 C  
BRANCH  23  24
HETATM   24  C   UNL     1     -11.612   6.415  69.220  1.00  0.00    -0.170 C  
BRANCH  24  25
HETATM   25  C   UNL     1     -11.054   7.120  70.427  1.00  0.00    -0.309 A  
HETATM   26  C   UNL     1     -11.922   7.647  71.390  1.00  0.00    -0.336 A  
HETATM   27  C   UNL     1     -11.413   8.293  72.518  1.00  0.00    -0.454 A  
HETATM   28  C   UNL     1     -10.035   8.417  72.681  1.00  0.00    -0.329 A  
HETATM   29  C   UNL     1      -9.166   7.904  71.719  1.00  0.00    -0.194 A  
HETATM   30  C   UNL     1      -9.674   7.259  70.593  1.00  0.00    -0.175 A  
ENDBRANCH  24  25
ENDBRANCH  23  24
ENDBRANCH  21  23
ENDBRANCH  20  21
ENDBRANCH  19  20
ENDBRANCH  18  19
ENDBRANCH  17  18
ENDBRANCH  16  17
ENDBRANCH  15  16
ENDBRANCH  13  15
ENDBRANCH  12  13
ENDBRANCH  11  12
ENDBRANCH   8  11
TORSDOF 13
ENDMDL
MODEL       11
REMARK 921   NORMALIZED FREE ENERGY PREDICTED BY IDOCK:   -5.75 KCAL/MOL
REMARK 922        TOTAL FREE ENERGY PREDICTED BY IDOCK:  -12.87 KCAL/MOL
REMARK 923 INTER-LIGAND FREE ENERGY PREDICTED BY IDOCK:  -11.29 KCAL/MOL
REMARK 924 INTRA-LIGAND FREE ENERGY PREDICTED BY IDOCK:   -1.58 KCAL/MOL
REMARK 927      BINDING AFFINITY PREDICTED BY RF-SCORE:    0.00 PKD
ROOT
HETATM    1  O   UNL     1     -12.448  13.865  62.934  1.00  0.00    -1.034 OA 
HETATM    2  H   UNL     1     -12.082  13.731  62.068  1.00  0.00     0.000 HD 
HETATM    3  C   UNL     1     -12.004  13.208  64.049  1.00  0.00    -0.460 A  
HETATM    4  C   UNL     1     -12.540  13.405  65.318  1.00  0.00    -0.464 A  
HETATM    5  C   UNL     1     -12.010  12.726  66.417  1.00  0.00    -0.443 A  
HETATM    6  O   UNL     1     -13.585  14.251  65.556  1.00  0.00    -0.650 OA 
HETATM    7  H   UNL     1     -13.951  14.385  66.423  1.00  0.00     0.000 HD 
HETATM    8  C   UNL     1     -10.928  11.853  66.253  1.00  0.00    -0.345 A  
HETATM    9  C   UNL     1     -10.960  12.307  63.867  1.00  0.00    -0.464 A  
HETATM   10  C   UNL     1     -10.424  11.628  64.963  1.00  0.00    -0.336 A  
ENDROOT
BRANCH   8  11
HETATM   11  C   UNL     1     -10.316  11.151  67.440  1.00  0.00    -0.231 C  
BRANCH  11  12
HETATM   12  C   UNL     1     -10.471   9.633  67.339  1.00  0.00    -0.257 C  
BRANCH  12  13
HETATM   13  N   UNL     1     -10.831   9.062  68.642  1.00  0.00    -0.428 NA 
HETATM   14  H   UNL     1     -11.812   8.784  68.682  1.00  0.00     0.000 HD 
BRANCH  13  15
HETATM   15  C   UNL     1      -9.931   7.956  68.959  1.00  0.00    -0.187 C  
BRANCH  15  16
HETATM   16  C   UNL     1     -10.549   7.054  70.022  1.00  0.00    -0.251 C  
BRANCH  16  17
HETATM   17  C   UNL     1     -10.344   7.678  71.400  1.00  0.00    -0.219 C  
BRANCH  17  18
HETATM   18  C   UNL     1     -11.524   7.387  72.312  1.00  0.00    -0.329 C  
BRANCH  18  19
HETATM   19  C   UNL     1     -12.821   7.284  71.511  1.00  0.00    -0.430 C  
BRANCH  19  20
HETATM   20  C   UNL     1     -13.671   8.517  71.787  1.00  0.00    -0.407 C  
BRANCH  20  21
HETATM   21  N   UNL     1     -13.408   9.566  70.805  1.00  0.00    -0.586 NA 
HETATM   22  H   UNL     1     -14.253   9.825  70.298  1.00  0.00     0.000 HD 
BRANCH  21  23
HETATM   23  C   UNL     1     -12.774  10.734  71.433  1.00  0.00    -0.439 C  
BRANCH  23  24
HETATM   24  C   UNL     1     -12.387  11.825  70.423  1.00  0.00    -0.362 C  
BRANCH  24  25
HETATM   25  C   UNL     1     -12.584  13.212  70.975  1.00  0.00    -0.397 A  
HETATM   26  C   UNL     1     -13.339  13.397  72.139  1.00  0.00    -0.613 A  
HETATM   27  C   UNL     1     -13.518  14.678  72.664  1.00  0.00    -0.580 A  
HETATM   28  C   UNL     1     -12.948  15.775  72.022  1.00  0.00    -0.513 A  
HETATM   29  C   UNL     1     -12.206  15.597  70.856  1.00  0.00    -0.466 A  
HETATM   30  C   UNL     1     -12.026  14.319  70.331  1.00  0.00    -0.402 A  
ENDBRANCH  24  25
ENDBRANCH  23  24
ENDBRANCH  21  23
ENDBRANCH  20  21
ENDBRANCH  19  20
ENDBRANCH  18  19
ENDBRANCH  17  18
ENDBRANCH  16  17
ENDBRANCH  15  16
ENDBRANCH  13  15
ENDBRANCH  12  13
ENDBRANCH  11  12
ENDBRANCH   8  11
TORSDOF 13
ENDMDL
MODEL       12
REMARK 921   NORMALIZED FREE ENERGY PREDICTED BY IDOCK:   -5.75 KCAL/MOL
REMARK 922        TOTAL FREE ENERGY PREDICTED BY IDOCK:  -12.87 KCAL/MOL
REMARK 923 INTER-LIGAND FREE ENERGY PREDICTED BY IDOCK:  -10.74 KCAL/MOL
REMARK 924 INTRA-LIGAND FREE ENERGY PREDICTED BY IDOCK:   -2.13 KCAL/MOL
REMARK 927      BINDING AFFINITY PREDICTED BY RF-SCORE:    0.00 PKD
ROOT
HETATM    1  O   UNL     1     -11.342  16.507  63.716  1.00  0.00    -1.553 OA 
HETATM    2  H   UNL     1     -10.903  17.336  63.866  1.00  0.00     0.000 HD 
HETATM    3  C   UNL     1     -11.453  15.530  64.668  1.00  0.00    -0.324 A  
HETATM    4  C   UNL     1     -12.097  14.316  64.448  1.00  0.00    -0.468 A  
HETATM    5  C   UNL     1     -12.203  13.381  65.480  1.00  0.00    -0.499 A  
HETATM    6  O   UNL     1     -12.648  13.979  63.245  1.00  0.00    -1.073 OA 
HETATM    7  H   UNL     1     -13.087  13.150  63.094  1.00  0.00     0.000 HD 
HETATM    8  C   UNL     1     -11.676  13.663  66.745  1.00  0.00    -0.426 A  
HETATM    9  C   UNL     1     -10.883  15.801  65.907  1.00  0.00    -0.272 A  
HETATM   10  C   UNL     1     -10.990  14.871  66.944  1.00  0.00    -0.327 A  
ENDROOT
BRANCH   8  11
HETATM   11  C   UNL     1     -11.828  12.681  67.880  1.00  0.00    -0.388 C  
BRANCH  11  12
HETATM   12  C   UNL     1     -12.067  13.392  69.213  1.00  0.00    -0.264 C  
BRANCH  12  13
HETATM   13  N   UNL     1     -11.740  12.507  70.338  1.00  0.00    -0.539 NA 
HETATM   14  H   UNL     1     -12.226  12.777  71.193  1.00  0.00     0.000 HD 
BRANCH  13  15
HETATM   15  C   UNL     1     -12.010  11.121  69.965  1.00  0.00    -0.367 C  
BRANCH  15  16
HETATM   16  C   UNL     1     -11.954  10.218  71.193  1.00  0.00    -0.472 C  
BRANCH  16  17
HETATM   17  C   UNL     1     -13.338   9.633  71.458  1.00  0.00    -0.468 C  
BRANCH  17  18
HETATM   18  C   UNL     1     -13.281   8.119  71.563  1.00  0.00    -0.310 C  
BRANCH  18  19
HETATM   19  C   UNL     1     -11.936   7.662  72.128  1.00  0.00    -0.344 C  
BRANCH  19  20
HETATM   20  C   UNL     1     -11.348   6.603  71.205  1.00  0.00    -0.299 C  
BRANCH  20  21
HETATM   21  N   UNL     1     -11.870   6.741  69.848  1.00  0.00    -0.657 NA 
HETATM   22  H   UNL     1     -12.520   7.524  69.774  1.00  0.00     0.000 HD 
BRANCH  21  23
HETATM   23  C   UNL     1     -10.780   6.848  68.868  1.00  0.00    -0.222 C  
BRANCH  23  24
HETATM   24  C   UNL     1      -9.742   7.918  69.236  1.00  0.00    -0.159 C  
BRANCH  24  25
HETATM   25  C   UNL     1      -9.557   8.936  68.143  1.00  0.00    -0.161 A  
HETATM   26  C   UNL     1     -10.160   8.736  66.895  1.00  0.00    -0.348 A  
HETATM   27  C   UNL     1     -10.003   9.680  65.879  1.00  0.00    -0.351 A  
HETATM   28  C   UNL     1      -9.238  10.821  66.106  1.00  0.00    -0.202 A  
HETATM   29  C   UNL     1      -8.625  11.019  67.343  1.00  0.00    -0.132 A  
HETATM   30  C   UNL     1      -8.782  10.078  68.358  1.00  0.00    -0.117 A  
ENDBRANCH  24  25
ENDBRANCH  23  24
ENDBRANCH  21  23
ENDBRANCH  20  21
ENDBRANCH  19  20
ENDBRANCH  18  19
ENDBRANCH  17  18
ENDBRANCH  16  17
ENDBRANCH  15  16
ENDBRANCH  13  15
ENDBRANCH  12  13
ENDBRANCH  11  12
ENDBRANCH   8  11
TORSDOF 13
ENDMDL
MODEL       13
REMARK 921   NORMALIZED FREE ENERGY PREDICTED BY IDOCK:   -5.74 KCAL/MOL
REMARK 922        TOTAL FREE ENERGY PREDICTED BY IDOCK:  -12.85 KCAL/MOL
REMARK 923 INTER-LIGAND FREE ENERGY PREDICTED BY IDOCK:  -10.95 KCAL/MOL
REMARK 924 INTRA-LIGAND FREE ENERGY PREDICTED BY IDOCK:   -1.90 KCAL/MOL
REMARK 927      BINDING AFFINITY PREDICTED BY RF-SCORE:    0.00 PKD
ROOT
HETATM    1  O   UNL     1      -7.445  17.949  65.468  1.00  0.00    -0.524 OA 
HETATM    2  H   UNL     1      -6.816  17.369  65.057  1.00  0.00     0.000 HD 
HETATM    3  C   UNL     1      -8.483  17.508  66.243  1.00  0.00    -0.212 A  
HETATM    4  C   UNL     1      -9.405  18.359  66.847  1.00  0.00    -0.290 A  
HETATM    5  C   UNL     1     -10.416  17.837  67.656  1.00  0.00    -0.393 A  
HETATM    6  O   UNL     1      -9.373  19.714  66.687  1.00  0.00    -0.334 OA 
HETATM    7  H   UNL     1     -10.003  20.295  67.099  1.00  0.00     0.000 HD 
HETATM    8  C   UNL     1     -10.503  16.458  67.878  1.00  0.00    -0.307 A  
HETATM    9  C   UNL     1      -8.588  16.132  66.418  1.00  0.00    -0.365 A  
HETATM   10  C   UNL     1      -9.595  15.605  67.229  1.00  0.00    -0.220 A  
ENDROOT
BRANCH   8  11
HETATM   11  C   UNL     1     -11.562  15.888  68.789  1.00  0.00    -0.389 C  
BRANCH  11  12
HETATM   12  C   UNL     1     -11.140  15.961  70.258  1.00  0.00    -0.373 C  
BRANCH  12  13
HETATM   13  N   UNL     1     -12.316  16.088  71.127  1.00  0.00    -0.562 NA 
HETATM   14  H   UNL     1     -13.055  15.431  70.873  1.00  0.00     0.000 HD 
BRANCH  13  15
HETATM   15  C   UNL     1     -11.911  15.947  72.523  1.00  0.00    -0.517 C  
BRANCH  15  16
HETATM   16  C   UNL     1     -12.872  15.025  73.267  1.00  0.00    -0.647 C  
BRANCH  16  17
HETATM   17  C   UNL     1     -13.780  14.320  72.262  1.00  0.00    -0.592 C  
BRANCH  17  18
HETATM   18  C   UNL     1     -13.522  12.823  72.251  1.00  0.00    -0.591 C  
BRANCH  18  19
HETATM   19  C   UNL     1     -12.636  12.430  71.070  1.00  0.00    -0.349 C  
BRANCH  19  20
HETATM   20  C   UNL     1     -12.761  10.930  70.837  1.00  0.00    -0.370 C  
BRANCH  20  21
HETATM   21  N   UNL     1     -12.584  10.603  69.424  1.00  0.00    -0.678 NA 
HETATM   22  H   UNL     1     -13.476  10.414  68.968  1.00  0.00     0.000 HD 
BRANCH  21  23
HETATM   23  C   UNL     1     -11.832  11.656  68.726  1.00  0.00    -0.325 C  
BRANCH  23  24
HETATM   24  C   UNL     1     -11.136  11.153  67.451  1.00  0.00    -0.370 C  
BRANCH  24  25
HETATM   25  C   UNL     1     -11.366  12.067  66.277  1.00  0.00    -0.415 A  
HETATM   26  C   UNL     1     -10.768  11.781  65.044  1.00  0.00    -0.344 A  
HETATM   27  C   UNL     1     -10.983  12.616  63.947  1.00  0.00    -0.468 A  
HETATM   28  C   UNL     1     -11.791  13.743  64.083  1.00  0.00    -0.439 A  
HETATM   29  C   UNL     1     -12.380  14.039  65.312  1.00  0.00    -0.480 A  
HETATM   30  C   UNL     1     -12.165  13.205  66.408  1.00  0.00    -0.396 A  
ENDBRANCH  24  25
ENDBRANCH  23  24
ENDBRANCH  21  23
ENDBRANCH  20  21
ENDBRANCH  19  20
ENDBRANCH  18  19
ENDBRANCH  17  18
ENDBRANCH  16  17
ENDBRANCH  15  16
ENDBRANCH  13  15
ENDBRANCH  12  13
ENDBRANCH  11  12
ENDBRANCH   8  11
TORSDOF 13
ENDMDL
MODEL       14
REMARK 921   NORMALIZED FREE ENERGY PREDICTED BY IDOCK:   -5.71 KCAL/MOL
REMARK 922        TOTAL FREE ENERGY PREDICTED BY IDOCK:  -12.81 KCAL/MOL
REMARK 923 INTER-LIGAND FREE ENERGY PREDICTED BY IDOCK:  -10.48 KCAL/MOL
REMARK 924 INTRA-LIGAND FREE ENERGY PREDICTED BY IDOCK:   -2.33 KCAL/MOL
REMARK 927      BINDING AFFINITY PREDICTED BY RF-SCORE:    0.00 PKD
ROOT
HETATM    1  O   UNL     1     -14.062   8.931  73.172  1.00  0.00    -1.125 OA 
HETATM    2  H   UNL     1     -14.813   9.511  73.203  1.00  0.00     0.000 HD 
HETATM    3  C   UNL     1     -12.985   9.137  72.354  1.00  0.00    -0.398 A  
HETATM    4  C   UNL     1     -11.884   8.287  72.309  1.00  0.00    -0.388 A  
HETATM    5  C   UNL     1     -10.803   8.582  71.475  1.00  0.00    -0.332 A  
HETATM    6  O   UNL     1     -11.798   7.148  73.058  1.00  0.00    -0.522 OA 
HETATM    7  H   UNL     1     -11.046   6.567  73.027  1.00  0.00     0.000 HD 
HETATM    8  C   UNL     1     -10.813   9.740  70.689  1.00  0.00    -0.396 A  
HETATM    9  C   UNL     1     -13.026  10.265  71.542  1.00  0.00    -0.556 A  
HETATM   10  C   UNL     1     -11.947  10.567  70.709  1.00  0.00    -0.472 A  
ENDROOT
BRANCH   8  11
HETATM   11  C   UNL     1      -9.630  10.094  69.822  1.00  0.00    -0.213 C  
BRANCH  11  12
HETATM   12  C   UNL     1      -9.067   8.864  69.108  1.00  0.00    -0.141 C  
BRANCH  12  13
HETATM   13  N   UNL     1      -8.992   9.095  67.660  1.00  0.00    -0.123 NA 
HETATM   14  H   UNL     1      -8.335   8.462  67.203  1.00  0.00     0.000 HD 
BRANCH  13  15
HETATM   15  C   UNL     1     -10.330   9.014  67.080  1.00  0.00    -0.272 C  
BRANCH  15  16
HETATM   16  C   UNL     1     -10.853  10.407  66.749  1.00  0.00    -0.186 C  
BRANCH  16  17
HETATM   17  C   UNL     1      -9.932  11.066  65.726  1.00  0.00    -0.294 C  
BRANCH  17  18
HETATM   18  C   UNL     1     -10.260  10.603  64.317  1.00  0.00    -0.391 C  
BRANCH  18  19
HETATM   19  C   UNL     1     -10.597  11.791  63.416  1.00  0.00    -0.479 C  
BRANCH  19  20
HETATM   20  C   UNL     1     -12.024  12.237  63.700  1.00  0.00    -0.543 C  
BRANCH  20  21
HETATM   21  N   UNL     1     -12.250  13.602  63.231  1.00  0.00    -1.063 NA 
HETATM   22  H   UNL     1     -13.059  13.657  62.613  1.00  0.00     0.000 HD 
BRANCH  21  23
HETATM   23  C   UNL     1     -12.366  14.539  64.358  1.00  0.00    -0.413 C  
BRANCH  23  24
HETATM   24  C   UNL     1     -11.010  14.894  64.987  1.00  0.00    -0.432 C  
BRANCH  24  25
HETATM   25  C   UNL     1     -10.918  14.467  66.427  1.00  0.00    -0.324 A  
HETATM   26  C   UNL     1     -12.049  13.960  67.077  1.00  0.00    -0.451 A  
HETATM   27  C   UNL     1     -11.971  13.551  68.410  1.00  0.00    -0.378 A  
HETATM   28  C   UNL     1     -10.763  13.655  69.095  1.00  0.00    -0.137 A  
HETATM   29  C   UNL     1      -9.636  14.171  68.456  1.00  0.00    -0.214 A  
HETATM   30  C   UNL     1      -9.714  14.579  67.126  1.00  0.00    -0.240 A  
ENDBRANCH  24  25
ENDBRANCH  23  24
ENDBRANCH  21  23
ENDBRANCH  20  21
ENDBRANCH  19  20
ENDBRANCH  18  19
ENDBRANCH  17  18
ENDBRANCH  16  17
ENDBRANCH  15  16
ENDBRANCH  13  15
ENDBRANCH  12  13
ENDBRANCH  11  12
ENDBRANCH   8  11
TORSDOF 13
ENDMDL
MODEL       15
REMARK 921   NORMALIZED FREE ENERGY PREDICTED BY IDOCK:   -5.71 KCAL/MOL
REMARK 922        TOTAL FREE ENERGY PREDICTED BY IDOCK:  -12.80 KCAL/MOL
REMARK 923 INTER-LIGAND FREE ENERGY PREDICTED BY IDOCK:  -11.57 KCAL/MOL
REMARK 924 INTRA-LIGAND FREE ENERGY PREDICTED BY IDOCK:   -1.23 KCAL/MOL
REMARK 927      BINDING AFFINITY PREDICTED BY RF-SCORE:    0.00 PKD
ROOT
HETATM    1  O   UNL     1     -12.434  13.734  62.887  1.00  0.00    -1.009 OA 
HETATM    2  H   UNL     1     -12.778  12.911  62.559  1.00  0.00     0.000 HD 
HETATM    3  C   UNL     1     -12.151  13.960  64.207  1.00  0.00    -0.440 A  
HETATM    4  C   UNL     1     -11.645  15.164  64.686  1.00  0.00    -0.357 A  
HETATM    5  C   UNL     1     -11.345  15.309  66.043  1.00  0.00    -0.162 A  
HETATM    6  O   UNL     1     -11.418  16.244  63.881  1.00  0.00    -1.484 OA 
HETATM    7  H   UNL     1     -11.074  17.066  64.209  1.00  0.00     0.000 HD 
HETATM    8  C   UNL     1     -11.537  14.241  66.926  1.00  0.00    -0.405 A  
HETATM    9  C   UNL     1     -12.391  12.907  65.084  1.00  0.00    -0.547 A  
HETATM   10  C   UNL     1     -12.089  13.045  66.440  1.00  0.00    -0.428 A  
ENDROOT
BRANCH   8  11
HETATM   11  C   UNL     1     -11.171  14.370  68.384  1.00  0.00    -0.294 C  
BRANCH  11  12
HETATM   12  C   UNL     1     -11.444  15.780  68.911  1.00  0.00    -0.378 C  
BRANCH  12  13
HETATM   13  N   UNL     1     -12.750  15.839  69.577  1.00  0.00    -0.483 NA 
HETATM   14  H   UNL     1     -13.440  15.239  69.124  1.00  0.00     0.000 HD 
BRANCH  13  15
HETATM   15  C   UNL     1     -12.593  15.525  70.994  1.00  0.00    -0.454 C  
BRANCH  15  16
HETATM   16  C   UNL     1     -13.956  15.398  71.667  1.00  0.00    -0.617 C  
BRANCH  16  17
HETATM   17  C   UNL     1     -14.038  14.062  72.401  1.00  0.00    -0.576 C  
BRANCH  17  18
HETATM   18  C   UNL     1     -13.112  13.035  71.772  1.00  0.00    -0.469 C  
BRANCH  18  19
HETATM   19  C   UNL     1     -13.530  11.616  72.155  1.00  0.00    -0.238 C  
BRANCH  19  20
HETATM   20  C   UNL     1     -12.534  10.631  71.559  1.00  0.00    -0.366 C  
BRANCH  20  21
HETATM   21  N   UNL     1     -11.599  11.307  70.664  1.00  0.00    -0.425 NA 
HETATM   22  H   UNL     1     -10.641  11.246  71.007  1.00  0.00     0.000 HD 
BRANCH  21  23
HETATM   23  C   UNL     1     -11.714  10.797  69.290  1.00  0.00    -0.303 C  
BRANCH  23  24
HETATM   24  C   UNL     1     -10.412  10.170  68.769  1.00  0.00    -0.223 C  
BRANCH  24  25
HETATM   25  C   UNL     1     -10.549   8.693  68.517  1.00  0.00    -0.162 A  
HETATM   26  C   UNL     1     -10.777   7.821  69.588  1.00  0.00    -0.223 A  
HETATM   27  C   UNL     1     -10.916   6.451  69.362  1.00  0.00    -0.421 A  
HETATM   28  C   UNL     1     -10.822   5.950  68.066  1.00  0.00    -0.321 A  
HETATM   29  C   UNL     1     -10.583   6.812  66.997  1.00  0.00    -0.405 A  
HETATM   30  C   UNL     1     -10.444   8.181  67.221  1.00  0.00    -0.379 A  
ENDBRANCH  24  25
ENDBRANCH  23  24
ENDBRANCH  21  23
ENDBRANCH  20  21
ENDBRANCH  19  20
ENDBRANCH  18  19
ENDBRANCH  17  18
ENDBRANCH  16  17
ENDBRANCH  15  16
ENDBRANCH  13  15
ENDBRANCH  12  13
ENDBRANCH  11  12
ENDBRANCH   8  11
TORSDOF 13
ENDMDL
MODEL       16
REMARK 921   NORMALIZED FREE ENERGY PREDICTED BY IDOCK:   -5.68 KCAL/MOL
REMARK 922        TOTAL FREE ENERGY PREDICTED BY IDOCK:  -12.76 KCAL/MOL
REMARK 923 INTER-LIGAND FREE ENERGY PREDICTED BY IDOCK:  -10.74 KCAL/MOL
REMARK 924 INTRA-LIGAND FREE ENERGY PREDICTED BY IDOCK:   -2.01 KCAL/MOL
REMARK 927      BINDING AFFINITY PREDICTED BY RF-SCORE:    0.00 PKD
ROOT
HETATM    1  O   UNL     1     -14.000   8.992  73.307  1.00  0.00    -1.205 OA 
HETATM    2  H   UNL     1     -14.045   8.100  73.629  1.00  0.00     0.000 HD 
HETATM    3  C   UNL     1     -13.120   9.401  72.342  1.00  0.00    -0.379 A  
HETATM    4  C   UNL     1     -13.055  10.709  71.870  1.00  0.00    -0.458 A  
HETATM    5  C   UNL     1     -12.155  11.045  70.856  1.00  0.00    -0.444 A  
HETATM    6  O   UNL     1     -13.845  11.711  72.355  1.00  0.00    -0.366 OA 
HETATM    7  H   UNL     1     -13.801  12.603  72.033  1.00  0.00     0.000 HD 
HETATM    8  C   UNL     1     -11.322  10.067  70.298  1.00  0.00    -0.376 A  
HETATM    9  C   UNL     1     -12.264   8.433  71.829  1.00  0.00    -0.377 A  
HETATM   10  C   UNL     1     -11.365   8.762  70.813  1.00  0.00    -0.313 A  
ENDROOT
BRANCH   8  11
HETATM   11  C   UNL     1     -10.381  10.409  69.170  1.00  0.00    -0.241 C  
BRANCH  11  12
HETATM   12  C   UNL     1     -11.085  10.356  67.813  1.00  0.00    -0.299 C  
BRANCH  12  13
HETATM   13  N   UNL     1     -10.859   9.060  67.163  1.00  0.00    -0.343 NA 
HETATM   14  H   UNL     1     -11.670   8.753  66.625  1.00  0.00     0.000 HD 
BRANCH  13  15
HETATM   15  C   UNL     1      -9.650   9.124  66.347  1.00  0.00    -0.245 C  
BRANCH  15  16
HETATM   16  C   UNL     1      -9.551  10.475  65.646  1.00  0.00    -0.278 C  
BRANCH  16  17
HETATM   17  C   UNL     1      -9.084  10.268  64.207  1.00  0.00    -0.278 C  
BRANCH  17  18
HETATM   18  C   UNL     1     -10.123  10.768  63.219  1.00  0.00    -0.314 C  
BRANCH  18  19
HETATM   19  C   UNL     1     -10.474  12.231  63.490  1.00  0.00    -0.459 C  
BRANCH  19  20
HETATM   20  C   UNL     1     -11.989  12.382  63.495  1.00  0.00    -0.538 C  
BRANCH  20  21
HETATM   21  N   UNL     1     -12.379  13.761  63.211  1.00  0.00    -1.124 NA 
HETATM   22  H   UNL     1     -13.309  13.809  62.795  1.00  0.00     0.000 HD 
BRANCH  21  23
HETATM   23  C   UNL     1     -12.281  14.599  64.415  1.00  0.00    -0.452 C  
BRANCH  23  24
HETATM   24  C   UNL     1     -12.663  13.851  65.702  1.00  0.00    -0.534 C  
BRANCH  24  25
HETATM   25  C   UNL     1     -11.610  13.976  66.770  1.00  0.00    -0.406 A  
HETATM   26  C   UNL     1     -10.259  14.049  66.412  1.00  0.00    -0.293 A  
HETATM   27  C   UNL     1      -9.277  14.176  67.395  1.00  0.00    -0.204 A  
HETATM   28  C   UNL     1      -9.644  14.223  68.738  1.00  0.00    -0.153 A  
HETATM   29  C   UNL     1     -10.987  14.139  69.101  1.00  0.00    -0.280 A  
HETATM   30  C   UNL     1     -11.969  14.012  68.120  1.00  0.00    -0.382 A  
ENDBRANCH  24  25
ENDBRANCH  23  24
ENDBRANCH  21  23
ENDBRANCH  20  21
ENDBRANCH  19  20
ENDBRANCH  18  19
ENDBRANCH  17  18
ENDBRANCH  16  17
ENDBRANCH  15  16
ENDBRANCH  13  15
ENDBRANCH  12  13
ENDBRANCH  11  12
ENDBRANCH   8  11
TORSDOF 13
ENDMDL
MODEL       17
REMARK 921   NORMALIZED FREE ENERGY PREDICTED BY IDOCK:   -5.64 KCAL/MOL
REMARK 922        TOTAL FREE ENERGY PREDICTED BY IDOCK:  -12.69 KCAL/MOL
REMARK 923 INTER-LIGAND FREE ENERGY PREDICTED BY IDOCK:  -10.51 KCAL/MOL
REMARK 924 INTRA-LIGAND FREE ENERGY PREDICTED BY IDOCK:   -2.18 KCAL/MOL
REMARK 927      BINDING AFFINITY PREDICTED BY RF-SCORE:    0.00 PKD
ROOT
HETATM    1  O   UNL     1     -11.383  16.459  63.746  1.00  0.00    -1.487 OA 
HETATM    2  H   UNL     1     -10.970  17.289  63.955  1.00  0.00     0.000 HD 
HETATM    3  C   UNL     1     -11.426  15.401  64.613  1.00  0.00    -0.337 A  
HETATM    4  C   UNL     1     -12.031  14.185  64.308  1.00  0.00    -0.435 A  
HETATM    5  C   UNL     1     -12.070  13.163  65.258  1.00  0.00    -0.471 A  
HETATM    6  O   UNL     1     -12.607  13.930  63.096  1.00  0.00    -1.057 OA 
HETATM    7  H   UNL     1     -13.020  13.100  62.887  1.00  0.00     0.000 HD 
HETATM    8  C   UNL     1     -11.513  13.356  66.527  1.00  0.00    -0.372 A  
HETATM    9  C   UNL     1     -10.827  15.588  65.854  1.00  0.00    -0.317 A  
HETATM   10  C   UNL     1     -10.866  14.569  66.809  1.00  0.00    -0.305 A  
ENDROOT
BRANCH   8  11
HETATM   11  C   UNL     1     -11.592  12.275  67.577  1.00  0.00    -0.422 C  
BRANCH  11  12
HETATM   12  C   UNL     1     -10.654  11.110  67.257  1.00  0.00    -0.239 C  
BRANCH  12  13
HETATM   13  N   UNL     1      -9.463  11.154  68.114  1.00  0.00    -0.173 NA 
HETATM   14  H   UNL     1      -9.310  10.273  68.605  1.00  0.00     0.000 HD 
BRANCH  13  15
HETATM   15  C   UNL     1      -8.303  11.552  67.321  1.00  0.00    -0.154 C  
BRANCH  15  16
HETATM   16  C   UNL     1      -7.297  12.302  68.187  1.00  0.00    -0.105 C  
BRANCH  16  17
HETATM   17  C   UNL     1      -7.756  13.747  68.364  1.00  0.00    -0.134 C  
BRANCH  17  18
HETATM   18  C   UNL     1      -6.760  14.716  67.750  1.00  0.00    -0.194 C  
BRANCH  18  19
HETATM   19  C   UNL     1      -7.341  16.128  67.683  1.00  0.00    -0.164 C  
BRANCH  19  20
HETATM   20  C   UNL     1      -8.252  16.344  68.884  1.00  0.00    -0.235 C  
BRANCH  20  21
HETATM   21  N   UNL     1      -9.297  17.319  68.580  1.00  0.00    -0.267 NA 
HETATM   22  H   UNL     1      -9.508  17.344  67.583  1.00  0.00     0.000 HD 
BRANCH  21  23
HETATM   23  C   UNL     1     -10.504  17.071  69.382  1.00  0.00    -0.250 C  
BRANCH  23  24
HETATM   24  C   UNL     1     -10.458  15.736  70.142  1.00  0.00    -0.288 C  
BRANCH  24  25
HETATM   25  C   UNL     1     -11.685  15.516  70.986  1.00  0.00    -0.423 A  
HETATM   26  C   UNL     1     -11.802  16.156  72.225  1.00  0.00    -0.631 A  
HETATM   27  C   UNL     1     -12.941  15.967  73.009  1.00  0.00    -0.630 A  
HETATM   28  C   UNL     1     -13.961  15.132  72.559  1.00  0.00    -0.585 A  
HETATM   29  C   UNL     1     -13.844  14.483  71.330  1.00  0.00    -0.441 A  
HETATM   30  C   UNL     1     -12.708  14.672  70.546  1.00  0.00    -0.394 A  
ENDBRANCH  24  25
ENDBRANCH  23  24
ENDBRANCH  21  23
ENDBRANCH  20  21
ENDBRANCH  19  20
ENDBRANCH  18  19
ENDBRANCH  17  18
ENDBRANCH  16  17
ENDBRANCH  15  16
ENDBRANCH  13  15
ENDBRANCH  12  13
ENDBRANCH  11  12
ENDBRANCH   8  11
TORSDOF 13
ENDMDL
MODEL       18
REMARK 921   NORMALIZED FREE ENERGY PREDICTED BY IDOCK:   -5.64 KCAL/MOL
REMARK 922        TOTAL FREE ENERGY PREDICTED BY IDOCK:  -12.68 KCAL/MOL
REMARK 923 INTER-LIGAND FREE ENERGY PREDICTED BY IDOCK:  -10.88 KCAL/MOL
REMARK 924 INTRA-LIGAND FREE ENERGY PREDICTED BY IDOCK:   -1.81 KCAL/MOL
REMARK 927      BINDING AFFINITY PREDICTED BY RF-SCORE:    0.00 PKD
ROOT
HETATM    1  O   UNL     1     -10.301  19.228  68.818  1.00  0.00    -0.502 OA 
HETATM    2  H   UNL     1     -10.195  18.998  69.734  1.00  0.00     0.000 HD 
HETATM    3  C   UNL     1     -10.378  18.303  67.813  1.00  0.00    -0.401 A  
HETATM    4  C   UNL     1     -10.534  18.639  66.472  1.00  0.00    -0.420 A  
HETATM    5  C   UNL     1     -10.643  17.638  65.505  1.00  0.00    -0.072 A  
HETATM    6  O   UNL     1     -10.591  19.932  66.036  1.00  0.00    -0.476 OA 
HETATM    7  H   UNL     1     -10.697  20.162  65.121  1.00  0.00     0.000 HD 
HETATM    8  C   UNL     1     -10.609  16.289  65.878  1.00  0.00    -0.307 A  
HETATM    9  C   UNL     1     -10.295  16.966  68.190  1.00  0.00    -0.336 A  
HETATM   10  C   UNL     1     -10.407  15.961  67.227  1.00  0.00    -0.293 A  
ENDROOT
BRANCH   8  11
HETATM   11  C   UNL     1     -10.775  15.199  64.847  1.00  0.00    -0.421 C  
BRANCH  11  12
HETATM   12  C   UNL     1     -12.237  15.036  64.429  1.00  0.00    -0.337 C  
BRANCH  12  13
HETATM   13  N   UNL     1     -12.375  13.958  63.443  1.00  0.00    -1.139 NA 
HETATM   14  H   UNL     1     -11.688  14.033  62.692  1.00  0.00     0.000 HD 
BRANCH  13  15
HETATM   15  C   UNL     1     -12.313  12.664  64.118  1.00  0.00    -0.436 C  
BRANCH  15  16
HETATM   16  C   UNL     1     -11.218  11.796  63.508  1.00  0.00    -0.494 C  
BRANCH  16  17
HETATM   17  C   UNL     1     -10.413  11.135  64.624  1.00  0.00    -0.400 C  
BRANCH  17  18
HETATM   18  C   UNL     1     -10.729  11.762  65.970  1.00  0.00    -0.324 C  
BRANCH  18  19
HETATM   19  C   UNL     1      -9.455  12.246  66.660  1.00  0.00    -0.227 C  
BRANCH  19  20
HETATM   20  C   UNL     1      -9.741  12.449  68.141  1.00  0.00    -0.214 C  
BRANCH  20  21
HETATM   21  N   UNL     1     -10.716  11.474  68.625  1.00  0.00    -0.199 NA 
HETATM   22  H   UNL     1     -10.260  10.680  69.076  1.00  0.00     0.000 HD 
BRANCH  21  23
HETATM   23  C   UNL     1     -11.704  12.105  69.511  1.00  0.00    -0.336 C  
BRANCH  23  24
HETATM   24  C   UNL     1     -11.662  13.641  69.462  1.00  0.00    -0.380 C  
BRANCH  24  25
HETATM   25  C   UNL     1     -12.118  14.266  70.752  1.00  0.00    -0.418 A  
HETATM   26  C   UNL     1     -13.152  13.674  71.487  1.00  0.00    -0.431 A  
HETATM   27  C   UNL     1     -13.574  14.241  72.691  1.00  0.00    -0.601 A  
HETATM   28  C   UNL     1     -12.968  15.405  73.157  1.00  0.00    -0.628 A  
HETATM   29  C   UNL     1     -11.946  16.006  72.423  1.00  0.00    -0.644 A  
HETATM   30  C   UNL     1     -11.524  15.440  71.222  1.00  0.00    -0.444 A  
ENDBRANCH  24  25
ENDBRANCH  23  24
ENDBRANCH  21  23
ENDBRANCH  20  21
ENDBRANCH  19  20
ENDBRANCH  18  19
ENDBRANCH  17  18
ENDBRANCH  16  17
ENDBRANCH  15  16
ENDBRANCH  13  15
ENDBRANCH  12  13
ENDBRANCH  11  12
ENDBRANCH   8  11
TORSDOF 13
ENDMDL
MODEL       19
REMARK 921   NORMALIZED FREE ENERGY PREDICTED BY IDOCK:   -5.59 KCAL/MOL
REMARK 922        TOTAL FREE ENERGY PREDICTED BY IDOCK:  -12.60 KCAL/MOL
REMARK 923 INTER-LIGAND FREE ENERGY PREDICTED BY IDOCK:  -10.48 KCAL/MOL
REMARK 924 INTRA-LIGAND FREE ENERGY PREDICTED BY IDOCK:   -2.12 KCAL/MOL
REMARK 927      BINDING AFFINITY PREDICTED BY RF-SCORE:    0.00 PKD
ROOT
HETATM    1  O   UNL     1     -14.129  15.964  73.030  1.00  0.00    -0.653 OA 
HETATM    2  H   UNL     1     -14.857  15.781  73.613  1.00  0.00     0.000 HD 
HETATM    3  C   UNL     1     -13.484  15.000  72.305  1.00  0.00    -0.419 A  
HETATM    4  C   UNL     1     -12.419  15.268  71.450  1.00  0.00    -0.361 A  
HETATM    5  C   UNL     1     -11.834  14.236  70.713  1.00  0.00    -0.336 A  
HETATM    6  O   UNL     1     -11.900  16.520  71.286  1.00  0.00    -0.626 OA 
HETATM    7  H   UNL     1     -11.173  16.704  70.704  1.00  0.00     0.000 HD 
HETATM    8  C   UNL     1     -12.321  12.929  70.817  1.00  0.00    -0.385 A  
HETATM    9  C   UNL     1     -13.946  13.696  72.453  1.00  0.00    -0.651 A  
HETATM   10  C   UNL     1     -13.366  12.661  71.715  1.00  0.00    -0.405 A  
ENDROOT
BRANCH   8  11
HETATM   11  C   UNL     1     -11.728  11.816  69.989  1.00  0.00    -0.386 C  
BRANCH  11  12
HETATM   12  C   UNL     1     -11.580  10.527  70.800  1.00  0.00    -0.338 C  
BRANCH  12  13
HETATM   13  N   UNL     1     -11.475   9.365  69.909  1.00  0.00    -0.436 NA 
HETATM   14  H   UNL     1     -12.369   9.130  69.477  1.00  0.00     0.000 HD 
BRANCH  13  15
HETATM   15  C   UNL     1     -10.429   9.600  68.918  1.00  0.00    -0.215 C  
BRANCH  15  16
HETATM   16  C   UNL     1     -10.501   8.555  67.809  1.00  0.00    -0.287 C  
BRANCH  16  17
HETATM   17  C   UNL     1     -10.118   9.199  66.479  1.00  0.00    -0.357 C  
BRANCH  17  18
HETATM   18  C   UNL     1     -10.230  10.712  66.552  1.00  0.00    -0.288 C  
BRANCH  18  19
HETATM   19  C   UNL     1      -9.486  11.371  65.392  1.00  0.00    -0.240 C  
BRANCH  19  20
HETATM   20  C   UNL     1      -9.996  10.787  64.082  1.00  0.00    -0.343 C  
BRANCH  20  21
HETATM   21  N   UNL     1     -10.424  11.843  63.168  1.00  0.00    -0.651 NA 
HETATM   22  H   UNL     1     -10.103  11.668  62.216  1.00  0.00     0.000 HD 
BRANCH  21  23
HETATM   23  C   UNL     1     -11.881  12.034  63.221  1.00  0.00    -0.353 C  
BRANCH  23  24
HETATM   24  C   UNL     1     -12.291  13.509  63.341  1.00  0.00    -0.264 C  
BRANCH  24  25
HETATM   25  C   UNL     1     -11.893  14.108  64.663  1.00  0.00    -0.443 A  
HETATM   26  C   UNL     1     -12.407  13.577  65.852  1.00  0.00    -0.507 A  
HETATM   27  C   UNL     1     -12.035  14.119  67.083  1.00  0.00    -0.460 A  
HETATM   28  C   UNL     1     -11.153  15.196  67.128  1.00  0.00    -0.335 A  
HETATM   29  C   UNL     1     -10.647  15.736  65.946  1.00  0.00    -0.350 A  
HETATM   30  C   UNL     1     -11.018  15.196  64.716  1.00  0.00    -0.394 A  
ENDBRANCH  24  25
ENDBRANCH  23  24
ENDBRANCH  21  23
ENDBRANCH  20  21
ENDBRANCH  19  20
ENDBRANCH  18  19
ENDBRANCH  17  18
ENDBRANCH  16  17
ENDBRANCH  15  16
ENDBRANCH  13  15
ENDBRANCH  12  13
ENDBRANCH  11  12
ENDBRANCH   8  11
TORSDOF 13
ENDMDL
MODEL       20
REMARK 921   NORMALIZED FREE ENERGY PREDICTED BY IDOCK:   -5.56 KCAL/MOL
REMARK 922        TOTAL FREE ENERGY PREDICTED BY IDOCK:  -12.55 KCAL/MOL
REMARK 923 INTER-LIGAND FREE ENERGY PREDICTED BY IDOCK:  -10.13 KCAL/MOL
REMARK 924 INTRA-LIGAND FREE ENERGY PREDICTED BY IDOCK:   -2.42 KCAL/MOL
REMARK 927      BINDING AFFINITY PREDICTED BY RF-SCORE:    0.00 PKD
ROOT
HETATM    1  O   UNL     1     -11.609   7.236  73.204  1.00  0.00    -0.576 OA 
HETATM    2  H   UNL     1     -10.832   6.694  73.266  1.00  0.00     0.000 HD 
HETATM    3  C   UNL     1     -11.697   8.336  72.394  1.00  0.00    -0.397 A  
HETATM    4  C   UNL     1     -12.836   9.131  72.303  1.00  0.00    -0.401 A  
HETATM    5  C   UNL     1     -12.865  10.217  71.425  1.00  0.00    -0.530 A  
HETATM    6  O   UNL     1     -13.959   8.901  73.045  1.00  0.00    -1.022 OA 
HETATM    7  H   UNL     1     -14.736   9.444  72.983  1.00  0.00     0.000 HD 
HETATM    8  C   UNL     1     -11.756  10.505  70.621  1.00  0.00    -0.453 A  
HETATM    9  C   UNL     1     -10.572   8.642  71.635  1.00  0.00    -0.374 A  
HETATM   10  C   UNL     1     -10.597   9.724  70.753  1.00  0.00    -0.371 A  
ENDROOT
BRANCH   8  11
HETATM   11  C   UNL     1     -11.795  11.646  69.635  1.00  0.00    -0.419 C  
BRANCH  11  12
HETATM   12  C   UNL     1     -12.234  12.952  70.299  1.00  0.00    -0.289 C  
BRANCH  12  13
HETATM   13  N   UNL     1     -12.367  14.020  69.302  1.00  0.00    -0.472 NA 
HETATM   14  H   UNL     1     -11.823  14.847  69.550  1.00  0.00     0.000 HD 
BRANCH  13  15
HETATM   15  C   UNL     1     -12.016  13.505  67.981  1.00  0.00    -0.337 C  
BRANCH  15  16
HETATM   16  C   UNL     1     -11.637  14.649  67.047  1.00  0.00    -0.385 C  
BRANCH  16  17
HETATM   17  C   UNL     1     -11.433  14.105  65.635  1.00  0.00    -0.325 C  
BRANCH  17  18
HETATM   18  C   UNL     1     -12.321  12.900  65.380  1.00  0.00    -0.538 C  
BRANCH  18  19
HETATM   19  C   UNL     1     -12.195  12.424  63.934  1.00  0.00    -0.603 C  
BRANCH  19  20
HETATM   20  C   UNL     1     -10.724  12.425  63.540  1.00  0.00    -0.430 C  
BRANCH  20  21
HETATM   21  N   UNL     1     -10.298  11.098  63.102  1.00  0.00    -0.676 NA 
HETATM   22  H   UNL     1      -9.984  11.107  62.132  1.00  0.00     0.000 HD 
BRANCH  21  23
HETATM   23  C   UNL     1      -9.271  10.548  63.998  1.00  0.00    -0.253 C  
BRANCH  23  24
HETATM   24  C   UNL     1      -9.851   9.983  65.304  1.00  0.00    -0.388 C  
BRANCH  24  25
HETATM   25  C   UNL     1      -9.104  10.467  66.518  1.00  0.00    -0.175 A  
HETATM   26  C   UNL     1      -8.527   9.542  67.396  1.00  0.00    -0.125 A  
HETATM   27  C   UNL     1      -7.823   9.982  68.518  1.00  0.00    -0.093 A  
HETATM   28  C   UNL     1      -7.702  11.347  68.768  1.00  0.00    -0.135 A  
HETATM   29  C   UNL     1      -8.286  12.272  67.903  1.00  0.00    -0.161 A  
HETATM   30  C   UNL     1      -8.988  11.834  66.782  1.00  0.00    -0.196 A  
ENDBRANCH  24  25
ENDBRANCH  23  24
ENDBRANCH  21  23
ENDBRANCH  20  21
ENDBRANCH  19  20
ENDBRANCH  18  19
ENDBRANCH  17  18
ENDBRANCH  16  17
ENDBRANCH  15  16
ENDBRANCH  13  15
ENDBRANCH  12  13
ENDBRANCH  11  12
ENDBRANCH   8  11
TORSDOF 13
ENDMDL
MODEL       21
REMARK 921   NORMALIZED FREE ENERGY PREDICTED BY IDOCK:   -5.55 KCAL/MOL
REMARK 922        TOTAL FREE ENERGY PREDICTED BY IDOCK:  -12.52 KCAL/MOL
REMARK 923 INTER-LIGAND FREE ENERGY PREDICTED BY IDOCK:  -10.22 KCAL/MOL
REMARK 924 INTRA-LIGAND FREE ENERGY PREDICTED BY IDOCK:   -2.29 KCAL/MOL
REMARK 927      BINDING AFFINITY PREDICTED BY RF-SCORE:    0.00 PKD
ROOT
HETATM    1  O   UNL     1     -11.547  16.353  63.708  1.00  0.00    -1.605 OA 
HETATM    2  H   UNL     1     -11.223  17.227  63.890  1.00  0.00     0.000 HD 
HETATM    3  C   UNL     1     -11.499  15.329  64.615  1.00  0.00    -0.354 A  
HETATM    4  C   UNL     1     -11.974  14.048  64.349  1.00  0.00    -0.454 A  
HETATM    5  C   UNL     1     -11.926  13.063  65.338  1.00  0.00    -0.457 A  
HETATM    6  O   UNL     1     -12.501  13.691  63.141  1.00  0.00    -1.033 OA 
HETATM    7  H   UNL     1     -12.825  12.817  62.959  1.00  0.00     0.000 HD 
HETATM    8  C   UNL     1     -11.414  13.359  66.606  1.00  0.00    -0.376 A  
HETATM    9  C   UNL     1     -10.944  15.621  65.856  1.00  0.00    -0.231 A  
HETATM   10  C   UNL     1     -10.897  14.641  66.849  1.00  0.00    -0.305 A  
ENDROOT
BRANCH   8  11
HETATM   11  C   UNL     1     -11.402  12.315  67.696  1.00  0.00    -0.374 C  
BRANCH  11  12
HETATM   12  C   UNL     1     -11.095  10.924  67.141  1.00  0.00    -0.240 C  
BRANCH  12  13
HETATM   13  N   UNL     1      -9.647  10.690  67.102  1.00  0.00    -0.163 NA 
HETATM   14  H   UNL     1      -9.137  11.337  67.704  1.00  0.00     0.000 HD 
BRANCH  13  15
HETATM   15  C   UNL     1      -9.365   9.295  67.429  1.00  0.00    -0.127 C  
BRANCH  15  16
HETATM   16  C   UNL     1     -10.652   8.476  67.425  1.00  0.00    -0.304 C  
BRANCH  16  17
HETATM   17  C   UNL     1     -10.340   7.038  67.831  1.00  0.00    -0.247 C  
BRANCH  17  18
HETATM   18  C   UNL     1     -11.272   6.568  68.935  1.00  0.00    -0.341 C  
BRANCH  18  19
HETATM   19  C   UNL     1     -10.541   5.651  69.914  1.00  0.00    -0.399 C  
BRANCH  19  20
HETATM   20  C   UNL     1      -9.041   5.858  69.757  1.00  0.00    -0.138 C  
BRANCH  20  21
HETATM   21  N   UNL     1      -8.444   6.337  71.002  1.00  0.00    -0.127 NA 
HETATM   22  H   UNL     1      -7.511   5.952  71.144  1.00  0.00     0.000 HD 
BRANCH  21  23
HETATM   23  C   UNL     1      -8.437   7.806  71.056  1.00  0.00    -0.122 C  
BRANCH  23  24
HETATM   24  C   UNL     1      -9.202   8.369  72.263  1.00  0.00    -0.329 C  
BRANCH  24  25
HETATM   25  C   UNL     1     -10.607   8.775  71.911  1.00  0.00    -0.425 A  
HETATM   26  C   UNL     1     -10.825   9.769  70.949  1.00  0.00    -0.399 A  
HETATM   27  C   UNL     1     -12.125  10.144  70.608  1.00  0.00    -0.411 A  
HETATM   28  C   UNL     1     -13.209   9.532  71.234  1.00  0.00    -0.400 A  
HETATM   29  C   UNL     1     -12.998   8.551  72.201  1.00  0.00    -0.403 A  
HETATM   30  C   UNL     1     -11.700   8.175  72.542  1.00  0.00    -0.457 A  
ENDBRANCH  24  25
ENDBRANCH  23  24
ENDBRANCH  21  23
ENDBRANCH  20  21
ENDBRANCH  19  20
ENDBRANCH  18  19
ENDBRANCH  17  18
ENDBRANCH  16  17
ENDBRANCH  15  16
ENDBRANCH  13  15
ENDBRANCH  12  13
ENDBRANCH  11  12
ENDBRANCH   8  11
TORSDOF 13
ENDMDL
MODEL       22
REMARK 921   NORMALIZED FREE ENERGY PREDICTED BY IDOCK:   -5.53 KCAL/MOL
REMARK 922        TOTAL FREE ENERGY PREDICTED BY IDOCK:  -12.49 KCAL/MOL
REMARK 923 INTER-LIGAND FREE ENERGY PREDICTED BY IDOCK:  -10.08 KCAL/MOL
REMARK 924 INTRA-LIGAND FREE ENERGY PREDICTED BY IDOCK:   -2.41 KCAL/MOL
REMARK 927      BINDING AFFINITY PREDICTED BY RF-SCORE:    0.00 PKD
ROOT
HETATM    1  O   UNL     1      -8.072  16.012  69.296  1.00  0.00    -0.232 OA 
HETATM    2  H   UNL     1      -8.104  16.789  69.842  1.00  0.00     0.000 HD 
HETATM    3  C   UNL     1      -8.844  15.845  68.179  1.00  0.00    -0.176 A  
HETATM    4  C   UNL     1      -8.798  14.707  67.379  1.00  0.00    -0.195 A  
HETATM    5  C   UNL     1      -9.589  14.624  66.231  1.00  0.00    -0.333 A  
HETATM    6  O   UNL     1      -7.998  13.638  67.660  1.00  0.00    -0.148 OA 
HETATM    7  H   UNL     1      -7.966  12.861  67.115  1.00  0.00     0.000 HD 
HETATM    8  C   UNL     1     -10.424  15.688  65.870  1.00  0.00    -0.358 A  
HETATM    9  C   UNL     1      -9.706  16.889  67.856  1.00  0.00    -0.254 A  
HETATM   10  C   UNL     1     -10.496  16.812  66.708  1.00  0.00    -0.258 A  
ENDROOT
BRANCH   8  11
HETATM   11  C   UNL     1     -11.247  15.628  64.606  1.00  0.00    -0.380 C  
BRANCH  11  12
HETATM   12  C   UNL     1     -12.363  14.587  64.709  1.00  0.00    -0.391 C  
BRANCH  12  13
HETATM   13  N   UNL     1     -12.492  13.843  63.451  1.00  0.00    -1.110 NA 
HETATM   14  H   UNL     1     -12.506  14.460  62.638  1.00  0.00     0.000 HD 
BRANCH  13  15
HETATM   15  C   UNL     1     -11.434  12.840  63.362  1.00  0.00    -0.394 C  
BRANCH  15  16
HETATM   16  C   UNL     1     -11.459  11.929  64.584  1.00  0.00    -0.345 C  
BRANCH  16  17
HETATM   17  C   UNL     1     -10.249  10.999  64.550  1.00  0.00    -0.406 C  
BRANCH  17  18
HETATM   18  C   UNL     1      -9.986  10.394  65.918  1.00  0.00    -0.317 C  
BRANCH  18  19
HETATM   19  C   UNL     1     -10.860  11.054  66.984  1.00  0.00    -0.334 C  
BRANCH  19  20
HETATM   20  C   UNL     1     -10.138  10.991  68.323  1.00  0.00    -0.177 C  
BRANCH  20  21
HETATM   21  N   UNL     1     -10.421  12.177  69.128  1.00  0.00    -0.429 NA 
HETATM   22  H   UNL     1      -9.729  12.909  68.973  1.00  0.00     0.000 HD 
BRANCH  21  23
HETATM   23  C   UNL     1     -11.787  12.665  68.891  1.00  0.00    -0.302 C  
BRANCH  23  24
HETATM   24  C   UNL     1     -11.921  14.186  69.061  1.00  0.00    -0.376 C  
BRANCH  24  25
HETATM   25  C   UNL     1     -12.225  14.578  70.482  1.00  0.00    -0.399 A  
HETATM   26  C   UNL     1     -13.025  13.749  71.278  1.00  0.00    -0.409 A  
HETATM   27  C   UNL     1     -13.303  14.099  72.600  1.00  0.00    -0.638 A  
HETATM   28  C   UNL     1     -12.788  15.281  73.126  1.00  0.00    -0.606 A  
HETATM   29  C   UNL     1     -12.001  16.116  72.334  1.00  0.00    -0.649 A  
HETATM   30  C   UNL     1     -11.722  15.768  71.014  1.00  0.00    -0.462 A  
ENDBRANCH  24  25
ENDBRANCH  23  24
ENDBRANCH  21  23
ENDBRANCH  20  21
ENDBRANCH  19  20
ENDBRANCH  18  19
ENDBRANCH  17  18
ENDBRANCH  16  17
ENDBRANCH  15  16
ENDBRANCH  13  15
ENDBRANCH  12  13
ENDBRANCH  11  12
ENDBRANCH   8  11
TORSDOF 13
ENDMDL
MODEL       23
REMARK 921   NORMALIZED FREE ENERGY PREDICTED BY IDOCK:   -5.51 KCAL/MOL
REMARK 922        TOTAL FREE ENERGY PREDICTED BY IDOCK:  -12.44 KCAL/MOL
REMARK 923 INTER-LIGAND FREE ENERGY PREDICTED BY IDOCK:  -10.57 KCAL/MOL
REMARK 924 INTRA-LIGAND FREE ENERGY PREDICTED BY IDOCK:   -1.87 KCAL/MOL
REMARK 927      BINDING AFFINITY PREDICTED BY RF-SCORE:    0.00 PKD
ROOT
HETATM    1  O   UNL     1     -12.445   6.749  72.428  1.00  0.00    -0.515 OA 
HETATM    2  H   UNL     1     -11.838   6.060  72.186  1.00  0.00     0.000 HD 
HETATM    3  C   UNL     1     -12.370   8.025  71.940  1.00  0.00    -0.323 A  
HETATM    4  C   UNL     1     -13.261   9.034  72.294  1.00  0.00    -0.460 A  
HETATM    5  C   UNL     1     -13.144  10.305  71.725  1.00  0.00    -0.570 A  
HETATM    6  O   UNL     1     -14.273   8.846  73.191  1.00  0.00    -1.144 OA 
HETATM    7  H   UNL     1     -14.881   9.535  73.433  1.00  0.00     0.000 HD 
HETATM    8  C   UNL     1     -12.141  10.569  70.786  1.00  0.00    -0.470 A  
HETATM    9  C   UNL     1     -11.340   8.289  71.044  1.00  0.00    -0.299 A  
HETATM   10  C   UNL     1     -11.221   9.557  70.470  1.00  0.00    -0.345 A  
ENDROOT
BRANCH   8  11
HETATM   11  C   UNL     1     -12.035  11.923  70.129  1.00  0.00    -0.413 C  
BRANCH  11  12
HETATM   12  C   UNL     1     -12.641  13.022  71.004  1.00  0.00    -0.299 C  
BRANCH  12  13
HETATM   13  N   UNL     1     -11.778  14.209  71.014  1.00  0.00    -0.512 NA 
HETATM   14  H   UNL     1     -10.796  13.969  71.153  1.00  0.00     0.000 HD 
BRANCH  13  15
HETATM   15  C   UNL     1     -11.988  14.979  69.791  1.00  0.00    -0.328 C  
BRANCH  15  16
HETATM   16  C   UNL     1     -10.652  15.321  69.140  1.00  0.00    -0.250 C  
BRANCH  16  17
HETATM   17  C   UNL     1     -10.437  14.427  67.921  1.00  0.00    -0.239 C  
BRANCH  17  18
HETATM   18  C   UNL     1     -11.620  14.506  66.971  1.00  0.00    -0.402 C  
BRANCH  18  19
HETATM   19  C   UNL     1     -11.273  15.335  65.735  1.00  0.00    -0.247 C  
BRANCH  19  20
HETATM   20  C   UNL     1     -11.656  14.549  64.489  1.00  0.00    -0.377 C  
BRANCH  20  21
HETATM   21  N   UNL     1     -12.751  13.623  64.769  1.00  0.00    -0.680 NA 
HETATM   22  H   UNL     1     -13.653  14.020  64.510  1.00  0.00     0.000 HD 
BRANCH  21  23
HETATM   23  C   UNL     1     -12.525  12.323  64.121  1.00  0.00    -0.434 C  
BRANCH  23  24
HETATM   24  C   UNL     1     -11.049  12.068  63.780  1.00  0.00    -0.510 C  
BRANCH  24  25
HETATM   25  C   UNL     1     -10.416  11.058  64.699  1.00  0.00    -0.398 A  
HETATM   26  C   UNL     1     -10.740  11.056  66.061  1.00  0.00    -0.242 A  
HETATM   27  C   UNL     1     -10.166  10.117  66.919  1.00  0.00    -0.295 A  
HETATM   28  C   UNL     1      -9.263   9.182  66.418  1.00  0.00    -0.233 A  
HETATM   29  C   UNL     1      -8.928   9.187  65.065  1.00  0.00    -0.221 A  
HETATM   30  C   UNL     1      -9.500  10.125  64.207  1.00  0.00    -0.366 A  
ENDBRANCH  24  25
ENDBRANCH  23  24
ENDBRANCH  21  23
ENDBRANCH  20  21
ENDBRANCH  19  20
ENDBRANCH  18  19
ENDBRANCH  17  18
ENDBRANCH  16  17
ENDBRANCH  15  16
ENDBRANCH  13  15
ENDBRANCH  12  13
ENDBRANCH  11  12
ENDBRANCH   8  11
TORSDOF 13
ENDMDL
MODEL       24
REMARK 921   NORMALIZED FREE ENERGY PREDICTED BY IDOCK:   -5.50 KCAL/MOL
REMARK 922        TOTAL FREE ENERGY PREDICTED BY IDOCK:  -12.44 KCAL/MOL
REMARK 923 INTER-LIGAND FREE ENERGY PREDICTED BY IDOCK:  -10.84 KCAL/MOL
REMARK 924 INTRA-LIGAND FREE ENERGY PREDICTED BY IDOCK:   -1.60 KCAL/MOL
REMARK 927      BINDING AFFINITY PREDICTED BY RF-SCORE:    0.00 PKD
ROOT
HETATM    1  O   UNL     1     -11.664  16.268  63.794  1.00  0.00    -1.511 OA 
HETATM    2  H   UNL     1     -11.350  17.115  64.087  1.00  0.00     0.000 HD 
HETATM    3  C   UNL     1     -11.567  15.129  64.547  1.00  0.00    -0.329 A  
HETATM    4  C   UNL     1     -12.028  13.887  64.119  1.00  0.00    -0.428 A  
HETATM    5  C   UNL     1     -11.929  12.775  64.959  1.00  0.00    -0.456 A  
HETATM    6  O   UNL     1     -12.588  13.689  62.890  1.00  0.00    -0.898 OA 
HETATM    7  H   UNL     1     -12.902  12.842  62.597  1.00  0.00     0.000 HD 
HETATM    8  C   UNL     1     -11.380  12.903  66.239  1.00  0.00    -0.364 A  
HETATM    9  C   UNL     1     -10.976  15.258  65.799  1.00  0.00    -0.340 A  
HETATM   10  C   UNL     1     -10.878  14.150  66.644  1.00  0.00    -0.299 A  
ENDROOT
BRANCH   8  11
HETATM   11  C   UNL     1     -11.313  11.719  67.172  1.00  0.00    -0.387 C  
BRANCH  11  12
HETATM   12  C   UNL     1     -10.050  11.751  68.034  1.00  0.00    -0.192 C  
BRANCH  12  13
HETATM   13  N   UNL     1     -10.385  11.551  69.449  1.00  0.00    -0.429 NA 
HETATM   14  H   UNL     1      -9.960  12.259  70.049  1.00  0.00     0.000 HD 
BRANCH  13  15
HETATM   15  C   UNL     1     -11.836  11.496  69.607  1.00  0.00    -0.354 C  
BRANCH  15  16
HETATM   16  C   UNL     1     -12.294  12.480  70.678  1.00  0.00    -0.369 C  
BRANCH  16  17
HETATM   17  C   UNL     1     -12.345  13.887  70.087  1.00  0.00    -0.400 C  
BRANCH  17  18
HETATM   18  C   UNL     1     -12.282  14.941  71.179  1.00  0.00    -0.380 C  
BRANCH  18  19
HETATM   19  C   UNL     1     -11.325  16.069  70.794  1.00  0.00    -0.427 C  
BRANCH  19  20
HETATM   20  C   UNL     1     -10.213  15.498  69.924  1.00  0.00    -0.295 C  
BRANCH  20  21
HETATM   21  N   UNL     1      -9.499  16.561  69.222  1.00  0.00    -0.204 NA 
HETATM   22  H   UNL     1      -8.854  16.185  68.528  1.00  0.00     0.000 HD 
BRANCH  21  23
HETATM   23  C   UNL     1     -10.435  17.524  68.624  1.00  0.00    -0.338 C  
BRANCH  23  24
HETATM   24  C   UNL     1     -10.032  18.987  68.869  1.00  0.00    -0.460 C  
BRANCH  24  25
HETATM   25  C   UNL     1      -8.779  19.367  68.126  1.00  0.00    -0.370 A  
HETATM   26  C   UNL     1      -7.577  19.531  68.826  1.00  0.00    -0.386 A  
HETATM   27  C   UNL     1      -6.408  19.873  68.144  1.00  0.00    -0.289 A  
HETATM   28  C   UNL     1      -6.440  20.057  66.764  1.00  0.00    -0.222 A  
HETATM   29  C   UNL     1      -7.637  19.906  66.064  1.00  0.00    -0.338 A  
HETATM   30  C   UNL     1      -8.805  19.564  66.744  1.00  0.00    -0.376 A  
ENDBRANCH  24  25
ENDBRANCH  23  24
ENDBRANCH  21  23
ENDBRANCH  20  21
ENDBRANCH  19  20
ENDBRANCH  18  19
ENDBRANCH  17  18
ENDBRANCH  16  17
ENDBRANCH  15  16
ENDBRANCH  13  15
ENDBRANCH  12  13
ENDBRANCH  11  12
ENDBRANCH   8  11
TORSDOF 13
ENDMDL
MODEL       25
REMARK 921   NORMALIZED FREE ENERGY PREDICTED BY IDOCK:   -5.47 KCAL/MOL
REMARK 922        TOTAL FREE ENERGY PREDICTED BY IDOCK:  -12.39 KCAL/MOL
REMARK 923 INTER-LIGAND FREE ENERGY PREDICTED BY IDOCK:  -10.20 KCAL/MOL
REMARK 924 INTRA-LIGAND FREE ENERGY PREDICTED BY IDOCK:   -2.19 KCAL/MOL
REMARK 927      BINDING AFFINITY PREDICTED BY RF-SCORE:    0.00 PKD
ROOT
HETATM    1  O   UNL     1     -12.218   6.972  72.477  1.00  0.00    -0.496 OA 
HETATM    2  H   UNL     1     -11.536   6.349  72.258  1.00  0.00     0.000 HD 
HETATM    3  C   UNL     1     -12.231   8.263  72.022  1.00  0.00    -0.348 A  
HETATM    4  C   UNL     1     -13.231   9.177  72.341  1.00  0.00    -0.444 A  
HETATM    5  C   UNL     1     -13.198  10.468  71.809  1.00  0.00    -0.522 A  
HETATM    6  O   UNL     1     -14.273   8.873  73.170  1.00  0.00    -1.144 OA 
HETATM    7  H   UNL     1     -14.956   9.497  73.388  1.00  0.00     0.000 HD 
HETATM    8  C   UNL     1     -12.169  10.847  70.940  1.00  0.00    -0.485 A  
HETATM    9  C   UNL     1     -11.178   8.644  71.198  1.00  0.00    -0.329 A  
HETATM   10  C   UNL     1     -11.142   9.932  70.660  1.00  0.00    -0.409 A  
ENDROOT
BRANCH   8  11
HETATM   11  C   UNL     1     -12.150  12.223  70.321  1.00  0.00    -0.376 C  
BRANCH  11  12
HETATM   12  C   UNL     1     -12.690  13.282  71.284  1.00  0.00    -0.323 C  
BRANCH  12  13
HETATM   13  N   UNL     1     -11.758  14.412  71.385  1.00  0.00    -0.473 NA 
HETATM   14  H   UNL     1     -10.820  14.166  71.067  1.00  0.00     0.000 HD 
BRANCH  13  15
HETATM   15  C   UNL     1     -12.300  15.561  70.666  1.00  0.00    -0.416 C  
BRANCH  15  16
HETATM   16  C   UNL     1     -11.754  15.607  69.243  1.00  0.00    -0.388 C  
BRANCH  16  17
HETATM   17  C   UNL     1     -10.562  16.559  69.187  1.00  0.00    -0.319 C  
BRANCH  17  18
HETATM   18  C   UNL     1     -10.691  17.527  68.023  1.00  0.00    -0.342 C  
BRANCH  18  19
HETATM   19  C   UNL     1      -9.329  17.804  67.389  1.00  0.00    -0.252 C  
BRANCH  19  20
HETATM   20  C   UNL     1      -9.266  17.115  66.033  1.00  0.00    -0.112 C  
BRANCH  20  21
HETATM   21  N   UNL     1     -10.607  16.852  65.516  1.00  0.00    -0.553 NA 
HETATM   22  H   UNL     1     -10.927  17.601  64.903  1.00  0.00     0.000 HD 
BRANCH  21  23
HETATM   23  C   UNL     1     -10.672  15.543  64.851  1.00  0.00    -0.392 C  
BRANCH  23  24
HETATM   24  C   UNL     1     -11.675  14.582  65.508  1.00  0.00    -0.343 C  
BRANCH  24  25
HETATM   25  C   UNL     1     -10.994  13.476  66.267  1.00  0.00    -0.293 A  
HETATM   26  C   UNL     1     -11.633  12.239  66.420  1.00  0.00    -0.445 A  
HETATM   27  C   UNL     1     -11.004  11.204  67.113  1.00  0.00    -0.350 A  
HETATM   28  C   UNL     1      -9.738  11.405  67.660  1.00  0.00    -0.183 A  
HETATM   29  C   UNL     1      -9.103  12.638  67.520  1.00  0.00    -0.192 A  
HETATM   30  C   UNL     1      -9.730  13.673  66.828  1.00  0.00    -0.275 A  
ENDBRANCH  24  25
ENDBRANCH  23  24
ENDBRANCH  21  23
ENDBRANCH  20  21
ENDBRANCH  19  20
ENDBRANCH  18  19
ENDBRANCH  17  18
ENDBRANCH  16  17
ENDBRANCH  15  16
ENDBRANCH  13  15
ENDBRANCH  12  13
ENDBRANCH  11  12
ENDBRANCH   8  11
TORSDOF 13
ENDMDL
MODEL       26
REMARK 921   NORMALIZED FREE ENERGY PREDICTED BY IDOCK:   -5.46 KCAL/MOL
REMARK 922        TOTAL FREE ENERGY PREDICTED BY IDOCK:  -12.37 KCAL/MOL
REMARK 923 INTER-LIGAND FREE ENERGY PREDICTED BY IDOCK:  -10.95 KCAL/MOL
REMARK 924 INTRA-LIGAND FREE ENERGY PREDICTED BY IDOCK:   -1.42 KCAL/MOL
REMARK 927      BINDING AFFINITY PREDICTED BY RF-SCORE:    0.00 PKD
ROOT
HETATM    1  O   UNL     1     -14.207   8.844  73.227  1.00  0.00    -1.197 OA 
HETATM    2  H   UNL     1     -14.657   9.621  73.538  1.00  0.00     0.000 HD 
HETATM    3  C   UNL     1     -13.215   8.875  72.285  1.00  0.00    -0.447 A  
HETATM    4  C   UNL     1     -12.555   7.737  71.829  1.00  0.00    -0.329 A  
HETATM    5  C   UNL     1     -11.526   7.851  70.893  1.00  0.00    -0.294 A  
HETATM    6  O   UNL     1     -12.867   6.480  72.260  1.00  0.00    -0.553 OA 
HETATM    7  H   UNL     1     -12.417   5.703  71.949  1.00  0.00     0.000 HD 
HETATM    8  C   UNL     1     -11.140   9.109  70.416  1.00  0.00    -0.293 A  
HETATM    9  C   UNL     1     -12.872  10.126  71.782  1.00  0.00    -0.554 A  
HETATM   10  C   UNL     1     -11.841  10.245  70.848  1.00  0.00    -0.473 A  
ENDROOT
BRANCH   8  11
HETATM   11  C   UNL     1      -9.997   9.247  69.441  1.00  0.00    -0.184 C  
BRANCH  11  12
HETATM   12  C   UNL     1     -10.298   8.546  68.116  1.00  0.00    -0.206 C  
BRANCH  12  13
HETATM   13  N   UNL     1     -10.233   9.498  67.001  1.00  0.00    -0.241 NA 
HETATM   14  H   UNL     1     -10.802  10.328  67.170  1.00  0.00     0.000 HD 
BRANCH  13  15
HETATM   15  C   UNL     1      -8.839   9.833  66.723  1.00  0.00    -0.138 C  
BRANCH  15  16
HETATM   16  C   UNL     1      -8.754  10.922  65.658  1.00  0.00    -0.190 C  
BRANCH  16  17
HETATM   17  C   UNL     1      -9.753  12.030  65.982  1.00  0.00    -0.256 C  
BRANCH  17  18
HETATM   18  C   UNL     1     -10.793  12.167  64.883  1.00  0.00    -0.352 C  
BRANCH  18  19
HETATM   19  C   UNL     1     -12.040  12.883  65.399  1.00  0.00    -0.501 C  
BRANCH  19  20
HETATM   20  C   UNL     1     -11.621  14.182  66.073  1.00  0.00    -0.361 C  
BRANCH  20  21
HETATM   21  N   UNL     1     -12.429  14.440  67.262  1.00  0.00    -0.529 NA 
HETATM   22  H   UNL     1     -13.042  13.654  67.477  1.00  0.00     0.000 HD 
BRANCH  21  23
HETATM   23  C   UNL     1     -11.584  14.796  68.411  1.00  0.00    -0.324 C  
BRANCH  23  24
HETATM   24  C   UNL     1     -11.673  13.781  69.561  1.00  0.00    -0.380 C  
BRANCH  24  25
HETATM   25  C   UNL     1     -12.150  14.409  70.843  1.00  0.00    -0.414 A  
HETATM   26  C   UNL     1     -11.629  15.643  71.251  1.00  0.00    -0.485 A  
HETATM   27  C   UNL     1     -12.074  16.238  72.432  1.00  0.00    -0.598 A  
HETATM   28  C   UNL     1     -13.035  15.598  73.211  1.00  0.00    -0.664 A  
HETATM   29  C   UNL     1     -13.548  14.364  72.816  1.00  0.00    -0.531 A  
HETATM   30  C   UNL     1     -13.105  13.768  71.636  1.00  0.00    -0.456 A  
ENDBRANCH  24  25
ENDBRANCH  23  24
ENDBRANCH  21  23
ENDBRANCH  20  21
ENDBRANCH  19  20
ENDBRANCH  18  19
ENDBRANCH  17  18
ENDBRANCH  16  17
ENDBRANCH  15  16
ENDBRANCH  13  15
ENDBRANCH  12  13
ENDBRANCH  11  12
ENDBRANCH   8  11
TORSDOF 13
ENDMDL
MODEL       27
REMARK 921   NORMALIZED FREE ENERGY PREDICTED BY IDOCK:   -5.44 KCAL/MOL
REMARK 922        TOTAL FREE ENERGY PREDICTED BY IDOCK:  -12.33 KCAL/MOL
REMARK 923 INTER-LIGAND FREE ENERGY PREDICTED BY IDOCK:  -10.92 KCAL/MOL
REMARK 924 INTRA-LIGAND FREE ENERGY PREDICTED BY IDOCK:   -1.41 KCAL/MOL
REMARK 927      BINDING AFFINITY PREDICTED BY RF-SCORE:    0.00 PKD
ROOT
HETATM    1  O   UNL     1     -12.944  15.853  70.390  1.00  0.00    -0.676 OA 
HETATM    2  H   UNL     1     -12.519  16.294  69.665  1.00  0.00     0.000 HD 
HETATM    3  C   UNL     1     -12.864  14.503  70.601  1.00  0.00    -0.340 A  
HETATM    4  C   UNL     1     -13.486  13.855  71.665  1.00  0.00    -0.352 A  
HETATM    5  C   UNL     1     -13.328  12.479  71.838  1.00  0.00    -0.467 A  
HETATM    6  O   UNL     1     -14.264  14.511  72.576  1.00  0.00    -0.497 OA 
HETATM    7  H   UNL     1     -14.689  14.069  73.301  1.00  0.00     0.000 HD 
HETATM    8  C   UNL     1     -12.532  11.742  70.952  1.00  0.00    -0.416 A  
HETATM    9  C   UNL     1     -12.110  13.773  69.688  1.00  0.00    -0.392 A  
HETATM   10  C   UNL     1     -11.946  12.397  69.858  1.00  0.00    -0.369 A  
ENDROOT
BRANCH   8  11
HETATM   11  C   UNL     1     -12.315  10.263  71.158  1.00  0.00    -0.501 C  
BRANCH  11  12
HETATM   12  C   UNL     1     -13.369   9.663  72.091  1.00  0.00    -0.454 C  
BRANCH  12  13
HETATM   13  N   UNL     1     -12.774   8.629  72.945  1.00  0.00    -0.617 NA 
HETATM   14  H   UNL     1     -13.465   7.949  73.263  1.00  0.00     0.000 HD 
BRANCH  13  15
HETATM   15  C   UNL     1     -11.659   7.997  72.246  1.00  0.00    -0.366 C  
BRANCH  15  16
HETATM   16  C   UNL     1     -12.070   6.628  71.715  1.00  0.00    -0.400 C  
BRANCH  16  17
HETATM   17  C   UNL     1     -10.887   5.985  70.995  1.00  0.00    -0.345 C  
BRANCH  17  18
HETATM   18  C   UNL     1     -10.493   6.790  69.768  1.00  0.00    -0.240 C  
BRANCH  18  19
HETATM   19  C   UNL     1     -10.717   5.982  68.491  1.00  0.00    -0.354 C  
BRANCH  19  20
HETATM   20  C   UNL     1     -10.741   6.934  67.303  1.00  0.00    -0.351 C  
BRANCH  20  21
HETATM   21  N   UNL     1     -10.866   8.321  67.744  1.00  0.00    -0.493 NA 
HETATM   22  H   UNL     1     -10.596   8.429  68.721  1.00  0.00     0.000 HD 
BRANCH  21  23
HETATM   23  C   UNL     1     -10.108   9.227  66.870  1.00  0.00    -0.256 C  
BRANCH  23  24
HETATM   24  C   UNL     1     -10.379  10.711  67.160  1.00  0.00    -0.275 C  
BRANCH  24  25
HETATM   25  C   UNL     1     -10.903  11.443  65.955  1.00  0.00    -0.292 A  
HETATM   26  C   UNL     1     -10.456  11.090  64.676  1.00  0.00    -0.398 A  
HETATM   27  C   UNL     1     -10.945  11.757  63.551  1.00  0.00    -0.499 A  
HETATM   28  C   UNL     1     -11.876  12.781  63.704  1.00  0.00    -0.603 A  
HETATM   29  C   UNL     1     -12.316  13.144  64.976  1.00  0.00    -0.511 A  
HETATM   30  C   UNL     1     -11.829  12.480  66.100  1.00  0.00    -0.459 A  
ENDBRANCH  24  25
ENDBRANCH  23  24
ENDBRANCH  21  23
ENDBRANCH  20  21
ENDBRANCH  19  20
ENDBRANCH  18  19
ENDBRANCH  17  18
ENDBRANCH  16  17
ENDBRANCH  15  16
ENDBRANCH  13  15
ENDBRANCH  12  13
ENDBRANCH  11  12
ENDBRANCH   8  11
TORSDOF 13
ENDMDL
MODEL       28
REMARK 921   NORMALIZED FREE ENERGY PREDICTED BY IDOCK:   -5.43 KCAL/MOL
REMARK 922        TOTAL FREE ENERGY PREDICTED BY IDOCK:  -12.30 KCAL/MOL
REMARK 923 INTER-LIGAND FREE ENERGY PREDICTED BY IDOCK:  -10.30 KCAL/MOL
REMARK 924 INTRA-LIGAND FREE ENERGY PREDICTED BY IDOCK:   -2.00 KCAL/MOL
REMARK 927      BINDING AFFINITY PREDICTED BY RF-SCORE:    0.00 PKD
ROOT
HETATM    1  O   UNL     1     -12.212   6.905  72.690  1.00  0.00    -0.491 OA 
HETATM    2  H   UNL     1     -11.537   6.261  72.512  1.00  0.00     0.000 HD 
HETATM    3  C   UNL     1     -12.225   8.155  72.133  1.00  0.00    -0.350 A  
HETATM    4  C   UNL     1     -13.214   9.099  72.394  1.00  0.00    -0.444 A  
HETATM    5  C   UNL     1     -13.182  10.342  71.758  1.00  0.00    -0.529 A  
HETATM    6  O   UNL     1     -14.244   8.870  73.260  1.00  0.00    -1.197 OA 
HETATM    7  H   UNL     1     -14.919   9.515  73.438  1.00  0.00     0.000 HD 
HETATM    8  C   UNL     1     -12.165  10.643  70.845  1.00  0.00    -0.497 A  
HETATM    9  C   UNL     1     -11.183   8.461  71.264  1.00  0.00    -0.309 A  
HETATM   10  C   UNL     1     -11.148   9.701  70.624  1.00  0.00    -0.384 A  
ENDROOT
BRANCH   8  11
HETATM   11  C   UNL     1     -12.148  11.964  70.117  1.00  0.00    -0.382 C  
BRANCH  11  12
HETATM   12  C   UNL     1     -12.514  13.124  71.045  1.00  0.00    -0.318 C  
BRANCH  12  13
HETATM   13  N   UNL     1     -11.695  14.305  70.743  1.00  0.00    -0.485 NA 
HETATM   14  H   UNL     1     -10.718  14.172  71.007  1.00  0.00     0.000 HD 
BRANCH  13  15
HETATM   15  C   UNL     1     -11.843  14.658  69.334  1.00  0.00    -0.329 C  
BRANCH  15  16
HETATM   16  C   UNL     1     -10.789  15.682  68.928  1.00  0.00    -0.252 C  
BRANCH  16  17
HETATM   17  C   UNL     1     -10.701  15.744  67.405  1.00  0.00    -0.317 C  
BRANCH  17  18
HETATM   18  C   UNL     1      -9.380  15.180  66.911  1.00  0.00    -0.251 C  
BRANCH  18  19
HETATM   19  C   UNL     1      -8.672  14.398  68.016  1.00  0.00    -0.170 C  
BRANCH  19  20
HETATM   20  C   UNL     1      -7.533  13.596  67.403  1.00  0.00    -0.123 C  
BRANCH  20  21
HETATM   21  N   UNL     1      -7.997  12.286  66.952  1.00  0.00    -0.350 NA 
HETATM   22  H   UNL     1      -7.231  11.615  66.900  1.00  0.00     0.000 HD 
BRANCH  21  23
HETATM   23  C   UNL     1      -9.093  11.791  67.798  1.00  0.00    -0.178 C  
BRANCH  23  24
HETATM   24  C   UNL     1     -10.092  10.908  67.035  1.00  0.00    -0.244 C  
BRANCH  24  25
HETATM   25  C   UNL     1     -10.826  11.670  65.965  1.00  0.00    -0.339 A  
HETATM   26  C   UNL     1     -10.420  11.563  64.629  1.00  0.00    -0.356 A  
HETATM   27  C   UNL     1     -11.103  12.257  63.629  1.00  0.00    -0.537 A  
HETATM   28  C   UNL     1     -12.187  13.065  63.964  1.00  0.00    -0.489 A  
HETATM   29  C   UNL     1     -12.588  13.185  65.294  1.00  0.00    -0.531 A  
HETATM   30  C   UNL     1     -11.907  12.492  66.293  1.00  0.00    -0.453 A  
ENDBRANCH  24  25
ENDBRANCH  23  24
ENDBRANCH  21  23
ENDBRANCH  20  21
ENDBRANCH  19  20
ENDBRANCH  18  19
ENDBRANCH  17  18
ENDBRANCH  16  17
ENDBRANCH  15  16
ENDBRANCH  13  15
ENDBRANCH  12  13
ENDBRANCH  11  12
ENDBRANCH   8  11
TORSDOF 13
ENDMDL
MODEL       29
REMARK 921   NORMALIZED FREE ENERGY PREDICTED BY IDOCK:   -5.41 KCAL/MOL
REMARK 922        TOTAL FREE ENERGY PREDICTED BY IDOCK:  -12.28 KCAL/MOL
REMARK 923 INTER-LIGAND FREE ENERGY PREDICTED BY IDOCK:   -9.50 KCAL/MOL
REMARK 924 INTRA-LIGAND FREE ENERGY PREDICTED BY IDOCK:   -2.78 KCAL/MOL
REMARK 927      BINDING AFFINITY PREDICTED BY RF-SCORE:    0.00 PKD
ROOT
HETATM    1  O   UNL     1     -12.609  13.853  63.002  1.00  0.00    -1.030 OA 
HETATM    2  H   UNL     1     -13.234  14.568  62.967  1.00  0.00     0.000 HD 
HETATM    3  C   UNL     1     -12.148  13.313  64.172  1.00  0.00    -0.432 A  
HETATM    4  C   UNL     1     -11.233  12.265  64.224  1.00  0.00    -0.350 A  
HETATM    5  C   UNL     1     -10.837  11.740  65.456  1.00  0.00    -0.348 A  
HETATM    6  O   UNL     1     -10.688  11.704  63.105  1.00  0.00    -0.617 OA 
HETATM    7  H   UNL     1     -10.063  10.990  63.140  1.00  0.00     0.000 HD 
HETATM    8  C   UNL     1     -11.365  12.254  66.645  1.00  0.00    -0.398 A  
HETATM    9  C   UNL     1     -12.643  13.863  65.350  1.00  0.00    -0.538 A  
HETATM   10  C   UNL     1     -12.252  13.339  66.584  1.00  0.00    -0.359 A  
ENDROOT
BRANCH   8  11
HETATM   11  C   UNL     1     -10.980  11.662  67.979  1.00  0.00    -0.275 C  
BRANCH  11  12
HETATM   12  C   UNL     1     -11.908  12.141  69.097  1.00  0.00    -0.305 C  
BRANCH  12  13
HETATM   13  N   UNL     1     -11.330  13.301  69.787  1.00  0.00    -0.486 NA 
HETATM   14  H   UNL     1     -10.622  13.771  69.222  1.00  0.00     0.000 HD 
BRANCH  13  15
HETATM   15  C   UNL     1     -12.397  14.208  70.199  1.00  0.00    -0.351 C  
BRANCH  15  16
HETATM   16  C   UNL     1     -11.845  15.610  70.432  1.00  0.00    -0.395 C  
BRANCH  16  17
HETATM   17  C   UNL     1     -10.655  15.848  69.506  1.00  0.00    -0.282 C  
BRANCH  17  18
HETATM   18  C   UNL     1     -10.898  17.043  68.601  1.00  0.00    -0.284 C  
BRANCH  18  19
HETATM   19  C   UNL     1     -10.137  18.271  69.100  1.00  0.00    -0.186 C  
BRANCH  19  20
HETATM   20  C   UNL     1     -10.292  19.394  68.085  1.00  0.00    -0.415 C  
BRANCH  20  21
HETATM   21  N   UNL     1      -8.989  19.868  67.624  1.00  0.00    -0.328 NA 
HETATM   22  H   UNL     1      -8.252  19.649  68.294  1.00  0.00     0.000 HD 
BRANCH  21  23
HETATM   23  C   UNL     1      -8.677  19.344  66.286  1.00  0.00    -0.346 C  
BRANCH  23  24
HETATM   24  C   UNL     1      -7.419  18.464  66.262  1.00  0.00    -0.294 C  
BRANCH  24  25
HETATM   25  C   UNL     1      -7.724  17.022  66.567  1.00  0.00    -0.327 A  
HETATM   26  C   UNL     1      -6.916  16.312  67.464  1.00  0.00    -0.184 A  
HETATM   27  C   UNL     1      -7.198  14.978  67.760  1.00  0.00    -0.186 A  
HETATM   28  C   UNL     1      -8.284  14.349  67.156  1.00  0.00    -0.202 A  
HETATM   29  C   UNL     1      -9.085  15.047  66.253  1.00  0.00    -0.288 A  
HETATM   30  C   UNL     1      -8.804  16.380  65.956  1.00  0.00    -0.296 A  
ENDBRANCH  24  25
ENDBRANCH  23  24
ENDBRANCH  21  23
ENDBRANCH  20  21
ENDBRANCH  19  20
ENDBRANCH  18  19
ENDBRANCH  17  18
ENDBRANCH  16  17
ENDBRANCH  15  16
ENDBRANCH  13  15
ENDBRANCH  12  13
ENDBRANCH  11  12
ENDBRANCH   8  11
TORSDOF 13
ENDMDL
MODEL       30
REMARK 921   NORMALIZED FREE ENERGY PREDICTED BY IDOCK:   -5.37 KCAL/MOL
REMARK 922        TOTAL FREE ENERGY PREDICTED BY IDOCK:  -12.21 KCAL/MOL
REMARK 923 INTER-LIGAND FREE ENERGY PREDICTED BY IDOCK:  -10.62 KCAL/MOL
REMARK 924 INTRA-LIGAND FREE ENERGY PREDICTED BY IDOCK:   -1.59 KCAL/MOL
REMARK 927      BINDING AFFINITY PREDICTED BY RF-SCORE:    0.00 PKD
ROOT
HETATM    1  O   UNL     1     -13.375  15.914  74.013  1.00  0.00    -0.809 OA 
HETATM    2  H   UNL     1     -13.088  16.706  74.453  1.00  0.00     0.000 HD 
HETATM    3  C   UNL     1     -12.885  15.507  72.802  1.00  0.00    -0.435 A  
HETATM    4  C   UNL     1     -13.305  14.347  72.157  1.00  0.00    -0.398 A  
HETATM    5  C   UNL     1     -12.731  13.974  70.939  1.00  0.00    -0.420 A  
HETATM    6  O   UNL     1     -14.273  13.528  72.664  1.00  0.00    -0.751 OA 
HETATM    7  H   UNL     1     -14.560  12.737  72.224  1.00  0.00     0.000 HD 
HETATM    8  C   UNL     1     -11.722  14.756  70.365  1.00  0.00    -0.350 A  
HETATM    9  C   UNL     1     -11.917  16.316  72.217  1.00  0.00    -0.605 A  
HETATM   10  C   UNL     1     -11.338  15.947  71.001  1.00  0.00    -0.434 A  
ENDROOT
BRANCH   8  11
HETATM   11  C   UNL     1     -11.062  14.337  69.074  1.00  0.00    -0.284 C  
BRANCH  11  12
HETATM   12  C   UNL     1     -12.029  13.570  68.171  1.00  0.00    -0.341 C  
BRANCH  12  13
HETATM   13  N   UNL     1     -12.206  14.269  66.892  1.00  0.00    -0.559 NA 
HETATM   14  H   UNL     1     -12.928  14.988  66.945  1.00  0.00     0.000 HD 
BRANCH  13  15
HETATM   15  C   UNL     1     -10.925  14.806  66.444  1.00  0.00    -0.331 C  
BRANCH  15  16
HETATM   16  C   UNL     1     -10.657  14.409  64.996  1.00  0.00    -0.452 C  
BRANCH  16  17
HETATM   17  C   UNL     1     -11.222  13.015  64.738  1.00  0.00    -0.344 C  
BRANCH  17  18
HETATM   18  C   UNL     1     -10.193  12.125  64.062  1.00  0.00    -0.396 C  
BRANCH  18  19
HETATM   19  C   UNL     1     -10.130  10.755  64.734  1.00  0.00    -0.396 C  
BRANCH  19  20
HETATM   20  C   UNL     1     -10.413  10.920  66.220  1.00  0.00    -0.245 C  
BRANCH  20  21
HETATM   21  N   UNL     1      -9.277  10.475  67.024  1.00  0.00    -0.150 NA 
HETATM   22  H   UNL     1      -8.390  10.709  66.579  1.00  0.00     0.000 HD 
BRANCH  21  23
HETATM   23  C   UNL     1      -9.354  11.006  68.392  1.00  0.00    -0.179 C  
BRANCH  23  24
HETATM   24  C   UNL     1      -9.202   9.921  69.469  1.00  0.00    -0.238 C  
BRANCH  24  25
HETATM   25  C   UNL     1     -10.442   9.772  70.309  1.00  0.00    -0.345 A  
HETATM   26  C   UNL     1     -11.585  10.520  70.004  1.00  0.00    -0.392 A  
HETATM   27  C   UNL     1     -12.742  10.380  70.771  1.00  0.00    -0.460 A  
HETATM   28  C   UNL     1     -12.756   9.497  71.848  1.00  0.00    -0.496 A  
HETATM   29  C   UNL     1     -11.617   8.758  72.163  1.00  0.00    -0.434 A  
HETATM   30  C   UNL     1     -10.461   8.896  71.398  1.00  0.00    -0.375 A  
ENDBRANCH  24  25
ENDBRANCH  23  24
ENDBRANCH  21  23
ENDBRANCH  20  21
ENDBRANCH  19  20
ENDBRANCH  18  19
ENDBRANCH  17  18
ENDBRANCH  16  17
ENDBRANCH  15  16
ENDBRANCH  13  15
ENDBRANCH  12  13
ENDBRANCH  11  12
ENDBRANCH   8  11
TORSDOF 13
ENDMDL
MODEL       31
REMARK 921   NORMALIZED FREE ENERGY PREDICTED BY IDOCK:   -5.37 KCAL/MOL
REMARK 922        TOTAL FREE ENERGY PREDICTED BY IDOCK:  -12.20 KCAL/MOL
REMARK 923 INTER-LIGAND FREE ENERGY PREDICTED BY IDOCK:  -10.61 KCAL/MOL
REMARK 924 INTRA-LIGAND FREE ENERGY PREDICTED BY IDOCK:   -1.59 KCAL/MOL
REMARK 927      BINDING AFFINITY PREDICTED BY RF-SCORE:    0.00 PKD
ROOT
HETATM    1  O   UNL     1     -11.906   7.906  73.059  1.00  0.00    -0.612 OA 
HETATM    2  H   UNL     1     -11.391   7.407  73.681  1.00  0.00     0.000 HD 
HETATM    3  C   UNL     1     -11.357   8.634  72.038  1.00  0.00    -0.362 A  
HETATM    4  C   UNL     1     -12.113   9.365  71.125  1.00  0.00    -0.328 A  
HETATM    5  C   UNL     1     -11.484  10.054  70.086  1.00  0.00    -0.344 A  
HETATM    6  O   UNL     1     -13.474   9.447  71.191  1.00  0.00    -0.516 OA 
HETATM    7  H   UNL     1     -13.990   9.946  70.568  1.00  0.00     0.000 HD 
HETATM    8  C   UNL     1     -10.092  10.004  69.946  1.00  0.00    -0.289 A  
HETATM    9  C   UNL     1      -9.970   8.617  71.937  1.00  0.00    -0.392 A  
HETATM   10  C   UNL     1      -9.337   9.301  70.898  1.00  0.00    -0.313 A  
ENDROOT
BRANCH   8  11
HETATM   11  C   UNL     1      -9.407  10.705  68.799  1.00  0.00    -0.183 C  
BRANCH  11  12
HETATM   12  C   UNL     1     -10.067  10.373  67.460  1.00  0.00    -0.192 C  
BRANCH  12  13
HETATM   13  N   UNL     1      -9.624  11.307  66.419  1.00  0.00    -0.193 NA 
HETATM   14  H   UNL     1      -8.614  11.449  66.434  1.00  0.00     0.000 HD 
BRANCH  13  15
HETATM   15  C   UNL     1     -10.096  10.850  65.115  1.00  0.00    -0.292 C  
BRANCH  15  16
HETATM   16  C   UNL     1     -10.349  12.038  64.193  1.00  0.00    -0.381 C  
BRANCH  16  17
HETATM   17  C   UNL     1     -11.850  12.186  63.954  1.00  0.00    -0.558 C  
BRANCH  17  18
HETATM   18  C   UNL     1     -12.502  12.992  65.064  1.00  0.00    -0.534 C  
BRANCH  18  19
HETATM   19  C   UNL     1     -11.816  14.347  65.231  1.00  0.00    -0.373 C  
BRANCH  19  20
HETATM   20  C   UNL     1     -11.496  14.561  66.703  1.00  0.00    -0.366 C  
BRANCH  20  21
HETATM   21  N   UNL     1     -11.830  13.376  67.490  1.00  0.00    -0.365 NA 
HETATM   22  H   UNL     1     -11.243  12.581  67.237  1.00  0.00     0.000 HD 
BRANCH  21  23
HETATM   23  C   UNL     1     -11.765  13.659  68.931  1.00  0.00    -0.338 C  
BRANCH  23  24
HETATM   24  C   UNL     1     -11.961  15.147  69.261  1.00  0.00    -0.322 C  
BRANCH  24  25
HETATM   25  C   UNL     1     -12.414  15.363  70.680  1.00  0.00    -0.478 A  
HETATM   26  C   UNL     1     -13.768  15.221  71.008  1.00  0.00    -0.452 A  
HETATM   27  C   UNL     1     -14.195  15.409  72.324  1.00  0.00    -0.639 A  
HETATM   28  C   UNL     1     -13.272  15.745  73.310  1.00  0.00    -0.687 A  
HETATM   29  C   UNL     1     -11.925  15.899  72.987  1.00  0.00    -0.596 A  
HETATM   30  C   UNL     1     -11.496  15.712  71.674  1.00  0.00    -0.506 A  
ENDBRANCH  24  25
ENDBRANCH  23  24
ENDBRANCH  21  23
ENDBRANCH  20  21
ENDBRANCH  19  20
ENDBRANCH  18  19
ENDBRANCH  17  18
ENDBRANCH  16  17
ENDBRANCH  15  16
ENDBRANCH  13  15
ENDBRANCH  12  13
ENDBRANCH  11  12
ENDBRANCH   8  11
TORSDOF 13
ENDMDL
MODEL       32
REMARK 921   NORMALIZED FREE ENERGY PREDICTED BY IDOCK:   -5.35 KCAL/MOL
REMARK 922        TOTAL FREE ENERGY PREDICTED BY IDOCK:  -12.17 KCAL/MOL
REMARK 923 INTER-LIGAND FREE ENERGY PREDICTED BY IDOCK:   -9.87 KCAL/MOL
REMARK 924 INTRA-LIGAND FREE ENERGY PREDICTED BY IDOCK:   -2.30 KCAL/MOL
REMARK 927      BINDING AFFINITY PREDICTED BY RF-SCORE:    0.00 PKD
ROOT
HETATM    1  O   UNL     1     -11.868  16.959  71.492  1.00  0.00    -0.407 OA 
HETATM    2  H   UNL     1     -11.268  17.252  70.816  1.00  0.00     0.000 HD 
HETATM    3  C   UNL     1     -12.293  15.664  71.612  1.00  0.00    -0.428 A  
HETATM    4  C   UNL     1     -13.172  15.235  72.602  1.00  0.00    -0.455 A  
HETATM    5  C   UNL     1     -13.532  13.888  72.685  1.00  0.00    -0.652 A  
HETATM    6  O   UNL     1     -13.716  16.081  73.525  1.00  0.00    -0.814 OA 
HETATM    7  H   UNL     1     -14.317  15.789  74.200  1.00  0.00     0.000 HD 
HETATM    8  C   UNL     1     -13.002  12.958  71.783  1.00  0.00    -0.416 A  
HETATM    9  C   UNL     1     -11.798  14.757  70.680  1.00  0.00    -0.364 A  
HETATM   10  C   UNL     1     -12.152  13.409  70.761  1.00  0.00    -0.333 A  
ENDROOT
BRANCH   8  11
HETATM   11  C   UNL     1     -13.346  11.493  71.894  1.00  0.00    -0.408 C  
BRANCH  11  12
HETATM   12  C   UNL     1     -12.416  10.630  71.040  1.00  0.00    -0.413 C  
BRANCH  12  13
HETATM   13  N   UNL     1     -12.922   9.255  70.954  1.00  0.00    -0.532 NA 
HETATM   14  H   UNL     1     -12.388   8.689  70.293  1.00  0.00     0.000 HD 
BRANCH  13  15
HETATM   15  C   UNL     1     -12.955   8.660  72.287  1.00  0.00    -0.381 C  
BRANCH  15  16
HETATM   16  C   UNL     1     -11.648   7.928  72.577  1.00  0.00    -0.443 C  
BRANCH  16  17
HETATM   17  C   UNL     1     -11.621   6.611  71.806  1.00  0.00    -0.347 C  
BRANCH  17  18
HETATM   18  C   UNL     1     -10.477   6.587  70.807  1.00  0.00    -0.262 C  
BRANCH  18  19
HETATM   19  C   UNL     1     -10.857   5.791  69.559  1.00  0.00    -0.410 C  
BRANCH  19  20
HETATM   20  C   UNL     1     -10.768   6.704  68.345  1.00  0.00    -0.258 C  
BRANCH  20  21
HETATM   21  N   UNL     1     -10.998   8.098  68.718  1.00  0.00    -0.419 NA 
HETATM   22  H   UNL     1     -10.787   8.262  69.702  1.00  0.00     0.000 HD 
BRANCH  21  23
HETATM   23  C   UNL     1     -10.247   9.012  67.845  1.00  0.00    -0.221 C  
BRANCH  23  24
HETATM   24  C   UNL     1      -9.657  10.214  68.598  1.00  0.00    -0.165 C  
BRANCH  24  25
HETATM   25  C   UNL     1     -10.144  11.528  68.048  1.00  0.00    -0.197 A  
HETATM   26  C   UNL     1     -11.415  11.613  67.467  1.00  0.00    -0.360 A  
HETATM   27  C   UNL     1     -11.878  12.830  66.964  1.00  0.00    -0.428 A  
HETATM   28  C   UNL     1     -11.069  13.961  67.035  1.00  0.00    -0.311 A  
HETATM   29  C   UNL     1      -9.798  13.880  67.602  1.00  0.00    -0.236 A  
HETATM   30  C   UNL     1      -9.334  12.665  68.104  1.00  0.00    -0.210 A  
ENDBRANCH  24  25
ENDBRANCH  23  24
ENDBRANCH  21  23
ENDBRANCH  20  21
ENDBRANCH  19  20
ENDBRANCH  18  19
ENDBRANCH  17  18
ENDBRANCH  16  17
ENDBRANCH  15  16
ENDBRANCH  13  15
ENDBRANCH  12  13
ENDBRANCH  11  12
ENDBRANCH   8  11
TORSDOF 13
ENDMDL
MODEL       33
REMARK 921   NORMALIZED FREE ENERGY PREDICTED BY IDOCK:   -5.33 KCAL/MOL
REMARK 922        TOTAL FREE ENERGY PREDICTED BY IDOCK:  -12.14 KCAL/MOL
REMARK 923 INTER-LIGAND FREE ENERGY PREDICTED BY IDOCK:  -10.34 KCAL/MOL
REMARK 924 INTRA-LIGAND FREE ENERGY PREDICTED BY IDOCK:   -1.80 KCAL/MOL
REMARK 927      BINDING AFFINITY PREDICTED BY RF-SCORE:    0.00 PKD
ROOT
HETATM    1  O   UNL     1     -13.329  15.908  70.690  1.00  0.00    -0.736 OA 
HETATM    2  H   UNL     1     -13.067  16.476  69.974  1.00  0.00     0.000 HD 
HETATM    3  C   UNL     1     -13.022  14.576  70.744  1.00  0.00    -0.343 A  
HETATM    4  C   UNL     1     -13.404  13.744  71.793  1.00  0.00    -0.383 A  
HETATM    5  C   UNL     1     -13.021  12.401  71.798  1.00  0.00    -0.422 A  
HETATM    6  O   UNL     1     -14.153  14.181  72.848  1.00  0.00    -0.546 OA 
HETATM    7  H   UNL     1     -14.414  13.614  73.563  1.00  0.00     0.000 HD 
HETATM    8  C   UNL     1     -12.240  11.885  70.758  1.00  0.00    -0.401 A  
HETATM    9  C   UNL     1     -12.286  14.062  69.682  1.00  0.00    -0.383 A  
HETATM   10  C   UNL     1     -11.898  12.721  69.684  1.00  0.00    -0.384 A  
ENDROOT
BRANCH   8  11
HETATM   11  C   UNL     1     -11.780  10.448  70.779  1.00  0.00    -0.464 C  
BRANCH  11  12
HETATM   12  C   UNL     1     -10.691  10.190  69.736  1.00  0.00    -0.279 C  
BRANCH  12  13
HETATM   13  N   UNL     1     -11.173   9.267  68.702  1.00  0.00    -0.450 NA 
HETATM   14  H   UNL     1     -12.173   9.080  68.790  1.00  0.00     0.000 HD 
BRANCH  13  15
HETATM   15  C   UNL     1     -10.824   9.784  67.382  1.00  0.00    -0.197 C  
BRANCH  15  16
HETATM   16  C   UNL     1      -9.759  10.870  67.499  1.00  0.00    -0.187 C  
BRANCH  16  17
HETATM   17  C   UNL     1     -10.032  11.961  66.467  1.00  0.00    -0.225 C  
BRANCH  17  18
HETATM   18  C   UNL     1     -11.438  11.842  65.904  1.00  0.00    -0.340 C  
BRANCH  18  19
HETATM   19  C   UNL     1     -11.563  12.601  64.584  1.00  0.00    -0.392 C  
BRANCH  19  20
HETATM   20  C   UNL     1     -12.347  13.884  64.825  1.00  0.00    -0.400 C  
BRANCH  20  21
HETATM   21  N   UNL     1     -11.999  14.905  63.839  1.00  0.00    -0.892 NA 
HETATM   22  H   UNL     1     -12.766  15.076  63.190  1.00  0.00     0.000 HD 
BRANCH  21  23
HETATM   23  C   UNL     1     -11.555  16.144  64.493  1.00  0.00    -0.164 C  
BRANCH  23  24
HETATM   24  C   UNL     1     -10.504  15.905  65.588  1.00  0.00    -0.411 C  
BRANCH  24  25
HETATM   25  C   UNL     1     -10.412  17.055  66.554  1.00  0.00    -0.250 A  
HETATM   26  C   UNL     1     -10.323  16.805  67.929  1.00  0.00    -0.319 A  
HETATM   27  C   UNL     1     -10.227  17.865  68.832  1.00  0.00    -0.331 A  
HETATM   28  C   UNL     1     -10.227  19.176  68.362  1.00  0.00    -0.473 A  
HETATM   29  C   UNL     1     -10.328  19.431  66.995  1.00  0.00    -0.547 A  
HETATM   30  C   UNL     1     -10.424  18.373  66.093  1.00  0.00    -0.422 A  
ENDBRANCH  24  25
ENDBRANCH  23  24
ENDBRANCH  21  23
ENDBRANCH  20  21
ENDBRANCH  19  20
ENDBRANCH  18  19
ENDBRANCH  17  18
ENDBRANCH  16  17
ENDBRANCH  15  16
ENDBRANCH  13  15
ENDBRANCH  12  13
ENDBRANCH  11  12
ENDBRANCH   8  11
TORSDOF 13
ENDMDL
MODEL       34
REMARK 921   NORMALIZED FREE ENERGY PREDICTED BY IDOCK:   -5.32 KCAL/MOL
REMARK 922        TOTAL FREE ENERGY PREDICTED BY IDOCK:  -12.12 KCAL/MOL
REMARK 923 INTER-LIGAND FREE ENERGY PREDICTED BY IDOCK:  -10.78 KCAL/MOL
REMARK 924 INTRA-LIGAND FREE ENERGY PREDICTED BY IDOCK:   -1.34 KCAL/MOL
REMARK 927      BINDING AFFINITY PREDICTED BY RF-SCORE:    0.00 PKD
ROOT
HETATM    1  O   UNL     1     -10.222  17.229  65.505  1.00  0.00    -0.602 OA 
HETATM    2  H   UNL     1      -9.594  17.644  66.084  1.00  0.00     0.000 HD 
HETATM    3  C   UNL     1     -10.439  15.878  65.474  1.00  0.00    -0.404 A  
HETATM    4  C   UNL     1     -11.359  15.269  64.625  1.00  0.00    -0.358 A  
HETATM    5  C   UNL     1     -11.553  13.887  64.677  1.00  0.00    -0.398 A  
HETATM    6  O   UNL     1     -12.104  15.968  63.720  1.00  0.00    -1.318 OA 
HETATM    7  H   UNL     1     -12.732  15.552  63.140  1.00  0.00     0.000 HD 
HETATM    8  C   UNL     1     -10.836  13.106  65.590  1.00  0.00    -0.294 A  
HETATM    9  C   UNL     1      -9.686  15.106  66.353  1.00  0.00    -0.300 A  
HETATM   10  C   UNL     1      -9.879  13.724  66.410  1.00  0.00    -0.305 A  
ENDROOT
BRANCH   8  11
HETATM   11  C   UNL     1     -11.073  11.619  65.688  1.00  0.00    -0.308 C  
BRANCH  11  12
HETATM   12  C   UNL     1      -9.767  10.831  65.577  1.00  0.00    -0.239 C  
BRANCH  12  13
HETATM   13  N   UNL     1     -10.037   9.391  65.502  1.00  0.00    -0.350 NA 
HETATM   14  H   UNL     1      -9.278   8.881  65.048  1.00  0.00     0.000 HD 
BRANCH  13  15
HETATM   15  C   UNL     1     -10.325   8.874  66.837  1.00  0.00    -0.262 C  
BRANCH  15  16
HETATM   16  C   UNL     1      -9.904   7.413  66.946  1.00  0.00    -0.284 C  
BRANCH  16  17
HETATM   17  C   UNL     1     -11.038   6.602  67.569  1.00  0.00    -0.374 C  
BRANCH  17  18
HETATM   18  C   UNL     1     -10.681   6.156  68.976  1.00  0.00    -0.377 C  
BRANCH  18  19
HETATM   19  C   UNL     1     -11.754   6.589  69.975  1.00  0.00    -0.388 C  
BRANCH  19  20
HETATM   20  C   UNL     1     -11.200   6.450  71.386  1.00  0.00    -0.288 C  
BRANCH  20  21
HETATM   21  N   UNL     1     -11.944   7.285  72.326  1.00  0.00    -0.427 NA 
HETATM   22  H   UNL     1     -11.766   7.011  73.292  1.00  0.00     0.000 HD 
BRANCH  21  23
HETATM   23  C   UNL     1     -11.662   8.711  72.107  1.00  0.00    -0.371 C  
BRANCH  23  24
HETATM   24  C   UNL     1     -12.933   9.550  71.901  1.00  0.00    -0.514 C  
BRANCH  24  25
HETATM   25  C   UNL     1     -12.642  10.878  71.256  1.00  0.00    -0.526 A  
HETATM   26  C   UNL     1     -13.127  12.056  71.837  1.00  0.00    -0.475 A  
HETATM   27  C   UNL     1     -12.853  13.293  71.251  1.00  0.00    -0.398 A  
HETATM   28  C   UNL     1     -12.100  13.354  70.081  1.00  0.00    -0.415 A  
HETATM   29  C   UNL     1     -11.625  12.183  69.492  1.00  0.00    -0.382 A  
HETATM   30  C   UNL     1     -11.898  10.947  70.076  1.00  0.00    -0.428 A  
ENDBRANCH  24  25
ENDBRANCH  23  24
ENDBRANCH  21  23
ENDBRANCH  20  21
ENDBRANCH  19  20
ENDBRANCH  18  19
ENDBRANCH  17  18
ENDBRANCH  16  17
ENDBRANCH  15  16
ENDBRANCH  13  15
ENDBRANCH  12  13
ENDBRANCH  11  12
ENDBRANCH   8  11
TORSDOF 13
ENDMDL
MODEL       35
REMARK 921   NORMALIZED FREE ENERGY PREDICTED BY IDOCK:   -5.31 KCAL/MOL
REMARK 922        TOTAL FREE ENERGY PREDICTED BY IDOCK:  -12.09 KCAL/MOL
REMARK 923 INTER-LIGAND FREE ENERGY PREDICTED BY IDOCK:   -9.23 KCAL/MOL
REMARK 924 INTRA-LIGAND FREE ENERGY PREDICTED BY IDOCK:   -2.87 KCAL/MOL
REMARK 927      BINDING AFFINITY PREDICTED BY RF-SCORE:    0.00 PKD
ROOT
HETATM    1  O   UNL     1     -12.368  14.508  63.246  1.00  0.00    -1.033 OA 
HETATM    2  H   UNL     1     -12.122  15.195  62.637  1.00  0.00     0.000 HD 
HETATM    3  C   UNL     1     -11.914  14.445  64.535  1.00  0.00    -0.472 A  
HETATM    4  C   UNL     1     -12.275  13.440  65.427  1.00  0.00    -0.452 A  
HETATM    5  C   UNL     1     -11.800  13.462  66.740  1.00  0.00    -0.452 A  
HETATM    6  O   UNL     1     -13.092  12.402  65.079  1.00  0.00    -0.678 OA 
HETATM    7  H   UNL     1     -13.338  11.715  65.688  1.00  0.00     0.000 HD 
HETATM    8  C   UNL     1     -10.970  14.503  67.173  1.00  0.00    -0.304 A  
HETATM    9  C   UNL     1     -11.051  15.458  64.941  1.00  0.00    -0.435 A  
HETATM   10  C   UNL     1     -10.576  15.487  66.254  1.00  0.00    -0.310 A  
ENDROOT
BRANCH   8  11
HETATM   11  C   UNL     1     -10.491  14.563  68.602  1.00  0.00    -0.247 C  
BRANCH  11  12
HETATM   12  C   UNL     1     -11.179  15.686  69.380  1.00  0.00    -0.313 C  
BRANCH  12  13
HETATM   13  N   UNL     1     -12.610  15.403  69.541  1.00  0.00    -0.614 NA 
HETATM   14  H   UNL     1     -12.875  14.513  69.118  1.00  0.00     0.000 HD 
BRANCH  13  15
HETATM   15  C   UNL     1     -12.967  15.468  70.956  1.00  0.00    -0.489 C  
BRANCH  15  16
HETATM   16  C   UNL     1     -12.216  14.401  71.745  1.00  0.00    -0.357 C  
BRANCH  16  17
HETATM   17  C   UNL     1     -12.947  13.067  71.620  1.00  0.00    -0.417 C  
BRANCH  17  18
HETATM   18  C   UNL     1     -12.167  12.096  70.751  1.00  0.00    -0.367 C  
BRANCH  18  19
HETATM   19  C   UNL     1     -12.439  10.651  71.167  1.00  0.00    -0.523 C  
BRANCH  19  20
HETATM   20  C   UNL     1     -11.163   9.839  70.992  1.00  0.00    -0.381 C  
BRANCH  20  21
HETATM   21  N   UNL     1     -11.349   8.776  70.006  1.00  0.00    -0.445 NA 
HETATM   22  H   UNL     1     -12.276   8.814  69.585  1.00  0.00     0.000 HD 
BRANCH  21  23
HETATM   23  C   UNL     1     -10.290   8.806  68.988  1.00  0.00    -0.213 C  
BRANCH  23  24
HETATM   24  C   UNL     1      -9.580  10.166  68.896  1.00  0.00    -0.186 C  
BRANCH  24  25
HETATM   25  C   UNL     1      -9.441  10.644  67.476  1.00  0.00    -0.169 A  
HETATM   26  C   UNL     1     -10.234  10.080  66.470  1.00  0.00    -0.291 A  
HETATM   27  C   UNL     1     -10.119  10.525  65.152  1.00  0.00    -0.383 A  
HETATM   28  C   UNL     1      -9.206  11.528  64.837  1.00  0.00    -0.006 A  
HETATM   29  C   UNL     1      -8.405  12.085  65.833  1.00  0.00     0.470 A  
HETATM   30  C   UNL     1      -8.519  11.642  67.150  1.00  0.00    -0.162 A  
ENDBRANCH  24  25
ENDBRANCH  23  24
ENDBRANCH  21  23
ENDBRANCH  20  21
ENDBRANCH  19  20
ENDBRANCH  18  19
ENDBRANCH  17  18
ENDBRANCH  16  17
ENDBRANCH  15  16
ENDBRANCH  13  15
ENDBRANCH  12  13
ENDBRANCH  11  12
ENDBRANCH   8  11
TORSDOF 13
ENDMDL
MODEL       36
REMARK 921   NORMALIZED FREE ENERGY PREDICTED BY IDOCK:   -5.29 KCAL/MOL
REMARK 922        TOTAL FREE ENERGY PREDICTED BY IDOCK:  -12.06 KCAL/MOL
REMARK 923 INTER-LIGAND FREE ENERGY PREDICTED BY IDOCK:  -10.11 KCAL/MOL
REMARK 924 INTRA-LIGAND FREE ENERGY PREDICTED BY IDOCK:   -1.95 KCAL/MOL
REMARK 927      BINDING AFFINITY PREDICTED BY RF-SCORE:    0.00 PKD
ROOT
HETATM    1  O   UNL     1     -10.001  17.476  65.877  1.00  0.00    -0.511 OA 
HETATM    2  H   UNL     1      -9.432  17.813  66.560  1.00  0.00     0.000 HD 
HETATM    3  C   UNL     1     -10.272  16.145  65.712  1.00  0.00    -0.374 A  
HETATM    4  C   UNL     1     -11.105  15.651  64.712  1.00  0.00    -0.412 A  
HETATM    5  C   UNL     1     -11.365  14.282  64.628  1.00  0.00    -0.375 A  
HETATM    6  O   UNL     1     -11.700  16.455  63.782  1.00  0.00    -1.553 OA 
HETATM    7  H   UNL     1     -12.268  16.118  63.099  1.00  0.00     0.000 HD 
HETATM    8  C   UNL     1     -10.803  13.398  65.556  1.00  0.00    -0.299 A  
HETATM    9  C   UNL     1      -9.669  15.270  66.610  1.00  0.00    -0.268 A  
HETATM   10  C   UNL     1      -9.929  13.900  66.533  1.00  0.00    -0.288 A  
ENDROOT
BRANCH   8  11
HETATM   11  C   UNL     1     -11.116  11.923  65.504  1.00  0.00    -0.356 C  
BRANCH  11  12
HETATM   12  C   UNL     1     -10.821  11.332  64.125  1.00  0.00    -0.337 C  
BRANCH  12  13
HETATM   13  N   UNL     1      -9.378  11.345  63.855  1.00  0.00    -0.412 NA 
HETATM   14  H   UNL     1      -8.911  12.136  64.300  1.00  0.00     0.000 HD 
BRANCH  13  15
HETATM   15  C   UNL     1      -8.793  10.067  64.250  1.00  0.00    -0.220 C  
BRANCH  15  16
HETATM   16  C   UNL     1      -7.427  10.281  64.894  1.00  0.00    -0.114 C  
BRANCH  16  17
HETATM   17  C   UNL     1      -7.611  10.861  66.294  1.00  0.00    -0.136 C  
BRANCH  17  18
HETATM   18  C   UNL     1      -8.365   9.894  67.191  1.00  0.00    -0.121 C  
BRANCH  18  19
HETATM   19  C   UNL     1      -8.893  10.603  68.437  1.00  0.00    -0.145 C  
BRANCH  19  20
HETATM   20  C   UNL     1      -9.666   9.602  69.284  1.00  0.00    -0.185 C  
BRANCH  20  21
HETATM   21  N   UNL     1     -11.056   9.505  68.844  1.00  0.00    -0.446 NA 
HETATM   22  H   UNL     1     -11.524   8.698  69.256  1.00  0.00     0.000 HD 
BRANCH  21  23
HETATM   23  C   UNL     1     -11.787  10.751  69.114  1.00  0.00    -0.275 C  
BRANCH  23  24
HETATM   24  C   UNL     1     -12.212  10.893  70.584  1.00  0.00    -0.472 C  
BRANCH  24  25
HETATM   25  C   UNL     1     -12.518  12.319  70.956  1.00  0.00    -0.361 A  
HETATM   26  C   UNL     1     -12.027  13.365  70.166  1.00  0.00    -0.396 A  
HETATM   27  C   UNL     1     -12.315  14.690  70.497  1.00  0.00    -0.400 A  
HETATM   28  C   UNL     1     -13.087  14.971  71.621  1.00  0.00    -0.447 A  
HETATM   29  C   UNL     1     -13.568  13.933  72.418  1.00  0.00    -0.676 A  
HETATM   30  C   UNL     1     -13.282  12.609  72.089  1.00  0.00    -0.527 A  
ENDBRANCH  24  25
ENDBRANCH  23  24
ENDBRANCH  21  23
ENDBRANCH  20  21
ENDBRANCH  19  20
ENDBRANCH  18  19
ENDBRANCH  17  18
ENDBRANCH  16  17
ENDBRANCH  15  16
ENDBRANCH  13  15
ENDBRANCH  12  13
ENDBRANCH  11  12
ENDBRANCH   8  11
TORSDOF 13
ENDMDL
MODEL       37
REMARK 921   NORMALIZED FREE ENERGY PREDICTED BY IDOCK:   -5.28 KCAL/MOL
REMARK 922        TOTAL FREE ENERGY PREDICTED BY IDOCK:  -12.04 KCAL/MOL
REMARK 923 INTER-LIGAND FREE ENERGY PREDICTED BY IDOCK:   -9.85 KCAL/MOL
REMARK 924 INTRA-LIGAND FREE ENERGY PREDICTED BY IDOCK:   -2.19 KCAL/MOL
REMARK 927      BINDING AFFINITY PREDICTED BY RF-SCORE:    0.00 PKD
ROOT
HETATM    1  O   UNL     1     -13.246  15.616  71.034  1.00  0.00    -0.508 OA 
HETATM    2  H   UNL     1     -12.981  16.319  70.453  1.00  0.00     0.000 HD 
HETATM    3  C   UNL     1     -12.926  14.302  70.821  1.00  0.00    -0.304 A  
HETATM    4  C   UNL     1     -13.314  13.271  71.673  1.00  0.00    -0.322 A  
HETATM    5  C   UNL     1     -12.917  11.958  71.410  1.00  0.00    -0.385 A  
HETATM    6  O   UNL     1     -14.081  13.479  72.782  1.00  0.00    -0.719 OA 
HETATM    7  H   UNL     1     -14.347  12.775  73.363  1.00  0.00     0.000 HD 
HETATM    8  C   UNL     1     -12.116  11.671  70.299  1.00  0.00    -0.443 A  
HETATM    9  C   UNL     1     -12.170  14.021  69.688  1.00  0.00    -0.383 A  
HETATM   10  C   UNL     1     -11.768  12.711  69.423  1.00  0.00    -0.387 A  
ENDROOT
BRANCH   8  11
HETATM   11  C   UNL     1     -11.642  10.263  70.034  1.00  0.00    -0.349 C  
BRANCH  11  12
HETATM   12  C   UNL     1     -10.682  10.207  68.844  1.00  0.00    -0.223 C  
BRANCH  12  13
HETATM   13  N   UNL     1     -11.025   9.090  67.955  1.00  0.00    -0.492 NA 
HETATM   14  H   UNL     1     -12.028   8.903  67.944  1.00  0.00     0.000 HD 
BRANCH  13  15
HETATM   15  C   UNL     1     -10.497   9.347  66.618  1.00  0.00    -0.168 C  
BRANCH  15  16
HETATM   16  C   UNL     1      -9.369  10.371  66.678  1.00  0.00    -0.185 C  
BRANCH  16  17
HETATM   17  C   UNL     1      -9.438  11.275  65.449  1.00  0.00    -0.251 C  
BRANCH  17  18
HETATM   18  C   UNL     1     -10.705  11.017  64.652  1.00  0.00    -0.318 C  
BRANCH  18  19
HETATM   19  C   UNL     1     -10.873  12.055  63.543  1.00  0.00    -0.509 C  
BRANCH  19  20
HETATM   20  C   UNL     1     -12.264  12.664  63.643  1.00  0.00    -0.536 C  
BRANCH  20  21
HETATM   21  N   UNL     1     -12.196  14.123  63.689  1.00  0.00    -1.049 NA 
HETATM   22  H   UNL     1     -13.061  14.549  63.358  1.00  0.00     0.000 HD 
BRANCH  21  23
HETATM   23  C   UNL     1     -11.841  14.595  65.035  1.00  0.00    -0.377 C  
BRANCH  23  24
HETATM   24  C   UNL     1     -10.368  15.016  65.156  1.00  0.00    -0.422 C  
BRANCH  24  25
HETATM   25  C   UNL     1      -9.987  15.363  66.570  1.00  0.00    -0.282 A  
HETATM   26  C   UNL     1      -9.165  14.498  67.302  1.00  0.00    -0.213 A  
HETATM   27  C   UNL     1      -8.797  14.817  68.611  1.00  0.00    -0.180 A  
HETATM   28  C   UNL     1      -9.256  15.997  69.190  1.00  0.00    -0.247 A  
HETATM   29  C   UNL     1     -10.085  16.856  68.469  1.00  0.00    -0.297 A  
HETATM   30  C   UNL     1     -10.452  16.539  67.163  1.00  0.00    -0.300 A  
ENDBRANCH  24  25
ENDBRANCH  23  24
ENDBRANCH  21  23
ENDBRANCH  20  21
ENDBRANCH  19  20
ENDBRANCH  18  19
ENDBRANCH  17  18
ENDBRANCH  16  17
ENDBRANCH  15  16
ENDBRANCH  13  15
ENDBRANCH  12  13
ENDBRANCH  11  12
ENDBRANCH   8  11
TORSDOF 13
ENDMDL
MODEL       38
REMARK 921   NORMALIZED FREE ENERGY PREDICTED BY IDOCK:   -5.27 KCAL/MOL
REMARK 922        TOTAL FREE ENERGY PREDICTED BY IDOCK:  -12.02 KCAL/MOL
REMARK 923 INTER-LIGAND FREE ENERGY PREDICTED BY IDOCK:  -10.30 KCAL/MOL
REMARK 924 INTRA-LIGAND FREE ENERGY PREDICTED BY IDOCK:   -1.72 KCAL/MOL
REMARK 927      BINDING AFFINITY PREDICTED BY RF-SCORE:    0.00 PKD
ROOT
HETATM    1  O   UNL     1     -13.710  14.301  65.479  1.00  0.00    -0.543 OA 
HETATM    2  H   UNL     1     -14.093  14.569  66.306  1.00  0.00     0.000 HD 
HETATM    3  C   UNL     1     -12.564  13.559  65.385  1.00  0.00    -0.483 A  
HETATM    4  C   UNL     1     -12.004  13.166  64.173  1.00  0.00    -0.436 A  
HETATM    5  C   UNL     1     -10.852  12.376  64.156  1.00  0.00    -0.414 A  
HETATM    6  O   UNL     1     -12.533  13.518  62.965  1.00  0.00    -0.950 OA 
HETATM    7  H   UNL     1     -12.151  13.251  62.138  1.00  0.00     0.000 HD 
HETATM    8  C   UNL     1     -10.261  11.963  65.356  1.00  0.00    -0.300 A  
HETATM    9  C   UNL     1     -11.958  13.194  66.583  1.00  0.00    -0.451 A  
HETATM   10  C   UNL     1     -10.809  12.402  66.571  1.00  0.00    -0.284 A  
ENDROOT
BRANCH   8  11
HETATM   11  C   UNL     1      -9.045  11.070  65.349  1.00  0.00    -0.213 C  
BRANCH  11  12
HETATM   12  C   UNL     1      -9.090  10.066  64.196  1.00  0.00    -0.255 C  
BRANCH  12  13
HETATM   13  N   UNL     1      -9.101   8.690  64.708  1.00  0.00    -0.400 NA 
HETATM   14  H   UNL     1      -8.349   8.126  64.312  1.00  0.00     0.000 HD 
BRANCH  13  15
HETATM   15  C   UNL     1      -9.063   8.710  66.168  1.00  0.00    -0.201 C  
BRANCH  15  16
HETATM   16  C   UNL     1     -10.403   8.265  66.743  1.00  0.00    -0.361 C  
BRANCH  16  17
HETATM   17  C   UNL     1     -10.498   8.695  68.204  1.00  0.00    -0.241 C  
BRANCH  17  18
HETATM   18  C   UNL     1     -10.522   7.489  69.128  1.00  0.00    -0.220 C  
BRANCH  18  19
HETATM   19  C   UNL     1      -9.866   7.815  70.469  1.00  0.00    -0.182 C  
BRANCH  19  20
HETATM   20  C   UNL     1     -10.098   9.286  70.788  1.00  0.00    -0.291 C  
BRANCH  20  21
HETATM   21  N   UNL     1     -11.210   9.451  71.722  1.00  0.00    -0.360 NA 
HETATM   22  H   UNL     1     -10.915   9.921  72.576  1.00  0.00     0.000 HD 
BRANCH  21  23
HETATM   23  C   UNL     1     -12.340  10.143  71.085  1.00  0.00    -0.385 C  
BRANCH  23  24
HETATM   24  C   UNL     1     -11.907  11.354  70.244  1.00  0.00    -0.438 C  
BRANCH  24  25
HETATM   25  C   UNL     1     -12.480  12.645  70.764  1.00  0.00    -0.357 A  
HETATM   26  C   UNL     1     -13.370  12.627  71.845  1.00  0.00    -0.485 A  
HETATM   27  C   UNL     1     -13.897  13.821  72.341  1.00  0.00    -0.681 A  
HETATM   28  C   UNL     1     -13.541  15.032  71.753  1.00  0.00    -0.524 A  
HETATM   29  C   UNL     1     -12.664  15.054  70.669  1.00  0.00    -0.428 A  
HETATM   30  C   UNL     1     -12.137  13.863  70.173  1.00  0.00    -0.418 A  
ENDBRANCH  24  25
ENDBRANCH  23  24
ENDBRANCH  21  23
ENDBRANCH  20  21
ENDBRANCH  19  20
ENDBRANCH  18  19
ENDBRANCH  17  18
ENDBRANCH  16  17
ENDBRANCH  15  16
ENDBRANCH  13  15
ENDBRANCH  12  13
ENDBRANCH  11  12
ENDBRANCH   8  11
TORSDOF 13
ENDMDL
MODEL       39
REMARK 921   NORMALIZED FREE ENERGY PREDICTED BY IDOCK:   -5.26 KCAL/MOL
REMARK 922        TOTAL FREE ENERGY PREDICTED BY IDOCK:  -12.02 KCAL/MOL
REMARK 923 INTER-LIGAND FREE ENERGY PREDICTED BY IDOCK:   -9.67 KCAL/MOL
REMARK 924 INTRA-LIGAND FREE ENERGY PREDICTED BY IDOCK:   -2.35 KCAL/MOL
REMARK 927      BINDING AFFINITY PREDICTED BY RF-SCORE:    0.00 PKD
ROOT
HETATM    1  O   UNL     1     -13.203  11.580  72.173  1.00  0.00    -0.576 OA 
HETATM    2  H   UNL     1     -12.823  12.403  71.888  1.00  0.00     0.000 HD 
HETATM    3  C   UNL     1     -12.758  10.358  71.746  1.00  0.00    -0.421 A  
HETATM    4  C   UNL     1     -13.313   9.152  72.163  1.00  0.00    -0.463 A  
HETATM    5  C   UNL     1     -12.782   7.941  71.713  1.00  0.00    -0.353 A  
HETATM    6  O   UNL     1     -14.379   9.084  73.014  1.00  0.00    -1.108 OA 
HETATM    7  H   UNL     1     -14.759   8.261  73.298  1.00  0.00     0.000 HD 
HETATM    8  C   UNL     1     -11.679   7.931  70.851  1.00  0.00    -0.271 A  
HETATM    9  C   UNL     1     -11.693  10.361  70.851  1.00  0.00    -0.455 A  
HETATM   10  C   UNL     1     -11.155   9.153  70.401  1.00  0.00    -0.293 A  
ENDROOT
BRANCH   8  11
HETATM   11  C   UNL     1     -11.067   6.629  70.397  1.00  0.00    -0.374 C  
BRANCH  11  12
HETATM   12  C   UNL     1     -11.184   6.449  68.882  1.00  0.00    -0.307 C  
BRANCH  12  13
HETATM   13  N   UNL     1      -9.983   6.957  68.207  1.00  0.00    -0.148 NA 
HETATM   14  H   UNL     1      -9.218   6.282  68.225  1.00  0.00     0.000 HD 
BRANCH  13  15
HETATM   15  C   UNL     1     -10.322   7.369  66.848  1.00  0.00    -0.296 C  
BRANCH  15  16
HETATM   16  C   UNL     1     -10.462   8.885  66.770  1.00  0.00    -0.269 C  
BRANCH  16  17
HETATM   17  C   UNL     1      -9.090   9.532  66.938  1.00  0.00    -0.158 C  
BRANCH  17  18
HETATM   18  C   UNL     1      -8.785  10.474  65.785  1.00  0.00    -0.188 C  
BRANCH  18  19
HETATM   19  C   UNL     1      -9.774  10.271  64.638  1.00  0.00    -0.398 C  
BRANCH  19  20
HETATM   20  C   UNL     1      -9.487  11.298  63.552  1.00  0.00    -0.256 C  
BRANCH  20  21
HETATM   21  N   UNL     1     -10.727  11.807  62.971  1.00  0.00    -0.680 NA 
HETATM   22  H   UNL     1     -10.952  11.337  62.095  1.00  0.00     0.000 HD 
BRANCH  21  23
HETATM   23  C   UNL     1     -11.837  11.723  63.931  1.00  0.00    -0.349 C  
BRANCH  23  24
HETATM   24  C   UNL     1     -12.133  13.060  64.629  1.00  0.00    -0.463 C  
BRANCH  24  25
HETATM   25  C   UNL     1     -11.381  13.208  65.924  1.00  0.00    -0.338 A  
HETATM   26  C   UNL     1     -10.164  13.899  65.947  1.00  0.00    -0.326 A  
HETATM   27  C   UNL     1      -9.465  14.051  67.146  1.00  0.00    -0.241 A  
HETATM   28  C   UNL     1      -9.978  13.506  68.321  1.00  0.00    -0.237 A  
HETATM   29  C   UNL     1     -11.184  12.806  68.300  1.00  0.00    -0.308 A  
HETATM   30  C   UNL     1     -11.883  12.654  67.104  1.00  0.00    -0.399 A  
ENDBRANCH  24  25
ENDBRANCH  23  24
ENDBRANCH  21  23
ENDBRANCH  20  21
ENDBRANCH  19  20
ENDBRANCH  18  19
ENDBRANCH  17  18
ENDBRANCH  16  17
ENDBRANCH  15  16
ENDBRANCH  13  15
ENDBRANCH  12  13
ENDBRANCH  11  12
ENDBRANCH   8  11
TORSDOF 13
ENDMDL
MODEL       40
REMARK 921   NORMALIZED FREE ENERGY PREDICTED BY IDOCK:   -5.25 KCAL/MOL
REMARK 922        TOTAL FREE ENERGY PREDICTED BY IDOCK:  -11.99 KCAL/MOL
REMARK 923 INTER-LIGAND FREE ENERGY PREDICTED BY IDOCK:  -11.02 KCAL/MOL
REMARK 924 INTRA-LIGAND FREE ENERGY PREDICTED BY IDOCK:   -0.97 KCAL/MOL
REMARK 927      BINDING AFFINITY PREDICTED BY RF-SCORE:    0.00 PKD
ROOT
HETATM    1  O   UNL     1     -11.821   7.255  73.076  1.00  0.00    -0.548 OA 
HETATM    2  H   UNL     1     -11.074   6.670  73.117  1.00  0.00     0.000 HD 
HETATM    3  C   UNL     1     -11.845   8.393  72.316  1.00  0.00    -0.389 A  
HETATM    4  C   UNL     1     -12.939   9.251  72.256  1.00  0.00    -0.412 A  
HETATM    5  C   UNL     1     -12.904  10.375  71.428  1.00  0.00    -0.556 A  
HETATM    6  O   UNL     1     -14.078   9.048  72.981  1.00  0.00    -1.086 OA 
HETATM    7  H   UNL     1     -14.825   9.634  72.940  1.00  0.00     0.000 HD 
HETATM    8  C   UNL     1     -11.776  10.641  70.643  1.00  0.00    -0.454 A  
HETATM    9  C   UNL     1     -10.700   8.673  71.578  1.00  0.00    -0.352 A  
HETATM   10  C   UNL     1     -10.661   9.794  70.746  1.00  0.00    -0.393 A  
ENDROOT
BRANCH   8  11
HETATM   11  C   UNL     1     -11.747  11.825  69.709  1.00  0.00    -0.408 C  
BRANCH  11  12
HETATM   12  C   UNL     1     -11.888  11.394  68.248  1.00  0.00    -0.249 C  
BRANCH  12  13
HETATM   13  N   UNL     1     -10.702  11.784  67.477  1.00  0.00    -0.213 NA 
HETATM   14  H   UNL     1      -9.856  11.787  68.049  1.00  0.00     0.000 HD 
BRANCH  13  15
HETATM   15  C   UNL     1     -10.572  10.921  66.307  1.00  0.00    -0.214 C  
BRANCH  15  16
HETATM   16  C   UNL     1     -10.093  11.724  65.102  1.00  0.00    -0.298 C  
BRANCH  16  17
HETATM   17  C   UNL     1     -11.261  11.953  64.147  1.00  0.00    -0.446 C  
BRANCH  17  18
HETATM   18  C   UNL     1     -12.326  12.827  64.787  1.00  0.00    -0.540 C  
BRANCH  18  19
HETATM   19  C   UNL     1     -12.250  14.258  64.255  1.00  0.00    -0.451 C  
BRANCH  19  20
HETATM   20  C   UNL     1     -11.214  15.029  65.060  1.00  0.00    -0.409 C  
BRANCH  20  21
HETATM   21  N   UNL     1     -11.411  14.832  66.494  1.00  0.00    -0.351 NA 
HETATM   22  H   UNL     1     -11.516  13.844  66.726  1.00  0.00     0.000 HD 
BRANCH  21  23
HETATM   23  C   UNL     1     -10.330  15.457  67.270  1.00  0.00    -0.271 C  
BRANCH  23  24
HETATM   24  C   UNL     1     -10.837  16.504  68.273  1.00  0.00    -0.352 C  
BRANCH  24  25
HETATM   25  C   UNL     1     -10.433  17.903  67.893  1.00  0.00    -0.404 A  
HETATM   26  C   UNL     1     -10.650  18.361  66.587  1.00  0.00    -0.359 A  
HETATM   27  C   UNL     1     -10.288  19.660  66.229  1.00  0.00    -0.619 A  
HETATM   28  C   UNL     1      -9.704  20.502  67.173  1.00  0.00    -0.581 A  
HETATM   29  C   UNL     1      -9.476  20.048  68.471  1.00  0.00    -0.253 A  
HETATM   30  C   UNL     1      -9.836  18.750  68.830  1.00  0.00    -0.415 A  
ENDBRANCH  24  25
ENDBRANCH  23  24
ENDBRANCH  21  23
ENDBRANCH  20  21
ENDBRANCH  19  20
ENDBRANCH  18  19
ENDBRANCH  17  18
ENDBRANCH  16  17
ENDBRANCH  15  16
ENDBRANCH  13  15
ENDBRANCH  12  13
ENDBRANCH  11  12
ENDBRANCH   8  11
TORSDOF 13
ENDMDL
MODEL       41
REMARK 921   NORMALIZED FREE ENERGY PREDICTED BY IDOCK:   -5.24 KCAL/MOL
REMARK 922        TOTAL FREE ENERGY PREDICTED BY IDOCK:  -11.98 KCAL/MOL
REMARK 923 INTER-LIGAND FREE ENERGY PREDICTED BY IDOCK:   -9.67 KCAL/MOL
REMARK 924 INTRA-LIGAND FREE ENERGY PREDICTED BY IDOCK:   -2.31 KCAL/MOL
REMARK 927      BINDING AFFINITY PREDICTED BY RF-SCORE:    0.00 PKD
ROOT
HETATM    1  O   UNL     1      -8.527  14.376  69.441  1.00  0.00    -0.369 OA 
HETATM    2  H   UNL     1      -8.694  14.154  70.350  1.00  0.00     0.000 HD 
HETATM    3  C   UNL     1      -9.473  14.282  68.457  1.00  0.00    -0.206 A  
HETATM    4  C   UNL     1      -9.229  14.608  67.126  1.00  0.00    -0.221 A  
HETATM    5  C   UNL     1     -10.255  14.523  66.183  1.00  0.00    -0.317 A  
HETATM    6  O   UNL     1      -8.006  15.020  66.678  1.00  0.00    -0.331 OA 
HETATM    7  H   UNL     1      -7.839  15.242  65.770  1.00  0.00     0.000 HD 
HETATM    8  C   UNL     1     -11.539  14.123  66.570  1.00  0.00    -0.389 A  
HETATM    9  C   UNL     1     -10.733  13.837  68.844  1.00  0.00    -0.249 A  
HETATM   10  C   UNL     1     -11.763  13.754  67.906  1.00  0.00    -0.395 A  
ENDROOT
BRANCH   8  11
HETATM   11  C   UNL     1     -12.667  14.074  65.569  1.00  0.00    -0.517 C  
BRANCH  11  12
HETATM   12  C   UNL     1     -12.237  14.624  64.208  1.00  0.00    -0.408 C  
BRANCH  12  13
HETATM   13  N   UNL     1     -12.402  13.606  63.164  1.00  0.00    -1.076 NA 
HETATM   14  H   UNL     1     -11.897  13.845  62.310  1.00  0.00     0.000 HD 
BRANCH  13  15
HETATM   15  C   UNL     1     -12.011  12.299  63.686  1.00  0.00    -0.543 C  
BRANCH  15  16
HETATM   16  C   UNL     1     -10.535  12.033  63.407  1.00  0.00    -0.474 C  
BRANCH  16  17
HETATM   17  C   UNL     1     -10.059  10.864  64.264  1.00  0.00    -0.413 C  
BRANCH  17  18
HETATM   18  C   UNL     1     -10.753  10.859  65.616  1.00  0.00    -0.178 C  
BRANCH  18  19
HETATM   19  C   UNL     1      -9.735  10.786  66.753  1.00  0.00    -0.221 C  
BRANCH  19  20
HETATM   20  C   UNL     1      -8.956   9.484  66.635  1.00  0.00    -0.146 C  
BRANCH  20  21
HETATM   21  N   UNL     1      -8.842   8.822  67.933  1.00  0.00    -0.136 NA 
HETATM   22  H   UNL     1      -8.022   8.218  67.976  1.00  0.00     0.000 HD 
BRANCH  21  23
HETATM   23  C   UNL     1      -8.852   9.800  69.030  1.00  0.00    -0.153 C  
BRANCH  23  24
HETATM   24  C   UNL     1      -9.147   9.167  70.399  1.00  0.00    -0.270 C  
BRANCH  24  25
HETATM   25  C   UNL     1     -10.543   9.465  70.877  1.00  0.00    -0.390 A  
HETATM   26  C   UNL     1     -11.259  10.529  70.317  1.00  0.00    -0.391 A  
HETATM   27  C   UNL     1     -12.558  10.806  70.747  1.00  0.00    -0.476 A  
HETATM   28  C   UNL     1     -13.140  10.023  71.741  1.00  0.00    -0.562 A  
HETATM   29  C   UNL     1     -12.426   8.969  72.310  1.00  0.00    -0.427 A  
HETATM   30  C   UNL     1     -11.129   8.692  71.882  1.00  0.00    -0.416 A  
ENDBRANCH  24  25
ENDBRANCH  23  24
ENDBRANCH  21  23
ENDBRANCH  20  21
ENDBRANCH  19  20
ENDBRANCH  18  19
ENDBRANCH  17  18
ENDBRANCH  16  17
ENDBRANCH  15  16
ENDBRANCH  13  15
ENDBRANCH  12  13
ENDBRANCH  11  12
ENDBRANCH   8  11
TORSDOF 13
ENDMDL
MODEL       42
REMARK 921   NORMALIZED FREE ENERGY PREDICTED BY IDOCK:   -5.24 KCAL/MOL
REMARK 922        TOTAL FREE ENERGY PREDICTED BY IDOCK:  -11.97 KCAL/MOL
REMARK 923 INTER-LIGAND FREE ENERGY PREDICTED BY IDOCK:   -9.90 KCAL/MOL
REMARK 924 INTRA-LIGAND FREE ENERGY PREDICTED BY IDOCK:   -2.07 KCAL/MOL
REMARK 927      BINDING AFFINITY PREDICTED BY RF-SCORE:    0.00 PKD
ROOT
HETATM    1  O   UNL     1     -13.013   6.540  72.404  1.00  0.00    -0.533 OA 
HETATM    2  H   UNL     1     -12.643   5.726  72.085  1.00  0.00     0.000 HD 
HETATM    3  C   UNL     1     -12.683   7.767  71.896  1.00  0.00    -0.302 A  
HETATM    4  C   UNL     1     -13.225   8.961  72.363  1.00  0.00    -0.430 A  
HETATM    5  C   UNL     1     -12.869  10.173  71.770  1.00  0.00    -0.554 A  
HETATM    6  O   UNL     1     -14.113   9.013  73.399  1.00  0.00    -1.231 OA 
HETATM    7  H   UNL     1     -14.483   9.828  73.719  1.00  0.00     0.000 HD 
HETATM    8  C   UNL     1     -11.975  10.197  70.693  1.00  0.00    -0.423 A  
HETATM    9  C   UNL     1     -11.757   7.783  70.858  1.00  0.00    -0.281 A  
HETATM   10  C   UNL     1     -11.400   8.993  70.258  1.00  0.00    -0.202 A  
ENDROOT
BRANCH   8  11
HETATM   11  C   UNL     1     -11.621  11.497  70.013  1.00  0.00    -0.364 C  
BRANCH  11  12
HETATM   12  C   UNL     1     -10.690  11.273  68.820  1.00  0.00    -0.203 C  
BRANCH  12  13
HETATM   13  N   UNL     1      -9.427  11.997  69.008  1.00  0.00    -0.390 NA 
HETATM   14  H   UNL     1      -9.151  12.040  69.990  1.00  0.00     0.000 HD 
BRANCH  13  15
HETATM   15  C   UNL     1      -8.390  11.400  68.170  1.00  0.00    -0.149 C  
BRANCH  15  16
HETATM   16  C   UNL     1      -8.940  10.191  67.421  1.00  0.00    -0.142 C  
BRANCH  16  17
HETATM   17  C   UNL     1      -8.430  10.210  65.982  1.00  0.00    -0.136 C  
BRANCH  17  18
HETATM   18  C   UNL     1      -9.328   9.387  65.074  1.00  0.00    -0.258 C  
BRANCH  18  19
HETATM   19  C   UNL     1      -9.154   9.801  63.614  1.00  0.00    -0.269 C  
BRANCH  19  20
HETATM   20  C   UNL     1      -9.601  11.247  63.454  1.00  0.00    -0.333 C  
BRANCH  20  21
HETATM   21  N   UNL     1     -11.003  11.322  63.051  1.00  0.00    -0.836 NA 
HETATM   22  H   UNL     1     -11.477  10.429  63.177  1.00  0.00     0.000 HD 
BRANCH  21  23
HETATM   23  C   UNL     1     -11.700  12.409  63.754  1.00  0.00    -0.483 C  
BRANCH  23  24
HETATM   24  C   UNL     1     -11.833  12.160  65.265  1.00  0.00    -0.356 C  
BRANCH  24  25
HETATM   25  C   UNL     1     -11.324  13.318  66.081  1.00  0.00    -0.335 A  
HETATM   26  C   UNL     1     -10.053  13.846  65.825  1.00  0.00    -0.336 A  
HETATM   27  C   UNL     1      -9.578  14.926  66.570  1.00  0.00    -0.297 A  
HETATM   28  C   UNL     1     -10.369  15.475  67.576  1.00  0.00    -0.271 A  
HETATM   29  C   UNL     1     -11.631  14.945  67.844  1.00  0.00    -0.364 A  
HETATM   30  C   UNL     1     -12.106  13.867  67.100  1.00  0.00    -0.422 A  
ENDBRANCH  24  25
ENDBRANCH  23  24
ENDBRANCH  21  23
ENDBRANCH  20  21
ENDBRANCH  19  20
ENDBRANCH  18  19
ENDBRANCH  17  18
ENDBRANCH  16  17
ENDBRANCH  15  16
ENDBRANCH  13  15
ENDBRANCH  12  13
ENDBRANCH  11  12
ENDBRANCH   8  11
TORSDOF 13
ENDMDL
MODEL       43
REMARK 921   NORMALIZED FREE ENERGY PREDICTED BY IDOCK:   -5.23 KCAL/MOL
REMARK 922        TOTAL FREE ENERGY PREDICTED BY IDOCK:  -11.95 KCAL/MOL
REMARK 923 INTER-LIGAND FREE ENERGY PREDICTED BY IDOCK:  -10.99 KCAL/MOL
REMARK 924 INTRA-LIGAND FREE ENERGY PREDICTED BY IDOCK:   -0.97 KCAL/MOL
REMARK 927      BINDING AFFINITY PREDICTED BY RF-SCORE:    0.00 PKD
ROOT
HETATM    1  O   UNL     1     -10.700  11.530  62.743  1.00  0.00    -0.619 OA 
HETATM    2  H   UNL     1     -10.137  10.793  62.536  1.00  0.00     0.000 HD 
HETATM    3  C   UNL     1     -11.060  11.866  64.020  1.00  0.00    -0.391 A  
HETATM    4  C   UNL     1     -11.884  12.946  64.324  1.00  0.00    -0.395 A  
HETATM    5  C   UNL     1     -12.178  13.251  65.655  1.00  0.00    -0.514 A  
HETATM    6  O   UNL     1     -12.437  13.747  63.367  1.00  0.00    -1.002 OA 
HETATM    7  H   UNL     1     -13.000  14.483  63.574  1.00  0.00     0.000 HD 
HETATM    8  C   UNL     1     -11.636  12.484  66.692  1.00  0.00    -0.442 A  
HETATM    9  C   UNL     1     -10.554  11.068  65.041  1.00  0.00    -0.315 A  
HETATM   10  C   UNL     1     -10.842  11.371  66.373  1.00  0.00    -0.323 A  
ENDROOT
BRANCH   8  11
HETATM   11  C   UNL     1     -11.907  12.834  68.135  1.00  0.00    -0.372 C  
BRANCH  11  12
HETATM   12  C   UNL     1     -11.923  14.348  68.354  1.00  0.00    -0.293 C  
BRANCH  12  13
HETATM   13  N   UNL     1     -12.626  14.683  69.598  1.00  0.00    -0.576 NA 
HETATM   14  H   UNL     1     -13.638  14.603  69.501  1.00  0.00     0.000 HD 
BRANCH  13  15
HETATM   15  C   UNL     1     -12.111  13.860  70.689  1.00  0.00    -0.347 C  
BRANCH  15  16
HETATM   16  C   UNL     1     -13.059  13.902  71.882  1.00  0.00    -0.469 C  
BRANCH  16  17
HETATM   17  C   UNL     1     -13.445  12.479  72.276  1.00  0.00    -0.490 C  
BRANCH  17  18
HETATM   18  C   UNL     1     -12.695  11.458  71.436  1.00  0.00    -0.489 C  
BRANCH  18  19
HETATM   19  C   UNL     1     -13.222  10.047  71.693  1.00  0.00    -0.518 C  
BRANCH  19  20
HETATM   20  C   UNL     1     -12.051   9.074  71.683  1.00  0.00    -0.352 C  
BRANCH  20  21
HETATM   21  N   UNL     1     -12.319   7.923  72.542  1.00  0.00    -0.565 NA 
HETATM   22  H   UNL     1     -13.180   8.045  73.075  1.00  0.00     0.000 HD 
BRANCH  21  23
HETATM   23  C   UNL     1     -12.334   6.674  71.767  1.00  0.00    -0.337 C  
BRANCH  23  24
HETATM   24  C   UNL     1     -10.935   6.067  71.575  1.00  0.00    -0.335 C  
BRANCH  24  25
HETATM   25  C   UNL     1     -10.651   5.730  70.137  1.00  0.00    -0.377 A  
HETATM   26  C   UNL     1      -9.839   4.633  69.825  1.00  0.00    -0.296 A  
HETATM   27  C   UNL     1      -9.579   4.307  68.493  1.00  0.00    -0.202 A  
HETATM   28  C   UNL     1     -10.124   5.080  67.472  1.00  0.00    -0.201 A  
HETATM   29  C   UNL     1     -10.924   6.181  67.776  1.00  0.00    -0.400 A  
HETATM   30  C   UNL     1     -11.184   6.508  69.106  1.00  0.00    -0.367 A  
ENDBRANCH  24  25
ENDBRANCH  23  24
ENDBRANCH  21  23
ENDBRANCH  20  21
ENDBRANCH  19  20
ENDBRANCH  18  19
ENDBRANCH  17  18
ENDBRANCH  16  17
ENDBRANCH  15  16
ENDBRANCH  13  15
ENDBRANCH  12  13
ENDBRANCH  11  12
ENDBRANCH   8  11
TORSDOF 13
ENDMDL
MODEL       44
REMARK 921   NORMALIZED FREE ENERGY PREDICTED BY IDOCK:   -5.23 KCAL/MOL
REMARK 922        TOTAL FREE ENERGY PREDICTED BY IDOCK:  -11.95 KCAL/MOL
REMARK 923 INTER-LIGAND FREE ENERGY PREDICTED BY IDOCK:  -10.68 KCAL/MOL
REMARK 924 INTRA-LIGAND FREE ENERGY PREDICTED BY IDOCK:   -1.28 KCAL/MOL
REMARK 927      BINDING AFFINITY PREDICTED BY RF-SCORE:    0.00 PKD
ROOT
HETATM    1  O   UNL     1     -12.726  13.669  63.006  1.00  0.00    -0.835 OA 
HETATM    2  H   UNL     1     -13.050  12.816  62.741  1.00  0.00     0.000 HD 
HETATM    3  C   UNL     1     -12.046  13.888  64.173  1.00  0.00    -0.425 A  
HETATM    4  C   UNL     1     -11.571  15.137  64.561  1.00  0.00    -0.329 A  
HETATM    5  C   UNL     1     -10.852  15.277  65.749  1.00  0.00    -0.363 A  
HETATM    6  O   UNL     1     -11.774  16.267  63.821  1.00  0.00    -1.511 OA 
HETATM    7  H   UNL     1     -11.450  17.120  64.085  1.00  0.00     0.000 HD 
HETATM    8  C   UNL     1     -10.591  14.161  66.553  1.00  0.00    -0.282 A  
HETATM    9  C   UNL     1     -11.834  12.780  64.987  1.00  0.00    -0.423 A  
HETATM   10  C   UNL     1     -11.113  12.913  66.175  1.00  0.00    -0.314 A  
ENDROOT
BRANCH   8  11
HETATM   11  C   UNL     1      -9.774  14.292  67.814  1.00  0.00    -0.222 C  
BRANCH  11  12
HETATM   12  C   UNL     1      -8.313  13.900  67.583  1.00  0.00    -0.181 C  
BRANCH  12  13
HETATM   13  N   UNL     1      -7.836  13.025  68.660  1.00  0.00    -0.278 NA 
HETATM   14  H   UNL     1      -8.128  13.355  69.581  1.00  0.00     0.000 HD 
BRANCH  13  15
HETATM   15  C   UNL     1      -8.265  11.653  68.405  1.00  0.00    -0.155 C  
BRANCH  15  16
HETATM   16  C   UNL     1      -7.175  10.668  68.815  1.00  0.00    -0.087 C  
BRANCH  16  17
HETATM   17  C   UNL     1      -7.728   9.708  69.865  1.00  0.00    -0.146 C  
BRANCH  17  18
HETATM   18  C   UNL     1      -9.240   9.817  69.964  1.00  0.00    -0.266 C  
BRANCH  18  19
HETATM   19  C   UNL     1      -9.747   9.212  71.272  1.00  0.00    -0.351 C  
BRANCH  19  20
HETATM   20  C   UNL     1     -11.130   8.620  71.039  1.00  0.00    -0.264 C  
BRANCH  20  21
HETATM   21  N   UNL     1     -12.141   9.326  71.823  1.00  0.00    -0.369 NA 
HETATM   22  H   UNL     1     -11.823   9.499  72.776  1.00  0.00     0.000 HD 
BRANCH  21  23
HETATM   23  C   UNL     1     -12.558  10.568  71.157  1.00  0.00    -0.417 C  
BRANCH  23  24
HETATM   24  C   UNL     1     -13.376  11.495  72.070  1.00  0.00    -0.397 C  
BRANCH  24  25
HETATM   25  C   UNL     1     -13.173  12.949  71.737  1.00  0.00    -0.479 A  
HETATM   26  C   UNL     1     -12.251  13.316  70.750  1.00  0.00    -0.390 A  
HETATM   27  C   UNL     1     -12.065  14.661  70.428  1.00  0.00    -0.383 A  
HETATM   28  C   UNL     1     -12.794  15.641  71.097  1.00  0.00    -0.540 A  
HETATM   29  C   UNL     1     -13.705  15.281  72.090  1.00  0.00    -0.598 A  
HETATM   30  C   UNL     1     -13.892  13.938  72.412  1.00  0.00    -0.668 A  
ENDBRANCH  24  25
ENDBRANCH  23  24
ENDBRANCH  21  23
ENDBRANCH  20  21
ENDBRANCH  19  20
ENDBRANCH  18  19
ENDBRANCH  17  18
ENDBRANCH  16  17
ENDBRANCH  15  16
ENDBRANCH  13  15
ENDBRANCH  12  13
ENDBRANCH  11  12
ENDBRANCH   8  11
TORSDOF 13
ENDMDL
MODEL       45
REMARK 921   NORMALIZED FREE ENERGY PREDICTED BY IDOCK:   -5.21 KCAL/MOL
REMARK 922        TOTAL FREE ENERGY PREDICTED BY IDOCK:  -11.92 KCAL/MOL
REMARK 923 INTER-LIGAND FREE ENERGY PREDICTED BY IDOCK:  -10.14 KCAL/MOL
REMARK 924 INTRA-LIGAND FREE ENERGY PREDICTED BY IDOCK:   -1.78 KCAL/MOL
REMARK 927      BINDING AFFINITY PREDICTED BY RF-SCORE:    0.00 PKD
ROOT
HETATM    1  O   UNL     1     -11.606   7.669  73.334  1.00  0.00    -0.641 OA 
HETATM    2  H   UNL     1     -10.784   7.223  73.494  1.00  0.00     0.000 HD 
HETATM    3  C   UNL     1     -11.774   8.610  72.354  1.00  0.00    -0.323 A  
HETATM    4  C   UNL     1     -12.980   9.264  72.118  1.00  0.00    -0.424 A  
HETATM    5  C   UNL     1     -13.085  10.187  71.075  1.00  0.00    -0.458 A  
HETATM    6  O   UNL     1     -14.098   9.047  72.871  1.00  0.00    -1.009 OA 
HETATM    7  H   UNL     1     -14.921   9.494  72.710  1.00  0.00     0.000 HD 
HETATM    8  C   UNL     1     -11.985  10.450  70.251  1.00  0.00    -0.387 A  
HETATM    9  C   UNL     1     -10.661   8.900  71.572  1.00  0.00    -0.399 A  
HETATM   10  C   UNL     1     -10.762   9.818  70.525  1.00  0.00    -0.381 A  
ENDROOT
BRANCH   8  11
HETATM   11  C   UNL     1     -12.102  11.408  69.091  1.00  0.00    -0.331 C  
BRANCH  11  12
HETATM   12  C   UNL     1     -11.455  12.758  69.407  1.00  0.00    -0.257 C  
BRANCH  12  13
HETATM   13  N   UNL     1     -12.162  13.844  68.719  1.00  0.00    -0.481 NA 
HETATM   14  H   UNL     1     -11.783  14.761  68.957  1.00  0.00     0.000 HD 
BRANCH  13  15
HETATM   15  C   UNL     1     -12.154  13.601  67.280  1.00  0.00    -0.345 C  
BRANCH  15  16
HETATM   16  C   UNL     1     -11.307  14.649  66.566  1.00  0.00    -0.353 C  
BRANCH  16  17
HETATM   17  C   UNL     1     -11.343  14.393  65.062  1.00  0.00    -0.373 C  
BRANCH  17  18
HETATM   18  C   UNL     1     -12.307  13.270  64.721  1.00  0.00    -0.454 C  
BRANCH  18  19
HETATM   19  C   UNL     1     -11.983  12.668  63.355  1.00  0.00    -0.613 C  
BRANCH  19  20
HETATM   20  C   UNL     1     -10.541  12.179  63.360  1.00  0.00    -0.410 C  
BRANCH  20  21
HETATM   21  N   UNL     1     -10.460  10.788  63.797  1.00  0.00    -0.507 NA 
HETATM   22  H   UNL     1     -10.343  10.153  63.008  1.00  0.00     0.000 HD 
BRANCH  21  23
HETATM   23  C   UNL     1      -9.401  10.607  64.800  1.00  0.00    -0.233 C  
BRANCH  23  24
HETATM   24  C   UNL     1      -9.944  10.256  66.194  1.00  0.00    -0.300 C  
BRANCH  24  25
HETATM   25  C   UNL     1      -9.847   8.784  66.491  1.00  0.00    -0.349 A  
HETATM   26  C   UNL     1     -10.743   8.194  67.390  1.00  0.00    -0.247 A  
HETATM   27  C   UNL     1     -10.667   6.827  67.664  1.00  0.00    -0.357 A  
HETATM   28  C   UNL     1      -9.690   6.050  67.045  1.00  0.00    -0.159 A  
HETATM   29  C   UNL     1      -8.788   6.635  66.158  1.00  0.00    -0.160 A  
HETATM   30  C   UNL     1      -8.863   8.000  65.883  1.00  0.00    -0.189 A  
ENDBRANCH  24  25
ENDBRANCH  23  24
ENDBRANCH  21  23
ENDBRANCH  20  21
ENDBRANCH  19  20
ENDBRANCH  18  19
ENDBRANCH  17  18
ENDBRANCH  16  17
ENDBRANCH  15  16
ENDBRANCH  13  15
ENDBRANCH  12  13
ENDBRANCH  11  12
ENDBRANCH   8  11
TORSDOF 13
ENDMDL
MODEL       46
REMARK 921   NORMALIZED FREE ENERGY PREDICTED BY IDOCK:   -5.20 KCAL/MOL
REMARK 922        TOTAL FREE ENERGY PREDICTED BY IDOCK:  -11.90 KCAL/MOL
REMARK 923 INTER-LIGAND FREE ENERGY PREDICTED BY IDOCK:  -10.03 KCAL/MOL
REMARK 924 INTRA-LIGAND FREE ENERGY PREDICTED BY IDOCK:   -1.87 KCAL/MOL
REMARK 927      BINDING AFFINITY PREDICTED BY RF-SCORE:    0.00 PKD
ROOT
HETATM    1  O   UNL     1     -12.634  14.268  63.302  1.00  0.00    -1.069 OA 
HETATM    2  H   UNL     1     -12.727  15.207  63.412  1.00  0.00     0.000 HD 
HETATM    3  C   UNL     1     -11.940  13.473  64.173  1.00  0.00    -0.448 A  
HETATM    4  C   UNL     1     -11.803  12.097  64.012  1.00  0.00    -0.434 A  
HETATM    5  C   UNL     1     -11.111  11.345  64.964  1.00  0.00    -0.215 A  
HETATM    6  O   UNL     1     -12.324  11.423  62.946  1.00  0.00    -0.954 OA 
HETATM    7  H   UNL     1     -12.230  10.484  62.835  1.00  0.00     0.000 HD 
HETATM    8  C   UNL     1     -10.563  11.965  66.092  1.00  0.00    -0.295 A  
HETATM    9  C   UNL     1     -11.358  14.107  65.266  1.00  0.00    -0.328 A  
HETATM   10  C   UNL     1     -10.668  13.359  66.222  1.00  0.00    -0.290 A  
ENDROOT
BRANCH   8  11
HETATM   11  C   UNL     1      -9.856  11.155  67.151  1.00  0.00    -0.212 C  
BRANCH  11  12
HETATM   12  C   UNL     1      -8.432  11.661  67.390  1.00  0.00    -0.150 C  
BRANCH  12  13
HETATM   13  N   UNL     1      -8.350  12.392  68.660  1.00  0.00    -0.345 NA 
HETATM   14  H   UNL     1      -8.463  11.777  69.466  1.00  0.00     0.000 HD 
BRANCH  13  15
HETATM   15  C   UNL     1      -7.100  13.145  68.713  1.00  0.00    -0.098 C  
BRANCH  15  16
HETATM   16  C   UNL     1      -7.380  14.634  68.885  1.00  0.00    -0.128 C  
BRANCH  16  17
HETATM   17  C   UNL     1      -8.870  14.897  68.684  1.00  0.00    -0.179 C  
BRANCH  17  18
HETATM   18  C   UNL     1      -9.195  16.369  68.875  1.00  0.00    -0.259 C  
BRANCH  18  19
HETATM   19  C   UNL     1     -10.555  16.711  68.267  1.00  0.00    -0.338 C  
BRANCH  19  20
HETATM   20  C   UNL     1     -11.651  16.184  69.182  1.00  0.00    -0.285 C  
BRANCH  20  21
HETATM   21  N   UNL     1     -11.391  16.545  70.574  1.00  0.00    -0.496 NA 
HETATM   22  H   UNL     1     -11.855  17.416  70.829  1.00  0.00     0.000 HD 
BRANCH  21  23
HETATM   23  C   UNL     1     -11.757  15.449  71.483  1.00  0.00    -0.404 C  
BRANCH  23  24
HETATM   24  C   UNL     1     -12.987  14.660  71.011  1.00  0.00    -0.419 C  
BRANCH  24  25
HETATM   25  C   UNL     1     -12.739  13.176  70.983  1.00  0.00    -0.361 A  
HETATM   26  C   UNL     1     -13.308  12.356  71.965  1.00  0.00    -0.511 A  
HETATM   27  C   UNL     1     -13.092  10.977  71.940  1.00  0.00    -0.525 A  
HETATM   28  C   UNL     1     -12.301  10.418  70.939  1.00  0.00    -0.480 A  
HETATM   29  C   UNL     1     -11.723  11.232  69.966  1.00  0.00    -0.428 A  
HETATM   30  C   UNL     1     -11.938  12.608  69.989  1.00  0.00    -0.377 A  
ENDBRANCH  24  25
ENDBRANCH  23  24
ENDBRANCH  21  23
ENDBRANCH  20  21
ENDBRANCH  19  20
ENDBRANCH  18  19
ENDBRANCH  17  18
ENDBRANCH  16  17
ENDBRANCH  15  16
ENDBRANCH  13  15
ENDBRANCH  12  13
ENDBRANCH  11  12
ENDBRANCH   8  11
TORSDOF 13
ENDMDL
MODEL       47
REMARK 921   NORMALIZED FREE ENERGY PREDICTED BY IDOCK:   -5.19 KCAL/MOL
REMARK 922        TOTAL FREE ENERGY PREDICTED BY IDOCK:  -11.88 KCAL/MOL
REMARK 923 INTER-LIGAND FREE ENERGY PREDICTED BY IDOCK:  -10.11 KCAL/MOL
REMARK 924 INTRA-LIGAND FREE ENERGY PREDICTED BY IDOCK:   -1.77 KCAL/MOL
REMARK 927      BINDING AFFINITY PREDICTED BY RF-SCORE:    0.00 PKD
ROOT
HETATM    1  O   UNL     1     -12.612  14.226  63.102  1.00  0.00    -1.028 OA 
HETATM    2  H   UNL     1     -13.166  13.507  62.823  1.00  0.00     0.000 HD 
HETATM    3  C   UNL     1     -12.021  14.287  64.335  1.00  0.00    -0.456 A  
HETATM    4  C   UNL     1     -11.208  15.340  64.744  1.00  0.00    -0.396 A  
HETATM    5  C   UNL     1     -10.609  15.315  66.005  1.00  0.00    -0.327 A  
HETATM    6  O   UNL     1     -10.955  16.427  63.957  1.00  0.00    -1.126 OA 
HETATM    7  H   UNL     1     -10.401  17.146  64.236  1.00  0.00     0.000 HD 
HETATM    8  C   UNL     1     -10.810  14.226  66.861  1.00  0.00    -0.298 A  
HETATM    9  C   UNL     1     -12.267  13.223  65.196  1.00  0.00    -0.487 A  
HETATM   10  C   UNL     1     -11.667  13.191  66.457  1.00  0.00    -0.433 A  
ENDROOT
BRANCH   8  11
HETATM   11  C   UNL     1     -10.129  14.166  68.206  1.00  0.00    -0.241 C  
BRANCH  11  12
HETATM   12  C   UNL     1      -8.607  14.098  68.065  1.00  0.00    -0.172 C  
BRANCH  12  13
HETATM   13  N   UNL     1      -8.067  12.965  68.825  1.00  0.00    -0.346 NA 
HETATM   14  H   UNL     1      -8.322  13.009  69.812  1.00  0.00     0.000 HD 
BRANCH  13  15
HETATM   15  C   UNL     1      -8.487  11.712  68.203  1.00  0.00    -0.156 C  
BRANCH  15  16
HETATM   16  C   UNL     1      -8.261  10.542  69.155  1.00  0.00    -0.152 C  
BRANCH  16  17
HETATM   17  C   UNL     1      -9.598   9.878  69.471  1.00  0.00    -0.242 C  
BRANCH  17  18
HETATM   18  C   UNL     1     -10.701  10.420  68.578  1.00  0.00    -0.255 C  
BRANCH  18  19
HETATM   19  C   UNL     1     -11.990  10.635  69.370  1.00  0.00    -0.298 C  
BRANCH  19  20
HETATM   20  C   UNL     1     -11.705  10.401  70.847  1.00  0.00    -0.360 C  
BRANCH  20  21
HETATM   21  N   UNL     1     -12.940  10.142  71.584  1.00  0.00    -0.420 NA 
HETATM   22  H   UNL     1     -13.756  10.188  70.976  1.00  0.00     0.000 HD 
BRANCH  21  23
HETATM   23  C   UNL     1     -12.871   8.861  72.302  1.00  0.00    -0.411 C  
BRANCH  23  24
HETATM   24  C   UNL     1     -13.287   7.663  71.436  1.00  0.00    -0.340 C  
BRANCH  24  25
HETATM   25  C   UNL     1     -12.144   6.717  71.181  1.00  0.00    -0.422 A  
HETATM   26  C   UNL     1     -11.625   6.584  69.887  1.00  0.00    -0.433 A  
HETATM   27  C   UNL     1     -10.558   5.718  69.644  1.00  0.00    -0.396 A  
HETATM   28  C   UNL     1     -10.013   4.979  70.691  1.00  0.00    -0.300 A  
HETATM   29  C   UNL     1     -10.534   5.099  71.979  1.00  0.00    -0.278 A  
HETATM   30  C   UNL     1     -11.599   5.964  72.223  1.00  0.00    -0.338 A  
ENDBRANCH  24  25
ENDBRANCH  23  24
ENDBRANCH  21  23
ENDBRANCH  20  21
ENDBRANCH  19  20
ENDBRANCH  18  19
ENDBRANCH  17  18
ENDBRANCH  16  17
ENDBRANCH  15  16
ENDBRANCH  13  15
ENDBRANCH  12  13
ENDBRANCH  11  12
ENDBRANCH   8  11
TORSDOF 13
ENDMDL
MODEL       48
REMARK 921   NORMALIZED FREE ENERGY PREDICTED BY IDOCK:   -5.16 KCAL/MOL
REMARK 922        TOTAL FREE ENERGY PREDICTED BY IDOCK:  -11.84 KCAL/MOL
REMARK 923 INTER-LIGAND FREE ENERGY PREDICTED BY IDOCK:  -10.47 KCAL/MOL
REMARK 924 INTRA-LIGAND FREE ENERGY PREDICTED BY IDOCK:   -1.37 KCAL/MOL
REMARK 927      BINDING AFFINITY PREDICTED BY RF-SCORE:    0.00 PKD
ROOT
HETATM    1  O   UNL     1     -10.059  17.393  65.707  1.00  0.00    -0.544 OA 
HETATM    2  H   UNL     1      -9.484  17.722  66.387  1.00  0.00     0.000 HD 
HETATM    3  C   UNL     1     -10.302  16.061  65.504  1.00  0.00    -0.390 A  
HETATM    4  C   UNL     1     -11.146  15.579  64.508  1.00  0.00    -0.274 A  
HETATM    5  C   UNL     1     -11.374  14.207  64.386  1.00  0.00    -0.310 A  
HETATM    6  O   UNL     1     -11.782  16.397  63.619  1.00  0.00    -1.520 OA 
HETATM    7  H   UNL     1     -12.358  16.068  62.939  1.00  0.00     0.000 HD 
HETATM    8  C   UNL     1     -10.768  13.308  65.271  1.00  0.00    -0.322 A  
HETATM    9  C   UNL     1      -9.656  15.174  66.359  1.00  0.00    -0.309 A  
HETATM   10  C   UNL     1      -9.884  13.801  66.244  1.00  0.00    -0.314 A  
ENDROOT
BRANCH   8  11
HETATM   11  C   UNL     1     -11.046  11.828  65.178  1.00  0.00    -0.341 C  
BRANCH  11  12
HETATM   12  C   UNL     1     -10.492  11.230  63.884  1.00  0.00    -0.391 C  
BRANCH  12  13
HETATM   13  N   UNL     1      -9.064  10.923  64.026  1.00  0.00    -0.290 NA 
HETATM   14  H   UNL     1      -8.611  11.515  64.723  1.00  0.00     0.000 HD 
BRANCH  13  15
HETATM   15  C   UNL     1      -8.894   9.502  64.315  1.00  0.00    -0.213 C  
BRANCH  15  16
HETATM   16  C   UNL     1      -8.606   9.290  65.797  1.00  0.00    -0.169 C  
BRANCH  16  17
HETATM   17  C   UNL     1      -9.874   8.807  66.497  1.00  0.00    -0.349 C  
BRANCH  17  18
HETATM   18  C   UNL     1      -9.807   9.070  67.992  1.00  0.00    -0.197 C  
BRANCH  18  19
HETATM   19  C   UNL     1     -10.899  10.048  68.423  1.00  0.00    -0.277 C  
BRANCH  19  20
HETATM   20  C   UNL     1     -10.406  10.839  69.627  1.00  0.00    -0.101 C  
BRANCH  20  21
HETATM   21  N   UNL     1     -11.507  11.547  70.276  1.00  0.00    -0.515 NA 
HETATM   22  H   UNL     1     -11.210  11.984  71.147  1.00  0.00     0.000 HD 
BRANCH  21  23
HETATM   23  C   UNL     1     -12.123  12.522  69.364  1.00  0.00    -0.180 C  
BRANCH  23  24
HETATM   24  C   UNL     1     -11.617  13.956  69.585  1.00  0.00    -0.347 C  
BRANCH  24  25
HETATM   25  C   UNL     1     -12.257  14.609  70.780  1.00  0.00    -0.394 A  
HETATM   26  C   UNL     1     -13.597  14.341  71.088  1.00  0.00    -0.300 A  
HETATM   27  C   UNL     1     -14.195  14.934  72.200  1.00  0.00    -0.616 A  
HETATM   28  C   UNL     1     -13.458  15.801  73.003  1.00  0.00    -0.672 A  
HETATM   29  C   UNL     1     -12.127  16.081  72.695  1.00  0.00    -0.640 A  
HETATM   30  C   UNL     1     -11.528  15.489  71.584  1.00  0.00    -0.496 A  
ENDBRANCH  24  25
ENDBRANCH  23  24
ENDBRANCH  21  23
ENDBRANCH  20  21
ENDBRANCH  19  20
ENDBRANCH  18  19
ENDBRANCH  17  18
ENDBRANCH  16  17
ENDBRANCH  15  16
ENDBRANCH  13  15
ENDBRANCH  12  13
ENDBRANCH  11  12
ENDBRANCH   8  11
TORSDOF 13
ENDMDL
MODEL       49
REMARK 921   NORMALIZED FREE ENERGY PREDICTED BY IDOCK:   -5.16 KCAL/MOL
REMARK 922        TOTAL FREE ENERGY PREDICTED BY IDOCK:  -11.84 KCAL/MOL
REMARK 923 INTER-LIGAND FREE ENERGY PREDICTED BY IDOCK:   -9.53 KCAL/MOL
REMARK 924 INTRA-LIGAND FREE ENERGY PREDICTED BY IDOCK:   -2.31 KCAL/MOL
REMARK 927      BINDING AFFINITY PREDICTED BY RF-SCORE:    0.00 PKD
ROOT
HETATM    1  O   UNL     1     -10.282  10.807  62.596  1.00  0.00    -0.743 OA 
HETATM    2  H   UNL     1      -9.722  10.051  62.462  1.00  0.00     0.000 HD 
HETATM    3  C   UNL     1     -10.689  11.233  63.832  1.00  0.00    -0.384 A  
HETATM    4  C   UNL     1     -11.509  12.340  64.029  1.00  0.00    -0.409 A  
HETATM    5  C   UNL     1     -11.852  12.737  65.323  1.00  0.00    -0.442 A  
HETATM    6  O   UNL     1     -12.010  13.081  62.998  1.00  0.00    -0.827 OA 
HETATM    7  H   UNL     1     -12.570  13.837  63.132  1.00  0.00     0.000 HD 
HETATM    8  C   UNL     1     -11.364  12.034  66.431  1.00  0.00    -0.411 A  
HETATM    9  C   UNL     1     -10.237  10.498  64.924  1.00  0.00    -0.371 A  
HETATM   10  C   UNL     1     -10.574  10.893  66.220  1.00  0.00    -0.276 A  
ENDROOT
BRANCH   8  11
HETATM   11  C   UNL     1     -11.689  12.484  67.834  1.00  0.00    -0.416 C  
BRANCH  11  12
HETATM   12  C   UNL     1     -11.903  13.997  67.906  1.00  0.00    -0.376 C  
BRANCH  12  13
HETATM   13  N   UNL     1     -12.382  14.388  69.237  1.00  0.00    -0.543 NA 
HETATM   14  H   UNL     1     -13.383  14.587  69.242  1.00  0.00     0.000 HD 
BRANCH  13  15
HETATM   15  C   UNL     1     -12.020  13.362  70.210  1.00  0.00    -0.308 C  
BRANCH  15  16
HETATM   16  C   UNL     1     -12.799  13.558  71.507  1.00  0.00    -0.440 C  
BRANCH  16  17
HETATM   17  C   UNL     1     -13.186  12.196  72.078  1.00  0.00    -0.496 C  
BRANCH  17  18
HETATM   18  C   UNL     1     -12.574  11.069  71.264  1.00  0.00    -0.517 C  
BRANCH  18  19
HETATM   19  C   UNL     1     -13.389   9.785  71.412  1.00  0.00    -0.449 C  
BRANCH  19  20
HETATM   20  C   UNL     1     -12.585   8.781  72.226  1.00  0.00    -0.394 C  
BRANCH  20  21
HETATM   21  N   UNL     1     -12.495   7.497  71.535  1.00  0.00    -0.332 NA 
HETATM   22  H   UNL     1     -13.125   7.457  70.734  1.00  0.00     0.000 HD 
BRANCH  21  23
HETATM   23  C   UNL     1     -11.109   7.199  71.146  1.00  0.00    -0.254 C  
BRANCH  23  24
HETATM   24  C   UNL     1     -10.902   7.172  69.624  1.00  0.00    -0.254 C  
BRANCH  24  25
HETATM   25  C   UNL     1      -9.844   8.143  69.174  1.00  0.00    -0.182 A  
HETATM   26  C   UNL     1      -8.978   7.796  68.130  1.00  0.00    -0.127 A  
HETATM   27  C   UNL     1      -8.001   8.694  67.699  1.00  0.00    -0.107 A  
HETATM   28  C   UNL     1      -7.884   9.938  68.315  1.00  0.00    -0.085 A  
HETATM   29  C   UNL     1      -8.736  10.284  69.363  1.00  0.00    -0.168 A  
HETATM   30  C   UNL     1      -9.712   9.388  69.794  1.00  0.00    -0.215 A  
ENDBRANCH  24  25
ENDBRANCH  23  24
ENDBRANCH  21  23
ENDBRANCH  20  21
ENDBRANCH  19  20
ENDBRANCH  18  19
ENDBRANCH  17  18
ENDBRANCH  16  17
ENDBRANCH  15  16
ENDBRANCH  13  15
ENDBRANCH  12  13
ENDBRANCH  11  12
ENDBRANCH   8  11
TORSDOF 13
ENDMDL
MODEL       50
REMARK 921   NORMALIZED FREE ENERGY PREDICTED BY IDOCK:   -5.16 KCAL/MOL
REMARK 922        TOTAL FREE ENERGY PREDICTED BY IDOCK:  -11.84 KCAL/MOL
REMARK 923 INTER-LIGAND FREE ENERGY PREDICTED BY IDOCK:   -9.72 KCAL/MOL
REMARK 924 INTRA-LIGAND FREE ENERGY PREDICTED BY IDOCK:   -2.11 KCAL/MOL
REMARK 927      BINDING AFFINITY PREDICTED BY RF-SCORE:    0.00 PKD
ROOT
HETATM    1  O   UNL     1     -13.143  15.624  70.547  1.00  0.00    -0.668 OA 
HETATM    2  H   UNL     1     -12.880  16.163  69.810  1.00  0.00     0.000 HD 
HETATM    3  C   UNL     1     -12.898  14.280  70.622  1.00  0.00    -0.314 A  
HETATM    4  C   UNL     1     -13.282  13.490  71.702  1.00  0.00    -0.366 A  
HETATM    5  C   UNL     1     -12.964  12.130  71.725  1.00  0.00    -0.437 A  
HETATM    6  O   UNL     1     -13.971  13.986  72.771  1.00  0.00    -0.669 OA 
HETATM    7  H   UNL     1     -14.234  13.447  73.509  1.00  0.00     0.000 HD 
HETATM    8  C   UNL     1     -12.246  11.554  70.671  1.00  0.00    -0.473 A  
HETATM    9  C   UNL     1     -12.226  13.708  69.546  1.00  0.00    -0.316 A  
HETATM   10  C   UNL     1     -11.903  12.350  69.567  1.00  0.00    -0.368 A  
ENDROOT
BRANCH   8  11
HETATM   11  C   UNL     1     -11.856  10.098  70.709  1.00  0.00    -0.443 C  
BRANCH  11  12
HETATM   12  C   UNL     1     -10.677   9.806  69.779  1.00  0.00    -0.256 C  
BRANCH  12  13
HETATM   13  N   UNL     1     -11.094   8.933  68.675  1.00  0.00    -0.433 NA 
HETATM   14  H   UNL     1     -12.108   8.912  68.563  1.00  0.00     0.000 HD 
BRANCH  13  15
HETATM   15  C   UNL     1     -10.413   9.336  67.447  1.00  0.00    -0.273 C  
BRANCH  15  16
HETATM   16  C   UNL     1      -9.689   8.147  66.824  1.00  0.00    -0.303 C  
BRANCH  16  17
HETATM   17  C   UNL     1      -9.133   8.548  65.460  1.00  0.00    -0.150 C  
BRANCH  17  18
HETATM   18  C   UNL     1      -9.653   9.912  65.038  1.00  0.00    -0.364 C  
BRANCH  18  19
HETATM   19  C   UNL     1      -8.829  10.476  63.882  1.00  0.00    -0.203 C  
BRANCH  19  20
HETATM   20  C   UNL     1      -9.759  11.212  62.927  1.00  0.00    -0.320 C  
BRANCH  20  21
HETATM   21  N   UNL     1     -11.135  11.193  63.416  1.00  0.00    -0.742 NA 
HETATM   22  H   UNL     1     -11.222  10.645  64.271  1.00  0.00     0.000 HD 
BRANCH  21  23
HETATM   23  C   UNL     1     -11.654  12.557  63.594  1.00  0.00    -0.504 C  
BRANCH  23  24
HETATM   24  C   UNL     1     -12.192  12.817  65.010  1.00  0.00    -0.527 C  
BRANCH  24  25
HETATM   25  C   UNL     1     -11.227  13.608  65.851  1.00  0.00    -0.311 A  
HETATM   26  C   UNL     1     -11.399  14.990  65.996  1.00  0.00    -0.270 A  
HETATM   27  C   UNL     1     -10.515  15.730  66.783  1.00  0.00    -0.305 A  
HETATM   28  C   UNL     1      -9.455  15.091  67.421  1.00  0.00    -0.202 A  
HETATM   29  C   UNL     1      -9.272  13.717  67.271  1.00  0.00    -0.232 A  
HETATM   30  C   UNL     1     -10.154  12.977  66.485  1.00  0.00    -0.270 A  
ENDBRANCH  24  25
ENDBRANCH  23  24
ENDBRANCH  21  23
ENDBRANCH  20  21
ENDBRANCH  19  20
ENDBRANCH  18  19
ENDBRANCH  17  18
ENDBRANCH  16  17
ENDBRANCH  15  16
ENDBRANCH  13  15
ENDBRANCH  12  13
ENDBRANCH  11  12
ENDBRANCH   8  11
TORSDOF 13
ENDMDL
MODEL       51
REMARK 921   NORMALIZED FREE ENERGY PREDICTED BY IDOCK:   -5.15 KCAL/MOL
REMARK 922        TOTAL FREE ENERGY PREDICTED BY IDOCK:  -11.81 KCAL/MOL
REMARK 923 INTER-LIGAND FREE ENERGY PREDICTED BY IDOCK:  -10.23 KCAL/MOL
REMARK 924 INTRA-LIGAND FREE ENERGY PREDICTED BY IDOCK:   -1.59 KCAL/MOL
REMARK 927      BINDING AFFINITY PREDICTED BY RF-SCORE:    0.00 PKD
ROOT
HETATM    1  O   UNL     1      -9.434   4.807  67.209  1.00  0.00    -0.129 OA 
HETATM    2  H   UNL     1      -8.736   4.168  67.138  1.00  0.00     0.000 HD 
HETATM    3  C   UNL     1      -9.997   5.178  68.401  1.00  0.00    -0.149 A  
HETATM    4  C   UNL     1     -11.020   6.115  68.507  1.00  0.00    -0.320 A  
HETATM    5  C   UNL     1     -11.519   6.471  69.762  1.00  0.00    -0.443 A  
HETATM    6  O   UNL     1     -11.578   6.725  67.420  1.00  0.00    -0.704 OA 
HETATM    7  H   UNL     1     -12.277   7.365  67.492  1.00  0.00     0.000 HD 
HETATM    8  C   UNL     1     -10.986   5.899  70.922  1.00  0.00    -0.335 A  
HETATM    9  C   UNL     1      -9.492   4.567  69.544  1.00  0.00    -0.244 A  
HETATM   10  C   UNL     1      -9.985   4.922  70.802  1.00  0.00    -0.292 A  
ENDROOT
BRANCH   8  11
HETATM   11  C   UNL     1     -11.484   6.312  72.285  1.00  0.00    -0.351 C  
BRANCH  11  12
HETATM   12  C   UNL     1     -11.859   7.794  72.323  1.00  0.00    -0.329 C  
BRANCH  12  13
HETATM   13  N   UNL     1     -13.313   7.956  72.450  1.00  0.00    -0.520 NA 
HETATM   14  H   UNL     1     -13.648   7.703  73.380  1.00  0.00     0.000 HD 
BRANCH  13  15
HETATM   15  C   UNL     1     -13.689   9.318  72.080  1.00  0.00    -0.453 C  
BRANCH  15  16
HETATM   16  C   UNL     1     -12.453  10.129  71.705  1.00  0.00    -0.506 C  
BRANCH  16  17
HETATM   17  C   UNL     1     -12.585  10.618  70.264  1.00  0.00    -0.333 C  
BRANCH  17  18
HETATM   18  C   UNL     1     -11.310  10.355  69.480  1.00  0.00    -0.325 C  
BRANCH  18  19
HETATM   19  C   UNL     1     -11.419  10.907  68.060  1.00  0.00    -0.356 C  
BRANCH  19  20
HETATM   20  C   UNL     1     -10.302  11.916  67.836  1.00  0.00    -0.198 C  
BRANCH  20  21
HETATM   21  N   UNL     1     -10.092  12.739  69.025  1.00  0.00    -0.421 NA 
HETATM   22  H   UNL     1      -9.108  12.772  69.289  1.00  0.00     0.000 HD 
BRANCH  21  23
HETATM   23  C   UNL     1     -10.649  14.087  68.843  1.00  0.00    -0.228 C  
BRANCH  23  24
HETATM   24  C   UNL     1     -12.137  14.179  69.215  1.00  0.00    -0.364 C  
BRANCH  24  25
HETATM   25  C   UNL     1     -12.343  14.571  70.654  1.00  0.00    -0.407 A  
HETATM   26  C   UNL     1     -11.722  15.719  71.159  1.00  0.00    -0.476 A  
HETATM   27  C   UNL     1     -11.917  16.096  72.489  1.00  0.00    -0.660 A  
HETATM   28  C   UNL     1     -12.727  15.322  73.317  1.00  0.00    -0.628 A  
HETATM   29  C   UNL     1     -13.338  14.171  72.821  1.00  0.00    -0.618 A  
HETATM   30  C   UNL     1     -13.145  13.794  71.494  1.00  0.00    -0.435 A  
ENDBRANCH  24  25
ENDBRANCH  23  24
ENDBRANCH  21  23
ENDBRANCH  20  21
ENDBRANCH  19  20
ENDBRANCH  18  19
ENDBRANCH  17  18
ENDBRANCH  16  17
ENDBRANCH  15  16
ENDBRANCH  13  15
ENDBRANCH  12  13
ENDBRANCH  11  12
ENDBRANCH   8  11
TORSDOF 13
ENDMDL
MODEL       52
REMARK 921   NORMALIZED FREE ENERGY PREDICTED BY IDOCK:   -5.14 KCAL/MOL
REMARK 922        TOTAL FREE ENERGY PREDICTED BY IDOCK:  -11.79 KCAL/MOL
REMARK 923 INTER-LIGAND FREE ENERGY PREDICTED BY IDOCK:   -9.48 KCAL/MOL
REMARK 924 INTRA-LIGAND FREE ENERGY PREDICTED BY IDOCK:   -2.32 KCAL/MOL
REMARK 927      BINDING AFFINITY PREDICTED BY RF-SCORE:    0.00 PKD
ROOT
HETATM    1  O   UNL     1      -9.551  16.603  68.005  1.00  0.00    -0.220 OA 
HETATM    2  H   UNL     1      -8.718  16.962  67.722  1.00  0.00     0.000 HD 
HETATM    3  C   UNL     1     -10.314  15.771  67.232  1.00  0.00    -0.290 A  
HETATM    4  C   UNL     1     -11.534  15.244  67.646  1.00  0.00    -0.280 A  
HETATM    5  C   UNL     1     -12.239  14.370  66.816  1.00  0.00    -0.319 A  
HETATM    6  O   UNL     1     -12.094  15.541  68.856  1.00  0.00    -0.555 OA 
HETATM    7  H   UNL     1     -12.927  15.182  69.139  1.00  0.00     0.000 HD 
HETATM    8  C   UNL     1     -11.720  14.008  65.568  1.00  0.00    -0.353 A  
HETATM    9  C   UNL     1      -9.812  15.455  65.973  1.00  0.00    -0.355 A  
HETATM   10  C   UNL     1     -10.512  14.580  65.141  1.00  0.00    -0.439 A  
ENDROOT
BRANCH   8  11
HETATM   11  C   UNL     1     -12.451  13.028  64.684  1.00  0.00    -0.460 C  
BRANCH  11  12
HETATM   12  C   UNL     1     -11.676  12.744  63.396  1.00  0.00    -0.488 C  
BRANCH  12  13
HETATM   13  N   UNL     1     -11.364  11.315  63.284  1.00  0.00    -0.818 NA 
HETATM   14  H   UNL     1     -11.504  10.963  62.337  1.00  0.00     0.000 HD 
BRANCH  13  15
HETATM   15  C   UNL     1     -10.007  11.070  63.766  1.00  0.00    -0.350 C  
BRANCH  15  16
HETATM   16  C   UNL     1     -10.032  10.172  64.998  1.00  0.00    -0.375 C  
BRANCH  16  17
HETATM   17  C   UNL     1      -9.692  10.998  66.236  1.00  0.00    -0.244 C  
BRANCH  17  18
HETATM   18  C   UNL     1     -10.796  10.903  67.276  1.00  0.00    -0.342 C  
BRANCH  18  19
HETATM   19  C   UNL     1     -10.435  11.698  68.530  1.00  0.00    -0.236 C  
BRANCH  19  20
HETATM   20  C   UNL     1     -11.671  11.823  69.409  1.00  0.00    -0.341 C  
BRANCH  20  21
HETATM   21  N   UNL     1     -12.486  10.612  69.343  1.00  0.00    -0.690 NA 
HETATM   22  H   UNL     1     -12.008   9.866  68.839  1.00  0.00     0.000 HD 
BRANCH  21  23
HETATM   23  C   UNL     1     -12.901  10.179  70.685  1.00  0.00    -0.240 C  
BRANCH  23  24
HETATM   24  C   UNL     1     -11.732   9.669  71.542  1.00  0.00    -0.472 C  
BRANCH  24  25
HETATM   25  C   UNL     1     -11.119   8.414  70.983  1.00  0.00    -0.298 A  
HETATM   26  C   UNL     1      -9.792   8.426  70.537  1.00  0.00    -0.204 A  
HETATM   27  C   UNL     1      -9.211   7.263  70.027  1.00  0.00    -0.148 A  
HETATM   28  C   UNL     1      -9.958   6.090  69.957  1.00  0.00    -0.227 A  
HETATM   29  C   UNL     1     -11.283   6.075  70.390  1.00  0.00    -0.380 A  
HETATM   30  C   UNL     1     -11.864   7.235  70.899  1.00  0.00    -0.351 A  
ENDBRANCH  24  25
ENDBRANCH  23  24
ENDBRANCH  21  23
ENDBRANCH  20  21
ENDBRANCH  19  20
ENDBRANCH  18  19
ENDBRANCH  17  18
ENDBRANCH  16  17
ENDBRANCH  15  16
ENDBRANCH  13  15
ENDBRANCH  12  13
ENDBRANCH  11  12
ENDBRANCH   8  11
TORSDOF 13
ENDMDL
MODEL       53
REMARK 921   NORMALIZED FREE ENERGY PREDICTED BY IDOCK:   -5.13 KCAL/MOL
REMARK 922        TOTAL FREE ENERGY PREDICTED BY IDOCK:  -11.78 KCAL/MOL
REMARK 923 INTER-LIGAND FREE ENERGY PREDICTED BY IDOCK:   -9.01 KCAL/MOL
REMARK 924 INTRA-LIGAND FREE ENERGY PREDICTED BY IDOCK:   -2.77 KCAL/MOL
REMARK 927      BINDING AFFINITY PREDICTED BY RF-SCORE:    0.00 PKD
ROOT
HETATM    1  O   UNL     1     -10.687   9.497  68.990  1.00  0.00    -0.222 OA 
HETATM    2  H   UNL     1     -10.169   8.709  69.103  1.00  0.00     0.000 HD 
HETATM    3  C   UNL     1     -10.759  10.189  67.812  1.00  0.00    -0.277 A  
HETATM    4  C   UNL     1     -11.518  11.344  67.647  1.00  0.00    -0.273 A  
HETATM    5  C   UNL     1     -11.573  11.976  66.403  1.00  0.00    -0.381 A  
HETATM    6  O   UNL     1     -12.234  11.910  68.663  1.00  0.00    -0.358 OA 
HETATM    7  H   UNL     1     -12.752  12.698  68.551  1.00  0.00     0.000 HD 
HETATM    8  C   UNL     1     -10.877  11.446  65.310  1.00  0.00    -0.297 A  
HETATM    9  C   UNL     1     -10.025   9.681  66.745  1.00  0.00    -0.289 A  
HETATM   10  C   UNL     1     -10.079  10.307  65.498  1.00  0.00    -0.351 A  
ENDROOT
BRANCH   8  11
HETATM   11  C   UNL     1     -10.968  12.093  63.950  1.00  0.00    -0.463 C  
BRANCH  11  12
HETATM   12  C   UNL     1     -12.367  12.652  63.684  1.00  0.00    -0.492 C  
BRANCH  12  13
HETATM   13  N   UNL     1     -12.293  14.062  63.282  1.00  0.00    -1.145 NA 
HETATM   14  H   UNL     1     -12.985  14.295  62.570  1.00  0.00     0.000 HD 
BRANCH  13  15
HETATM   15  C   UNL     1     -12.406  14.915  64.462  1.00  0.00    -0.315 C  
BRANCH  15  16
HETATM   16  C   UNL     1     -11.250  15.908  64.516  1.00  0.00    -0.324 C  
BRANCH  16  17
HETATM   17  C   UNL     1     -10.192  15.404  65.494  1.00  0.00    -0.411 C  
BRANCH  17  18
HETATM   18  C   UNL     1     -10.719  15.411  66.919  1.00  0.00    -0.314 C  
BRANCH  18  19
HETATM   19  C   UNL     1      -9.674  14.862  67.890  1.00  0.00    -0.206 C  
BRANCH  19  20
HETATM   20  C   UNL     1      -8.424  14.483  67.107  1.00  0.00    -0.212 C  
BRANCH  20  21
HETATM   21  N   UNL     1      -7.250  15.182  67.625  1.00  0.00    -0.168 NA 
HETATM   22  H   UNL     1      -6.792  15.734  66.900  1.00  0.00     0.000 HD 
BRANCH  21  23
HETATM   23  C   UNL     1      -7.593  16.003  68.795  1.00  0.00    -0.184 C  
BRANCH  23  24
HETATM   24  C   UNL     1      -7.278  17.493  68.598  1.00  0.00    -0.246 C  
BRANCH  24  25
HETATM   25  C   UNL     1      -8.416  18.239  67.955  1.00  0.00    -0.263 A  
HETATM   26  C   UNL     1      -8.368  18.540  66.589  1.00  0.00    -0.285 A  
HETATM   27  C   UNL     1      -9.424  19.222  65.982  1.00  0.00    -0.206 A  
HETATM   28  C   UNL     1     -10.526  19.608  66.741  1.00  0.00    -0.605 A  
HETATM   29  C   UNL     1     -10.574  19.321  68.104  1.00  0.00    -0.367 A  
HETATM   30  C   UNL     1      -9.520  18.640  68.711  1.00  0.00    -0.358 A  
ENDBRANCH  24  25
ENDBRANCH  23  24
ENDBRANCH  21  23
ENDBRANCH  20  21
ENDBRANCH  19  20
ENDBRANCH  18  19
ENDBRANCH  17  18
ENDBRANCH  16  17
ENDBRANCH  15  16
ENDBRANCH  13  15
ENDBRANCH  12  13
ENDBRANCH  11  12
ENDBRANCH   8  11
TORSDOF 13
ENDMDL
MODEL       54
REMARK 921   NORMALIZED FREE ENERGY PREDICTED BY IDOCK:   -5.12 KCAL/MOL
REMARK 922        TOTAL FREE ENERGY PREDICTED BY IDOCK:  -11.76 KCAL/MOL
REMARK 923 INTER-LIGAND FREE ENERGY PREDICTED BY IDOCK:  -10.23 KCAL/MOL
REMARK 924 INTRA-LIGAND FREE ENERGY PREDICTED BY IDOCK:   -1.53 KCAL/MOL
REMARK 927      BINDING AFFINITY PREDICTED BY RF-SCORE:    0.00 PKD
ROOT
HETATM    1  O   UNL     1     -14.373   8.996  73.115  1.00  0.00    -1.136 OA 
HETATM    2  H   UNL     1     -14.662   8.157  73.455  1.00  0.00     0.000 HD 
HETATM    3  C   UNL     1     -13.322   9.135  72.250  1.00  0.00    -0.477 A  
HETATM    4  C   UNL     1     -12.898  10.363  71.750  1.00  0.00    -0.456 A  
HETATM    5  C   UNL     1     -11.841  10.424  70.841  1.00  0.00    -0.475 A  
HETATM    6  O   UNL     1     -13.477  11.547  72.110  1.00  0.00    -0.545 OA 
HETATM    7  H   UNL     1     -13.188  12.385  71.770  1.00  0.00     0.000 HD 
HETATM    8  C   UNL     1     -11.208   9.251  70.414  1.00  0.00    -0.290 A  
HETATM    9  C   UNL     1     -12.669   7.967  71.869  1.00  0.00    -0.354 A  
HETATM   10  C   UNL     1     -11.614   8.022  70.957  1.00  0.00    -0.303 A  
ENDROOT
BRANCH   8  11
HETATM   11  C   UNL     1     -10.096   9.301  69.395  1.00  0.00    -0.200 C  
BRANCH  11  12
HETATM   12  C   UNL     1     -10.625   9.645  68.001  1.00  0.00    -0.243 C  
BRANCH  12  13
HETATM   13  N   UNL     1      -9.712  10.568  67.316  1.00  0.00    -0.166 NA 
HETATM   14  H   UNL     1      -8.862  10.102  66.996  1.00  0.00     0.000 HD 
BRANCH  13  15
HETATM   15  C   UNL     1     -10.417  11.236  66.225  1.00  0.00    -0.258 C  
BRANCH  15  16
HETATM   16  C   UNL     1      -9.879  10.770  64.877  1.00  0.00    -0.350 C  
BRANCH  16  17
HETATM   17  C   UNL     1     -10.699  11.402  63.755  1.00  0.00    -0.470 C  
BRANCH  17  18
HETATM   18  C   UNL     1     -11.926  12.107  64.307  1.00  0.00    -0.466 C  
BRANCH  18  19
HETATM   19  C   UNL     1     -12.255  13.353  63.487  1.00  0.00    -0.468 C  
BRANCH  19  20
HETATM   20  C   UNL     1     -12.200  14.572  64.398  1.00  0.00    -0.458 C  
BRANCH  20  21
HETATM   21  N   UNL     1     -10.838  15.088  64.503  1.00  0.00    -0.633 NA 
HETATM   22  H   UNL     1     -10.608  15.701  63.721  1.00  0.00     0.000 HD 
BRANCH  21  23
HETATM   23  C   UNL     1     -10.620  15.753  65.795  1.00  0.00    -0.355 C  
BRANCH  23  24
HETATM   24  C   UNL     1      -9.942  14.846  66.833  1.00  0.00    -0.245 C  
BRANCH  24  25
HETATM   25  C   UNL     1     -10.689  14.813  68.139  1.00  0.00    -0.247 A  
HETATM   26  C   UNL     1     -11.695  13.861  68.343  1.00  0.00    -0.391 A  
HETATM   27  C   UNL     1     -12.386  13.817  69.555  1.00  0.00    -0.258 A  
HETATM   28  C   UNL     1     -12.076  14.728  70.562  1.00  0.00    -0.378 A  
HETATM   29  C   UNL     1     -11.083  15.685  70.360  1.00  0.00    -0.369 A  
HETATM   30  C   UNL     1     -10.393  15.731  69.150  1.00  0.00    -0.240 A  
ENDBRANCH  24  25
ENDBRANCH  23  24
ENDBRANCH  21  23
ENDBRANCH  20  21
ENDBRANCH  19  20
ENDBRANCH  18  19
ENDBRANCH  17  18
ENDBRANCH  16  17
ENDBRANCH  15  16
ENDBRANCH  13  15
ENDBRANCH  12  13
ENDBRANCH  11  12
ENDBRANCH   8  11
TORSDOF 13
ENDMDL
MODEL       55
REMARK 921   NORMALIZED FREE ENERGY PREDICTED BY IDOCK:   -5.11 KCAL/MOL
REMARK 922        TOTAL FREE ENERGY PREDICTED BY IDOCK:  -11.75 KCAL/MOL
REMARK 923 INTER-LIGAND FREE ENERGY PREDICTED BY IDOCK:   -9.21 KCAL/MOL
REMARK 924 INTRA-LIGAND FREE ENERGY PREDICTED BY IDOCK:   -2.53 KCAL/MOL
REMARK 927      BINDING AFFINITY PREDICTED BY RF-SCORE:    0.00 PKD
ROOT
HETATM    1  O   UNL     1     -12.372  11.492  62.985  1.00  0.00    -0.975 OA 
HETATM    2  H   UNL     1     -13.292  11.270  62.908  1.00  0.00     0.000 HD 
HETATM    3  C   UNL     1     -11.870  12.285  63.981  1.00  0.00    -0.444 A  
HETATM    4  C   UNL     1     -10.521  12.611  64.094  1.00  0.00    -0.413 A  
HETATM    5  C   UNL     1     -10.076  13.396  65.160  1.00  0.00    -0.266 A  
HETATM    6  O   UNL     1      -9.582  12.193  63.195  1.00  0.00    -0.617 OA 
HETATM    7  H   UNL     1      -8.662  12.415  63.272  1.00  0.00     0.000 HD 
HETATM    8  C   UNL     1     -10.979  13.849  66.129  1.00  0.00    -0.293 A  
HETATM    9  C   UNL     1     -12.783  12.770  64.911  1.00  0.00    -0.479 A  
HETATM   10  C   UNL     1     -12.342  13.552  65.981  1.00  0.00    -0.486 A  
ENDROOT
BRANCH   8  11
HETATM   11  C   UNL     1     -10.501  14.656  67.310  1.00  0.00    -0.266 C  
BRANCH  11  12
HETATM   12  C   UNL     1     -11.570  14.746  68.401  1.00  0.00    -0.324 C  
BRANCH  12  13
HETATM   13  N   UNL     1     -11.274  13.812  69.493  1.00  0.00    -0.407 NA 
HETATM   14  H   UNL     1     -10.301  13.870  69.795  1.00  0.00     0.000 HD 
BRANCH  13  15
HETATM   15  C   UNL     1     -12.207  14.032  70.594  1.00  0.00    -0.372 C  
BRANCH  15  16
HETATM   16  C   UNL     1     -12.590  12.706  71.242  1.00  0.00    -0.339 C  
BRANCH  16  17
HETATM   17  C   UNL     1     -12.073  11.553  70.386  1.00  0.00    -0.471 C  
BRANCH  17  18
HETATM   18  C   UNL     1     -12.720  10.240  70.790  1.00  0.00    -0.434 C  
BRANCH  18  19
HETATM   19  C   UNL     1     -11.824   9.463  71.753  1.00  0.00    -0.452 C  
BRANCH  19  20
HETATM   20  C   UNL     1     -11.837   7.992  71.361  1.00  0.00    -0.295 C  
BRANCH  20  21
HETATM   21  N   UNL     1     -10.542   7.368  71.624  1.00  0.00    -0.206 NA 
HETATM   22  H   UNL     1     -10.379   6.570  71.011  1.00  0.00     0.000 HD 
BRANCH  21  23
HETATM   23  C   UNL     1      -9.452   8.350  71.536  1.00  0.00    -0.203 C  
BRANCH  23  24
HETATM   24  C   UNL     1      -8.599   8.191  70.268  1.00  0.00    -0.131 C  
BRANCH  24  25
HETATM   25  C   UNL     1      -9.211   8.879  69.078  1.00  0.00    -0.140 A  
HETATM   26  C   UNL     1      -9.036  10.257  68.903  1.00  0.00    -0.168 A  
HETATM   27  C   UNL     1      -9.591  10.901  67.796  1.00  0.00    -0.176 A  
HETATM   28  C   UNL     1     -10.328  10.171  66.867  1.00  0.00    -0.298 A  
HETATM   29  C   UNL     1     -10.515   8.800  67.042  1.00  0.00    -0.338 A  
HETATM   30  C   UNL     1      -9.961   8.156  68.147  1.00  0.00    -0.219 A  
ENDBRANCH  24  25
ENDBRANCH  23  24
ENDBRANCH  21  23
ENDBRANCH  20  21
ENDBRANCH  19  20
ENDBRANCH  18  19
ENDBRANCH  17  18
ENDBRANCH  16  17
ENDBRANCH  15  16
ENDBRANCH  13  15
ENDBRANCH  12  13
ENDBRANCH  11  12
ENDBRANCH   8  11
TORSDOF 13
ENDMDL
MODEL       56
REMARK 921   NORMALIZED FREE ENERGY PREDICTED BY IDOCK:   -5.10 KCAL/MOL
REMARK 922        TOTAL FREE ENERGY PREDICTED BY IDOCK:  -11.73 KCAL/MOL
REMARK 923 INTER-LIGAND FREE ENERGY PREDICTED BY IDOCK:   -8.57 KCAL/MOL
REMARK 924 INTRA-LIGAND FREE ENERGY PREDICTED BY IDOCK:   -3.16 KCAL/MOL
REMARK 927      BINDING AFFINITY PREDICTED BY RF-SCORE:    0.00 PKD
ROOT
HETATM    1  O   UNL     1      -8.056   6.346  71.843  1.00  0.00    -0.108 OA 
HETATM    2  H   UNL     1      -7.617   5.827  71.180  1.00  0.00     0.000 HD 
HETATM    3  C   UNL     1      -9.382   6.680  71.782  1.00  0.00    -0.148 A  
HETATM    4  C   UNL     1     -10.026   7.439  72.755  1.00  0.00    -0.215 A  
HETATM    5  C   UNL     1     -11.392   7.709  72.644  1.00  0.00    -0.423 A  
HETATM    6  O   UNL     1      -9.379   7.949  73.844  1.00  0.00    -0.349 OA 
HETATM    7  H   UNL     1      -9.818   8.468  74.507  1.00  0.00     0.000 HD 
HETATM    8  C   UNL     1     -12.126   7.207  71.563  1.00  0.00    -0.377 A  
HETATM    9  C   UNL     1     -10.091   6.216  70.679  1.00  0.00    -0.240 A  
HETATM   10  C   UNL     1     -11.458   6.480  70.565  1.00  0.00    -0.448 A  
ENDROOT
BRANCH   8  11
HETATM   11  C   UNL     1     -13.611   7.451  71.459  1.00  0.00    -0.454 C  
BRANCH  11  12
HETATM   12  C   UNL     1     -13.975   8.885  71.850  1.00  0.00    -0.419 C  
BRANCH  12  13
HETATM   13  N   UNL     1     -13.627   9.819  70.772  1.00  0.00    -0.547 NA 
HETATM   14  H   UNL     1     -14.448  10.125  70.249  1.00  0.00     0.000 HD 
BRANCH  13  15
HETATM   15  C   UNL     1     -12.872  10.942  71.320  1.00  0.00    -0.433 C  
BRANCH  15  16
HETATM   16  C   UNL     1     -11.891  11.481  70.285  1.00  0.00    -0.431 C  
BRANCH  16  17
HETATM   17  C   UNL     1     -11.453  10.348  69.361  1.00  0.00    -0.292 C  
BRANCH  17  18
HETATM   18  C   UNL     1     -10.072   9.838  69.737  1.00  0.00    -0.268 C  
BRANCH  18  19
HETATM   19  C   UNL     1      -9.421   9.109  68.563  1.00  0.00    -0.151 C  
BRANCH  19  20
HETATM   20  C   UNL     1     -10.513   8.566  67.651  1.00  0.00    -0.241 C  
BRANCH  20  21
HETATM   21  N   UNL     1     -10.032   8.433  66.278  1.00  0.00    -0.448 NA 
HETATM   22  H   UNL     1     -10.789   8.199  65.637  1.00  0.00     0.000 HD 
BRANCH  21  23
HETATM   23  C   UNL     1      -9.312   9.640  65.848  1.00  0.00    -0.218 C  
BRANCH  23  24
HETATM   24  C   UNL     1     -10.202  10.631  65.083  1.00  0.00    -0.368 C  
BRANCH  24  25
HETATM   25  C   UNL     1     -10.561  11.835  65.913  1.00  0.00    -0.314 A  
HETATM   26  C   UNL     1     -11.819  12.431  65.767  1.00  0.00    -0.467 A  
HETATM   27  C   UNL     1     -12.165  13.541  66.540  1.00  0.00    -0.433 A  
HETATM   28  C   UNL     1     -11.251  14.060  67.454  1.00  0.00    -0.328 A  
HETATM   29  C   UNL     1      -9.992  13.477  67.595  1.00  0.00    -0.229 A  
HETATM   30  C   UNL     1      -9.646  12.369  66.823  1.00  0.00    -0.224 A  
ENDBRANCH  24  25
ENDBRANCH  23  24
ENDBRANCH  21  23
ENDBRANCH  20  21
ENDBRANCH  19  20
ENDBRANCH  18  19
ENDBRANCH  17  18
ENDBRANCH  16  17
ENDBRANCH  15  16
ENDBRANCH  13  15
ENDBRANCH  12  13
ENDBRANCH  11  12
ENDBRANCH   8  11
TORSDOF 13
ENDMDL
MODEL       57
REMARK 921   NORMALIZED FREE ENERGY PREDICTED BY IDOCK:   -5.10 KCAL/MOL
REMARK 922        TOTAL FREE ENERGY PREDICTED BY IDOCK:  -11.72 KCAL/MOL
REMARK 923 INTER-LIGAND FREE ENERGY PREDICTED BY IDOCK:   -9.69 KCAL/MOL
REMARK 924 INTRA-LIGAND FREE ENERGY PREDICTED BY IDOCK:   -2.03 KCAL/MOL
REMARK 927      BINDING AFFINITY PREDICTED BY RF-SCORE:    0.00 PKD
ROOT
HETATM    1  O   UNL     1     -11.530  16.326  63.801  1.00  0.00    -1.475 OA 
HETATM    2  H   UNL     1     -11.226  17.197  64.026  1.00  0.00     0.000 HD 
HETATM    3  C   UNL     1     -11.532  15.278  64.682  1.00  0.00    -0.354 A  
HETATM    4  C   UNL     1     -11.977  14.001  64.353  1.00  0.00    -0.454 A  
HETATM    5  C   UNL     1     -11.985  12.990  65.316  1.00  0.00    -0.446 A  
HETATM    6  O   UNL     1     -12.422  13.672  63.104  1.00  0.00    -1.033 OA 
HETATM    7  H   UNL     1     -12.725  12.801  62.879  1.00  0.00     0.000 HD 
HETATM    8  C   UNL     1     -11.558  13.256  66.622  1.00  0.00    -0.408 A  
HETATM    9  C   UNL     1     -11.060  15.541  65.964  1.00  0.00    -0.185 A  
HETATM   10  C   UNL     1     -11.069  14.535  66.932  1.00  0.00    -0.325 A  
ENDROOT
BRANCH   8  11
HETATM   11  C   UNL     1     -11.607  12.184  67.683  1.00  0.00    -0.413 C  
BRANCH  11  12
HETATM   12  C   UNL     1     -11.112  10.839  67.149  1.00  0.00    -0.227 C  
BRANCH  12  13
HETATM   13  N   UNL     1     -10.037  10.310  67.996  1.00  0.00    -0.156 NA 
HETATM   14  H   UNL     1     -10.037   9.290  68.025  1.00  0.00     0.000 HD 
BRANCH  13  15
HETATM   15  C   UNL     1      -8.754  10.849  67.554  1.00  0.00    -0.130 C  
BRANCH  15  16
HETATM   16  C   UNL     1      -8.078  11.615  68.687  1.00  0.00    -0.121 C  
BRANCH  16  17
HETATM   17  C   UNL     1      -7.948  13.086  68.298  1.00  0.00    -0.151 C  
BRANCH  17  18
HETATM   18  C   UNL     1      -6.706  13.320  67.456  1.00  0.00    -0.156 C  
BRANCH  18  19
HETATM   19  C   UNL     1      -5.696  14.190  68.203  1.00  0.00    -0.128 C  
BRANCH  19  20
HETATM   20  C   UNL     1      -6.126  15.646  68.099  1.00  0.00    -0.129 C  
BRANCH  20  21
HETATM   21  N   UNL     1      -5.419  16.326  67.016  1.00  0.00    -0.347 NA 
HETATM   22  H   UNL     1      -5.176  15.682  66.264  1.00  0.00     0.000 HD 
BRANCH  21  23
HETATM   23  C   UNL     1      -6.189  17.474  66.517  1.00  0.00    -0.214 C  
BRANCH  23  24
HETATM   24  C   UNL     1      -7.674  17.150  66.292  1.00  0.00    -0.350 C  
BRANCH  24  25
HETATM   25  C   UNL     1      -8.584  18.116  67.003  1.00  0.00    -0.260 A  
HETATM   26  C   UNL     1      -8.890  19.348  66.414  1.00  0.00    -0.385 A  
HETATM   27  C   UNL     1      -9.741  20.245  67.062  1.00  0.00    -0.598 A  
HETATM   28  C   UNL     1     -10.281  19.914  68.302  1.00  0.00    -0.562 A  
HETATM   29  C   UNL     1      -9.970  18.693  68.899  1.00  0.00    -0.399 A  
HETATM   30  C   UNL     1      -9.121  17.797  68.253  1.00  0.00    -0.281 A  
ENDBRANCH  24  25
ENDBRANCH  23  24
ENDBRANCH  21  23
ENDBRANCH  20  21
ENDBRANCH  19  20
ENDBRANCH  18  19
ENDBRANCH  17  18
ENDBRANCH  16  17
ENDBRANCH  15  16
ENDBRANCH  13  15
ENDBRANCH  12  13
ENDBRANCH  11  12
ENDBRANCH   8  11
TORSDOF 13
ENDMDL
MODEL       58
REMARK 921   NORMALIZED FREE ENERGY PREDICTED BY IDOCK:   -5.09 KCAL/MOL
REMARK 922        TOTAL FREE ENERGY PREDICTED BY IDOCK:  -11.72 KCAL/MOL
REMARK 923 INTER-LIGAND FREE ENERGY PREDICTED BY IDOCK:   -9.52 KCAL/MOL
REMARK 924 INTRA-LIGAND FREE ENERGY PREDICTED BY IDOCK:   -2.20 KCAL/MOL
REMARK 927      BINDING AFFINITY PREDICTED BY RF-SCORE:    0.00 PKD
ROOT
HETATM    1  O   UNL     1     -12.306  13.398  62.741  1.00  0.00    -0.812 OA 
HETATM    2  H   UNL     1     -12.492  12.529  62.405  1.00  0.00     0.000 HD 
HETATM    3  C   UNL     1     -12.143  13.672  64.072  1.00  0.00    -0.425 A  
HETATM    4  C   UNL     1     -11.870  14.945  64.564  1.00  0.00    -0.396 A  
HETATM    5  C   UNL     1     -11.678  15.141  65.933  1.00  0.00    -0.007 A  
HETATM    6  O   UNL     1     -11.776  16.044  63.759  1.00  0.00    -1.288 OA 
HETATM    7  H   UNL     1     -11.590  16.913  64.095  1.00  0.00     0.000 HD 
HETATM    8  C   UNL     1     -11.745  14.059  66.818  1.00  0.00    -0.430 A  
HETATM    9  C   UNL     1     -12.259  12.597  64.947  1.00  0.00    -0.531 A  
HETATM   10  C   UNL     1     -12.064  12.788  66.317  1.00  0.00    -0.400 A  
ENDROOT
BRANCH   8  11
HETATM   11  C   UNL     1     -11.491  14.252  68.293  1.00  0.00    -0.334 C  
BRANCH  11  12
HETATM   12  C   UNL     1     -11.559  15.728  68.689  1.00  0.00    -0.386 C  
BRANCH  12  13
HETATM   13  N   UNL     1     -10.298  16.158  69.303  1.00  0.00    -0.246 NA 
HETATM   14  H   UNL     1      -9.654  15.379  69.444  1.00  0.00     0.000 HD 
BRANCH  13  15
HETATM   15  C   UNL     1      -9.703  17.227  68.506  1.00  0.00    -0.296 C  
BRANCH  15  16
HETATM   16  C   UNL     1      -8.451  16.727  67.792  1.00  0.00    -0.196 C  
BRANCH  16  17
HETATM   17  C   UNL     1      -7.957  15.450  68.467  1.00  0.00    -0.140 C  
BRANCH  17  18
HETATM   18  C   UNL     1      -7.389  14.478  67.448  1.00  0.00    -0.183 C  
BRANCH  18  19
HETATM   19  C   UNL     1      -8.167  13.163  67.454  1.00  0.00    -0.187 C  
BRANCH  19  20
HETATM   20  C   UNL     1      -7.337  12.102  68.163  1.00  0.00    -0.103 C  
BRANCH  20  21
HETATM   21  N   UNL     1      -8.095  11.480  69.247  1.00  0.00    -0.359 NA 
HETATM   22  H   UNL     1      -8.826  12.099  69.596  1.00  0.00     0.000 HD 
BRANCH  21  23
HETATM   23  C   UNL     1      -8.638  10.178  68.836  1.00  0.00    -0.141 C  
BRANCH  23  24
HETATM   24  C   UNL     1     -10.130  10.235  68.474  1.00  0.00    -0.181 C  
BRANCH  24  25
HETATM   25  C   UNL     1     -11.017  10.126  69.685  1.00  0.00    -0.305 A  
HETATM   26  C   UNL     1     -12.075  11.026  69.858  1.00  0.00    -0.435 A  
HETATM   27  C   UNL     1     -12.909  10.925  70.973  1.00  0.00    -0.472 A  
HETATM   28  C   UNL     1     -12.682   9.929  71.919  1.00  0.00    -0.501 A  
HETATM   29  C   UNL     1     -11.622   9.038  71.758  1.00  0.00    -0.444 A  
HETATM   30  C   UNL     1     -10.789   9.137  70.646  1.00  0.00    -0.321 A  
ENDBRANCH  24  25
ENDBRANCH  23  24
ENDBRANCH  21  23
ENDBRANCH  20  21
ENDBRANCH  19  20
ENDBRANCH  18  19
ENDBRANCH  17  18
ENDBRANCH  16  17
ENDBRANCH  15  16
ENDBRANCH  13  15
ENDBRANCH  12  13
ENDBRANCH  11  12
ENDBRANCH   8  11
TORSDOF 13
ENDMDL
MODEL       59
REMARK 921   NORMALIZED FREE ENERGY PREDICTED BY IDOCK:   -5.09 KCAL/MOL
REMARK 922        TOTAL FREE ENERGY PREDICTED BY IDOCK:  -11.72 KCAL/MOL
REMARK 923 INTER-LIGAND FREE ENERGY PREDICTED BY IDOCK:   -9.68 KCAL/MOL
REMARK 924 INTRA-LIGAND FREE ENERGY PREDICTED BY IDOCK:   -2.04 KCAL/MOL
REMARK 927      BINDING AFFINITY PREDICTED BY RF-SCORE:    0.00 PKD
ROOT
HETATM    1  O   UNL     1      -9.267   6.690  74.086  1.00  0.00    -0.162 OA 
HETATM    2  H   UNL     1      -9.709   6.034  74.612  1.00  0.00     0.000 HD 
HETATM    3  C   UNL     1      -9.913   7.500  73.192  1.00  0.00    -0.289 A  
HETATM    4  C   UNL     1      -9.266   8.462  72.422  1.00  0.00    -0.275 A  
HETATM    5  C   UNL     1      -9.998   9.278  71.557  1.00  0.00    -0.281 A  
HETATM    6  O   UNL     1      -7.915   8.659  72.468  1.00  0.00    -0.339 OA 
HETATM    7  H   UNL     1      -7.473   9.315  71.943  1.00  0.00     0.000 HD 
HETATM    8  C   UNL     1     -11.388   9.145  71.468  1.00  0.00    -0.439 A  
HETATM    9  C   UNL     1     -11.288   7.326  73.076  1.00  0.00    -0.246 A  
HETATM   10  C   UNL     1     -12.025   8.142  72.215  1.00  0.00    -0.434 A  
ENDROOT
BRANCH   8  11
HETATM   11  C   UNL     1     -12.194  10.053  70.573  1.00  0.00    -0.308 C  
BRANCH  11  12
HETATM   12  C   UNL     1     -11.317  10.723  69.513  1.00  0.00    -0.289 C  
BRANCH  12  13
HETATM   13  N   UNL     1     -11.898  10.550  68.177  1.00  0.00    -0.774 NA 
HETATM   14  H   UNL     1     -12.406  11.379  67.867  1.00  0.00     0.000 HD 
BRANCH  13  15
HETATM   15  C   UNL     1     -10.853  10.160  67.234  1.00  0.00    -0.230 C  
BRANCH  15  16
HETATM   16  C   UNL     1      -9.729  11.191  67.228  1.00  0.00    -0.186 C  
BRANCH  16  17
HETATM   17  C   UNL     1      -9.485  11.669  65.799  1.00  0.00    -0.244 C  
BRANCH  17  18
HETATM   18  C   UNL     1     -10.306  10.864  64.806  1.00  0.00    -0.391 C  
BRANCH  18  19
HETATM   19  C   UNL     1     -10.648  11.701  63.575  1.00  0.00    -0.496 C  
BRANCH  19  20
HETATM   20  C   UNL     1     -12.024  12.323  63.767  1.00  0.00    -0.519 C  
BRANCH  20  21
HETATM   21  N   UNL     1     -12.052  13.698  63.276  1.00  0.00    -0.975 NA 
HETATM   22  H   UNL     1     -12.732  13.815  62.526  1.00  0.00     0.000 HD 
BRANCH  21  23
HETATM   23  C   UNL     1     -12.286  14.649  64.372  1.00  0.00    -0.452 C  
BRANCH  23  24
HETATM   24  C   UNL     1     -12.569  13.960  65.716  1.00  0.00    -0.533 C  
BRANCH  24  25
HETATM   25  C   UNL     1     -11.614  14.397  66.795  1.00  0.00    -0.399 A  
HETATM   26  C   UNL     1     -11.886  14.087  68.133  1.00  0.00    -0.402 A  
HETATM   27  C   UNL     1     -11.000  14.479  69.138  1.00  0.00    -0.286 A  
HETATM   28  C   UNL     1      -9.847  15.186  68.809  1.00  0.00    -0.223 A  
HETATM   29  C   UNL     1      -9.578  15.507  67.479  1.00  0.00    -0.212 A  
HETATM   30  C   UNL     1     -10.461  15.117  66.474  1.00  0.00    -0.292 A  
ENDBRANCH  24  25
ENDBRANCH  23  24
ENDBRANCH  21  23
ENDBRANCH  20  21
ENDBRANCH  19  20
ENDBRANCH  18  19
ENDBRANCH  17  18
ENDBRANCH  16  17
ENDBRANCH  15  16
ENDBRANCH  13  15
ENDBRANCH  12  13
ENDBRANCH  11  12
ENDBRANCH   8  11
TORSDOF 13
ENDMDL
MODEL       60
REMARK 921   NORMALIZED FREE ENERGY PREDICTED BY IDOCK:   -5.09 KCAL/MOL
REMARK 922        TOTAL FREE ENERGY PREDICTED BY IDOCK:  -11.71 KCAL/MOL
REMARK 923 INTER-LIGAND FREE ENERGY PREDICTED BY IDOCK:  -10.13 KCAL/MOL
REMARK 924 INTRA-LIGAND FREE ENERGY PREDICTED BY IDOCK:   -1.58 KCAL/MOL
REMARK 927      BINDING AFFINITY PREDICTED BY RF-SCORE:    0.00 PKD
ROOT
HETATM    1  O   UNL     1     -11.202  10.569  70.695  1.00  0.00    -0.359 OA 
HETATM    2  H   UNL     1     -11.230  11.401  71.151  1.00  0.00     0.000 HD 
HETATM    3  C   UNL     1     -10.941  10.452  69.356  1.00  0.00    -0.251 A  
HETATM    4  C   UNL     1     -10.898   9.233  68.687  1.00  0.00    -0.078 A  
HETATM    5  C   UNL     1     -10.588   9.189  67.326  1.00  0.00    -0.303 A  
HETATM    6  O   UNL     1     -11.148   8.041  69.306  1.00  0.00    -0.437 OA 
HETATM    7  H   UNL     1     -11.119   7.209  68.850  1.00  0.00     0.000 HD 
HETATM    8  C   UNL     1     -10.304  10.369  66.628  1.00  0.00    -0.292 A  
HETATM    9  C   UNL     1     -10.708  11.635  68.662  1.00  0.00    -0.246 A  
HETATM   10  C   UNL     1     -10.394  11.597  67.302  1.00  0.00    -0.232 A  
ENDROOT
BRANCH   8  11
HETATM   11  C   UNL     1      -9.921  10.329  65.170  1.00  0.00    -0.395 C  
BRANCH  11  12
HETATM   12  C   UNL     1     -10.306  11.622  64.450  1.00  0.00    -0.313 C  
BRANCH  12  13
HETATM   13  N   UNL     1     -11.271  11.350  63.378  1.00  0.00    -0.791 NA 
HETATM   14  H   UNL     1     -11.506  10.359  63.315  1.00  0.00     0.000 HD 
BRANCH  13  15
HETATM   15  C   UNL     1     -12.455  12.185  63.560  1.00  0.00    -0.555 C  
BRANCH  15  16
HETATM   16  C   UNL     1     -12.309  13.054  64.805  1.00  0.00    -0.490 C  
BRANCH  16  17
HETATM   17  C   UNL     1     -12.444  14.524  64.417  1.00  0.00    -0.335 C  
BRANCH  17  18
HETATM   18  C   UNL     1     -11.159  15.284  64.700  1.00  0.00    -0.346 C  
BRANCH  18  19
HETATM   19  C   UNL     1     -10.818  15.246  66.189  1.00  0.00    -0.320 C  
BRANCH  19  20
HETATM   20  C   UNL     1     -10.040  16.503  66.549  1.00  0.00    -0.299 C  
BRANCH  20  21
HETATM   21  N   UNL     1     -10.475  17.039  67.837  1.00  0.00    -0.341 NA 
HETATM   22  H   UNL     1     -10.981  17.917  67.727  1.00  0.00     0.000 HD 
BRANCH  21  23
HETATM   23  C   UNL     1     -11.266  16.049  68.583  1.00  0.00    -0.366 C  
BRANCH  23  24
HETATM   24  C   UNL     1     -10.725  15.788  69.997  1.00  0.00    -0.347 C  
BRANCH  24  25
HETATM   25  C   UNL     1     -11.759  15.172  70.900  1.00  0.00    -0.378 A  
HETATM   26  C   UNL     1     -12.234  15.887  72.006  1.00  0.00    -0.570 A  
HETATM   27  C   UNL     1     -13.201  15.328  72.843  1.00  0.00    -0.610 A  
HETATM   28  C   UNL     1     -13.689  14.050  72.579  1.00  0.00    -0.651 A  
HETATM   29  C   UNL     1     -13.211  13.329  71.486  1.00  0.00    -0.383 A  
HETATM   30  C   UNL     1     -12.246  13.887  70.650  1.00  0.00    -0.443 A  
ENDBRANCH  24  25
ENDBRANCH  23  24
ENDBRANCH  21  23
ENDBRANCH  20  21
ENDBRANCH  19  20
ENDBRANCH  18  19
ENDBRANCH  17  18
ENDBRANCH  16  17
ENDBRANCH  15  16
ENDBRANCH  13  15
ENDBRANCH  12  13
ENDBRANCH  11  12
ENDBRANCH   8  11
TORSDOF 13
ENDMDL
MODEL       61
REMARK 921   NORMALIZED FREE ENERGY PREDICTED BY IDOCK:   -5.09 KCAL/MOL
REMARK 922        TOTAL FREE ENERGY PREDICTED BY IDOCK:  -11.71 KCAL/MOL
REMARK 923 INTER-LIGAND FREE ENERGY PREDICTED BY IDOCK:  -10.52 KCAL/MOL
REMARK 924 INTRA-LIGAND FREE ENERGY PREDICTED BY IDOCK:   -1.19 KCAL/MOL
REMARK 927      BINDING AFFINITY PREDICTED BY RF-SCORE:    0.00 PKD
ROOT
HETATM    1  O   UNL     1     -14.246   8.947  73.375  1.00  0.00    -1.241 OA 
HETATM    2  H   UNL     1     -14.441   8.085  73.722  1.00  0.00     0.000 HD 
HETATM    3  C   UNL     1     -13.305   9.175  72.408  1.00  0.00    -0.463 A  
HETATM    4  C   UNL     1     -13.019  10.438  71.899  1.00  0.00    -0.450 A  
HETATM    5  C   UNL     1     -12.070  10.589  70.886  1.00  0.00    -0.487 A  
HETATM    6  O   UNL     1     -13.634  11.572  72.348  1.00  0.00    -0.544 OA 
HETATM    7  H   UNL     1     -13.439  12.435  72.002  1.00  0.00     0.000 HD 
HETATM    8  C   UNL     1     -11.410   9.470  70.365  1.00  0.00    -0.318 A  
HETATM    9  C   UNL     1     -12.620   8.062  71.931  1.00  0.00    -0.359 A  
HETATM   10  C   UNL     1     -11.673   8.206  70.916  1.00  0.00    -0.259 A  
ENDROOT
BRANCH   8  11
HETATM   11  C   UNL     1     -10.419   9.616  69.237  1.00  0.00    -0.232 C  
BRANCH  11  12
HETATM   12  C   UNL     1     -10.106   8.269  68.583  1.00  0.00    -0.197 C  
BRANCH  12  13
HETATM   13  N   UNL     1     -10.164   8.377  67.121  1.00  0.00    -0.263 NA 
HETATM   14  H   UNL     1     -11.106   8.220  66.761  1.00  0.00     0.000 HD 
BRANCH  13  15
HETATM   15  C   UNL     1      -9.623   9.668  66.703  1.00  0.00    -0.187 C  
BRANCH  15  16
HETATM   16  C   UNL     1     -10.100  10.016  65.297  1.00  0.00    -0.299 C  
BRANCH  16  17
HETATM   17  C   UNL     1     -10.341  11.520  65.200  1.00  0.00    -0.329 C  
BRANCH  17  18
HETATM   18  C   UNL     1     -11.328  11.984  66.258  1.00  0.00    -0.415 C  
BRANCH  18  19
HETATM   19  C   UNL     1     -12.380  12.913  65.653  1.00  0.00    -0.482 C  
BRANCH  19  20
HETATM   20  C   UNL     1     -12.304  12.823  64.136  1.00  0.00    -0.407 C  
BRANCH  20  21
HETATM   21  N   UNL     1     -12.208  14.152  63.536  1.00  0.00    -1.090 NA 
HETATM   22  H   UNL     1     -12.965  14.320  62.874  1.00  0.00     0.000 HD 
BRANCH  21  23
HETATM   23  C   UNL     1     -12.150  15.198  64.567  1.00  0.00    -0.301 C  
BRANCH  23  24
HETATM   24  C   UNL     1     -10.741  15.779  64.757  1.00  0.00    -0.282 C  
BRANCH  24  25
HETATM   25  C   UNL     1     -10.635  16.631  65.993  1.00  0.00    -0.238 A  
HETATM   26  C   UNL     1     -10.542  18.023  65.875  1.00  0.00    -0.225 A  
HETATM   27  C   UNL     1     -10.454  18.821  67.017  1.00  0.00    -0.474 A  
HETATM   28  C   UNL     1     -10.453  18.228  68.277  1.00  0.00    -0.324 A  
HETATM   29  C   UNL     1     -10.534  16.842  68.400  1.00  0.00    -0.339 A  
HETATM   30  C   UNL     1     -10.621  16.044  67.261  1.00  0.00    -0.313 A  
ENDBRANCH  24  25
ENDBRANCH  23  24
ENDBRANCH  21  23
ENDBRANCH  20  21
ENDBRANCH  19  20
ENDBRANCH  18  19
ENDBRANCH  17  18
ENDBRANCH  16  17
ENDBRANCH  15  16
ENDBRANCH  13  15
ENDBRANCH  12  13
ENDBRANCH  11  12
ENDBRANCH   8  11
TORSDOF 13
ENDMDL
MODEL       62
REMARK 921   NORMALIZED FREE ENERGY PREDICTED BY IDOCK:   -5.06 KCAL/MOL
REMARK 922        TOTAL FREE ENERGY PREDICTED BY IDOCK:  -11.65 KCAL/MOL
REMARK 923 INTER-LIGAND FREE ENERGY PREDICTED BY IDOCK:  -10.19 KCAL/MOL
REMARK 924 INTRA-LIGAND FREE ENERGY PREDICTED BY IDOCK:   -1.47 KCAL/MOL
REMARK 927      BINDING AFFINITY PREDICTED BY RF-SCORE:    0.00 PKD
ROOT
HETATM    1  O   UNL     1     -14.102   8.866  73.296  1.00  0.00    -1.211 OA 
HETATM    2  H   UNL     1     -14.172   7.978  73.626  1.00  0.00     0.000 HD 
HETATM    3  C   UNL     1     -13.134   9.268  72.416  1.00  0.00    -0.406 A  
HETATM    4  C   UNL     1     -13.032  10.569  71.932  1.00  0.00    -0.447 A  
HETATM    5  C   UNL     1     -12.040  10.897  71.005  1.00  0.00    -0.425 A  
HETATM    6  O   UNL     1     -13.872  11.572  72.324  1.00  0.00    -0.338 OA 
HETATM    7  H   UNL     1     -13.801  12.460  71.994  1.00  0.00     0.000 HD 
HETATM    8  C   UNL     1     -11.151   9.918  70.545  1.00  0.00    -0.398 A  
HETATM    9  C   UNL     1     -12.227   8.298  72.002  1.00  0.00    -0.398 A  
HETATM   10  C   UNL     1     -11.236   8.620  71.073  1.00  0.00    -0.321 A  
ENDROOT
BRANCH   8  11
HETATM   11  C   UNL     1     -10.107  10.250  69.508  1.00  0.00    -0.260 C  
BRANCH  11  12
HETATM   12  C   UNL     1     -10.430   9.608  68.158  1.00  0.00    -0.222 C  
BRANCH  12  13
HETATM   13  N   UNL     1     -11.589  10.262  67.538  1.00  0.00    -0.454 NA 
HETATM   14  H   UNL     1     -12.220  10.663  68.232  1.00  0.00     0.000 HD 
BRANCH  13  15
HETATM   15  C   UNL     1     -11.132  11.255  66.570  1.00  0.00    -0.216 C  
BRANCH  15  16
HETATM   16  C   UNL     1      -9.837  10.798  65.907  1.00  0.00    -0.290 C  
BRANCH  16  17
HETATM   17  C   UNL     1      -8.786  11.898  66.033  1.00  0.00    -0.007 C  
BRANCH  17  18
HETATM   18  C   UNL     1      -9.380  13.153  66.649  1.00  0.00    -0.242 C  
BRANCH  18  19
HETATM   19  C   UNL     1      -8.324  13.929  67.434  1.00  0.00    -0.208 C  
BRANCH  19  20
HETATM   20  C   UNL     1      -9.011  14.719  68.539  1.00  0.00    -0.182 C  
BRANCH  20  21
HETATM   21  N   UNL     1      -9.685  15.898  68.000  1.00  0.00    -0.215 NA 
HETATM   22  H   UNL     1     -10.079  15.715  67.077  1.00  0.00     0.000 HD 
BRANCH  21  23
HETATM   23  C   UNL     1     -10.704  16.400  68.932  1.00  0.00    -0.319 C  
BRANCH  23  24
HETATM   24  C   UNL     1     -11.828  15.386  69.198  1.00  0.00    -0.357 C  
BRANCH  24  25
HETATM   25  C   UNL     1     -12.392  15.510  70.588  1.00  0.00    -0.462 A  
HETATM   26  C   UNL     1     -11.611  16.060  71.611  1.00  0.00    -0.538 A  
HETATM   27  C   UNL     1     -12.130  16.188  72.901  1.00  0.00    -0.643 A  
HETATM   28  C   UNL     1     -13.428  15.761  73.170  1.00  0.00    -0.652 A  
HETATM   29  C   UNL     1     -14.206  15.202  72.158  1.00  0.00    -0.656 A  
HETATM   30  C   UNL     1     -13.689  15.073  70.870  1.00  0.00    -0.319 A  
ENDBRANCH  24  25
ENDBRANCH  23  24
ENDBRANCH  21  23
ENDBRANCH  20  21
ENDBRANCH  19  20
ENDBRANCH  18  19
ENDBRANCH  17  18
ENDBRANCH  16  17
ENDBRANCH  15  16
ENDBRANCH  13  15
ENDBRANCH  12  13
ENDBRANCH  11  12
ENDBRANCH   8  11
TORSDOF 13
ENDMDL
MODEL       63
REMARK 921   NORMALIZED FREE ENERGY PREDICTED BY IDOCK:   -5.06 KCAL/MOL
REMARK 922        TOTAL FREE ENERGY PREDICTED BY IDOCK:  -11.65 KCAL/MOL
REMARK 923 INTER-LIGAND FREE ENERGY PREDICTED BY IDOCK:  -10.28 KCAL/MOL
REMARK 924 INTRA-LIGAND FREE ENERGY PREDICTED BY IDOCK:   -1.37 KCAL/MOL
REMARK 927      BINDING AFFINITY PREDICTED BY RF-SCORE:    0.00 PKD
ROOT
HETATM    1  O   UNL     1     -13.098  11.663  62.715  1.00  0.00    -0.725 OA 
HETATM    2  H   UNL     1     -14.014  11.914  62.704  1.00  0.00     0.000 HD 
HETATM    3  C   UNL     1     -12.225  12.043  63.699  1.00  0.00    -0.538 A  
HETATM    4  C   UNL     1     -10.883  11.676  63.716  1.00  0.00    -0.424 A  
HETATM    5  C   UNL     1     -10.060  12.071  64.773  1.00  0.00    -0.286 A  
HETATM    6  O   UNL     1     -10.308  10.928  62.728  1.00  0.00    -0.745 OA 
HETATM    7  H   UNL     1      -9.392  10.677  62.739  1.00  0.00     0.000 HD 
HETATM    8  C   UNL     1     -10.582  12.826  65.830  1.00  0.00    -0.295 A  
HETATM    9  C   UNL     1     -12.742  12.835  64.719  1.00  0.00    -0.469 A  
HETATM   10  C   UNL     1     -11.925  13.229  65.780  1.00  0.00    -0.463 A  
ENDROOT
BRANCH   8  11
HETATM   11  C   UNL     1      -9.714  13.217  67.001  1.00  0.00    -0.241 C  
BRANCH  11  12
HETATM   12  C   UNL     1      -8.410  12.417  67.028  1.00  0.00    -0.157 C  
BRANCH  12  13
HETATM   13  N   UNL     1      -7.263  13.305  67.245  1.00  0.00    -0.347 NA 
HETATM   14  H   UNL     1      -6.771  13.517  66.376  1.00  0.00     0.000 HD 
BRANCH  13  15
HETATM   15  C   UNL     1      -7.702  14.514  67.937  1.00  0.00    -0.140 C  
BRANCH  15  16
HETATM   16  C   UNL     1      -7.112  15.753  67.273  1.00  0.00    -0.245 C  
BRANCH  16  17
HETATM   17  C   UNL     1      -7.213  16.939  68.229  1.00  0.00    -0.186 C  
BRANCH  17  18
HETATM   18  C   UNL     1      -8.179  17.986  67.701  1.00  0.00    -0.241 C  
BRANCH  18  19
HETATM   19  C   UNL     1      -8.803  17.536  66.381  1.00  0.00    -0.269 C  
BRANCH  19  20
HETATM   20  C   UNL     1     -10.293  17.309  66.591  1.00  0.00    -0.305 C  
BRANCH  20  21
HETATM   21  N   UNL     1     -10.648  17.428  68.004  1.00  0.00    -0.386 NA 
HETATM   22  H   UNL     1     -11.319  18.180  68.160  1.00  0.00     0.000 HD 
BRANCH  21  23
HETATM   23  C   UNL     1     -11.134  16.149  68.539  1.00  0.00    -0.357 C  
BRANCH  23  24
HETATM   24  C   UNL     1     -10.684  15.891  69.985  1.00  0.00    -0.343 C  
BRANCH  24  25
HETATM   25  C   UNL     1     -11.847  15.734  70.927  1.00  0.00    -0.451 A  
HETATM   26  C   UNL     1     -13.042  15.166  70.470  1.00  0.00    -0.320 A  
HETATM   27  C   UNL     1     -14.122  15.006  71.340  1.00  0.00    -0.576 A  
HETATM   28  C   UNL     1     -14.011  15.421  72.665  1.00  0.00    -0.590 A  
HETATM   29  C   UNL     1     -12.827  15.998  73.122  1.00  0.00    -0.620 A  
HETATM   30  C   UNL     1     -11.748  16.158  72.255  1.00  0.00    -0.564 A  
ENDBRANCH  24  25
ENDBRANCH  23  24
ENDBRANCH  21  23
ENDBRANCH  20  21
ENDBRANCH  19  20
ENDBRANCH  18  19
ENDBRANCH  17  18
ENDBRANCH  16  17
ENDBRANCH  15  16
ENDBRANCH  13  15
ENDBRANCH  12  13
ENDBRANCH  11  12
ENDBRANCH   8  11
TORSDOF 13
ENDMDL
MODEL       64
REMARK 921   NORMALIZED FREE ENERGY PREDICTED BY IDOCK:   -5.05 KCAL/MOL
REMARK 922        TOTAL FREE ENERGY PREDICTED BY IDOCK:  -11.64 KCAL/MOL
REMARK 923 INTER-LIGAND FREE ENERGY PREDICTED BY IDOCK:   -9.02 KCAL/MOL
REMARK 924 INTRA-LIGAND FREE ENERGY PREDICTED BY IDOCK:   -2.62 KCAL/MOL
REMARK 927      BINDING AFFINITY PREDICTED BY RF-SCORE:    0.00 PKD
ROOT
HETATM    1  O   UNL     1     -13.316  10.743  71.640  1.00  0.00    -0.370 OA 
HETATM    2  H   UNL     1     -13.053   9.920  71.246  1.00  0.00     0.000 HD 
HETATM    3  C   UNL     1     -12.954  11.965  71.142  1.00  0.00    -0.172 A  
HETATM    4  C   UNL     1     -13.340  13.172  71.719  1.00  0.00    -0.389 A  
HETATM    5  C   UNL     1     -12.962  14.382  71.132  1.00  0.00    -0.419 A  
HETATM    6  O   UNL     1     -14.089  13.241  72.858  1.00  0.00    -0.638 OA 
HETATM    7  H   UNL     1     -14.352  14.064  73.252  1.00  0.00     0.000 HD 
HETATM    8  C   UNL     1     -12.206  14.391  69.955  1.00  0.00    -0.394 A  
HETATM    9  C   UNL     1     -12.162  11.963  69.998  1.00  0.00    -0.291 A  
HETATM   10  C   UNL     1     -11.785  13.170  69.406  1.00  0.00    -0.386 A  
ENDROOT
BRANCH   8  11
HETATM   11  C   UNL     1     -11.835  15.692  69.286  1.00  0.00    -0.378 C  
BRANCH  11  12
HETATM   12  C   UNL     1     -10.458  15.612  68.624  1.00  0.00    -0.231 C  
BRANCH  12  13
HETATM   13  N   UNL     1     -10.208  16.805  67.807  1.00  0.00    -0.292 NA 
HETATM   14  H   UNL     1      -9.411  17.344  68.146  1.00  0.00     0.000 HD 
BRANCH  13  15
HETATM   15  C   UNL     1     -10.055  16.418  66.407  1.00  0.00    -0.316 C  
BRANCH  15  16
HETATM   16  C   UNL     1      -9.989  14.900  66.278  1.00  0.00    -0.300 C  
BRANCH  16  17
HETATM   17  C   UNL     1     -10.956  14.440  65.190  1.00  0.00    -0.380 C  
BRANCH  17  18
HETATM   18  C   UNL     1     -11.917  13.390  65.721  1.00  0.00    -0.447 C  
BRANCH  18  19
HETATM   19  C   UNL     1     -12.365  12.447  64.607  1.00  0.00    -0.518 C  
BRANCH  19  20
HETATM   20  C   UNL     1     -11.498  12.686  63.378  1.00  0.00    -0.435 C  
BRANCH  20  21
HETATM   21  N   UNL     1     -11.005  11.424  62.831  1.00  0.00    -0.756 NA 
HETATM   22  H   UNL     1     -11.092  11.397  61.815  1.00  0.00     0.000 HD 
BRANCH  21  23
HETATM   23  C   UNL     1      -9.626  11.160  63.264  1.00  0.00    -0.351 C  
BRANCH  23  24
HETATM   24  C   UNL     1      -9.480   9.843  64.041  1.00  0.00    -0.231 C  
BRANCH  24  25
HETATM   25  C   UNL     1      -9.399  10.062  65.528  1.00  0.00    -0.271 A  
HETATM   26  C   UNL     1      -9.931   9.108  66.404  1.00  0.00    -0.358 A  
HETATM   27  C   UNL     1      -9.850   9.298  67.784  1.00  0.00    -0.210 A  
HETATM   28  C   UNL     1      -9.244  10.445  68.291  1.00  0.00    -0.149 A  
HETATM   29  C   UNL     1      -8.724  11.405  67.423  1.00  0.00    -0.145 A  
HETATM   30  C   UNL     1      -8.803  11.216  66.044  1.00  0.00    -0.196 A  
ENDBRANCH  24  25
ENDBRANCH  23  24
ENDBRANCH  21  23
ENDBRANCH  20  21
ENDBRANCH  19  20
ENDBRANCH  18  19
ENDBRANCH  17  18
ENDBRANCH  16  17
ENDBRANCH  15  16
ENDBRANCH  13  15
ENDBRANCH  12  13
ENDBRANCH  11  12
ENDBRANCH   8  11
TORSDOF 13
ENDMDL
MODEL       65
REMARK 921   NORMALIZED FREE ENERGY PREDICTED BY IDOCK:   -5.05 KCAL/MOL
REMARK 922        TOTAL FREE ENERGY PREDICTED BY IDOCK:  -11.64 KCAL/MOL
REMARK 923 INTER-LIGAND FREE ENERGY PREDICTED BY IDOCK:   -9.83 KCAL/MOL
REMARK 924 INTRA-LIGAND FREE ENERGY PREDICTED BY IDOCK:   -1.81 KCAL/MOL
REMARK 927      BINDING AFFINITY PREDICTED BY RF-SCORE:    0.00 PKD
ROOT
HETATM    1  O   UNL     1     -12.576  14.305  63.304  1.00  0.00    -1.069 OA 
HETATM    2  H   UNL     1     -12.620  15.242  63.450  1.00  0.00     0.000 HD 
HETATM    3  C   UNL     1     -11.731  13.475  63.991  1.00  0.00    -0.395 A  
HETATM    4  C   UNL     1     -11.667  12.101  63.778  1.00  0.00    -0.485 A  
HETATM    5  C   UNL     1     -10.806  11.312  64.544  1.00  0.00    -0.354 A  
HETATM    6  O   UNL     1     -12.421  11.463  62.835  1.00  0.00    -0.949 OA 
HETATM    7  H   UNL     1     -12.377  10.526  62.689  1.00  0.00     0.000 HD 
HETATM    8  C   UNL     1     -10.013  11.893  65.540  1.00  0.00    -0.266 A  
HETATM    9  C   UNL     1     -10.913  14.070  64.945  1.00  0.00    -0.398 A  
HETATM   10  C   UNL     1     -10.053  13.285  65.716  1.00  0.00    -0.293 A  
ENDROOT
BRANCH   8  11
HETATM   11  C   UNL     1      -9.116  11.043  66.405  1.00  0.00    -0.191 C  
BRANCH  11  12
HETATM   12  C   UNL     1      -9.465   9.558  66.291  1.00  0.00    -0.210 C  
BRANCH  12  13
HETATM   13  N   UNL     1      -8.645   8.762  67.212  1.00  0.00    -0.121 NA 
HETATM   14  H   UNL     1      -7.693   8.634  66.866  1.00  0.00     0.000 HD 
BRANCH  13  15
HETATM   15  C   UNL     1      -8.671   9.367  68.540  1.00  0.00    -0.128 C  
BRANCH  15  16
HETATM   16  C   UNL     1      -8.305   8.337  69.603  1.00  0.00    -0.123 C  
BRANCH  16  17
HETATM   17  C   UNL     1      -9.398   8.295  70.668  1.00  0.00    -0.172 C  
BRANCH  17  18
HETATM   18  C   UNL     1      -9.917   6.880  70.863  1.00  0.00    -0.200 C  
BRANCH  18  19
HETATM   19  C   UNL     1     -11.437   6.830  70.711  1.00  0.00    -0.392 C  
BRANCH  19  20
HETATM   20  C   UNL     1     -12.060   6.547  72.070  1.00  0.00    -0.312 C  
BRANCH  20  21
HETATM   21  N   UNL     1     -13.230   7.391  72.297  1.00  0.00    -0.500 NA 
HETATM   22  H   UNL     1     -13.294   7.690  73.270  1.00  0.00     0.000 HD 
BRANCH  21  23
HETATM   23  C   UNL     1     -13.244   8.538  71.377  1.00  0.00    -0.220 C  
BRANCH  23  24
HETATM   24  C   UNL     1     -13.227   9.892  72.103  1.00  0.00    -0.511 C  
BRANCH  24  25
HETATM   25  C   UNL     1     -12.719  11.004  71.226  1.00  0.00    -0.537 A  
HETATM   26  C   UNL     1     -12.957  12.337  71.582  1.00  0.00    -0.416 A  
HETATM   27  C   UNL     1     -12.479  13.375  70.780  1.00  0.00    -0.418 A  
HETATM   28  C   UNL     1     -11.770  13.082  69.618  1.00  0.00    -0.364 A  
HETATM   29  C   UNL     1     -11.540  11.756  69.252  1.00  0.00    -0.378 A  
HETATM   30  C   UNL     1     -12.016  10.719  70.052  1.00  0.00    -0.427 A  
ENDBRANCH  24  25
ENDBRANCH  23  24
ENDBRANCH  21  23
ENDBRANCH  20  21
ENDBRANCH  19  20
ENDBRANCH  18  19
ENDBRANCH  17  18
ENDBRANCH  16  17
ENDBRANCH  15  16
ENDBRANCH  13  15
ENDBRANCH  12  13
ENDBRANCH  11  12
ENDBRANCH   8  11
TORSDOF 13
ENDMDL
MODEL       66
REMARK 921   NORMALIZED FREE ENERGY PREDICTED BY IDOCK:   -5.05 KCAL/MOL
REMARK 922        TOTAL FREE ENERGY PREDICTED BY IDOCK:  -11.64 KCAL/MOL
REMARK 923 INTER-LIGAND FREE ENERGY PREDICTED BY IDOCK:   -8.93 KCAL/MOL
REMARK 924 INTRA-LIGAND FREE ENERGY PREDICTED BY IDOCK:   -2.70 KCAL/MOL
REMARK 927      BINDING AFFINITY PREDICTED BY RF-SCORE:    0.00 PKD
ROOT
HETATM    1  O   UNL     1     -12.640  15.468  70.700  1.00  0.00    -0.416 OA 
HETATM    2  H   UNL     1     -12.212  15.940  69.995  1.00  0.00     0.000 HD 
HETATM    3  C   UNL     1     -12.646  14.103  70.797  1.00  0.00    -0.362 A  
HETATM    4  C   UNL     1     -13.272  13.411  71.830  1.00  0.00    -0.431 A  
HETATM    5  C   UNL     1     -13.205  12.018  71.883  1.00  0.00    -0.469 A  
HETATM    6  O   UNL     1     -13.968  14.038  72.824  1.00  0.00    -0.669 OA 
HETATM    7  H   UNL     1     -14.396  13.566  73.529  1.00  0.00     0.000 HD 
HETATM    8  C   UNL     1     -12.496  11.307  70.908  1.00  0.00    -0.493 A  
HETATM    9  C   UNL     1     -11.980  13.405  69.796  1.00  0.00    -0.396 A  
HETATM   10  C   UNL     1     -11.907  12.011  69.846  1.00  0.00    -0.405 A  
ENDROOT
BRANCH   8  11
HETATM   11  C   UNL     1     -12.376   9.805  70.982  1.00  0.00    -0.422 C  
BRANCH  11  12
HETATM   12  C   UNL     1     -13.137   9.237  72.181  1.00  0.00    -0.443 C  
BRANCH  12  13
HETATM   13  N   UNL     1     -12.602   7.924  72.559  1.00  0.00    -0.560 NA 
HETATM   14  H   UNL     1     -13.186   7.456  73.253  1.00  0.00     0.000 HD 
BRANCH  13  15
HETATM   15  C   UNL     1     -12.410   7.110  71.362  1.00  0.00    -0.377 C  
BRANCH  15  16
HETATM   16  C   UNL     1     -11.331   6.058  71.600  1.00  0.00    -0.313 C  
BRANCH  16  17
HETATM   17  C   UNL     1     -10.738   5.627  70.262  1.00  0.00    -0.364 C  
BRANCH  17  18
HETATM   18  C   UNL     1     -11.382   6.380  69.110  1.00  0.00    -0.366 C  
BRANCH  18  19
HETATM   19  C   UNL     1     -10.782   5.950  67.773  1.00  0.00    -0.346 C  
BRANCH  19  20
HETATM   20  C   UNL     1     -10.561   7.186  66.911  1.00  0.00    -0.301 C  
BRANCH  20  21
HETATM   21  N   UNL     1     -10.981   8.396  67.613  1.00  0.00    -0.483 NA 
HETATM   22  H   UNL     1     -11.266   8.195  68.571  1.00  0.00     0.000 HD 
BRANCH  21  23
HETATM   23  C   UNL     1      -9.935   9.428  67.565  1.00  0.00    -0.199 C  
BRANCH  23  24
HETATM   24  C   UNL     1      -8.536   8.881  67.889  1.00  0.00    -0.125 C  
BRANCH  24  25
HETATM   25  C   UNL     1      -8.400   8.478  69.333  1.00  0.00    -0.119 A  
HETATM   26  C   UNL     1      -7.612   7.373  69.676  1.00  0.00    -0.095 A  
HETATM   27  C   UNL     1      -7.471   6.998  71.013  1.00  0.00    -0.081 A  
HETATM   28  C   UNL     1      -8.123   7.723  72.008  1.00  0.00    -0.126 A  
HETATM   29  C   UNL     1      -8.919   8.817  71.670  1.00  0.00    -0.301 A  
HETATM   30  C   UNL     1      -9.060   9.192  70.335  1.00  0.00    -0.270 A  
ENDBRANCH  24  25
ENDBRANCH  23  24
ENDBRANCH  21  23
ENDBRANCH  20  21
ENDBRANCH  19  20
ENDBRANCH  18  19
ENDBRANCH  17  18
ENDBRANCH  16  17
ENDBRANCH  15  16
ENDBRANCH  13  15
ENDBRANCH  12  13
ENDBRANCH  11  12
ENDBRANCH   8  11
TORSDOF 13
ENDMDL
MODEL       67
REMARK 921   NORMALIZED FREE ENERGY PREDICTED BY IDOCK:   -5.03 KCAL/MOL
REMARK 922        TOTAL FREE ENERGY PREDICTED BY IDOCK:  -11.60 KCAL/MOL
REMARK 923 INTER-LIGAND FREE ENERGY PREDICTED BY IDOCK:  -10.01 KCAL/MOL
REMARK 924 INTRA-LIGAND FREE ENERGY PREDICTED BY IDOCK:   -1.59 KCAL/MOL
REMARK 927      BINDING AFFINITY PREDICTED BY RF-SCORE:    0.00 PKD
ROOT
HETATM    1  O   UNL     1      -9.893   8.312  65.702  1.00  0.00    -0.391 OA 
HETATM    2  H   UNL     1      -9.436   9.127  65.532  1.00  0.00     0.000 HD 
HETATM    3  C   UNL     1     -10.241   7.892  66.957  1.00  0.00    -0.312 A  
HETATM    4  C   UNL     1     -10.912   6.698  67.206  1.00  0.00    -0.385 A  
HETATM    5  C   UNL     1     -11.268   6.352  68.512  1.00  0.00    -0.321 A  
HETATM    6  O   UNL     1     -11.253   5.821  66.217  1.00  0.00    -0.756 OA 
HETATM    7  H   UNL     1     -11.710   5.006  66.386  1.00  0.00     0.000 HD 
HETATM    8  C   UNL     1     -10.966   7.209  69.576  1.00  0.00    -0.214 A  
HETATM    9  C   UNL     1      -9.894   8.728  68.013  1.00  0.00    -0.201 A  
HETATM   10  C   UNL     1     -10.251   8.389  69.319  1.00  0.00    -0.211 A  
ENDROOT
BRANCH   8  11
HETATM   11  C   UNL     1     -11.389   6.868  70.984  1.00  0.00    -0.342 C  
BRANCH  11  12
HETATM   12  C   UNL     1     -11.432   8.111  71.876  1.00  0.00    -0.299 C  
BRANCH  12  13
HETATM   13  N   UNL     1     -12.615   8.083  72.744  1.00  0.00    -0.583 NA 
HETATM   14  H   UNL     1     -12.374   8.211  73.727  1.00  0.00     0.000 HD 
BRANCH  13  15
HETATM   15  C   UNL     1     -13.586   9.071  72.283  1.00  0.00    -0.484 C  
BRANCH  15  16
HETATM   16  C   UNL     1     -12.916  10.090  71.366  1.00  0.00    -0.517 C  
BRANCH  16  17
HETATM   17  C   UNL     1     -13.144  11.495  71.916  1.00  0.00    -0.492 C  
BRANCH  17  18
HETATM   18  C   UNL     1     -12.499  12.542  71.024  1.00  0.00    -0.353 C  
BRANCH  18  19
HETATM   19  C   UNL     1     -12.787  13.951  71.539  1.00  0.00    -0.441 C  
BRANCH  19  20
HETATM   20  C   UNL     1     -11.819  14.925  70.881  1.00  0.00    -0.321 C  
BRANCH  20  21
HETATM   21  N   UNL     1     -12.487  15.707  69.843  1.00  0.00    -0.533 NA 
HETATM   22  H   UNL     1     -12.724  16.642  70.172  1.00  0.00     0.000 HD 
BRANCH  21  23
HETATM   23  C   UNL     1     -11.682  15.754  68.613  1.00  0.00    -0.344 C  
BRANCH  23  24
HETATM   24  C   UNL     1     -10.863  14.475  68.381  1.00  0.00    -0.250 C  
BRANCH  24  25
HETATM   25  C   UNL     1     -11.327  13.710  67.172  1.00  0.00    -0.340 A  
HETATM   26  C   UNL     1     -12.250  14.288  66.293  1.00  0.00    -0.433 A  
HETATM   27  C   UNL     1     -12.679  13.590  65.163  1.00  0.00    -0.453 A  
HETATM   28  C   UNL     1     -12.190  12.309  64.914  1.00  0.00    -0.410 A  
HETATM   29  C   UNL     1     -11.280  11.724  65.793  1.00  0.00    -0.337 A  
HETATM   30  C   UNL     1     -10.851  12.420  66.921  1.00  0.00    -0.286 A  
ENDBRANCH  24  25
ENDBRANCH  23  24
ENDBRANCH  21  23
ENDBRANCH  20  21
ENDBRANCH  19  20
ENDBRANCH  18  19
ENDBRANCH  17  18
ENDBRANCH  16  17
ENDBRANCH  15  16
ENDBRANCH  13  15
ENDBRANCH  12  13
ENDBRANCH  11  12
ENDBRANCH   8  11
TORSDOF 13
ENDMDL
MODEL       68
REMARK 921   NORMALIZED FREE ENERGY PREDICTED BY IDOCK:   -4.98 KCAL/MOL
REMARK 922        TOTAL FREE ENERGY PREDICTED BY IDOCK:  -11.51 KCAL/MOL
REMARK 923 INTER-LIGAND FREE ENERGY PREDICTED BY IDOCK:  -10.75 KCAL/MOL
REMARK 924 INTRA-LIGAND FREE ENERGY PREDICTED BY IDOCK:   -0.76 KCAL/MOL
REMARK 927      BINDING AFFINITY PREDICTED BY RF-SCORE:    0.00 PKD
ROOT
HETATM    1  O   UNL     1     -12.404  14.158  63.136  1.00  0.00    -1.125 OA 
HETATM    2  H   UNL     1     -12.313  14.719  62.374  1.00  0.00     0.000 HD 
HETATM    3  C   UNL     1     -11.914  14.483  64.372  1.00  0.00    -0.449 A  
HETATM    4  C   UNL     1     -12.048  13.662  65.488  1.00  0.00    -0.411 A  
HETATM    5  C   UNL     1     -11.555  14.077  66.727  1.00  0.00    -0.406 A  
HETATM    6  O   UNL     1     -12.653  12.439  65.438  1.00  0.00    -0.637 OA 
HETATM    7  H   UNL     1     -12.744  11.879  66.200  1.00  0.00     0.000 HD 
HETATM    8  C   UNL     1     -10.935  15.325  66.859  1.00  0.00    -0.315 A  
HETATM    9  C   UNL     1     -11.258  15.704  64.481  1.00  0.00    -0.337 A  
HETATM   10  C   UNL     1     -10.766  16.125  65.718  1.00  0.00    -0.289 A  
ENDROOT
BRANCH   8  11
HETATM   11  C   UNL     1     -10.442  15.803  68.202  1.00  0.00    -0.263 C  
BRANCH  11  12
HETATM   12  C   UNL     1     -11.423  15.449  69.322  1.00  0.00    -0.333 C  
BRANCH  12  13
HETATM   13  N   UNL     1     -11.476  16.523  70.321  1.00  0.00    -0.429 NA 
HETATM   14  H   UNL     1     -12.021  17.322  69.997  1.00  0.00     0.000 HD 
BRANCH  13  15
HETATM   15  C   UNL     1     -11.976  15.991  71.586  1.00  0.00    -0.499 C  
BRANCH  15  16
HETATM   16  C   UNL     1     -13.088  14.977  71.336  1.00  0.00    -0.464 C  
BRANCH  16  17
HETATM   17  C   UNL     1     -13.151  13.995  72.503  1.00  0.00    -0.547 C  
BRANCH  17  18
HETATM   18  C   UNL     1     -13.449  12.587  72.016  1.00  0.00    -0.486 C  
BRANCH  18  19
HETATM   19  C   UNL     1     -12.576  12.229  70.815  1.00  0.00    -0.302 C  
BRANCH  19  20
HETATM   20  C   UNL     1     -12.010  10.830  71.016  1.00  0.00    -0.304 C  
BRANCH  20  21
HETATM   21  N   UNL     1     -12.935   9.994  71.777  1.00  0.00    -0.426 NA 
HETATM   22  H   UNL     1     -13.770   9.770  71.236  1.00  0.00     0.000 HD 
BRANCH  21  23
HETATM   23  C   UNL     1     -12.270   8.781  72.272  1.00  0.00    -0.358 C  
BRANCH  23  24
HETATM   24  C   UNL     1     -12.796   7.495  71.617  1.00  0.00    -0.392 C  
BRANCH  24  25
HETATM   25  C   UNL     1     -11.750   6.415  71.556  1.00  0.00    -0.369 A  
HETATM   26  C   UNL     1     -11.477   5.644  72.692  1.00  0.00    -0.339 A  
HETATM   27  C   UNL     1     -10.517   4.633  72.642  1.00  0.00    -0.258 A  
HETATM   28  C   UNL     1      -9.823   4.395  71.457  1.00  0.00    -0.259 A  
HETATM   29  C   UNL     1     -10.083   5.168  70.326  1.00  0.00    -0.338 A  
HETATM   30  C   UNL     1     -11.042   6.178  70.375  1.00  0.00    -0.420 A  
ENDBRANCH  24  25
ENDBRANCH  23  24
ENDBRANCH  21  23
ENDBRANCH  20  21
ENDBRANCH  19  20
ENDBRANCH  18  19
ENDBRANCH  17  18
ENDBRANCH  16  17
ENDBRANCH  15  16
ENDBRANCH  13  15
ENDBRANCH  12  13
ENDBRANCH  11  12
ENDBRANCH   8  11
TORSDOF 13
ENDMDL
MODEL       69
REMARK 921   NORMALIZED FREE ENERGY PREDICTED BY IDOCK:   -4.96 KCAL/MOL
REMARK 922        TOTAL FREE ENERGY PREDICTED BY IDOCK:  -11.49 KCAL/MOL
REMARK 923 INTER-LIGAND FREE ENERGY PREDICTED BY IDOCK:   -9.60 KCAL/MOL
REMARK 924 INTRA-LIGAND FREE ENERGY PREDICTED BY IDOCK:   -1.89 KCAL/MOL
REMARK 927      BINDING AFFINITY PREDICTED BY RF-SCORE:    0.00 PKD
ROOT
HETATM    1  O   UNL     1     -12.390  13.613  62.769  1.00  0.00    -0.858 OA 
HETATM    2  H   UNL     1     -12.648  12.777  62.399  1.00  0.00     0.000 HD 
HETATM    3  C   UNL     1     -12.184  13.813  64.107  1.00  0.00    -0.396 A  
HETATM    4  C   UNL     1     -11.805  15.037  64.650  1.00  0.00    -0.375 A  
HETATM    5  C   UNL     1     -11.576  15.156  66.022  1.00  0.00    -0.080 A  
HETATM    6  O   UNL     1     -11.638  16.161  63.892  1.00  0.00    -1.369 OA 
HETATM    7  H   UNL     1     -11.380  16.997  64.262  1.00  0.00     0.000 HD 
HETATM    8  C   UNL     1     -11.713  14.044  66.860  1.00  0.00    -0.435 A  
HETATM    9  C   UNL     1     -12.369  12.712  64.937  1.00  0.00    -0.563 A  
HETATM   10  C   UNL     1     -12.139  12.825  66.310  1.00  0.00    -0.400 A  
ENDROOT
BRANCH   8  11
HETATM   11  C   UNL     1     -11.422  14.150  68.337  1.00  0.00    -0.334 C  
BRANCH  11  12
HETATM   12  C   UNL     1     -10.530  15.352  68.651  1.00  0.00    -0.237 C  
BRANCH  12  13
HETATM   13  N   UNL     1      -9.345  14.933  69.409  1.00  0.00    -0.406 NA 
HETATM   14  H   UNL     1      -9.348  13.931  69.603  1.00  0.00     0.000 HD 
BRANCH  13  15
HETATM   15  C   UNL     1      -8.137  15.354  68.705  1.00  0.00    -0.156 C  
BRANCH  15  16
HETATM   16  C   UNL     1      -7.842  14.412  67.543  1.00  0.00    -0.207 C  
BRANCH  16  17
HETATM   17  C   UNL     1      -7.626  12.998  68.076  1.00  0.00    -0.139 C  
BRANCH  17  18
HETATM   18  C   UNL     1      -8.566  12.012  67.404  1.00  0.00    -0.171 C  
BRANCH  18  19
HETATM   19  C   UNL     1      -9.321  11.183  68.442  1.00  0.00    -0.185 C  
BRANCH  19  20
HETATM   20  C   UNL     1     -10.075  10.068  67.730  1.00  0.00    -0.183 C  
BRANCH  20  21
HETATM   21  N   UNL     1      -9.429   8.776  67.948  1.00  0.00    -0.141 NA 
HETATM   22  H   UNL     1      -8.519   8.882  68.394  1.00  0.00     0.000 HD 
BRANCH  21  23
HETATM   23  C   UNL     1     -10.301   7.868  68.707  1.00  0.00    -0.203 C  
BRANCH  23  24
HETATM   24  C   UNL     1     -10.210   8.076  70.226  1.00  0.00    -0.200 C  
BRANCH  24  25
HETATM   25  C   UNL     1     -11.561   8.274  70.859  1.00  0.00    -0.282 A  
HETATM   26  C   UNL     1     -12.368   7.165  71.140  1.00  0.00    -0.404 A  
HETATM   27  C   UNL     1     -13.618   7.339  71.736  1.00  0.00    -0.386 A  
HETATM   28  C   UNL     1     -14.065   8.621  72.046  1.00  0.00    -0.523 A  
HETATM   29  C   UNL     1     -13.270   9.729  71.757  1.00  0.00    -0.532 A  
HETATM   30  C   UNL     1     -12.022   9.557  71.162  1.00  0.00    -0.429 A  
ENDBRANCH  24  25
ENDBRANCH  23  24
ENDBRANCH  21  23
ENDBRANCH  20  21
ENDBRANCH  19  20
ENDBRANCH  18  19
ENDBRANCH  17  18
ENDBRANCH  16  17
ENDBRANCH  15  16
ENDBRANCH  13  15
ENDBRANCH  12  13
ENDBRANCH  11  12
ENDBRANCH   8  11
TORSDOF 13
ENDMDL
MODEL       70
REMARK 921   NORMALIZED FREE ENERGY PREDICTED BY IDOCK:   -4.95 KCAL/MOL
REMARK 922        TOTAL FREE ENERGY PREDICTED BY IDOCK:  -11.46 KCAL/MOL
REMARK 923 INTER-LIGAND FREE ENERGY PREDICTED BY IDOCK:   -9.04 KCAL/MOL
REMARK 924 INTRA-LIGAND FREE ENERGY PREDICTED BY IDOCK:   -2.42 KCAL/MOL
REMARK 927      BINDING AFFINITY PREDICTED BY RF-SCORE:    0.00 PKD
ROOT
HETATM    1  O   UNL     1      -7.908   9.607  64.707  1.00  0.00    -0.117 OA 
HETATM    2  H   UNL     1      -7.253  10.182  64.329  1.00  0.00     0.000 HD 
HETATM    3  C   UNL     1      -8.687   9.954  65.777  1.00  0.00    -0.141 A  
HETATM    4  C   UNL     1      -9.648   9.113  66.330  1.00  0.00    -0.245 A  
HETATM    5  C   UNL     1     -10.432   9.550  67.400  1.00  0.00    -0.336 A  
HETATM    6  O   UNL     1      -9.875   7.847  65.871  1.00  0.00    -0.434 OA 
HETATM    7  H   UNL     1     -10.530   7.273  66.248  1.00  0.00     0.000 HD 
HETATM    8  C   UNL     1     -10.267  10.841  67.915  1.00  0.00    -0.203 A  
HETATM    9  C   UNL     1      -8.481  11.222  66.312  1.00  0.00    -0.156 A  
HETATM   10  C   UNL     1      -9.265  11.665  67.380  1.00  0.00    -0.168 A  
ENDROOT
BRANCH   8  11
HETATM   11  C   UNL     1     -11.141  11.341  69.039  1.00  0.00    -0.301 C  
BRANCH  11  12
HETATM   12  C   UNL     1     -11.286  10.297  70.147  1.00  0.00    -0.316 C  
BRANCH  12  13
HETATM   13  N   UNL     1     -12.300  10.716  71.122  1.00  0.00    -0.379 NA 
HETATM   14  H   UNL     1     -12.020  10.507  72.081  1.00  0.00     0.000 HD 
BRANCH  13  15
HETATM   15  C   UNL     1     -12.607  12.131  70.934  1.00  0.00    -0.247 C  
BRANCH  15  16
HETATM   16  C   UNL     1     -13.557  12.620  72.022  1.00  0.00    -0.426 C  
BRANCH  16  17
HETATM   17  C   UNL     1     -13.724  14.133  71.908  1.00  0.00    -0.525 C  
BRANCH  17  18
HETATM   18  C   UNL     1     -12.939  14.852  72.992  1.00  0.00    -0.599 C  
BRANCH  18  19
HETATM   19  C   UNL     1     -12.124  16.003  72.404  1.00  0.00    -0.629 C  
BRANCH  19  20
HETATM   20  C   UNL     1     -11.184  15.450  71.342  1.00  0.00    -0.342 C  
BRANCH  20  21
HETATM   21  N   UNL     1     -11.278  16.222  70.105  1.00  0.00    -0.388 NA 
HETATM   22  H   UNL     1     -10.412  16.725  69.911  1.00  0.00     0.000 HD 
BRANCH  21  23
HETATM   23  C   UNL     1     -11.675  15.370  68.975  1.00  0.00    -0.361 C  
BRANCH  23  24
HETATM   24  C   UNL     1     -10.991  15.762  67.656  1.00  0.00    -0.302 C  
BRANCH  24  25
HETATM   25  C   UNL     1     -11.175  14.721  66.586  1.00  0.00    -0.346 A  
HETATM   26  C   UNL     1     -12.213  13.787  66.692  1.00  0.00    -0.454 A  
HETATM   27  C   UNL     1     -12.398  12.825  65.698  1.00  0.00    -0.444 A  
HETATM   28  C   UNL     1     -11.541  12.790  64.601  1.00  0.00    -0.384 A  
HETATM   29  C   UNL     1     -10.499  13.709  64.496  1.00  0.00    -0.411 A  
HETATM   30  C   UNL     1     -10.313  14.671  65.487  1.00  0.00    -0.383 A  
ENDBRANCH  24  25
ENDBRANCH  23  24
ENDBRANCH  21  23
ENDBRANCH  20  21
ENDBRANCH  19  20
ENDBRANCH  18  19
ENDBRANCH  17  18
ENDBRANCH  16  17
ENDBRANCH  15  16
ENDBRANCH  13  15
ENDBRANCH  12  13
ENDBRANCH  11  12
ENDBRANCH   8  11
TORSDOF 13
ENDMDL
MODEL       71
REMARK 921   NORMALIZED FREE ENERGY PREDICTED BY IDOCK:   -4.93 KCAL/MOL
REMARK 922        TOTAL FREE ENERGY PREDICTED BY IDOCK:  -11.43 KCAL/MOL
REMARK 923 INTER-LIGAND FREE ENERGY PREDICTED BY IDOCK:   -9.52 KCAL/MOL
REMARK 924 INTRA-LIGAND FREE ENERGY PREDICTED BY IDOCK:   -1.91 KCAL/MOL
REMARK 927      BINDING AFFINITY PREDICTED BY RF-SCORE:    0.00 PKD
ROOT
HETATM    1  O   UNL     1     -14.253  13.461  72.682  1.00  0.00    -0.747 OA 
HETATM    2  H   UNL     1     -14.506  12.724  73.225  1.00  0.00     0.000 HD 
HETATM    3  C   UNL     1     -13.396  13.355  71.620  1.00  0.00    -0.338 A  
HETATM    4  C   UNL     1     -13.026  14.435  70.824  1.00  0.00    -0.326 A  
HETATM    5  C   UNL     1     -12.175  14.243  69.733  1.00  0.00    -0.390 A  
HETATM    6  O   UNL     1     -13.461  15.708  71.056  1.00  0.00    -0.645 OA 
HETATM    7  H   UNL     1     -13.208  16.445  70.513  1.00  0.00     0.000 HD 
HETATM    8  C   UNL     1     -11.701  12.963  69.424  1.00  0.00    -0.382 A  
HETATM    9  C   UNL     1     -12.892  12.087  71.351  1.00  0.00    -0.391 A  
HETATM   10  C   UNL     1     -12.045  11.889  70.259  1.00  0.00    -0.409 A  
ENDROOT
BRANCH   8  11
HETATM   11  C   UNL     1     -10.821  12.736  68.219  1.00  0.00    -0.270 C  
BRANCH  11  12
HETATM   12  C   UNL     1     -11.556  11.968  67.120  1.00  0.00    -0.316 C  
BRANCH  12  13
HETATM   13  N   UNL     1     -11.786  12.827  65.953  1.00  0.00    -0.391 NA 
HETATM   14  H   UNL     1     -12.712  12.686  65.548  1.00  0.00     0.000 HD 
BRANCH  13  15
HETATM   15  C   UNL     1     -11.550  14.222  66.316  1.00  0.00    -0.372 C  
BRANCH  15  16
HETATM   16  C   UNL     1     -11.123  15.027  65.094  1.00  0.00    -0.408 C  
BRANCH  16  17
HETATM   17  C   UNL     1     -10.072  16.055  65.505  1.00  0.00    -0.336 C  
BRANCH  17  18
HETATM   18  C   UNL     1      -9.529  15.757  66.892  1.00  0.00    -0.244 C  
BRANCH  18  19
HETATM   19  C   UNL     1      -8.002  15.742  66.889  1.00  0.00    -0.285 C  
BRANCH  19  20
HETATM   20  C   UNL     1      -7.509  15.383  68.284  1.00  0.00    -0.111 C  
BRANCH  20  21
HETATM   21  N   UNL     1      -7.657  16.512  69.199  1.00  0.00    -0.232 NA 
HETATM   22  H   UNL     1      -7.734  16.203  70.167  1.00  0.00     0.000 HD 
BRANCH  21  23
HETATM   23  C   UNL     1      -6.566  17.482  69.027  1.00  0.00    -0.243 C  
BRANCH  23  24
HETATM   24  C   UNL     1      -7.036  18.941  69.125  1.00  0.00    -0.303 C  
BRANCH  24  25
HETATM   25  C   UNL     1      -8.208  19.226  68.224  1.00  0.00    -0.372 A  
HETATM   26  C   UNL     1      -8.041  19.201  66.835  1.00  0.00    -0.277 A  
HETATM   27  C   UNL     1      -9.125  19.453  65.992  1.00  0.00    -0.194 A  
HETATM   28  C   UNL     1     -10.375  19.737  66.538  1.00  0.00    -0.621 A  
HETATM   29  C   UNL     1     -10.544  19.774  67.921  1.00  0.00    -0.468 A  
HETATM   30  C   UNL     1      -9.462  19.523  68.763  1.00  0.00    -0.447 A  
ENDBRANCH  24  25
ENDBRANCH  23  24
ENDBRANCH  21  23
ENDBRANCH  20  21
ENDBRANCH  19  20
ENDBRANCH  18  19
ENDBRANCH  17  18
ENDBRANCH  16  17
ENDBRANCH  15  16
ENDBRANCH  13  15
ENDBRANCH  12  13
ENDBRANCH  11  12
ENDBRANCH   8  11
TORSDOF 13
ENDMDL
MODEL       72
REMARK 921   NORMALIZED FREE ENERGY PREDICTED BY IDOCK:   -4.87 KCAL/MOL
REMARK 922        TOTAL FREE ENERGY PREDICTED BY IDOCK:  -11.33 KCAL/MOL
REMARK 923 INTER-LIGAND FREE ENERGY PREDICTED BY IDOCK:   -9.94 KCAL/MOL
REMARK 924 INTRA-LIGAND FREE ENERGY PREDICTED BY IDOCK:   -1.40 KCAL/MOL
REMARK 927      BINDING AFFINITY PREDICTED BY RF-SCORE:    0.00 PKD
ROOT
HETATM    1  O   UNL     1     -12.568  13.982  63.004  1.00  0.00    -1.027 OA 
HETATM    2  H   UNL     1     -12.288  13.951  62.097  1.00  0.00     0.000 HD 
HETATM    3  C   UNL     1     -12.038  13.187  63.983  1.00  0.00    -0.446 A  
HETATM    4  C   UNL     1     -12.448  13.232  65.313  1.00  0.00    -0.489 A  
HETATM    5  C   UNL     1     -11.833  12.416  66.265  1.00  0.00    -0.431 A  
HETATM    6  O   UNL     1     -13.446  14.054  65.751  1.00  0.00    -0.669 OA 
HETATM    7  H   UNL     1     -13.727  14.085  66.657  1.00  0.00     0.000 HD 
HETATM    8  C   UNL     1     -10.792  11.558  65.893  1.00  0.00    -0.316 A  
HETATM    9  C   UNL     1     -11.036  12.303  63.594  1.00  0.00    -0.537 A  
HETATM   10  C   UNL     1     -10.416  11.488  64.543  1.00  0.00    -0.369 A  
ENDROOT
BRANCH   8  11
HETATM   11  C   UNL     1     -10.088  10.708  66.922  1.00  0.00    -0.260 C  
BRANCH  11  12
HETATM   12  C   UNL     1      -9.064  11.518  67.718  1.00  0.00    -0.165 C  
BRANCH  12  13
HETATM   13  N   UNL     1      -9.577  11.824  69.059  1.00  0.00    -0.409 NA 
HETATM   14  H   UNL     1      -9.929  12.780  69.127  1.00  0.00     0.000 HD 
BRANCH  13  15
HETATM   15  C   UNL     1     -10.585  10.838  69.436  1.00  0.00    -0.221 C  
BRANCH  15  16
HETATM   16  C   UNL     1     -11.796  11.524  70.059  1.00  0.00    -0.435 C  
BRANCH  16  17
HETATM   17  C   UNL     1     -12.454  10.581  71.064  1.00  0.00    -0.501 C  
BRANCH  17  18
HETATM   18  C   UNL     1     -11.629   9.319  71.249  1.00  0.00    -0.419 C  
BRANCH  18  19
HETATM   19  C   UNL     1     -12.253   8.409  72.306  1.00  0.00    -0.449 C  
BRANCH  19  20
HETATM   20  C   UNL     1     -11.145   7.639  73.011  1.00  0.00    -0.381 C  
BRANCH  20  21
HETATM   21  N   UNL     1      -9.846   7.915  72.403  1.00  0.00    -0.203 NA 
HETATM   22  H   UNL     1      -9.202   8.337  73.070  1.00  0.00     0.000 HD 
BRANCH  21  23
HETATM   23  C   UNL     1      -9.277   6.704  71.794  1.00  0.00    -0.148 C  
BRANCH  23  24
HETATM   24  C   UNL     1     -10.348   5.717  71.304  1.00  0.00    -0.289 C  
BRANCH  24  25
HETATM   25  C   UNL     1     -10.400   5.629  69.802  1.00  0.00    -0.352 A  
HETATM   26  C   UNL     1     -11.037   6.635  69.067  1.00  0.00    -0.318 A  
HETATM   27  C   UNL     1     -11.081   6.567  67.673  1.00  0.00    -0.380 A  
HETATM   28  C   UNL     1     -10.493   5.490  67.014  1.00  0.00    -0.336 A  
HETATM   29  C   UNL     1      -9.867   4.479  67.742  1.00  0.00    -0.169 A  
HETATM   30  C   UNL     1      -9.823   4.546  69.134  1.00  0.00    -0.222 A  
ENDBRANCH  24  25
ENDBRANCH  23  24
ENDBRANCH  21  23
ENDBRANCH  20  21
ENDBRANCH  19  20
ENDBRANCH  18  19
ENDBRANCH  17  18
ENDBRANCH  16  17
ENDBRANCH  15  16
ENDBRANCH  13  15
ENDBRANCH  12  13
ENDBRANCH  11  12
ENDBRANCH   8  11
TORSDOF 13
ENDMDL
MODEL       73
REMARK 921   NORMALIZED FREE ENERGY PREDICTED BY IDOCK:   -4.85 KCAL/MOL
REMARK 922        TOTAL FREE ENERGY PREDICTED BY IDOCK:  -11.30 KCAL/MOL
REMARK 923 INTER-LIGAND FREE ENERGY PREDICTED BY IDOCK:  -10.39 KCAL/MOL
REMARK 924 INTRA-LIGAND FREE ENERGY PREDICTED BY IDOCK:   -0.91 KCAL/MOL
REMARK 927      BINDING AFFINITY PREDICTED BY RF-SCORE:    0.00 PKD
ROOT
HETATM    1  O   UNL     1     -14.411   8.876  73.110  1.00  0.00    -1.143 OA 
HETATM    2  H   UNL     1     -14.732   8.023  73.378  1.00  0.00     0.000 HD 
HETATM    3  C   UNL     1     -13.298   9.050  72.332  1.00  0.00    -0.460 A  
HETATM    4  C   UNL     1     -12.827  10.299  71.938  1.00  0.00    -0.426 A  
HETATM    5  C   UNL     1     -11.706  10.397  71.111  1.00  0.00    -0.387 A  
HETATM    6  O   UNL     1     -13.417  11.468  72.326  1.00  0.00    -0.602 OA 
HETATM    7  H   UNL     1     -13.095  12.320  72.057  1.00  0.00     0.000 HD 
HETATM    8  C   UNL     1     -11.057   9.241  70.661  1.00  0.00    -0.335 A  
HETATM    9  C   UNL     1     -12.633   7.897  71.930  1.00  0.00    -0.348 A  
HETATM   10  C   UNL     1     -11.514   7.989  71.100  1.00  0.00    -0.302 A  
ENDROOT
BRANCH   8  11
HETATM   11  C   UNL     1      -9.874   9.334  69.729  1.00  0.00    -0.202 C  
BRANCH  11  12
HETATM   12  C   UNL     1     -10.251  10.005  68.406  1.00  0.00    -0.172 C  
BRANCH  12  13
HETATM   13  N   UNL     1     -10.771   9.015  67.455  1.00  0.00    -0.411 NA 
HETATM   14  H   UNL     1     -11.789   9.036  67.397  1.00  0.00     0.000 HD 
BRANCH  13  15
HETATM   15  C   UNL     1     -10.141   9.209  66.152  1.00  0.00    -0.208 C  
BRANCH  15  16
HETATM   16  C   UNL     1      -9.820  10.683  65.928  1.00  0.00    -0.296 C  
BRANCH  16  17
HETATM   17  C   UNL     1     -10.684  11.224  64.792  1.00  0.00    -0.352 C  
BRANCH  17  18
HETATM   18  C   UNL     1     -10.712  12.743  64.803  1.00  0.00    -0.340 C  
BRANCH  18  19
HETATM   19  C   UNL     1     -10.559  13.282  66.224  1.00  0.00    -0.294 C  
BRANCH  19  20
HETATM   20  C   UNL     1     -11.938  13.403  66.857  1.00  0.00    -0.385 C  
BRANCH  20  21
HETATM   21  N   UNL     1     -12.044  14.621  67.656  1.00  0.00    -0.584 NA 
HETATM   22  H   UNL     1     -12.642  14.485  68.470  1.00  0.00     0.000 HD 
BRANCH  21  23
HETATM   23  C   UNL     1     -10.716  15.122  68.039  1.00  0.00    -0.264 C  
BRANCH  23  24
HETATM   24  C   UNL     1     -10.777  16.390  68.905  1.00  0.00    -0.319 C  
BRANCH  24  25
HETATM   25  C   UNL     1     -10.530  17.641  68.105  1.00  0.00    -0.386 A  
HETATM   26  C   UNL     1     -10.268  18.848  68.764  1.00  0.00    -0.325 A  
HETATM   27  C   UNL     1     -10.028  20.011  68.030  1.00  0.00    -0.550 A  
HETATM   28  C   UNL     1     -10.055  19.969  66.638  1.00  0.00    -0.607 A  
HETATM   29  C   UNL     1     -10.327  18.772  65.978  1.00  0.00    -0.467 A  
HETATM   30  C   UNL     1     -10.568  17.610  66.709  1.00  0.00    -0.224 A  
ENDBRANCH  24  25
ENDBRANCH  23  24
ENDBRANCH  21  23
ENDBRANCH  20  21
ENDBRANCH  19  20
ENDBRANCH  18  19
ENDBRANCH  17  18
ENDBRANCH  16  17
ENDBRANCH  15  16
ENDBRANCH  13  15
ENDBRANCH  12  13
ENDBRANCH  11  12
ENDBRANCH   8  11
TORSDOF 13
ENDMDL
MODEL       74
REMARK 921   NORMALIZED FREE ENERGY PREDICTED BY IDOCK:   -4.83 KCAL/MOL
REMARK 922        TOTAL FREE ENERGY PREDICTED BY IDOCK:  -11.26 KCAL/MOL
REMARK 923 INTER-LIGAND FREE ENERGY PREDICTED BY IDOCK:   -9.12 KCAL/MOL
REMARK 924 INTRA-LIGAND FREE ENERGY PREDICTED BY IDOCK:   -2.14 KCAL/MOL
REMARK 927      BINDING AFFINITY PREDICTED BY RF-SCORE:    0.00 PKD
ROOT
HETATM    1  O   UNL     1     -11.940   7.601  73.018  1.00  0.00    -0.594 OA 
HETATM    2  H   UNL     1     -12.817   7.243  73.086  1.00  0.00     0.000 HD 
HETATM    3  C   UNL     1     -11.200   7.569  71.867  1.00  0.00    -0.248 A  
HETATM    4  C   UNL     1      -9.915   8.095  71.767  1.00  0.00    -0.201 A  
HETATM    5  C   UNL     1      -9.235   8.058  70.548  1.00  0.00    -0.154 A  
HETATM    6  O   UNL     1      -9.264   8.662  72.825  1.00  0.00    -0.293 OA 
HETATM    7  H   UNL     1      -8.387   9.020  72.758  1.00  0.00     0.000 HD 
HETATM    8  C   UNL     1      -9.844   7.506  69.416  1.00  0.00    -0.166 A  
HETATM    9  C   UNL     1     -11.796   6.974  70.760  1.00  0.00    -0.401 A  
HETATM   10  C   UNL     1     -11.122   6.938  69.538  1.00  0.00    -0.270 A  
ENDROOT
BRANCH   8  11
HETATM   11  C   UNL     1      -9.137   7.505  68.083  1.00  0.00    -0.128 C  
BRANCH  11  12
HETATM   12  C   UNL     1     -10.123   7.367  66.922  1.00  0.00    -0.257 C  
BRANCH  12  13
HETATM   13  N   UNL     1     -10.277   8.647  66.219  1.00  0.00    -0.408 NA 
HETATM   14  H   UNL     1     -10.923   9.274  66.699  1.00  0.00     0.000 HD 
BRANCH  13  15
HETATM   15  C   UNL     1      -8.965   9.257  66.018  1.00  0.00    -0.176 C  
BRANCH  15  16
HETATM   16  C   UNL     1      -9.006  10.237  64.851  1.00  0.00    -0.231 C  
BRANCH  16  17
HETATM   17  C   UNL     1     -10.395  10.862  64.761  1.00  0.00    -0.391 C  
BRANCH  17  18
HETATM   18  C   UNL     1     -10.534  11.706  63.505  1.00  0.00    -0.498 C  
BRANCH  18  19
HETATM   19  C   UNL     1     -11.953  12.256  63.370  1.00  0.00    -0.588 C  
BRANCH  19  20
HETATM   20  C   UNL     1     -12.526  12.489  64.761  1.00  0.00    -0.457 C  
BRANCH  20  21
HETATM   21  N   UNL     1     -12.588  13.916  65.070  1.00  0.00    -0.636 NA 
HETATM   22  H   UNL     1     -13.464  14.331  64.753  1.00  0.00     0.000 HD 
BRANCH  21  23
HETATM   23  C   UNL     1     -12.361  14.160  66.502  1.00  0.00    -0.372 C  
BRANCH  23  24
HETATM   24  C   UNL     1     -11.184  13.353  67.070  1.00  0.00    -0.328 C  
BRANCH  24  25
HETATM   25  C   UNL     1     -11.521  12.695  68.381  1.00  0.00    -0.350 A  
HETATM   26  C   UNL     1     -11.478  11.300  68.492  1.00  0.00    -0.372 A  
HETATM   27  C   UNL     1     -11.779  10.682  69.706  1.00  0.00    -0.385 A  
HETATM   28  C   UNL     1     -12.130  11.456  70.809  1.00  0.00    -0.433 A  
HETATM   29  C   UNL     1     -12.186  12.845  70.701  1.00  0.00    -0.386 A  
HETATM   30  C   UNL     1     -11.886  13.464  69.489  1.00  0.00    -0.391 A  
ENDBRANCH  24  25
ENDBRANCH  23  24
ENDBRANCH  21  23
ENDBRANCH  20  21
ENDBRANCH  19  20
ENDBRANCH  18  19
ENDBRANCH  17  18
ENDBRANCH  16  17
ENDBRANCH  15  16
ENDBRANCH  13  15
ENDBRANCH  12  13
ENDBRANCH  11  12
ENDBRANCH   8  11
TORSDOF 13
ENDMDL
MODEL       75
REMARK 921   NORMALIZED FREE ENERGY PREDICTED BY IDOCK:   -4.83 KCAL/MOL
REMARK 922        TOTAL FREE ENERGY PREDICTED BY IDOCK:  -11.25 KCAL/MOL
REMARK 923 INTER-LIGAND FREE ENERGY PREDICTED BY IDOCK:   -8.67 KCAL/MOL
REMARK 924 INTRA-LIGAND FREE ENERGY PREDICTED BY IDOCK:   -2.58 KCAL/MOL
REMARK 927      BINDING AFFINITY PREDICTED BY RF-SCORE:    0.00 PKD
ROOT
HETATM    1  O   UNL     1     -10.488   9.528  70.831  1.00  0.00    -0.285 OA 
HETATM    2  H   UNL     1      -9.935   9.267  71.558  1.00  0.00     0.000 HD 
HETATM    3  C   UNL     1      -9.997   9.939  69.621  1.00  0.00    -0.231 A  
HETATM    4  C   UNL     1     -10.807  10.320  68.555  1.00  0.00    -0.240 A  
HETATM    5  C   UNL     1     -10.234  10.693  67.337  1.00  0.00    -0.243 A  
HETATM    6  O   UNL     1     -12.170  10.351  68.636  1.00  0.00    -0.750 OA 
HETATM    7  H   UNL     1     -12.723  10.612  67.909  1.00  0.00     0.000 HD 
HETATM    8  C   UNL     1      -8.844  10.672  67.174  1.00  0.00    -0.139 A  
HETATM    9  C   UNL     1      -8.613   9.960  69.485  1.00  0.00    -0.194 A  
HETATM   10  C   UNL     1      -8.036  10.328  68.268  1.00  0.00    -0.106 A  
ENDROOT
BRANCH   8  11
HETATM   11  C   UNL     1      -8.218  11.025  65.848  1.00  0.00    -0.100 C  
BRANCH  11  12
HETATM   12  C   UNL     1      -9.126  10.645  64.677  1.00  0.00    -0.211 C  
BRANCH  12  13
HETATM   13  N   UNL     1      -9.696  11.846  64.054  1.00  0.00    -0.488 NA 
HETATM   14  H   UNL     1      -9.004  12.361  63.508  1.00  0.00     0.000 HD 
BRANCH  13  15
HETATM   15  C   UNL     1     -10.863  11.478  63.258  1.00  0.00    -0.264 C  
BRANCH  15  16
HETATM   16  C   UNL     1     -12.007  12.456  63.507  1.00  0.00    -0.627 C  
BRANCH  16  17
HETATM   17  C   UNL     1     -12.415  12.398  64.977  1.00  0.00    -0.393 C  
BRANCH  17  18
HETATM   18  C   UNL     1     -12.326  13.770  65.623  1.00  0.00    -0.517 C  
BRANCH  18  19
HETATM   19  C   UNL     1     -11.981  14.839  64.587  1.00  0.00    -0.448 C  
BRANCH  19  20
HETATM   20  C   UNL     1     -10.672  15.508  64.986  1.00  0.00    -0.441 C  
BRANCH  20  21
HETATM   21  N   UNL     1      -9.739  14.537  65.553  1.00  0.00    -0.531 NA 
HETATM   22  H   UNL     1      -9.034  14.253  64.874  1.00  0.00     0.000 HD 
BRANCH  21  23
HETATM   23  C   UNL     1      -9.126  15.049  66.787  1.00  0.00    -0.262 C  
BRANCH  23  24
HETATM   24  C   UNL     1      -9.282  14.092  67.979  1.00  0.00    -0.195 C  
BRANCH  24  25
HETATM   25  C   UNL     1     -10.343  14.548  68.943  1.00  0.00    -0.237 A  
HETATM   26  C   UNL     1     -10.133  15.693  69.722  1.00  0.00    -0.291 A  
HETATM   27  C   UNL     1     -11.116  16.129  70.611  1.00  0.00    -0.318 A  
HETATM   28  C   UNL     1     -12.308  15.418  70.728  1.00  0.00    -0.447 A  
HETATM   29  C   UNL     1     -12.518  14.271  69.964  1.00  0.00    -0.355 A  
HETATM   30  C   UNL     1     -11.537  13.834  69.076  1.00  0.00    -0.356 A  
ENDBRANCH  24  25
ENDBRANCH  23  24
ENDBRANCH  21  23
ENDBRANCH  20  21
ENDBRANCH  19  20
ENDBRANCH  18  19
ENDBRANCH  17  18
ENDBRANCH  16  17
ENDBRANCH  15  16
ENDBRANCH  13  15
ENDBRANCH  12  13
ENDBRANCH  11  12
ENDBRANCH   8  11
TORSDOF 13
ENDMDL
MODEL       76
REMARK 921   NORMALIZED FREE ENERGY PREDICTED BY IDOCK:   -4.82 KCAL/MOL
REMARK 922        TOTAL FREE ENERGY PREDICTED BY IDOCK:  -11.24 KCAL/MOL
REMARK 923 INTER-LIGAND FREE ENERGY PREDICTED BY IDOCK:   -9.19 KCAL/MOL
REMARK 924 INTRA-LIGAND FREE ENERGY PREDICTED BY IDOCK:   -2.05 KCAL/MOL
REMARK 927      BINDING AFFINITY PREDICTED BY RF-SCORE:    0.00 PKD
ROOT
HETATM    1  O   UNL     1      -7.476  11.791  69.475  1.00  0.00    -0.345 OA 
HETATM    2  H   UNL     1      -7.358  12.710  69.684  1.00  0.00     0.000 HD 
HETATM    3  C   UNL     1      -8.076  11.351  68.326  1.00  0.00    -0.143 A  
HETATM    4  C   UNL     1      -8.249  10.005  68.019  1.00  0.00    -0.116 A  
HETATM    5  C   UNL     1      -8.837   9.631  66.809  1.00  0.00    -0.148 A  
HETATM    6  O   UNL     1      -7.864   9.000  68.859  1.00  0.00    -0.092 OA 
HETATM    7  H   UNL     1      -7.982   8.081  68.651  1.00  0.00     0.000 HD 
HETATM    8  C   UNL     1      -9.243  10.605  65.890  1.00  0.00    -0.209 A  
HETATM    9  C   UNL     1      -8.520  12.329  67.441  1.00  0.00    -0.176 A  
HETATM   10  C   UNL     1      -9.105  11.960  66.228  1.00  0.00    -0.188 A  
ENDROOT
BRANCH   8  11
HETATM   11  C   UNL     1      -9.834  10.211  64.559  1.00  0.00    -0.334 C  
BRANCH  11  12
HETATM   12  C   UNL     1     -10.211  11.437  63.724  1.00  0.00    -0.382 C  
BRANCH  12  13
HETATM   13  N   UNL     1     -11.577  11.309  63.205  1.00  0.00    -0.806 NA 
HETATM   14  H   UNL     1     -12.089  10.549  63.653  1.00  0.00     0.000 HD 
BRANCH  13  15
HETATM   15  C   UNL     1     -12.271  12.588  63.328  1.00  0.00    -0.413 C  
BRANCH  15  16
HETATM   16  C   UNL     1     -12.286  13.049  64.781  1.00  0.00    -0.487 C  
BRANCH  16  17
HETATM   17  C   UNL     1     -11.926  14.531  64.848  1.00  0.00    -0.425 C  
BRANCH  17  18
HETATM   18  C   UNL     1     -11.294  14.879  66.185  1.00  0.00    -0.307 C  
BRANCH  18  19
HETATM   19  C   UNL     1     -11.972  14.119  67.324  1.00  0.00    -0.449 C  
BRANCH  19  20
HETATM   20  C   UNL     1     -11.695  14.843  68.634  1.00  0.00    -0.330 C  
BRANCH  20  21
HETATM   21  N   UNL     1     -11.091  13.943  69.613  1.00  0.00    -0.443 NA 
HETATM   22  H   UNL     1     -10.756  14.450  70.432  1.00  0.00     0.000 HD 
BRANCH  21  23
HETATM   23  C   UNL     1     -12.017  12.865  69.987  1.00  0.00    -0.309 C  
BRANCH  23  24
HETATM   24  C   UNL     1     -11.568  11.484  69.483  1.00  0.00    -0.400 C  
BRANCH  24  25
HETATM   25  C   UNL     1     -11.770  10.407  70.514  1.00  0.00    -0.434 A  
HETATM   26  C   UNL     1     -13.027  10.235  71.106  1.00  0.00    -0.503 A  
HETATM   27  C   UNL     1     -13.227   9.231  72.055  1.00  0.00    -0.519 A  
HETATM   28  C   UNL     1     -12.168   8.402  72.418  1.00  0.00    -0.430 A  
HETATM   29  C   UNL     1     -10.911   8.575  71.840  1.00  0.00    -0.394 A  
HETATM   30  C   UNL     1     -10.711   9.578  70.892  1.00  0.00    -0.403 A  
ENDBRANCH  24  25
ENDBRANCH  23  24
ENDBRANCH  21  23
ENDBRANCH  20  21
ENDBRANCH  19  20
ENDBRANCH  18  19
ENDBRANCH  17  18
ENDBRANCH  16  17
ENDBRANCH  15  16
ENDBRANCH  13  15
ENDBRANCH  12  13
ENDBRANCH  11  12
ENDBRANCH   8  11
TORSDOF 13
ENDMDL
MODEL       77
REMARK 921   NORMALIZED FREE ENERGY PREDICTED BY IDOCK:   -4.81 KCAL/MOL
REMARK 922        TOTAL FREE ENERGY PREDICTED BY IDOCK:  -11.22 KCAL/MOL
REMARK 923 INTER-LIGAND FREE ENERGY PREDICTED BY IDOCK:   -9.52 KCAL/MOL
REMARK 924 INTRA-LIGAND FREE ENERGY PREDICTED BY IDOCK:   -1.70 KCAL/MOL
REMARK 927      BINDING AFFINITY PREDICTED BY RF-SCORE:    0.00 PKD
ROOT
HETATM    1  O   UNL     1      -8.736  21.187  67.262  1.00  0.00    -0.506 OA 
HETATM    2  H   UNL     1      -9.099  21.952  66.831  1.00  0.00     0.000 HD 
HETATM    3  C   UNL     1      -9.186  19.914  67.040  1.00  0.00    -0.365 A  
HETATM    4  C   UNL     1      -8.655  18.793  67.670  1.00  0.00    -0.272 A  
HETATM    5  C   UNL     1      -9.141  17.520  67.365  1.00  0.00    -0.237 A  
HETATM    6  O   UNL     1      -7.656  18.871  68.598  1.00  0.00    -0.309 OA 
HETATM    7  H   UNL     1      -7.293  18.106  69.029  1.00  0.00     0.000 HD 
HETATM    8  C   UNL     1     -10.155  17.360  66.413  1.00  0.00    -0.330 A  
HETATM    9  C   UNL     1     -10.227  19.772  66.128  1.00  0.00    -0.618 A  
HETATM   10  C   UNL     1     -10.714  18.501  65.816  1.00  0.00    -0.193 A  
ENDROOT
BRANCH   8  11
HETATM   11  C   UNL     1     -10.653  15.986  66.040  1.00  0.00    -0.324 C  
BRANCH  11  12
HETATM   12  C   UNL     1     -11.157  15.941  64.596  1.00  0.00    -0.354 C  
BRANCH  12  13
HETATM   13  N   UNL     1     -11.781  14.645  64.306  1.00  0.00    -0.654 NA 
HETATM   14  H   UNL     1     -12.070  14.567  63.331  1.00  0.00     0.000 HD 
BRANCH  13  15
HETATM   15  C   UNL     1     -10.879  13.567  64.701  1.00  0.00    -0.405 C  
BRANCH  15  16
HETATM   16  C   UNL     1     -11.607  12.557  65.582  1.00  0.00    -0.435 C  
BRANCH  16  17
HETATM   17  C   UNL     1     -10.585  11.711  66.337  1.00  0.00    -0.299 C  
BRANCH  17  18
HETATM   18  C   UNL     1      -9.460  12.573  66.885  1.00  0.00    -0.219 C  
BRANCH  18  19
HETATM   19  C   UNL     1      -8.888  11.974  68.168  1.00  0.00    -0.182 C  
BRANCH  19  20
HETATM   20  C   UNL     1      -9.591  10.654  68.453  1.00  0.00    -0.168 C  
BRANCH  20  21
HETATM   21  N   UNL     1      -9.548  10.334  69.877  1.00  0.00    -0.405 NA 
HETATM   22  H   UNL     1      -9.137  11.092  70.420  1.00  0.00     0.000 HD 
BRANCH  21  23
HETATM   23  C   UNL     1     -10.881   9.970  70.380  1.00  0.00    -0.318 C  
BRANCH  23  24
HETATM   24  C   UNL     1     -12.015  10.752  69.700  1.00  0.00    -0.385 C  
BRANCH  24  25
HETATM   25  C   UNL     1     -12.325  12.042  70.410  1.00  0.00    -0.317 A  
HETATM   26  C   UNL     1     -12.007  13.265  69.806  1.00  0.00    -0.391 A  
HETATM   27  C   UNL     1     -12.301  14.466  70.453  1.00  0.00    -0.406 A  
HETATM   28  C   UNL     1     -12.907  14.447  71.707  1.00  0.00    -0.423 A  
HETATM   29  C   UNL     1     -13.216  13.232  72.318  1.00  0.00    -0.567 A  
HETATM   30  C   UNL     1     -12.923  12.032  71.673  1.00  0.00    -0.439 A  
ENDBRANCH  24  25
ENDBRANCH  23  24
ENDBRANCH  21  23
ENDBRANCH  20  21
ENDBRANCH  19  20
ENDBRANCH  18  19
ENDBRANCH  17  18
ENDBRANCH  16  17
ENDBRANCH  15  16
ENDBRANCH  13  15
ENDBRANCH  12  13
ENDBRANCH  11  12
ENDBRANCH   8  11
TORSDOF 13
ENDMDL
MODEL       78
REMARK 921   NORMALIZED FREE ENERGY PREDICTED BY IDOCK:   -4.80 KCAL/MOL
REMARK 922        TOTAL FREE ENERGY PREDICTED BY IDOCK:  -11.21 KCAL/MOL
REMARK 923 INTER-LIGAND FREE ENERGY PREDICTED BY IDOCK:   -9.79 KCAL/MOL
REMARK 924 INTRA-LIGAND FREE ENERGY PREDICTED BY IDOCK:   -1.42 KCAL/MOL
REMARK 927      BINDING AFFINITY PREDICTED BY RF-SCORE:    0.00 PKD
ROOT
HETATM    1  O   UNL     1      -8.720   7.269  73.141  1.00  0.00    -0.125 OA 
HETATM    2  H   UNL     1      -8.862   6.592  73.792  1.00  0.00     0.000 HD 
HETATM    3  C   UNL     1      -9.735   7.970  72.549  1.00  0.00    -0.258 A  
HETATM    4  C   UNL     1      -9.525   8.963  71.597  1.00  0.00    -0.281 A  
HETATM    5  C   UNL     1     -10.610   9.663  71.063  1.00  0.00    -0.362 A  
HETATM    6  O   UNL     1      -8.283   9.303  71.143  1.00  0.00    -0.298 OA 
HETATM    7  H   UNL     1      -8.140   9.980  70.493  1.00  0.00     0.000 HD 
HETATM    8  C   UNL     1     -11.912   9.381  71.491  1.00  0.00    -0.456 A  
HETATM    9  C   UNL     1     -11.028   7.649  72.946  1.00  0.00    -0.456 A  
HETATM   10  C   UNL     1     -12.116   8.348  72.418  1.00  0.00    -0.443 A  
ENDROOT
BRANCH   8  11
HETATM   11  C   UNL     1     -13.086  10.164  70.956  1.00  0.00    -0.458 C  
BRANCH  11  12
HETATM   12  C   UNL     1     -12.827  11.671  71.004  1.00  0.00    -0.245 C  
BRANCH  12  13
HETATM   13  N   UNL     1     -13.448  12.265  72.193  1.00  0.00    -0.504 NA 
HETATM   14  H   UNL     1     -13.133  11.818  73.055  1.00  0.00     0.000 HD 
BRANCH  13  15
HETATM   15  C   UNL     1     -13.211  13.706  72.203  1.00  0.00    -0.449 C  
BRANCH  15  16
HETATM   16  C   UNL     1     -12.187  14.086  71.138  1.00  0.00    -0.417 C  
BRANCH  16  17
HETATM   17  C   UNL     1     -12.508  15.476  70.597  1.00  0.00    -0.483 C  
BRANCH  17  18
HETATM   18  C   UNL     1     -11.837  15.707  69.253  1.00  0.00    -0.378 C  
BRANCH  18  19
HETATM   19  C   UNL     1     -11.440  14.382  68.606  1.00  0.00    -0.316 C  
BRANCH  19  20
HETATM   20  C   UNL     1     -11.939  14.365  67.168  1.00  0.00    -0.389 C  
BRANCH  20  21
HETATM   21  N   UNL     1     -10.835  14.171  66.232  1.00  0.00    -0.297 NA 
HETATM   22  H   UNL     1     -11.006  13.384  65.607  1.00  0.00     0.000 HD 
BRANCH  21  23
HETATM   23  C   UNL     1     -10.551  15.404  65.483  1.00  0.00    -0.383 C  
BRANCH  23  24
HETATM   24  C   UNL     1      -9.271  16.113  65.952  1.00  0.00    -0.296 C  
BRANCH  24  25
HETATM   25  C   UNL     1      -9.562  17.408  66.661  1.00  0.00    -0.283 A  
HETATM   26  C   UNL     1      -8.960  17.677  67.896  1.00  0.00    -0.250 A  
HETATM   27  C   UNL     1      -9.216  18.881  68.555  1.00  0.00    -0.404 A  
HETATM   28  C   UNL     1     -10.078  19.813  67.984  1.00  0.00    -0.571 A  
HETATM   29  C   UNL     1     -10.690  19.545  66.760  1.00  0.00    -0.569 A  
HETATM   30  C   UNL     1     -10.435  18.344  66.101  1.00  0.00    -0.422 A  
ENDBRANCH  24  25
ENDBRANCH  23  24
ENDBRANCH  21  23
ENDBRANCH  20  21
ENDBRANCH  19  20
ENDBRANCH  18  19
ENDBRANCH  17  18
ENDBRANCH  16  17
ENDBRANCH  15  16
ENDBRANCH  13  15
ENDBRANCH  12  13
ENDBRANCH  11  12
ENDBRANCH   8  11
TORSDOF 13
ENDMDL
MODEL       79
REMARK 921   NORMALIZED FREE ENERGY PREDICTED BY IDOCK:   -4.80 KCAL/MOL
REMARK 922        TOTAL FREE ENERGY PREDICTED BY IDOCK:  -11.21 KCAL/MOL
REMARK 923 INTER-LIGAND FREE ENERGY PREDICTED BY IDOCK:   -9.22 KCAL/MOL
REMARK 924 INTRA-LIGAND FREE ENERGY PREDICTED BY IDOCK:   -1.98 KCAL/MOL
REMARK 927      BINDING AFFINITY PREDICTED BY RF-SCORE:    0.00 PKD
ROOT
HETATM    1  O   UNL     1      -9.314  15.512  68.843  1.00  0.00    -0.193 OA 
HETATM    2  H   UNL     1      -8.757  16.232  68.574  1.00  0.00     0.000 HD 
HETATM    3  C   UNL     1     -10.168  14.862  67.994  1.00  0.00    -0.228 A  
HETATM    4  C   UNL     1     -10.985  13.806  68.387  1.00  0.00    -0.254 A  
HETATM    5  C   UNL     1     -11.804  13.167  67.454  1.00  0.00    -0.412 A  
HETATM    6  O   UNL     1     -11.030  13.346  69.672  1.00  0.00    -0.460 OA 
HETATM    7  H   UNL     1     -11.588  12.626  69.941  1.00  0.00     0.000 HD 
HETATM    8  C   UNL     1     -11.800  13.573  66.115  1.00  0.00    -0.426 A  
HETATM    9  C   UNL     1     -10.191  15.306  66.675  1.00  0.00    -0.275 A  
HETATM   10  C   UNL     1     -11.006  14.668  65.738  1.00  0.00    -0.330 A  
ENDROOT
BRANCH   8  11
HETATM   11  C   UNL     1     -12.644  12.858  65.089  1.00  0.00    -0.536 C  
BRANCH  11  12
HETATM   12  C   UNL     1     -12.029  12.947  63.691  1.00  0.00    -0.541 C  
BRANCH  12  13
HETATM   13  N   UNL     1     -11.538  11.634  63.258  1.00  0.00    -0.833 NA 
HETATM   14  H   UNL     1     -11.776  11.436  62.286  1.00  0.00     0.000 HD 
BRANCH  13  15
HETATM   15  C   UNL     1     -10.102  11.541  63.504  1.00  0.00    -0.409 C  
BRANCH  15  16
HETATM   16  C   UNL     1      -9.810  10.503  64.582  1.00  0.00    -0.404 C  
BRANCH  16  17
HETATM   17  C   UNL     1      -9.176  11.189  65.790  1.00  0.00    -0.234 C  
BRANCH  17  18
HETATM   18  C   UNL     1      -9.194  10.279  67.006  1.00  0.00    -0.169 C  
BRANCH  18  19
HETATM   19  C   UNL     1     -10.251   9.187  66.856  1.00  0.00    -0.336 C  
BRANCH  19  20
HETATM   20  C   UNL     1      -9.980   8.093  67.879  1.00  0.00    -0.182 C  
BRANCH  20  21
HETATM   21  N   UNL     1      -8.930   8.496  68.811  1.00  0.00    -0.139 NA 
HETATM   22  H   UNL     1      -8.712   9.488  68.725  1.00  0.00     0.000 HD 
BRANCH  21  23
HETATM   23  C   UNL     1      -9.281   8.137  70.193  1.00  0.00    -0.155 C  
BRANCH  23  24
HETATM   24  C   UNL     1     -10.694   7.548  70.322  1.00  0.00    -0.247 C  
BRANCH  24  25
HETATM   25  C   UNL     1     -11.668   8.523  70.926  1.00  0.00    -0.274 A  
HETATM   26  C   UNL     1     -12.607   8.080  71.865  1.00  0.00    -0.359 A  
HETATM   27  C   UNL     1     -13.507   8.980  72.438  1.00  0.00    -0.524 A  
HETATM   28  C   UNL     1     -13.473  10.323  72.069  1.00  0.00    -0.385 A  
HETATM   29  C   UNL     1     -12.548  10.767  71.125  1.00  0.00    -0.532 A  
HETATM   30  C   UNL     1     -11.649   9.870  70.552  1.00  0.00    -0.386 A  
ENDBRANCH  24  25
ENDBRANCH  23  24
ENDBRANCH  21  23
ENDBRANCH  20  21
ENDBRANCH  19  20
ENDBRANCH  18  19
ENDBRANCH  17  18
ENDBRANCH  16  17
ENDBRANCH  15  16
ENDBRANCH  13  15
ENDBRANCH  12  13
ENDBRANCH  11  12
ENDBRANCH   8  11
TORSDOF 13
ENDMDL
MODEL       80
REMARK 921   NORMALIZED FREE ENERGY PREDICTED BY IDOCK:   -4.79 KCAL/MOL
REMARK 922        TOTAL FREE ENERGY PREDICTED BY IDOCK:  -11.19 KCAL/MOL
REMARK 923 INTER-LIGAND FREE ENERGY PREDICTED BY IDOCK:   -9.94 KCAL/MOL
REMARK 924 INTRA-LIGAND FREE ENERGY PREDICTED BY IDOCK:   -1.25 KCAL/MOL
REMARK 927      BINDING AFFINITY PREDICTED BY RF-SCORE:    0.00 PKD
ROOT
HETATM    1  O   UNL     1      -9.913   4.291  66.377  1.00  0.00    -0.221 OA 
HETATM    2  H   UNL     1      -9.423   3.491  66.228  1.00  0.00     0.000 HD 
HETATM    3  C   UNL     1     -10.141   4.814  67.620  1.00  0.00    -0.085 A  
HETATM    4  C   UNL     1     -10.859   5.986  67.839  1.00  0.00    -0.290 A  
HETATM    5  C   UNL     1     -11.020   6.480  69.135  1.00  0.00    -0.380 A  
HETATM    6  O   UNL     1     -11.432   6.702  66.826  1.00  0.00    -0.776 OA 
HETATM    7  H   UNL     1     -11.922   7.501  66.975  1.00  0.00     0.000 HD 
HETATM    8  C   UNL     1     -10.449   5.808  70.222  1.00  0.00    -0.349 A  
HETATM    9  C   UNL     1      -9.610   4.112  68.698  1.00  0.00    -0.199 A  
HETATM   10  C   UNL     1      -9.765   4.604  69.996  1.00  0.00    -0.277 A  
ENDROOT
BRANCH   8  11
HETATM   11  C   UNL     1     -10.574   6.359  71.621  1.00  0.00    -0.261 C  
BRANCH  11  12
HETATM   12  C   UNL     1     -11.846   5.862  72.311  1.00  0.00    -0.208 C  
BRANCH  12  13
HETATM   13  N   UNL     1     -12.918   6.858  72.198  1.00  0.00    -0.549 NA 
HETATM   14  H   UNL     1     -13.681   6.678  72.852  1.00  0.00     0.000 HD 
BRANCH  13  15
HETATM   15  C   UNL     1     -12.361   8.198  72.358  1.00  0.00    -0.294 C  
BRANCH  15  16
HETATM   16  C   UNL     1     -13.474   9.241  72.363  1.00  0.00    -0.526 C  
BRANCH  16  17
HETATM   17  C   UNL     1     -13.036  10.455  71.548  1.00  0.00    -0.562 C  
BRANCH  17  18
HETATM   18  C   UNL     1     -11.712  10.196  70.849  1.00  0.00    -0.468 C  
BRANCH  18  19
HETATM   19  C   UNL     1     -11.413  11.287  69.823  1.00  0.00    -0.386 C  
BRANCH  19  20
HETATM   20  C   UNL     1     -12.034  12.594  70.296  1.00  0.00    -0.284 C  
BRANCH  20  21
HETATM   21  N   UNL     1     -11.396  13.741  69.655  1.00  0.00    -0.412 NA 
HETATM   22  H   UNL     1     -10.648  14.125  70.231  1.00  0.00     0.000 HD 
BRANCH  21  23
HETATM   23  C   UNL     1     -10.919  13.398  68.307  1.00  0.00    -0.259 C  
BRANCH  23  24
HETATM   24  C   UNL     1     -11.979  13.622  67.218  1.00  0.00    -0.420 C  
BRANCH  24  25
HETATM   25  C   UNL     1     -11.670  12.863  65.955  1.00  0.00    -0.456 A  
HETATM   26  C   UNL     1     -12.321  13.200  64.763  1.00  0.00    -0.477 A  
HETATM   27  C   UNL     1     -12.033  12.509  63.585  1.00  0.00    -0.621 A  
HETATM   28  C   UNL     1     -11.099  11.476  63.599  1.00  0.00    -0.469 A  
HETATM   29  C   UNL     1     -10.456  11.128  64.787  1.00  0.00    -0.388 A  
HETATM   30  C   UNL     1     -10.743  11.818  65.963  1.00  0.00    -0.324 A  
ENDBRANCH  24  25
ENDBRANCH  23  24
ENDBRANCH  21  23
ENDBRANCH  20  21
ENDBRANCH  19  20
ENDBRANCH  18  19
ENDBRANCH  17  18
ENDBRANCH  16  17
ENDBRANCH  15  16
ENDBRANCH  13  15
ENDBRANCH  12  13
ENDBRANCH  11  12
ENDBRANCH   8  11
TORSDOF 13
ENDMDL
MODEL       81
REMARK 921   NORMALIZED FREE ENERGY PREDICTED BY IDOCK:   -4.79 KCAL/MOL
REMARK 922        TOTAL FREE ENERGY PREDICTED BY IDOCK:  -11.18 KCAL/MOL
REMARK 923 INTER-LIGAND FREE ENERGY PREDICTED BY IDOCK:   -9.60 KCAL/MOL
REMARK 924 INTRA-LIGAND FREE ENERGY PREDICTED BY IDOCK:   -1.58 KCAL/MOL
REMARK 927      BINDING AFFINITY PREDICTED BY RF-SCORE:    0.00 PKD
ROOT
HETATM    1  O   UNL     1     -11.738  16.594  72.160  1.00  0.00    -0.607 OA 
HETATM    2  H   UNL     1     -11.220  17.389  72.203  1.00  0.00     0.000 HD 
HETATM    3  C   UNL     1     -11.832  15.816  71.038  1.00  0.00    -0.420 A  
HETATM    4  C   UNL     1     -12.591  14.651  70.974  1.00  0.00    -0.329 A  
HETATM    5  C   UNL     1     -12.609  13.888  69.805  1.00  0.00    -0.113 A  
HETATM    6  O   UNL     1     -13.340  14.199  72.023  1.00  0.00    -0.352 OA 
HETATM    7  H   UNL     1     -13.858  13.405  71.980  1.00  0.00     0.000 HD 
HETATM    8  C   UNL     1     -11.854  14.280  68.694  1.00  0.00    -0.379 A  
HETATM    9  C   UNL     1     -11.116  16.242  69.923  1.00  0.00    -0.347 A  
HETATM   10  C   UNL     1     -11.128  15.480  68.753  1.00  0.00    -0.291 A  
ENDROOT
BRANCH   8  11
HETATM   11  C   UNL     1     -11.828  13.438  67.442  1.00  0.00    -0.418 C  
BRANCH  11  12
HETATM   12  C   UNL     1     -12.242  14.244  66.211  1.00  0.00    -0.410 C  
BRANCH  12  13
HETATM   13  N   UNL     1     -13.010  13.409  65.280  1.00  0.00    -0.677 NA 
HETATM   14  H   UNL     1     -13.974  13.730  65.181  1.00  0.00     0.000 HD 
BRANCH  13  15
HETATM   15  C   UNL     1     -12.318  13.340  63.996  1.00  0.00    -0.346 C  
BRANCH  15  16
HETATM   16  C   UNL     1     -12.146  11.889  63.560  1.00  0.00    -0.575 C  
BRANCH  16  17
HETATM   17  C   UNL     1     -10.658  11.559  63.469  1.00  0.00    -0.487 C  
BRANCH  17  18
HETATM   18  C   UNL     1     -10.081  11.253  64.840  1.00  0.00    -0.333 C  
BRANCH  18  19
HETATM   19  C   UNL     1      -9.721   9.773  64.964  1.00  0.00    -0.303 C  
BRANCH  19  20
HETATM   20  C   UNL     1      -9.787   9.370  66.430  1.00  0.00    -0.269 C  
BRANCH  20  21
HETATM   21  N   UNL     1      -9.088  10.338  67.272  1.00  0.00    -0.138 NA 
HETATM   22  H   UNL     1      -9.407  11.289  67.094  1.00  0.00     0.000 HD 
BRANCH  21  23
HETATM   23  C   UNL     1      -9.204   9.986  68.695  1.00  0.00    -0.152 C  
BRANCH  23  24
HETATM   24  C   UNL     1     -10.178  10.894  69.462  1.00  0.00    -0.097 C  
BRANCH  24  25
HETATM   25  C   UNL     1     -10.994  10.133  70.472  1.00  0.00    -0.380 A  
HETATM   26  C   UNL     1     -10.465   8.984  71.073  1.00  0.00    -0.339 A  
HETATM   27  C   UNL     1     -11.210   8.279  72.019  1.00  0.00    -0.389 A  
HETATM   28  C   UNL     1     -12.487   8.716  72.361  1.00  0.00    -0.428 A  
HETATM   29  C   UNL     1     -13.023   9.853  71.757  1.00  0.00    -0.549 A  
HETATM   30  C   UNL     1     -12.280  10.558  70.812  1.00  0.00    -0.468 A  
ENDBRANCH  24  25
ENDBRANCH  23  24
ENDBRANCH  21  23
ENDBRANCH  20  21
ENDBRANCH  19  20
ENDBRANCH  18  19
ENDBRANCH  17  18
ENDBRANCH  16  17
ENDBRANCH  15  16
ENDBRANCH  13  15
ENDBRANCH  12  13
ENDBRANCH  11  12
ENDBRANCH   8  11
TORSDOF 13
ENDMDL
MODEL       82
REMARK 921   NORMALIZED FREE ENERGY PREDICTED BY IDOCK:   -4.77 KCAL/MOL
REMARK 922        TOTAL FREE ENERGY PREDICTED BY IDOCK:  -11.16 KCAL/MOL
REMARK 923 INTER-LIGAND FREE ENERGY PREDICTED BY IDOCK:   -9.22 KCAL/MOL
REMARK 924 INTRA-LIGAND FREE ENERGY PREDICTED BY IDOCK:   -1.93 KCAL/MOL
REMARK 927      BINDING AFFINITY PREDICTED BY RF-SCORE:    0.00 PKD
ROOT
HETATM    1  O   UNL     1     -13.498  15.512  73.775  1.00  0.00    -0.617 OA 
HETATM    2  H   UNL     1     -13.300  16.370  74.132  1.00  0.00     0.000 HD 
HETATM    3  C   UNL     1     -12.958  15.039  72.610  1.00  0.00    -0.400 A  
HETATM    4  C   UNL     1     -13.246  13.782  72.087  1.00  0.00    -0.447 A  
HETATM    5  C   UNL     1     -12.627  13.352  70.912  1.00  0.00    -0.406 A  
HETATM    6  O   UNL     1     -14.125  12.919  72.678  1.00  0.00    -0.709 OA 
HETATM    7  H   UNL     1     -14.322  12.062  72.321  1.00  0.00     0.000 HD 
HETATM    8  C   UNL     1     -11.703  14.175  70.258  1.00  0.00    -0.328 A  
HETATM    9  C   UNL     1     -12.077  15.884  71.943  1.00  0.00    -0.578 A  
HETATM   10  C   UNL     1     -11.453  15.458  70.769  1.00  0.00    -0.385 A  
ENDROOT
BRANCH   8  11
HETATM   11  C   UNL     1     -10.992  13.701  69.014  1.00  0.00    -0.271 C  
BRANCH  11  12
HETATM   12  C   UNL     1     -11.981  13.266  67.931  1.00  0.00    -0.309 C  
BRANCH  12  13
HETATM   13  N   UNL     1     -11.673  11.909  67.465  1.00  0.00    -0.551 NA 
HETATM   14  H   UNL     1     -11.194  11.912  66.564  1.00  0.00     0.000 HD 
BRANCH  13  15
HETATM   15  C   UNL     1     -10.915  11.198  68.490  1.00  0.00    -0.220 C  
BRANCH  15  16
HETATM   16  C   UNL     1     -10.207   9.989  67.887  1.00  0.00    -0.228 C  
BRANCH  16  17
HETATM   17  C   UNL     1     -10.773   9.710  66.497  1.00  0.00    -0.044 C  
BRANCH  17  18
HETATM   18  C   UNL     1      -9.682   9.770  65.441  1.00  0.00    -0.383 C  
BRANCH  18  19
HETATM   19  C   UNL     1      -9.454  11.207  64.974  1.00  0.00    -0.259 C  
BRANCH  19  20
HETATM   20  C   UNL     1     -10.411  11.512  63.830  1.00  0.00    -0.399 C  
BRANCH  20  21
HETATM   21  N   UNL     1     -10.916  12.879  63.919  1.00  0.00    -0.454 NA 
HETATM   22  H   UNL     1     -11.885  12.901  64.237  1.00  0.00     0.000 HD 
BRANCH  21  23
HETATM   23  C   UNL     1     -10.050  13.711  64.767  1.00  0.00    -0.239 C  
BRANCH  23  24
HETATM   24  C   UNL     1     -10.617  15.119  65.008  1.00  0.00    -0.439 C  
BRANCH  24  25
HETATM   25  C   UNL     1      -9.856  15.867  66.070  1.00  0.00    -0.366 A  
HETATM   26  C   UNL     1      -8.479  15.664  66.215  1.00  0.00    -0.187 A  
HETATM   27  C   UNL     1      -7.764  16.361  67.189  1.00  0.00    -0.220 A  
HETATM   28  C   UNL     1      -8.426  17.258  68.024  1.00  0.00    -0.229 A  
HETATM   29  C   UNL     1      -9.799  17.456  67.892  1.00  0.00    -0.287 A  
HETATM   30  C   UNL     1     -10.515  16.760  66.919  1.00  0.00    -0.269 A  
ENDBRANCH  24  25
ENDBRANCH  23  24
ENDBRANCH  21  23
ENDBRANCH  20  21
ENDBRANCH  19  20
ENDBRANCH  18  19
ENDBRANCH  17  18
ENDBRANCH  16  17
ENDBRANCH  15  16
ENDBRANCH  13  15
ENDBRANCH  12  13
ENDBRANCH  11  12
ENDBRANCH   8  11
TORSDOF 13
ENDMDL
MODEL       83
REMARK 921   NORMALIZED FREE ENERGY PREDICTED BY IDOCK:   -4.77 KCAL/MOL
REMARK 922        TOTAL FREE ENERGY PREDICTED BY IDOCK:  -11.15 KCAL/MOL
REMARK 923 INTER-LIGAND FREE ENERGY PREDICTED BY IDOCK:   -9.46 KCAL/MOL
REMARK 924 INTRA-LIGAND FREE ENERGY PREDICTED BY IDOCK:   -1.69 KCAL/MOL
REMARK 927      BINDING AFFINITY PREDICTED BY RF-SCORE:    0.00 PKD
ROOT
HETATM    1  O   UNL     1     -10.803  20.220  65.204  1.00  0.00    -0.137 OA 
HETATM    2  H   UNL     1     -10.740  21.150  65.390  1.00  0.00     0.000 HD 
HETATM    3  C   UNL     1     -10.538  19.248  66.131  1.00  0.00    -0.459 A  
HETATM    4  C   UNL     1     -10.631  17.886  65.860  1.00  0.00    -0.215 A  
HETATM    5  C   UNL     1     -10.382  16.952  66.868  1.00  0.00    -0.304 A  
HETATM    6  O   UNL     1     -10.963  17.398  64.629  1.00  0.00    -0.959 OA 
HETATM    7  H   UNL     1     -11.026  16.469  64.444  1.00  0.00     0.000 HD 
HETATM    8  C   UNL     1     -10.051  17.377  68.160  1.00  0.00    -0.328 A  
HETATM    9  C   UNL     1     -10.163  19.682  67.398  1.00  0.00    -0.561 A  
HETATM   10  C   UNL     1      -9.917  18.752  68.410  1.00  0.00    -0.441 A  
ENDROOT
BRANCH   8  11
HETATM   11  C   UNL     1      -9.828  16.378  69.267  1.00  0.00    -0.240 C  
BRANCH  11  12
HETATM   12  C   UNL     1     -11.141  15.989  69.949  1.00  0.00    -0.352 C  
BRANCH  12  13
HETATM   13  N   UNL     1     -10.932  14.865  70.870  1.00  0.00    -0.545 NA 
HETATM   14  H   UNL     1     -10.776  15.178  71.828  1.00  0.00     0.000 HD 
BRANCH  13  15
HETATM   15  C   UNL     1     -12.053  13.934  70.770  1.00  0.00    -0.330 C  
BRANCH  15  16
HETATM   16  C   UNL     1     -12.126  13.335  69.369  1.00  0.00    -0.301 C  
BRANCH  16  17
HETATM   17  C   UNL     1     -11.077  12.235  69.232  1.00  0.00    -0.220 C  
BRANCH  17  18
HETATM   18  C   UNL     1     -11.722  10.907  68.875  1.00  0.00    -0.376 C  
BRANCH  18  19
HETATM   19  C   UNL     1     -10.690   9.780  68.881  1.00  0.00    -0.241 C  
BRANCH  19  20
HETATM   20  C   UNL     1     -10.627   9.162  67.491  1.00  0.00    -0.249 C  
BRANCH  20  21
HETATM   21  N   UNL     1      -9.276   9.244  66.941  1.00  0.00    -0.140 NA 
HETATM   22  H   UNL     1      -8.988   8.362  66.519  1.00  0.00     0.000 HD 
BRANCH  21  23
HETATM   23  C   UNL     1      -9.155  10.363  65.995  1.00  0.00    -0.162 C  
BRANCH  23  24
HETATM   24  C   UNL     1     -10.265  10.375  64.932  1.00  0.00    -0.330 C  
BRANCH  24  25
HETATM   25  C   UNL     1     -10.963  11.705  64.850  1.00  0.00    -0.345 A  
HETATM   26  C   UNL     1     -11.623  12.075  63.672  1.00  0.00    -0.578 A  
HETATM   27  C   UNL     1     -12.282  13.302  63.591  1.00  0.00    -0.522 A  
HETATM   28  C   UNL     1     -12.277  14.165  64.684  1.00  0.00    -0.465 A  
HETATM   29  C   UNL     1     -11.611  13.807  65.856  1.00  0.00    -0.346 A  
HETATM   30  C   UNL     1     -10.952  12.582  65.938  1.00  0.00    -0.314 A  
ENDBRANCH  24  25
ENDBRANCH  23  24
ENDBRANCH  21  23
ENDBRANCH  20  21
ENDBRANCH  19  20
ENDBRANCH  18  19
ENDBRANCH  17  18
ENDBRANCH  16  17
ENDBRANCH  15  16
ENDBRANCH  13  15
ENDBRANCH  12  13
ENDBRANCH  11  12
ENDBRANCH   8  11
TORSDOF 13
ENDMDL
MODEL       84
REMARK 921   NORMALIZED FREE ENERGY PREDICTED BY IDOCK:   -4.76 KCAL/MOL
REMARK 922        TOTAL FREE ENERGY PREDICTED BY IDOCK:  -11.13 KCAL/MOL
REMARK 923 INTER-LIGAND FREE ENERGY PREDICTED BY IDOCK:   -9.68 KCAL/MOL
REMARK 924 INTRA-LIGAND FREE ENERGY PREDICTED BY IDOCK:   -1.45 KCAL/MOL
REMARK 927      BINDING AFFINITY PREDICTED BY RF-SCORE:    0.00 PKD
ROOT
HETATM    1  O   UNL     1     -11.859   6.922  72.952  1.00  0.00    -0.501 OA 
HETATM    2  H   UNL     1     -11.109   6.345  72.870  1.00  0.00     0.000 HD 
HETATM    3  C   UNL     1     -11.945   8.139  72.331  1.00  0.00    -0.372 A  
HETATM    4  C   UNL     1     -13.044   8.984  72.450  1.00  0.00    -0.423 A  
HETATM    5  C   UNL     1     -13.076  10.195  71.757  1.00  0.00    -0.568 A  
HETATM    6  O   UNL     1     -14.125   8.685  73.229  1.00  0.00    -1.041 OA 
HETATM    7  H   UNL     1     -14.876   9.262  73.310  1.00  0.00     0.000 HD 
HETATM    8  C   UNL     1     -12.010  10.563  70.927  1.00  0.00    -0.481 A  
HETATM    9  C   UNL     1     -10.859   8.515  71.548  1.00  0.00    -0.332 A  
HETATM   10  C   UNL     1     -10.887   9.724  70.849  1.00  0.00    -0.399 A  
ENDROOT
BRANCH   8  11
HETATM   11  C   UNL     1     -12.056  11.847  70.136  1.00  0.00    -0.382 C  
BRANCH  11  12
HETATM   12  C   UNL     1     -12.515  13.024  70.997  1.00  0.00    -0.296 C  
BRANCH  12  13
HETATM   13  N   UNL     1     -11.782  14.244  70.639  1.00  0.00    -0.458 NA 
HETATM   14  H   UNL     1     -10.772  14.098  70.635  1.00  0.00     0.000 HD 
BRANCH  13  15
HETATM   15  C   UNL     1     -12.271  14.752  69.360  1.00  0.00    -0.216 C  
BRANCH  15  16
HETATM   16  C   UNL     1     -11.110  14.978  68.397  1.00  0.00    -0.284 C  
BRANCH  16  17
HETATM   17  C   UNL     1     -11.436  14.341  67.049  1.00  0.00    -0.377 C  
BRANCH  17  18
HETATM   18  C   UNL     1     -10.180  13.816  66.374  1.00  0.00    -0.292 C  
BRANCH  18  19
HETATM   19  C   UNL     1      -9.277  13.105  67.380  1.00  0.00    -0.213 C  
BRANCH  19  20
HETATM   20  C   UNL     1      -7.914  13.784  67.386  1.00  0.00    -0.162 C  
BRANCH  20  21
HETATM   21  N   UNL     1      -7.875  14.889  66.430  1.00  0.00    -0.059 NA 
HETATM   22  H   UNL     1      -8.810  15.152  66.123  1.00  0.00     0.000 HD 
BRANCH  21  23
HETATM   23  C   UNL     1      -7.141  16.039  66.979  1.00  0.00    -0.198 C  
BRANCH  23  24
HETATM   24  C   UNL     1      -7.899  16.753  68.108  1.00  0.00    -0.182 C  
BRANCH  24  25
HETATM   25  C   UNL     1      -8.699  17.926  67.606  1.00  0.00    -0.242 A  
HETATM   26  C   UNL     1      -9.734  17.721  66.686  1.00  0.00    -0.314 A  
HETATM   27  C   UNL     1     -10.488  18.801  66.224  1.00  0.00    -0.489 A  
HETATM   28  C   UNL     1     -10.204  20.087  66.677  1.00  0.00    -0.597 A  
HETATM   29  C   UNL     1      -9.167  20.298  67.584  1.00  0.00    -0.449 A  
HETATM   30  C   UNL     1      -8.413  19.221  68.046  1.00  0.00    -0.352 A  
ENDBRANCH  24  25
ENDBRANCH  23  24
ENDBRANCH  21  23
ENDBRANCH  20  21
ENDBRANCH  19  20
ENDBRANCH  18  19
ENDBRANCH  17  18
ENDBRANCH  16  17
ENDBRANCH  15  16
ENDBRANCH  13  15
ENDBRANCH  12  13
ENDBRANCH  11  12
ENDBRANCH   8  11
TORSDOF 13
ENDMDL
MODEL       85
REMARK 921   NORMALIZED FREE ENERGY PREDICTED BY IDOCK:   -4.74 KCAL/MOL
REMARK 922        TOTAL FREE ENERGY PREDICTED BY IDOCK:  -11.09 KCAL/MOL
REMARK 923 INTER-LIGAND FREE ENERGY PREDICTED BY IDOCK:   -9.99 KCAL/MOL
REMARK 924 INTRA-LIGAND FREE ENERGY PREDICTED BY IDOCK:   -1.10 KCAL/MOL
REMARK 927      BINDING AFFINITY PREDICTED BY RF-SCORE:    0.00 PKD
ROOT
HETATM    1  O   UNL     1      -8.989   4.237  66.908  1.00  0.00    -0.113 OA 
HETATM    2  H   UNL     1      -8.314   3.586  67.060  1.00  0.00     0.000 HD 
HETATM    3  C   UNL     1      -9.711   4.820  67.914  1.00  0.00    -0.149 A  
HETATM    4  C   UNL     1     -10.699   5.776  67.693  1.00  0.00    -0.229 A  
HETATM    5  C   UNL     1     -11.369   6.355  68.772  1.00  0.00    -0.252 A  
HETATM    6  O   UNL     1     -11.058   6.192  66.443  1.00  0.00    -0.697 OA 
HETATM    7  H   UNL     1     -11.732   6.844  66.291  1.00  0.00     0.000 HD 
HETATM    8  C   UNL     1     -11.045   5.990  70.084  1.00  0.00    -0.432 A  
HETATM    9  C   UNL     1      -9.414   4.415  69.211  1.00  0.00    -0.249 A  
HETATM   10  C   UNL     1     -10.079   4.993  70.294  1.00  0.00    -0.339 A  
ENDROOT
BRANCH   8  11
HETATM   11  C   UNL     1     -11.729   6.644  71.259  1.00  0.00    -0.386 C  
BRANCH  11  12
HETATM   12  C   UNL     1     -11.581   8.166  71.221  1.00  0.00    -0.273 C  
BRANCH  12  13
HETATM   13  N   UNL     1     -12.875   8.805  70.953  1.00  0.00    -0.492 NA 
HETATM   14  H   UNL     1     -13.550   8.633  71.699  1.00  0.00     0.000 HD 
BRANCH  13  15
HETATM   15  C   UNL     1     -12.677  10.230  70.707  1.00  0.00    -0.346 C  
BRANCH  15  16
HETATM   16  C   UNL     1     -13.238  11.054  71.861  1.00  0.00    -0.503 C  
BRANCH  16  17
HETATM   17  C   UNL     1     -13.142  12.539  71.520  1.00  0.00    -0.373 C  
BRANCH  17  18
HETATM   18  C   UNL     1     -14.085  13.360  72.383  1.00  0.00    -0.517 C  
BRANCH  18  19
HETATM   19  C   UNL     1     -13.568  14.788  72.550  1.00  0.00    -0.571 C  
BRANCH  19  20
HETATM   20  C   UNL     1     -13.424  15.425  71.175  1.00  0.00    -0.493 C  
BRANCH  20  21
HETATM   21  N   UNL     1     -12.143  16.115  71.047  1.00  0.00    -0.563 NA 
HETATM   22  H   UNL     1     -11.669  16.195  71.947  1.00  0.00     0.000 HD 
BRANCH  21  23
HETATM   23  C   UNL     1     -11.289  15.468  70.042  1.00  0.00    -0.321 C  
BRANCH  23  24
HETATM   24  C   UNL     1     -11.775  15.696  68.602  1.00  0.00    -0.364 C  
BRANCH  24  25
HETATM   25  C   UNL     1     -11.747  14.434  67.782  1.00  0.00    -0.407 A  
HETATM   26  C   UNL     1     -12.228  14.446  66.468  1.00  0.00    -0.358 A  
HETATM   27  C   UNL     1     -12.196  13.282  65.697  1.00  0.00    -0.514 A  
HETATM   28  C   UNL     1     -11.689  12.105  66.241  1.00  0.00    -0.389 A  
HETATM   29  C   UNL     1     -11.219  12.085  67.554  1.00  0.00    -0.357 A  
HETATM   30  C   UNL     1     -11.251  13.246  68.324  1.00  0.00    -0.309 A  
ENDBRANCH  24  25
ENDBRANCH  23  24
ENDBRANCH  21  23
ENDBRANCH  20  21
ENDBRANCH  19  20
ENDBRANCH  18  19
ENDBRANCH  17  18
ENDBRANCH  16  17
ENDBRANCH  15  16
ENDBRANCH  13  15
ENDBRANCH  12  13
ENDBRANCH  11  12
ENDBRANCH   8  11
TORSDOF 13
ENDMDL
MODEL       86
REMARK 921   NORMALIZED FREE ENERGY PREDICTED BY IDOCK:   -4.71 KCAL/MOL
REMARK 922        TOTAL FREE ENERGY PREDICTED BY IDOCK:  -11.05 KCAL/MOL
REMARK 923 INTER-LIGAND FREE ENERGY PREDICTED BY IDOCK:   -8.70 KCAL/MOL
REMARK 924 INTRA-LIGAND FREE ENERGY PREDICTED BY IDOCK:   -2.35 KCAL/MOL
REMARK 927      BINDING AFFINITY PREDICTED BY RF-SCORE:    0.00 PKD
ROOT
HETATM    1  O   UNL     1      -8.326  10.992  69.203  1.00  0.00    -0.302 OA 
HETATM    2  H   UNL     1      -7.887  11.462  69.902  1.00  0.00     0.000 HD 
HETATM    3  C   UNL     1      -9.082   9.870  69.408  1.00  0.00    -0.206 A  
HETATM    4  C   UNL     1      -9.725   9.181  68.384  1.00  0.00    -0.152 A  
HETATM    5  C   UNL     1     -10.512   8.065  68.675  1.00  0.00    -0.196 A  
HETATM    6  O   UNL     1      -9.629   9.549  67.072  1.00  0.00    -0.151 OA 
HETATM    7  H   UNL     1     -10.068   9.079  66.373  1.00  0.00     0.000 HD 
HETATM    8  C   UNL     1     -10.670   7.638  69.999  1.00  0.00    -0.245 A  
HETATM    9  C   UNL     1      -9.193   9.426  70.722  1.00  0.00    -0.278 A  
HETATM   10  C   UNL     1      -9.981   8.312  71.019  1.00  0.00    -0.226 A  
ENDROOT
BRANCH   8  11
HETATM   11  C   UNL     1     -11.556   6.462  70.329  1.00  0.00    -0.451 C  
BRANCH  11  12
HETATM   12  C   UNL     1     -12.512   6.782  71.479  1.00  0.00    -0.341 C  
BRANCH  12  13
HETATM   13  N   UNL     1     -13.730   7.428  70.974  1.00  0.00    -0.613 NA 
HETATM   14  H   UNL     1     -14.441   6.748  70.702  1.00  0.00     0.000 HD 
BRANCH  13  15
HETATM   15  C   UNL     1     -14.228   8.378  71.964  1.00  0.00    -0.444 C  
BRANCH  15  16
HETATM   16  C   UNL     1     -13.339   9.617  72.009  1.00  0.00    -0.547 C  
BRANCH  16  17
HETATM   17  C   UNL     1     -13.229  10.215  70.609  1.00  0.00    -0.197 C  
BRANCH  17  18
HETATM   18  C   UNL     1     -12.291  11.409  70.598  1.00  0.00    -0.466 C  
BRANCH  18  19
HETATM   19  C   UNL     1     -11.983  11.848  69.167  1.00  0.00    -0.336 C  
BRANCH  19  20
HETATM   20  C   UNL     1     -11.331  13.223  69.201  1.00  0.00    -0.282 C  
BRANCH  20  21
HETATM   21  N   UNL     1     -10.224  13.303  68.252  1.00  0.00    -0.246 NA 
HETATM   22  H   UNL     1     -10.218  12.507  67.614  1.00  0.00     0.000 HD 
BRANCH  21  23
HETATM   23  C   UNL     1     -10.240  14.580  67.524  1.00  0.00    -0.232 C  
BRANCH  23  24
HETATM   24  C   UNL     1      -9.731  14.455  66.079  1.00  0.00    -0.320 C  
BRANCH  24  25
HETATM   25  C   UNL     1     -10.663  13.651  65.213  1.00  0.00    -0.340 A  
HETATM   26  C   UNL     1     -10.141  12.811  64.222  1.00  0.00    -0.277 A  
HETATM   27  C   UNL     1     -10.997  12.053  63.421  1.00  0.00    -0.475 A  
HETATM   28  C   UNL     1     -12.375  12.140  63.605  1.00  0.00    -0.673 A  
HETATM   29  C   UNL     1     -12.900  12.985  64.582  1.00  0.00    -0.279 A  
HETATM   30  C   UNL     1     -12.046  13.742  65.383  1.00  0.00    -0.427 A  
ENDBRANCH  24  25
ENDBRANCH  23  24
ENDBRANCH  21  23
ENDBRANCH  20  21
ENDBRANCH  19  20
ENDBRANCH  18  19
ENDBRANCH  17  18
ENDBRANCH  16  17
ENDBRANCH  15  16
ENDBRANCH  13  15
ENDBRANCH  12  13
ENDBRANCH  11  12
ENDBRANCH   8  11
TORSDOF 13
ENDMDL
MODEL       87
REMARK 921   NORMALIZED FREE ENERGY PREDICTED BY IDOCK:   -4.71 KCAL/MOL
REMARK 922        TOTAL FREE ENERGY PREDICTED BY IDOCK:  -11.05 KCAL/MOL
REMARK 923 INTER-LIGAND FREE ENERGY PREDICTED BY IDOCK:  -10.11 KCAL/MOL
REMARK 924 INTRA-LIGAND FREE ENERGY PREDICTED BY IDOCK:   -0.94 KCAL/MOL
REMARK 927      BINDING AFFINITY PREDICTED BY RF-SCORE:    0.00 PKD
ROOT
HETATM    1  O   UNL     1     -13.641  11.435  72.257  1.00  0.00    -0.537 OA 
HETATM    2  H   UNL     1     -13.536  12.291  71.859  1.00  0.00     0.000 HD 
HETATM    3  C   UNL     1     -12.983  10.316  71.822  1.00  0.00    -0.469 A  
HETATM    4  C   UNL     1     -13.136   9.062  72.406  1.00  0.00    -0.423 A  
HETATM    5  C   UNL     1     -12.403   7.973  71.932  1.00  0.00    -0.360 A  
HETATM    6  O   UNL     1     -13.988   8.831  73.449  1.00  0.00    -1.132 OA 
HETATM    7  H   UNL     1     -14.093   7.975  73.847  1.00  0.00     0.000 HD 
HETATM    8  C   UNL     1     -11.499   8.136  70.876  1.00  0.00    -0.288 A  
HETATM    9  C   UNL     1     -12.123  10.480  70.741  1.00  0.00    -0.470 A  
HETATM   10  C   UNL     1     -11.385   9.395  70.265  1.00  0.00    -0.261 A  
ENDROOT
BRANCH   8  11
HETATM   11  C   UNL     1     -10.666   6.977  70.387  1.00  0.00    -0.259 C  
BRANCH  11  12
HETATM   12  C   UNL     1     -11.151   6.466  69.029  1.00  0.00    -0.358 C  
BRANCH  12  13
HETATM   13  N   UNL     1     -10.118   6.660  68.005  1.00  0.00    -0.146 NA 
HETATM   14  H   UNL     1      -9.875   5.788  67.534  1.00  0.00     0.000 HD 
BRANCH  13  15
HETATM   15  C   UNL     1     -10.547   7.692  67.065  1.00  0.00    -0.336 C  
BRANCH  15  16
HETATM   16  C   UNL     1      -9.375   8.147  66.201  1.00  0.00    -0.232 C  
BRANCH  16  17
HETATM   17  C   UNL     1      -9.512   9.638  65.903  1.00  0.00    -0.296 C  
BRANCH  17  18
HETATM   18  C   UNL     1     -10.399  10.321  66.930  1.00  0.00    -0.298 C  
BRANCH  18  19
HETATM   19  C   UNL     1     -11.168  11.481  66.301  1.00  0.00    -0.286 C  
BRANCH  19  20
HETATM   20  C   UNL     1     -10.993  12.719  67.170  1.00  0.00    -0.263 C  
BRANCH  20  21
HETATM   21  N   UNL     1     -10.378  13.808  66.415  1.00  0.00    -0.284 NA 
HETATM   22  H   UNL     1     -10.352  13.603  65.416  1.00  0.00     0.000 HD 
BRANCH  21  23
HETATM   23  C   UNL     1     -11.048  15.087  66.688  1.00  0.00    -0.326 C  
BRANCH  23  24
HETATM   24  C   UNL     1     -10.519  16.240  65.820  1.00  0.00    -0.379 C  
BRANCH  24  25
HETATM   25  C   UNL     1     -10.391  17.525  66.593  1.00  0.00    -0.319 A  
HETATM   26  C   UNL     1     -10.165  17.489  67.974  1.00  0.00    -0.354 A  
HETATM   27  C   UNL     1     -10.034  18.675  68.697  1.00  0.00    -0.431 A  
HETATM   28  C   UNL     1     -10.136  19.900  68.041  1.00  0.00    -0.572 A  
HETATM   29  C   UNL     1     -10.374  19.942  66.668  1.00  0.00    -0.608 A  
HETATM   30  C   UNL     1     -10.505  18.758  65.945  1.00  0.00    -0.424 A  
ENDBRANCH  24  25
ENDBRANCH  23  24
ENDBRANCH  21  23
ENDBRANCH  20  21
ENDBRANCH  19  20
ENDBRANCH  18  19
ENDBRANCH  17  18
ENDBRANCH  16  17
ENDBRANCH  15  16
ENDBRANCH  13  15
ENDBRANCH  12  13
ENDBRANCH  11  12
ENDBRANCH   8  11
TORSDOF 13
ENDMDL
MODEL       88
REMARK 921   NORMALIZED FREE ENERGY PREDICTED BY IDOCK:   -4.70 KCAL/MOL
REMARK 922        TOTAL FREE ENERGY PREDICTED BY IDOCK:  -11.03 KCAL/MOL
REMARK 923 INTER-LIGAND FREE ENERGY PREDICTED BY IDOCK:   -9.38 KCAL/MOL
REMARK 924 INTRA-LIGAND FREE ENERGY PREDICTED BY IDOCK:   -1.66 KCAL/MOL
REMARK 927      BINDING AFFINITY PREDICTED BY RF-SCORE:    0.00 PKD
ROOT
HETATM    1  O   UNL     1     -10.823  15.865  66.016  1.00  0.00    -0.305 OA 
HETATM    2  H   UNL     1     -10.053  16.374  66.241  1.00  0.00     0.000 HD 
HETATM    3  C   UNL     1     -10.899  14.507  66.170  1.00  0.00    -0.317 A  
HETATM    4  C   UNL     1     -12.026  13.760  65.842  1.00  0.00    -0.406 A  
HETATM    5  C   UNL     1     -12.044  12.382  66.062  1.00  0.00    -0.327 A  
HETATM    6  O   UNL     1     -13.150  14.317  65.301  1.00  0.00    -0.707 OA 
HETATM    7  H   UNL     1     -13.919  13.808  65.076  1.00  0.00     0.000 HD 
HETATM    8  C   UNL     1     -10.934  11.742  66.628  1.00  0.00    -0.342 A  
HETATM    9  C   UNL     1      -9.773  13.875  66.688  1.00  0.00    -0.295 A  
HETATM   10  C   UNL     1      -9.786  12.497  66.914  1.00  0.00    -0.229 A  
ENDROOT
BRANCH   8  11
HETATM   11  C   UNL     1     -10.961  10.262  66.915  1.00  0.00    -0.140 C  
BRANCH  11  12
HETATM   12  C   UNL     1      -9.669   9.577  66.464  1.00  0.00    -0.222 C  
BRANCH  12  13
HETATM   13  N   UNL     1      -9.735   8.132  66.716  1.00  0.00    -0.214 NA 
HETATM   14  H   UNL     1      -8.839   7.755  67.025  1.00  0.00     0.000 HD 
BRANCH  13  15
HETATM   15  C   UNL     1     -10.809   7.848  67.664  1.00  0.00    -0.055 C  
BRANCH  15  16
HETATM   16  C   UNL     1     -10.886   6.351  67.948  1.00  0.00    -0.404 C  
BRANCH  16  17
HETATM   17  C   UNL     1     -11.129   6.129  69.439  1.00  0.00    -0.479 C  
BRANCH  17  18
HETATM   18  C   UNL     1     -10.718   7.348  70.247  1.00  0.00    -0.250 C  
BRANCH  18  19
HETATM   19  C   UNL     1     -11.458   7.393  71.582  1.00  0.00    -0.294 C  
BRANCH  19  20
HETATM   20  C   UNL     1     -12.943   7.165  71.332  1.00  0.00    -0.368 C  
BRANCH  20  21
HETATM   21  N   UNL     1     -13.630   8.428  71.070  1.00  0.00    -0.533 NA 
HETATM   22  H   UNL     1     -14.578   8.423  71.444  1.00  0.00     0.000 HD 
BRANCH  21  23
HETATM   23  C   UNL     1     -12.854   9.569  71.575  1.00  0.00    -0.377 C  
BRANCH  23  24
HETATM   24  C   UNL     1     -12.430  10.547  70.468  1.00  0.00    -0.433 C  
BRANCH  24  25
HETATM   25  C   UNL     1     -12.669  11.983  70.850  1.00  0.00    -0.291 A  
HETATM   26  C   UNL     1     -12.150  13.011  70.056  1.00  0.00    -0.367 A  
HETATM   27  C   UNL     1     -12.376  14.346  70.397  1.00  0.00    -0.406 A  
HETATM   28  C   UNL     1     -13.115  14.653  71.537  1.00  0.00    -0.420 A  
HETATM   29  C   UNL     1     -13.624  13.633  72.338  1.00  0.00    -0.703 A  
HETATM   30  C   UNL     1     -13.400  12.300  71.998  1.00  0.00    -0.491 A  
ENDBRANCH  24  25
ENDBRANCH  23  24
ENDBRANCH  21  23
ENDBRANCH  20  21
ENDBRANCH  19  20
ENDBRANCH  18  19
ENDBRANCH  17  18
ENDBRANCH  16  17
ENDBRANCH  15  16
ENDBRANCH  13  15
ENDBRANCH  12  13
ENDBRANCH  11  12
ENDBRANCH   8  11
TORSDOF 13
ENDMDL
MODEL       89
REMARK 921   NORMALIZED FREE ENERGY PREDICTED BY IDOCK:   -4.69 KCAL/MOL
REMARK 922        TOTAL FREE ENERGY PREDICTED BY IDOCK:  -11.02 KCAL/MOL
REMARK 923 INTER-LIGAND FREE ENERGY PREDICTED BY IDOCK:   -8.83 KCAL/MOL
REMARK 924 INTRA-LIGAND FREE ENERGY PREDICTED BY IDOCK:   -2.19 KCAL/MOL
REMARK 927      BINDING AFFINITY PREDICTED BY RF-SCORE:    0.00 PKD
ROOT
HETATM    1  O   UNL     1      -8.061  11.370  65.488  1.00  0.00    -0.361 OA 
HETATM    2  H   UNL     1      -7.352  11.918  65.803  1.00  0.00     0.000 HD 
HETATM    3  C   UNL     1      -8.645  10.388  66.242  1.00  0.00    -0.142 A  
HETATM    4  C   UNL     1      -9.685   9.586  65.781  1.00  0.00    -0.287 A  
HETATM    5  C   UNL     1     -10.257   8.628  66.621  1.00  0.00    -0.343 A  
HETATM    6  O   UNL     1     -10.192   9.686  64.517  1.00  0.00    -0.274 OA 
HETATM    7  H   UNL     1     -10.901   9.138  64.202  1.00  0.00     0.000 HD 
HETATM    8  C   UNL     1      -9.800   8.478  67.936  1.00  0.00    -0.208 A  
HETATM    9  C   UNL     1      -8.151  10.215  67.530  1.00  0.00    -0.113 A  
HETATM   10  C   UNL     1      -8.722   9.262  68.376  1.00  0.00    -0.129 A  
ENDROOT
BRANCH   8  11
HETATM   11  C   UNL     1     -10.444   7.480  68.867  1.00  0.00    -0.214 C  
BRANCH  11  12
HETATM   12  C   UNL     1     -10.882   8.135  70.178  1.00  0.00    -0.241 C  
BRANCH  12  13
HETATM   13  N   UNL     1     -11.782   9.265  69.917  1.00  0.00    -0.443 NA 
HETATM   14  H   UNL     1     -12.754   9.039  70.130  1.00  0.00     0.000 HD 
BRANCH  13  15
HETATM   15  C   UNL     1     -11.317  10.441  70.647  1.00  0.00    -0.325 C  
BRANCH  15  16
HETATM   16  C   UNL     1     -11.805  11.717  69.969  1.00  0.00    -0.435 C  
BRANCH  16  17
HETATM   17  C   UNL     1     -11.850  11.504  68.458  1.00  0.00    -0.365 C  
BRANCH  17  18
HETATM   18  C   UNL     1     -11.468  12.774  67.716  1.00  0.00    -0.376 C  
BRANCH  18  19
HETATM   19  C   UNL     1     -11.669  12.608  66.211  1.00  0.00    -0.460 C  
BRANCH  19  20
HETATM   20  C   UNL     1     -10.829  13.649  65.483  1.00  0.00    -0.294 C  
BRANCH  20  21
HETATM   21  N   UNL     1      -9.531  13.821  66.131  1.00  0.00    -0.471 NA 
HETATM   22  H   UNL     1      -8.820  13.224  65.710  1.00  0.00     0.000 HD 
BRANCH  21  23
HETATM   23  C   UNL     1      -9.121  15.233  66.131  1.00  0.00    -0.279 C  
BRANCH  23  24
HETATM   24  C   UNL     1     -10.266  16.192  65.773  1.00  0.00    -0.397 C  
BRANCH  24  25
HETATM   25  C   UNL     1     -10.228  17.457  66.588  1.00  0.00    -0.324 A  
HETATM   26  C   UNL     1      -9.976  17.392  67.964  1.00  0.00    -0.302 A  
HETATM   27  C   UNL     1      -9.928  18.561  68.725  1.00  0.00    -0.417 A  
HETATM   28  C   UNL     1     -10.139  19.795  68.114  1.00  0.00    -0.574 A  
HETATM   29  C   UNL     1     -10.402  19.864  66.747  1.00  0.00    -0.599 A  
HETATM   30  C   UNL     1     -10.449  18.698  65.985  1.00  0.00    -0.456 A  
ENDBRANCH  24  25
ENDBRANCH  23  24
ENDBRANCH  21  23
ENDBRANCH  20  21
ENDBRANCH  19  20
ENDBRANCH  18  19
ENDBRANCH  17  18
ENDBRANCH  16  17
ENDBRANCH  15  16
ENDBRANCH  13  15
ENDBRANCH  12  13
ENDBRANCH  11  12
ENDBRANCH   8  11
TORSDOF 13
ENDMDL
MODEL       90
REMARK 921   NORMALIZED FREE ENERGY PREDICTED BY IDOCK:   -4.69 KCAL/MOL
REMARK 922        TOTAL FREE ENERGY PREDICTED BY IDOCK:  -11.00 KCAL/MOL
REMARK 923 INTER-LIGAND FREE ENERGY PREDICTED BY IDOCK:   -9.37 KCAL/MOL
REMARK 924 INTRA-LIGAND FREE ENERGY PREDICTED BY IDOCK:   -1.64 KCAL/MOL
REMARK 927      BINDING AFFINITY PREDICTED BY RF-SCORE:    0.00 PKD
ROOT
HETATM    1  O   UNL     1     -10.753   8.254  69.736  1.00  0.00    -0.239 OA 
HETATM    2  H   UNL     1     -11.488   7.666  69.606  1.00  0.00     0.000 HD 
HETATM    3  C   UNL     1     -10.084   8.861  68.708  1.00  0.00    -0.200 A  
HETATM    4  C   UNL     1      -9.008   9.724  68.898  1.00  0.00    -0.144 A  
HETATM    5  C   UNL     1      -8.398  10.337  67.802  1.00  0.00    -0.110 A  
HETATM    6  O   UNL     1      -8.502  10.013  70.133  1.00  0.00    -0.312 OA 
HETATM    7  H   UNL     1      -7.768  10.601  70.263  1.00  0.00     0.000 HD 
HETATM    8  C   UNL     1      -8.872  10.100  66.506  1.00  0.00    -0.153 A  
HETATM    9  C   UNL     1     -10.533   8.581  67.422  1.00  0.00    -0.351 A  
HETATM   10  C   UNL     1      -9.928   9.194  66.322  1.00  0.00    -0.352 A  
ENDROOT
BRANCH   8  11
HETATM   11  C   UNL     1      -8.252  10.795  65.319  1.00  0.00    -0.052 C  
BRANCH  11  12
HETATM   12  C   UNL     1      -9.048  10.541  64.038  1.00  0.00    -0.231 C  
BRANCH  12  13
HETATM   13  N   UNL     1      -9.656  11.785  63.552  1.00  0.00    -0.537 NA 
HETATM   14  H   UNL     1      -9.252  12.089  62.665  1.00  0.00     0.000 HD 
BRANCH  13  15
HETATM   15  C   UNL     1     -11.105  11.625  63.471  1.00  0.00    -0.393 C  
BRANCH  15  16
HETATM   16  C   UNL     1     -11.793  12.986  63.465  1.00  0.00    -0.582 C  
BRANCH  16  17
HETATM   17  C   UNL     1     -11.445  13.737  64.747  1.00  0.00    -0.366 C  
BRANCH  17  18
HETATM   18  C   UNL     1     -12.041  13.047  65.963  1.00  0.00    -0.493 C  
BRANCH  18  19
HETATM   19  C   UNL     1     -10.966  12.764  67.011  1.00  0.00    -0.295 C  
BRANCH  19  20
HETATM   20  C   UNL     1     -11.629  12.181  68.252  1.00  0.00    -0.325 C  
BRANCH  20  21
HETATM   21  N   UNL     1     -11.472  13.072  69.398  1.00  0.00    -0.369 NA 
HETATM   22  H   UNL     1     -10.919  12.639  70.137  1.00  0.00     0.000 HD 
BRANCH  21  23
HETATM   23  C   UNL     1     -10.910  14.368  68.990  1.00  0.00    -0.252 C  
BRANCH  23  24
HETATM   24  C   UNL     1     -11.887  15.537  69.191  1.00  0.00    -0.373 C  
BRANCH  24  25
HETATM   25  C   UNL     1     -12.420  15.602  70.597  1.00  0.00    -0.463 A  
HETATM   26  C   UNL     1     -11.552  15.882  71.659  1.00  0.00    -0.541 A  
HETATM   27  C   UNL     1     -12.040  15.954  72.965  1.00  0.00    -0.615 A  
HETATM   28  C   UNL     1     -13.394  15.742  73.211  1.00  0.00    -0.649 A  
HETATM   29  C   UNL     1     -14.261  15.452  72.158  1.00  0.00    -0.660 A  
HETATM   30  C   UNL     1     -13.775  15.379  70.854  1.00  0.00    -0.310 A  
ENDBRANCH  24  25
ENDBRANCH  23  24
ENDBRANCH  21  23
ENDBRANCH  20  21
ENDBRANCH  19  20
ENDBRANCH  18  19
ENDBRANCH  17  18
ENDBRANCH  16  17
ENDBRANCH  15  16
ENDBRANCH  13  15
ENDBRANCH  12  13
ENDBRANCH  11  12
ENDBRANCH   8  11
TORSDOF 13
ENDMDL
MODEL       91
REMARK 921   NORMALIZED FREE ENERGY PREDICTED BY IDOCK:   -4.68 KCAL/MOL
REMARK 922        TOTAL FREE ENERGY PREDICTED BY IDOCK:  -10.99 KCAL/MOL
REMARK 923 INTER-LIGAND FREE ENERGY PREDICTED BY IDOCK:   -9.30 KCAL/MOL
REMARK 924 INTRA-LIGAND FREE ENERGY PREDICTED BY IDOCK:   -1.69 KCAL/MOL
REMARK 927      BINDING AFFINITY PREDICTED BY RF-SCORE:    0.00 PKD
ROOT
HETATM    1  O   UNL     1      -9.283  10.352  69.953  1.00  0.00    -0.410 OA 
HETATM    2  H   UNL     1      -8.766  11.019  70.388  1.00  0.00     0.000 HD 
HETATM    3  C   UNL     1      -9.444  10.292  68.595  1.00  0.00    -0.169 A  
HETATM    4  C   UNL     1     -10.201   9.314  67.956  1.00  0.00    -0.209 A  
HETATM    5  C   UNL     1     -10.289   9.294  66.562  1.00  0.00    -0.270 A  
HETATM    6  O   UNL     1     -10.881   8.344  68.636  1.00  0.00    -0.418 OA 
HETATM    7  H   UNL     1     -11.398   7.677  68.200  1.00  0.00     0.000 HD 
HETATM    8  C   UNL     1      -9.606  10.246  65.798  1.00  0.00    -0.279 A  
HETATM    9  C   UNL     1      -8.800  11.272  67.847  1.00  0.00    -0.142 A  
HETATM   10  C   UNL     1      -8.882  11.254  66.453  1.00  0.00    -0.184 A  
ENDROOT
BRANCH   8  11
HETATM   11  C   UNL     1      -9.655  10.204  64.290  1.00  0.00    -0.354 C  
BRANCH  11  12
HETATM   12  C   UNL     1     -10.117  11.539  63.704  1.00  0.00    -0.388 C  
BRANCH  12  13
HETATM   13  N   UNL     1     -11.425  11.393  63.054  1.00  0.00    -0.852 NA 
HETATM   14  H   UNL     1     -11.826  10.466  63.200  1.00  0.00     0.000 HD 
BRANCH  13  15
HETATM   15  C   UNL     1     -12.319  12.457  63.505  1.00  0.00    -0.546 C  
BRANCH  15  16
HETATM   16  C   UNL     1     -12.321  12.541  65.028  1.00  0.00    -0.522 C  
BRANCH  16  17
HETATM   17  C   UNL     1     -12.668  13.964  65.458  1.00  0.00    -0.536 C  
BRANCH  17  18
HETATM   18  C   UNL     1     -11.440  14.858  65.431  1.00  0.00    -0.320 C  
BRANCH  18  19
HETATM   19  C   UNL     1     -10.590  14.655  66.684  1.00  0.00    -0.289 C  
BRANCH  19  20
HETATM   20  C   UNL     1      -9.128  14.889  66.332  1.00  0.00    -0.258 C  
BRANCH  20  21
HETATM   21  N   UNL     1      -8.280  14.787  67.517  1.00  0.00    -0.171 NA 
HETATM   22  H   UNL     1      -7.715  13.938  67.502  1.00  0.00     0.000 HD 
BRANCH  21  23
HETATM   23  C   UNL     1      -7.447  15.987  67.680  1.00  0.00    -0.150 C  
BRANCH  23  24
HETATM   24  C   UNL     1      -7.993  16.959  68.737  1.00  0.00    -0.254 C  
BRANCH  24  25
HETATM   25  C   UNL     1      -8.688  18.143  68.120  1.00  0.00    -0.285 A  
HETATM   26  C   UNL     1     -10.083  18.154  68.013  1.00  0.00    -0.376 A  
HETATM   27  C   UNL     1     -10.737  19.253  67.452  1.00  0.00    -0.594 A  
HETATM   28  C   UNL     1      -9.996  20.338  66.992  1.00  0.00    -0.601 A  
HETATM   29  C   UNL     1      -8.605  20.328  67.086  1.00  0.00    -0.417 A  
HETATM   30  C   UNL     1      -7.951  19.231  67.645  1.00  0.00    -0.311 A  
ENDBRANCH  24  25
ENDBRANCH  23  24
ENDBRANCH  21  23
ENDBRANCH  20  21
ENDBRANCH  19  20
ENDBRANCH  18  19
ENDBRANCH  17  18
ENDBRANCH  16  17
ENDBRANCH  15  16
ENDBRANCH  13  15
ENDBRANCH  12  13
ENDBRANCH  11  12
ENDBRANCH   8  11
TORSDOF 13
ENDMDL
MODEL       92
REMARK 921   NORMALIZED FREE ENERGY PREDICTED BY IDOCK:   -4.68 KCAL/MOL
REMARK 922        TOTAL FREE ENERGY PREDICTED BY IDOCK:  -10.98 KCAL/MOL
REMARK 923 INTER-LIGAND FREE ENERGY PREDICTED BY IDOCK:   -9.54 KCAL/MOL
REMARK 924 INTRA-LIGAND FREE ENERGY PREDICTED BY IDOCK:   -1.45 KCAL/MOL
REMARK 927      BINDING AFFINITY PREDICTED BY RF-SCORE:    0.00 PKD
ROOT
HETATM    1  O   UNL     1     -10.617   6.424  70.482  1.00  0.00    -0.216 OA 
HETATM    2  H   UNL     1      -9.924   6.218  69.865  1.00  0.00     0.000 HD 
HETATM    3  C   UNL     1     -11.097   7.691  70.678  1.00  0.00    -0.257 A  
HETATM    4  C   UNL     1     -12.112   7.993  71.581  1.00  0.00    -0.303 A  
HETATM    5  C   UNL     1     -12.577   9.305  71.701  1.00  0.00    -0.446 A  
HETATM    6  O   UNL     1     -12.697   7.052  72.378  1.00  0.00    -0.509 OA 
HETATM    7  H   UNL     1     -13.390   7.258  72.995  1.00  0.00     0.000 HD 
HETATM    8  C   UNL     1     -12.036  10.321  70.905  1.00  0.00    -0.473 A  
HETATM    9  C   UNL     1     -10.519   8.701  69.917  1.00  0.00    -0.221 A  
HETATM   10  C   UNL     1     -10.982  10.014  70.031  1.00  0.00    -0.352 A  
ENDROOT
BRANCH   8  11
HETATM   11  C   UNL     1     -12.564  11.732  70.992  1.00  0.00    -0.409 C  
BRANCH  11  12
HETATM   12  C   UNL     1     -13.616  11.874  72.093  1.00  0.00    -0.085 C  
BRANCH  12  13
HETATM   13  N   UNL     1     -13.517  13.189  72.737  1.00  0.00    -0.633 NA 
HETATM   14  H   UNL     1     -12.550  13.444  72.942  1.00  0.00     0.000 HD 
BRANCH  13  15
HETATM   15  C   UNL     1     -14.188  14.191  71.914  1.00  0.00    -0.474 C  
BRANCH  15  16
HETATM   16  C   UNL     1     -13.391  15.490  71.898  1.00  0.00    -0.569 C  
BRANCH  16  17
HETATM   17  C   UNL     1     -11.906  15.174  71.735  1.00  0.00    -0.471 C  
BRANCH  17  18
HETATM   18  C   UNL     1     -11.377  15.704  70.414  1.00  0.00    -0.373 C  
BRANCH  18  19
HETATM   19  C   UNL     1     -11.704  14.745  69.270  1.00  0.00    -0.347 C  
BRANCH  19  20
HETATM   20  C   UNL     1     -10.404  14.198  68.698  1.00  0.00    -0.243 C  
BRANCH  20  21
HETATM   21  N   UNL     1      -9.248  14.741  69.409  1.00  0.00    -0.411 NA 
HETATM   22  H   UNL     1      -8.912  14.099  70.125  1.00  0.00     0.000 HD 
BRANCH  21  23
HETATM   23  C   UNL     1      -8.178  15.116  68.473  1.00  0.00    -0.148 C  
BRANCH  23  24
HETATM   24  C   UNL     1      -8.700  15.818  67.211  1.00  0.00    -0.210 C  
BRANCH  24  25
HETATM   25  C   UNL     1      -9.147  17.229  67.484  1.00  0.00    -0.223 A  
HETATM   26  C   UNL     1      -8.437  18.020  68.395  1.00  0.00    -0.306 A  
HETATM   27  C   UNL     1      -8.837  19.334  68.647  1.00  0.00    -0.415 A  
HETATM   28  C   UNL     1      -9.951  19.855  67.994  1.00  0.00    -0.556 A  
HETATM   29  C   UNL     1     -10.669  19.068  67.094  1.00  0.00    -0.541 A  
HETATM   30  C   UNL     1     -10.270  17.756  66.842  1.00  0.00    -0.346 A  
ENDBRANCH  24  25
ENDBRANCH  23  24
ENDBRANCH  21  23
ENDBRANCH  20  21
ENDBRANCH  19  20
ENDBRANCH  18  19
ENDBRANCH  17  18
ENDBRANCH  16  17
ENDBRANCH  15  16
ENDBRANCH  13  15
ENDBRANCH  12  13
ENDBRANCH  11  12
ENDBRANCH   8  11
TORSDOF 13
ENDMDL
MODEL       93
REMARK 921   NORMALIZED FREE ENERGY PREDICTED BY IDOCK:   -4.67 KCAL/MOL
REMARK 922        TOTAL FREE ENERGY PREDICTED BY IDOCK:  -10.98 KCAL/MOL
REMARK 923 INTER-LIGAND FREE ENERGY PREDICTED BY IDOCK:   -9.67 KCAL/MOL
REMARK 924 INTRA-LIGAND FREE ENERGY PREDICTED BY IDOCK:   -1.31 KCAL/MOL
REMARK 927      BINDING AFFINITY PREDICTED BY RF-SCORE:    0.00 PKD
ROOT
HETATM    1  O   UNL     1     -10.352  19.712  68.894  1.00  0.00    -0.577 OA 
HETATM    2  H   UNL     1     -10.232  20.616  68.631  1.00  0.00     0.000 HD 
HETATM    3  C   UNL     1     -10.516  18.684  68.005  1.00  0.00    -0.349 A  
HETATM    4  C   UNL     1     -10.692  17.359  68.390  1.00  0.00    -0.301 A  
HETATM    5  C   UNL     1     -10.816  16.358  67.424  1.00  0.00    -0.219 A  
HETATM    6  O   UNL     1     -10.750  16.970  69.698  1.00  0.00    -0.356 OA 
HETATM    7  H   UNL     1     -10.870  16.065  69.961  1.00  0.00     0.000 HD 
HETATM    8  C   UNL     1     -10.751  16.678  66.063  1.00  0.00    -0.153 A  
HETATM    9  C   UNL     1     -10.498  19.020  66.655  1.00  0.00    -0.517 A  
HETATM   10  C   UNL     1     -10.618  18.023  65.685  1.00  0.00    -0.104 A  
ENDROOT
BRANCH   8  11
HETATM   11  C   UNL     1     -10.835  15.598  65.012  1.00  0.00    -0.468 C  
BRANCH  11  12
HETATM   12  C   UNL     1     -12.131  15.696  64.205  1.00  0.00    -0.063 C  
BRANCH  12  13
HETATM   13  N   UNL     1     -12.436  14.415  63.558  1.00  0.00    -1.090 NA 
HETATM   14  H   UNL     1     -11.986  14.328  62.646  1.00  0.00     0.000 HD 
BRANCH  13  15
HETATM   15  C   UNL     1     -12.081  13.317  64.453  1.00  0.00    -0.415 C  
BRANCH  15  16
HETATM   16  C   UNL     1     -12.076  11.992  63.697  1.00  0.00    -0.627 C  
BRANCH  16  17
HETATM   17  C   UNL     1     -10.638  11.511  63.524  1.00  0.00    -0.487 C  
BRANCH  17  18
HETATM   18  C   UNL     1      -9.732  12.102  64.591  1.00  0.00    -0.059 C  
BRANCH  18  19
HETATM   19  C   UNL     1      -9.686  11.205  65.827  1.00  0.00    -0.266 C  
BRANCH  19  20
HETATM   20  C   UNL     1      -8.585  11.699  66.755  1.00  0.00    -0.180 C  
BRANCH  20  21
HETATM   21  N   UNL     1      -9.089  11.884  68.114  1.00  0.00    -0.185 NA 
HETATM   22  H   UNL     1      -8.474  12.484  68.663  1.00  0.00     0.000 HD 
BRANCH  21  23
HETATM   23  C   UNL     1     -10.470  12.388  68.105  1.00  0.00    -0.219 C  
BRANCH  23  24
HETATM   24  C   UNL     1     -11.444  11.491  68.884  1.00  0.00    -0.352 C  
BRANCH  24  25
HETATM   25  C   UNL     1     -12.098  12.217  70.029  1.00  0.00    -0.352 A  
HETATM   26  C   UNL     1     -12.026  13.613  70.101  1.00  0.00    -0.407 A  
HETATM   27  C   UNL     1     -12.639  14.295  71.154  1.00  0.00    -0.432 A  
HETATM   28  C   UNL     1     -13.319  13.582  72.138  1.00  0.00    -0.593 A  
HETATM   29  C   UNL     1     -13.384  12.190  72.077  1.00  0.00    -0.470 A  
HETATM   30  C   UNL     1     -12.772  11.508  71.026  1.00  0.00    -0.426 A  
ENDBRANCH  24  25
ENDBRANCH  23  24
ENDBRANCH  21  23
ENDBRANCH  20  21
ENDBRANCH  19  20
ENDBRANCH  18  19
ENDBRANCH  17  18
ENDBRANCH  16  17
ENDBRANCH  15  16
ENDBRANCH  13  15
ENDBRANCH  12  13
ENDBRANCH  11  12
ENDBRANCH   8  11
TORSDOF 13
ENDMDL
MODEL       94
REMARK 921   NORMALIZED FREE ENERGY PREDICTED BY IDOCK:   -4.67 KCAL/MOL
REMARK 922        TOTAL FREE ENERGY PREDICTED BY IDOCK:  -10.98 KCAL/MOL
REMARK 923 INTER-LIGAND FREE ENERGY PREDICTED BY IDOCK:   -9.74 KCAL/MOL
REMARK 924 INTRA-LIGAND FREE ENERGY PREDICTED BY IDOCK:   -1.23 KCAL/MOL
REMARK 927      BINDING AFFINITY PREDICTED BY RF-SCORE:    0.00 PKD
ROOT
HETATM    1  O   UNL     1     -11.489  16.391  63.775  1.00  0.00    -1.590 OA 
HETATM    2  H   UNL     1     -11.095  17.239  63.944  1.00  0.00     0.000 HD 
HETATM    3  C   UNL     1     -11.536  15.385  64.701  1.00  0.00    -0.311 A  
HETATM    4  C   UNL     1     -12.114  14.143  64.455  1.00  0.00    -0.463 A  
HETATM    5  C   UNL     1     -12.159  13.177  65.462  1.00  0.00    -0.490 A  
HETATM    6  O   UNL     1     -12.657  13.807  63.248  1.00  0.00    -1.005 OA 
HETATM    7  H   UNL     1     -13.051  12.960  63.079  1.00  0.00     0.000 HD 
HETATM    8  C   UNL     1     -11.636  13.455  66.730  1.00  0.00    -0.404 A  
HETATM    9  C   UNL     1     -10.971  15.655  65.943  1.00  0.00    -0.231 A  
HETATM   10  C   UNL     1     -11.016  14.694  66.955  1.00  0.00    -0.317 A  
ENDROOT
BRANCH   8  11
HETATM   11  C   UNL     1     -11.723  12.436  67.840  1.00  0.00    -0.421 C  
BRANCH  11  12
HETATM   12  C   UNL     1     -11.856  13.105  69.210  1.00  0.00    -0.323 C  
BRANCH  12  13
HETATM   13  N   UNL     1     -11.759  12.108  70.283  1.00  0.00    -0.534 NA 
HETATM   14  H   UNL     1     -12.303  12.374  71.105  1.00  0.00     0.000 HD 
BRANCH  13  15
HETATM   15  C   UNL     1     -12.143  10.796  69.770  1.00  0.00    -0.318 C  
BRANCH  15  16
HETATM   16  C   UNL     1     -13.224  10.175  70.648  1.00  0.00    -0.197 C  
BRANCH  16  17
HETATM   17  C   UNL     1     -12.597   9.666  71.944  1.00  0.00    -0.481 C  
BRANCH  17  18
HETATM   18  C   UNL     1     -12.904   8.194  72.157  1.00  0.00    -0.311 C  
BRANCH  18  19
HETATM   19  C   UNL     1     -11.655   7.339  71.946  1.00  0.00    -0.313 C  
BRANCH  19  20
HETATM   20  C   UNL     1     -10.446   8.093  72.482  1.00  0.00    -0.339 C  
BRANCH  20  21
HETATM   21  N   UNL     1      -9.279   7.888  71.627  1.00  0.00    -0.136 NA 
HETATM   22  H   UNL     1      -9.337   7.006  71.119  1.00  0.00     0.000 HD 
BRANCH  21  23
HETATM   23  C   UNL     1      -9.082   9.025  70.717  1.00  0.00    -0.245 C  
BRANCH  23  24
HETATM   24  C   UNL     1      -8.172   8.691  69.525  1.00  0.00    -0.115 C  
BRANCH  24  25
HETATM   25  C   UNL     1      -8.824   7.744  68.555  1.00  0.00    -0.130 A  
HETATM   26  C   UNL     1      -8.109   6.643  68.069  1.00  0.00    -0.110 A  
HETATM   27  C   UNL     1      -8.710   5.752  67.177  1.00  0.00    -0.108 A  
HETATM   28  C   UNL     1     -10.024   5.965  66.766  1.00  0.00    -0.212 A  
HETATM   29  C   UNL     1     -10.737   7.067  67.239  1.00  0.00    -0.412 A  
HETATM   30  C   UNL     1     -10.137   7.956  68.129  1.00  0.00    -0.228 A  
ENDBRANCH  24  25
ENDBRANCH  23  24
ENDBRANCH  21  23
ENDBRANCH  20  21
ENDBRANCH  19  20
ENDBRANCH  18  19
ENDBRANCH  17  18
ENDBRANCH  16  17
ENDBRANCH  15  16
ENDBRANCH  13  15
ENDBRANCH  12  13
ENDBRANCH  11  12
ENDBRANCH   8  11
TORSDOF 13
ENDMDL
MODEL       95
REMARK 921   NORMALIZED FREE ENERGY PREDICTED BY IDOCK:   -4.67 KCAL/MOL
REMARK 922        TOTAL FREE ENERGY PREDICTED BY IDOCK:  -10.97 KCAL/MOL
REMARK 923 INTER-LIGAND FREE ENERGY PREDICTED BY IDOCK:   -9.79 KCAL/MOL
REMARK 924 INTRA-LIGAND FREE ENERGY PREDICTED BY IDOCK:   -1.18 KCAL/MOL
REMARK 927      BINDING AFFINITY PREDICTED BY RF-SCORE:    0.00 PKD
ROOT
HETATM    1  O   UNL     1     -10.854   5.732  66.374  1.00  0.00    -0.575 OA 
HETATM    2  H   UNL     1     -11.072   4.824  66.551  1.00  0.00     0.000 HD 
HETATM    3  C   UNL     1     -10.784   6.693  67.346  1.00  0.00    -0.339 A  
HETATM    4  C   UNL     1     -10.465   8.023  67.086  1.00  0.00    -0.338 A  
HETATM    5  C   UNL     1     -10.376   8.940  68.136  1.00  0.00    -0.261 A  
HETATM    6  O   UNL     1     -10.226   8.494  65.827  1.00  0.00    -0.274 OA 
HETATM    7  H   UNL     1     -10.009   9.401  65.650  1.00  0.00     0.000 HD 
HETATM    8  C   UNL     1     -10.593   8.528  69.455  1.00  0.00    -0.215 A  
HETATM    9  C   UNL     1     -11.049   6.282  68.648  1.00  0.00    -0.409 A  
HETATM   10  C   UNL     1     -10.957   7.195  69.701  1.00  0.00    -0.236 A  
ENDROOT
BRANCH   8  11
HETATM   11  C   UNL     1     -10.451   9.500  70.600  1.00  0.00    -0.374 C  
BRANCH  11  12
HETATM   12  C   UNL     1     -11.790   9.752  71.294  1.00  0.00    -0.399 C  
BRANCH  12  13
HETATM   13  N   UNL     1     -12.191  11.157  71.150  1.00  0.00    -0.319 NA 
HETATM   14  H   UNL     1     -11.593  11.784  71.689  1.00  0.00     0.000 HD 
BRANCH  13  15
HETATM   15  C   UNL     1     -12.228  11.513  69.734  1.00  0.00    -0.244 C  
BRANCH  15  16
HETATM   16  C   UNL     1     -12.243  13.029  69.566  1.00  0.00    -0.198 C  
BRANCH  16  17
HETATM   17  C   UNL     1     -11.892  13.384  68.124  1.00  0.00    -0.396 C  
BRANCH  17  18
HETATM   18  C   UNL     1     -11.548  12.139  67.323  1.00  0.00    -0.404 C  
BRANCH  18  19
HETATM   19  C   UNL     1     -11.618  12.419  65.823  1.00  0.00    -0.449 C  
BRANCH  19  20
HETATM   20  C   UNL     1     -12.207  13.806  65.606  1.00  0.00    -0.454 C  
BRANCH  20  21
HETATM   21  N   UNL     1     -11.632  14.440  64.422  1.00  0.00    -0.587 NA 
HETATM   22  H   UNL     1     -12.296  14.461  63.648  1.00  0.00     0.000 HD 
BRANCH  21  23
HETATM   23  C   UNL     1     -11.122  15.783  64.734  1.00  0.00    -0.400 C  
BRANCH  23  24
HETATM   24  C   UNL     1     -10.220  15.811  65.977  1.00  0.00    -0.352 C  
BRANCH  24  25
HETATM   25  C   UNL     1     -10.265  17.137  66.687  1.00  0.00    -0.319 A  
HETATM   26  C   UNL     1     -10.043  17.197  68.067  1.00  0.00    -0.311 A  
HETATM   27  C   UNL     1     -10.072  18.425  68.732  1.00  0.00    -0.393 A  
HETATM   28  C   UNL     1     -10.330  19.592  68.017  1.00  0.00    -0.579 A  
HETATM   29  C   UNL     1     -10.564  19.537  66.644  1.00  0.00    -0.583 A  
HETATM   30  C   UNL     1     -10.535  18.312  65.980  1.00  0.00    -0.380 A  
ENDBRANCH  24  25
ENDBRANCH  23  24
ENDBRANCH  21  23
ENDBRANCH  20  21
ENDBRANCH  19  20
ENDBRANCH  18  19
ENDBRANCH  17  18
ENDBRANCH  16  17
ENDBRANCH  15  16
ENDBRANCH  13  15
ENDBRANCH  12  13
ENDBRANCH  11  12
ENDBRANCH   8  11
TORSDOF 13
ENDMDL
MODEL       96
REMARK 921   NORMALIZED FREE ENERGY PREDICTED BY IDOCK:   -4.65 KCAL/MOL
REMARK 922        TOTAL FREE ENERGY PREDICTED BY IDOCK:  -10.93 KCAL/MOL
REMARK 923 INTER-LIGAND FREE ENERGY PREDICTED BY IDOCK:   -9.37 KCAL/MOL
REMARK 924 INTRA-LIGAND FREE ENERGY PREDICTED BY IDOCK:   -1.56 KCAL/MOL
REMARK 927      BINDING AFFINITY PREDICTED BY RF-SCORE:    0.00 PKD
ROOT
HETATM    1  O   UNL     1     -10.314  19.514  65.549  1.00  0.00    -0.442 OA 
HETATM    2  H   UNL     1     -10.329  19.320  64.619  1.00  0.00     0.000 HD 
HETATM    3  C   UNL     1     -10.369  18.551  66.520  1.00  0.00    -0.414 A  
HETATM    4  C   UNL     1     -10.347  18.835  67.883  1.00  0.00    -0.406 A  
HETATM    5  C   UNL     1     -10.368  17.796  68.816  1.00  0.00    -0.332 A  
HETATM    6  O   UNL     1     -10.304  20.109  68.371  1.00  0.00    -0.408 OA 
HETATM    7  H   UNL     1     -10.289  20.303  69.301  1.00  0.00     0.000 HD 
HETATM    8  C   UNL     1     -10.397  16.464  68.390  1.00  0.00    -0.282 A  
HETATM    9  C   UNL     1     -10.446  17.232  66.086  1.00  0.00    -0.279 A  
HETATM   10  C   UNL     1     -10.463  16.190  67.015  1.00  0.00    -0.306 A  
ENDROOT
BRANCH   8  11
HETATM   11  C   UNL     1     -10.370  15.333  69.389  1.00  0.00    -0.255 C  
BRANCH  11  12
HETATM   12  C   UNL     1     -11.289  15.612  70.580  1.00  0.00    -0.367 C  
BRANCH  12  13
HETATM   13  N   UNL     1     -11.523  14.385  71.350  1.00  0.00    -0.408 NA 
HETATM   14  H   UNL     1     -11.782  14.582  72.317  1.00  0.00     0.000 HD 
BRANCH  13  15
HETATM   15  C   UNL     1     -12.519  13.561  70.671  1.00  0.00    -0.333 C  
BRANCH  15  16
HETATM   16  C   UNL     1     -12.985  12.429  71.580  1.00  0.00    -0.409 C  
BRANCH  16  17
HETATM   17  C   UNL     1     -13.034  11.126  70.786  1.00  0.00    -0.223 C  
BRANCH  17  18
HETATM   18  C   UNL     1     -12.273  10.022  71.500  1.00  0.00    -0.496 C  
BRANCH  18  19
HETATM   19  C   UNL     1     -11.419   9.223  70.517  1.00  0.00    -0.296 C  
BRANCH  19  20
HETATM   20  C   UNL     1     -10.812  10.179  69.500  1.00  0.00    -0.255 C  
BRANCH  20  21
HETATM   21  N   UNL     1     -10.275   9.452  68.352  1.00  0.00    -0.190 NA 
HETATM   22  H   UNL     1     -10.710   8.536  68.252  1.00  0.00     0.000 HD 
BRANCH  21  23
HETATM   23  C   UNL     1     -10.393  10.245  67.119  1.00  0.00    -0.238 C  
BRANCH  23  24
HETATM   24  C   UNL     1     -11.146  11.568  67.324  1.00  0.00    -0.351 C  
BRANCH  24  25
HETATM   25  C   UNL     1     -11.466  12.252  66.022  1.00  0.00    -0.434 A  
HETATM   26  C   UNL     1     -12.217  13.433  66.020  1.00  0.00    -0.491 A  
HETATM   27  C   UNL     1     -12.509  14.079  64.818  1.00  0.00    -0.392 A  
HETATM   28  C   UNL     1     -12.056  13.542  63.616  1.00  0.00    -0.459 A  
HETATM   29  C   UNL     1     -11.317  12.360  63.610  1.00  0.00    -0.556 A  
HETATM   30  C   UNL     1     -11.025  11.713  64.810  1.00  0.00    -0.351 A  
ENDBRANCH  24  25
ENDBRANCH  23  24
ENDBRANCH  21  23
ENDBRANCH  20  21
ENDBRANCH  19  20
ENDBRANCH  18  19
ENDBRANCH  17  18
ENDBRANCH  16  17
ENDBRANCH  15  16
ENDBRANCH  13  15
ENDBRANCH  12  13
ENDBRANCH  11  12
ENDBRANCH   8  11
TORSDOF 13
ENDMDL
MODEL       97
REMARK 921   NORMALIZED FREE ENERGY PREDICTED BY IDOCK:   -4.62 KCAL/MOL
REMARK 922        TOTAL FREE ENERGY PREDICTED BY IDOCK:  -10.89 KCAL/MOL
REMARK 923 INTER-LIGAND FREE ENERGY PREDICTED BY IDOCK:   -8.32 KCAL/MOL
REMARK 924 INTRA-LIGAND FREE ENERGY PREDICTED BY IDOCK:   -2.57 KCAL/MOL
REMARK 927      BINDING AFFINITY PREDICTED BY RF-SCORE:    0.00 PKD
ROOT
HETATM    1  O   UNL     1     -13.620   9.557  70.968  1.00  0.00    -0.556 OA 
HETATM    2  H   UNL     1     -14.100   9.155  71.683  1.00  0.00     0.000 HD 
HETATM    3  C   UNL     1     -12.254   9.550  70.880  1.00  0.00    -0.254 A  
HETATM    4  C   UNL     1     -11.552  10.138  69.832  1.00  0.00    -0.223 A  
HETATM    5  C   UNL     1     -10.158  10.059  69.791  1.00  0.00    -0.284 A  
HETATM    6  O   UNL     1     -12.167  10.806  68.813  1.00  0.00    -0.783 OA 
HETATM    7  H   UNL     1     -11.687  11.208  68.098  1.00  0.00     0.000 HD 
HETATM    8  C   UNL     1      -9.459   9.377  70.793  1.00  0.00    -0.307 A  
HETATM    9  C   UNL     1     -11.567   8.912  71.907  1.00  0.00    -0.442 A  
HETATM   10  C   UNL     1     -10.174   8.827  71.868  1.00  0.00    -0.415 A  
ENDROOT
BRANCH   8  11
HETATM   11  C   UNL     1      -7.957   9.244  70.732  1.00  0.00    -0.187 C  
BRANCH  11  12
HETATM   12  C   UNL     1      -7.352  10.168  69.675  1.00  0.00    -0.138 C  
BRANCH  12  13
HETATM   13  N   UNL     1      -6.551  11.223  70.307  1.00  0.00    -0.468 NA 
HETATM   14  H   UNL     1      -5.666  10.867  70.672  1.00  0.00     0.000 HD 
BRANCH  13  15
HETATM   15  C   UNL     1      -6.356  12.322  69.367  1.00  0.00    -0.118 C  
BRANCH  15  16
HETATM   16  C   UNL     1      -6.823  11.920  67.972  1.00  0.00    -0.072 C  
BRANCH  16  17
HETATM   17  C   UNL     1      -7.798  12.967  67.441  1.00  0.00    -0.166 C  
BRANCH  17  18
HETATM   18  C   UNL     1      -9.175  12.367  67.214  1.00  0.00    -0.187 C  
BRANCH  18  19
HETATM   19  C   UNL     1      -9.086  11.108  66.352  1.00  0.00    -0.198 C  
BRANCH  19  20
HETATM   20  C   UNL     1     -10.336  11.012  65.488  1.00  0.00    -0.260 C  
BRANCH  20  21
HETATM   21  N   UNL     1     -11.449  11.738  66.095  1.00  0.00    -0.387 NA 
HETATM   22  H   UNL     1     -11.128  12.381  66.818  1.00  0.00     0.000 HD 
BRANCH  21  23
HETATM   23  C   UNL     1     -12.252  12.428  65.075  1.00  0.00    -0.399 C  
BRANCH  23  24
HETATM   24  C   UNL     1     -12.721  13.822  65.520  1.00  0.00    -0.530 C  
BRANCH  24  25
HETATM   25  C   UNL     1     -11.600  14.647  66.092  1.00  0.00    -0.332 A  
HETATM   26  C   UNL     1     -11.596  14.966  67.455  1.00  0.00    -0.355 A  
HETATM   27  C   UNL     1     -10.554  15.721  67.997  1.00  0.00    -0.279 A  
HETATM   28  C   UNL     1      -9.519  16.163  67.177  1.00  0.00    -0.231 A  
HETATM   29  C   UNL     1      -9.524  15.858  65.816  1.00  0.00    -0.316 A  
HETATM   30  C   UNL     1     -10.564  15.104  65.274  1.00  0.00    -0.432 A  
ENDBRANCH  24  25
ENDBRANCH  23  24
ENDBRANCH  21  23
ENDBRANCH  20  21
ENDBRANCH  19  20
ENDBRANCH  18  19
ENDBRANCH  17  18
ENDBRANCH  16  17
ENDBRANCH  15  16
ENDBRANCH  13  15
ENDBRANCH  12  13
ENDBRANCH  11  12
ENDBRANCH   8  11
TORSDOF 13
ENDMDL
MODEL       98
REMARK 921   NORMALIZED FREE ENERGY PREDICTED BY IDOCK:   -4.60 KCAL/MOL
REMARK 922        TOTAL FREE ENERGY PREDICTED BY IDOCK:  -10.86 KCAL/MOL
REMARK 923 INTER-LIGAND FREE ENERGY PREDICTED BY IDOCK:   -9.48 KCAL/MOL
REMARK 924 INTRA-LIGAND FREE ENERGY PREDICTED BY IDOCK:   -1.38 KCAL/MOL
REMARK 927      BINDING AFFINITY PREDICTED BY RF-SCORE:    0.00 PKD
ROOT
HETATM    1  O   UNL     1     -11.326   9.284  71.618  1.00  0.00    -0.358 OA 
HETATM    2  H   UNL     1     -10.813   8.873  72.304  1.00  0.00     0.000 HD 
HETATM    3  C   UNL     1     -10.783   9.768  70.459  1.00  0.00    -0.317 A  
HETATM    4  C   UNL     1     -11.534  10.369  69.453  1.00  0.00    -0.227 A  
HETATM    5  C   UNL     1     -10.915  10.806  68.280  1.00  0.00    -0.307 A  
HETATM    6  O   UNL     1     -12.883  10.561  69.553  1.00  0.00    -0.642 OA 
HETATM    7  H   UNL     1     -13.396  10.972  68.867  1.00  0.00     0.000 HD 
HETATM    8  C   UNL     1      -9.538  10.630  68.101  1.00  0.00    -0.165 A  
HETATM    9  C   UNL     1      -9.406   9.631  70.311  1.00  0.00    -0.292 A  
HETATM   10  C   UNL     1      -8.783  10.063  69.139  1.00  0.00    -0.168 A  
ENDROOT
BRANCH   8  11
HETATM   11  C   UNL     1      -8.867  11.054  66.817  1.00  0.00    -0.158 C  
BRANCH  11  12
HETATM   12  C   UNL     1      -9.648  10.581  65.590  1.00  0.00    -0.226 C  
BRANCH  12  13
HETATM   13  N   UNL     1      -9.676  11.627  64.560  1.00  0.00    -0.364 NA 
HETATM   14  H   UNL     1      -8.757  11.781  64.145  1.00  0.00     0.000 HD 
BRANCH  13  15
HETATM   15  C   UNL     1     -10.686  11.302  63.558  1.00  0.00    -0.335 C  
BRANCH  15  16
HETATM   16  C   UNL     1     -11.689  12.442  63.422  1.00  0.00    -0.554 C  
BRANCH  16  17
HETATM   17  C   UNL     1     -12.625  12.442  64.628  1.00  0.00    -0.459 C  
BRANCH  17  18
HETATM   18  C   UNL     1     -12.545  13.759  65.382  1.00  0.00    -0.534 C  
BRANCH  18  19
HETATM   19  C   UNL     1     -11.801  14.812  64.563  1.00  0.00    -0.428 C  
BRANCH  19  20
HETATM   20  C   UNL     1     -10.397  14.976  65.128  1.00  0.00    -0.392 C  
BRANCH  20  21
HETATM   21  N   UNL     1     -10.294  14.377  66.456  1.00  0.00    -0.276 NA 
HETATM   22  H   UNL     1      -9.762  13.507  66.435  1.00  0.00     0.000 HD 
BRANCH  21  23
HETATM   23  C   UNL     1      -9.735  15.329  67.426  1.00  0.00    -0.208 C  
BRANCH  23  24
HETATM   24  C   UNL     1     -10.791  16.275  68.019  1.00  0.00    -0.339 C  
BRANCH  24  25
HETATM   25  C   UNL     1     -10.500  17.720  67.714  1.00  0.00    -0.402 A  
HETATM   26  C   UNL     1     -10.093  18.580  68.740  1.00  0.00    -0.394 A  
HETATM   27  C   UNL     1      -9.810  19.919  68.464  1.00  0.00    -0.463 A  
HETATM   28  C   UNL     1      -9.941  20.401  67.164  1.00  0.00    -0.568 A  
HETATM   29  C   UNL     1     -10.358  19.551  66.140  1.00  0.00    -0.614 A  
HETATM   30  C   UNL     1     -10.640  18.214  66.414  1.00  0.00    -0.288 A  
ENDBRANCH  24  25
ENDBRANCH  23  24
ENDBRANCH  21  23
ENDBRANCH  20  21
ENDBRANCH  19  20
ENDBRANCH  18  19
ENDBRANCH  17  18
ENDBRANCH  16  17
ENDBRANCH  15  16
ENDBRANCH  13  15
ENDBRANCH  12  13
ENDBRANCH  11  12
ENDBRANCH   8  11
TORSDOF 13
ENDMDL
MODEL       99
REMARK 921   NORMALIZED FREE ENERGY PREDICTED BY IDOCK:   -4.60 KCAL/MOL
REMARK 922        TOTAL FREE ENERGY PREDICTED BY IDOCK:  -10.85 KCAL/MOL
REMARK 923 INTER-LIGAND FREE ENERGY PREDICTED BY IDOCK:   -9.52 KCAL/MOL
REMARK 924 INTRA-LIGAND FREE ENERGY PREDICTED BY IDOCK:   -1.33 KCAL/MOL
REMARK 927      BINDING AFFINITY PREDICTED BY RF-SCORE:    0.00 PKD
ROOT
HETATM    1  O   UNL     1     -10.351   4.350  66.216  1.00  0.00    -0.361 OA 
HETATM    2  H   UNL     1      -9.902   3.654  65.751  1.00  0.00     0.000 HD 
HETATM    3  C   UNL     1      -9.910   5.645  66.241  1.00  0.00    -0.123 A  
HETATM    4  C   UNL     1     -10.568   6.665  66.922  1.00  0.00    -0.306 A  
HETATM    5  C   UNL     1     -10.078   7.972  66.871  1.00  0.00    -0.362 A  
HETATM    6  O   UNL     1     -11.698   6.453  67.658  1.00  0.00    -0.528 OA 
HETATM    7  H   UNL     1     -12.147   7.149  68.123  1.00  0.00     0.000 HD 
HETATM    8  C   UNL     1      -8.932   8.269  66.125  1.00  0.00    -0.222 A  
HETATM    9  C   UNL     1      -8.743   5.919  65.535  1.00  0.00    -0.133 A  
HETATM   10  C   UNL     1      -8.252   7.225  65.478  1.00  0.00    -0.139 A  
ENDROOT
BRANCH   8  11
HETATM   11  C   UNL     1      -8.423   9.685  66.024  1.00  0.00    -0.131 C  
BRANCH  11  12
HETATM   12  C   UNL     1      -9.437  10.601  65.336  1.00  0.00    -0.215 C  
BRANCH  12  13
HETATM   13  N   UNL     1      -8.840  11.238  64.156  1.00  0.00    -0.380 NA 
HETATM   14  H   UNL     1      -8.181  10.622  63.678  1.00  0.00     0.000 HD 
BRANCH  13  15
HETATM   15  C   UNL     1      -9.897  11.709  63.265  1.00  0.00    -0.405 C  
BRANCH  15  16
HETATM   16  C   UNL     1     -11.253  11.636  63.960  1.00  0.00    -0.448 C  
BRANCH  16  17
HETATM   17  C   UNL     1     -12.128  12.794  63.491  1.00  0.00    -0.642 C  
BRANCH  17  18
HETATM   18  C   UNL     1     -12.105  13.937  64.491  1.00  0.00    -0.473 C  
BRANCH  18  19
HETATM   19  C   UNL     1     -12.283  13.418  65.917  1.00  0.00    -0.502 C  
BRANCH  19  20
HETATM   20  C   UNL     1     -11.704  14.436  66.890  1.00  0.00    -0.402 C  
BRANCH  20  21
HETATM   21  N   UNL     1     -12.198  14.206  68.245  1.00  0.00    -0.573 NA 
HETATM   22  H   UNL     1     -13.203  14.363  68.310  1.00  0.00     0.000 HD 
BRANCH  21  23
HETATM   23  C   UNL     1     -11.828  12.867  68.725  1.00  0.00    -0.315 C  
BRANCH  23  24
HETATM   24  C   UNL     1     -12.128  12.657  70.217  1.00  0.00    -0.372 C  
BRANCH  24  25
HETATM   25  C   UNL     1     -12.114  11.203  70.605  1.00  0.00    -0.477 A  
HETATM   26  C   UNL     1     -11.238  10.319  69.964  1.00  0.00    -0.376 A  
HETATM   27  C   UNL     1     -11.211   8.971  70.324  1.00  0.00    -0.232 A  
HETATM   28  C   UNL     1     -12.065   8.504  71.321  1.00  0.00    -0.323 A  
HETATM   29  C   UNL     1     -12.948   9.377  71.954  1.00  0.00    -0.502 A  
HETATM   30  C   UNL     1     -12.975  10.724  71.595  1.00  0.00    -0.581 A  
ENDBRANCH  24  25
ENDBRANCH  23  24
ENDBRANCH  21  23
ENDBRANCH  20  21
ENDBRANCH  19  20
ENDBRANCH  18  19
ENDBRANCH  17  18
ENDBRANCH  16  17
ENDBRANCH  15  16
ENDBRANCH  13  15
ENDBRANCH  12  13
ENDBRANCH  11  12
ENDBRANCH   8  11
TORSDOF 13
ENDMDL
MODEL      100
REMARK 921   NORMALIZED FREE ENERGY PREDICTED BY IDOCK:   -4.56 KCAL/MOL
REMARK 922        TOTAL FREE ENERGY PREDICTED BY IDOCK:  -10.78 KCAL/MOL
REMARK 923 INTER-LIGAND FREE ENERGY PREDICTED BY IDOCK:   -8.50 KCAL/MOL
REMARK 924 INTRA-LIGAND FREE ENERGY PREDICTED BY IDOCK:   -2.28 KCAL/MOL
REMARK 927      BINDING AFFINITY PREDICTED BY RF-SCORE:    0.00 PKD
ROOT
HETATM    1  O   UNL     1     -13.746   8.367  72.537  1.00  0.00    -0.583 OA 
HETATM    2  H   UNL     1     -13.916   7.771  73.257  1.00  0.00     0.000 HD 
HETATM    3  C   UNL     1     -12.492   8.633  72.058  1.00  0.00    -0.373 A  
HETATM    4  C   UNL     1     -12.244   9.505  71.002  1.00  0.00    -0.304 A  
HETATM    5  C   UNL     1     -10.939   9.698  70.544  1.00  0.00    -0.374 A  
HETATM    6  O   UNL     1     -13.234  10.201  70.370  1.00  0.00    -0.587 OA 
HETATM    7  H   UNL     1     -13.065  10.796  69.650  1.00  0.00     0.000 HD 
HETATM    8  C   UNL     1      -9.874   9.007  71.132  1.00  0.00    -0.371 A  
HETATM    9  C   UNL     1     -11.436   7.977  72.682  1.00  0.00    -0.465 A  
HETATM   10  C   UNL     1     -10.130   8.164  72.225  1.00  0.00    -0.338 A  
ENDROOT
BRANCH   8  11
HETATM   11  C   UNL     1      -8.467   9.171  70.613  1.00  0.00    -0.246 C  
BRANCH  11  12
HETATM   12  C   UNL     1      -8.411  10.146  69.436  1.00  0.00    -0.168 C  
BRANCH  12  13
HETATM   13  N   UNL     1      -7.053  10.680  69.270  1.00  0.00    -0.094 NA 
HETATM   14  H   UNL     1      -6.504  10.133  68.607  1.00  0.00     0.000 HD 
BRANCH  13  15
HETATM   15  C   UNL     1      -7.122  12.090  68.899  1.00  0.00    -0.104 C  
BRANCH  15  16
HETATM   16  C   UNL     1      -7.989  12.273  67.658  1.00  0.00    -0.161 C  
BRANCH  16  17
HETATM   17  C   UNL     1      -8.029  13.751  67.279  1.00  0.00    -0.135 C  
BRANCH  17  18
HETATM   18  C   UNL     1      -8.606  14.588  68.408  1.00  0.00    -0.172 C  
BRANCH  18  19
HETATM   19  C   UNL     1      -8.715  16.057  67.998  1.00  0.00    -0.171 C  
BRANCH  19  20
HETATM   20  C   UNL     1      -8.116  16.227  66.609  1.00  0.00    -0.288 C  
BRANCH  20  21
HETATM   21  N   UNL     1      -8.974  17.057  65.767  1.00  0.00    -0.503 NA 
HETATM   22  H   UNL     1      -8.740  16.956  64.779  1.00  0.00     0.000 HD 
BRANCH  21  23
HETATM   23  C   UNL     1     -10.395  16.776  66.017  1.00  0.00    -0.335 C  
BRANCH  23  24
HETATM   24  C   UNL     1     -11.033  15.889  64.936  1.00  0.00    -0.427 C  
BRANCH  24  25
HETATM   25  C   UNL     1     -11.142  14.451  65.368  1.00  0.00    -0.331 A  
HETATM   26  C   UNL     1     -11.756  14.133  66.585  1.00  0.00    -0.422 A  
HETATM   27  C   UNL     1     -11.871  12.802  66.988  1.00  0.00    -0.428 A  
HETATM   28  C   UNL     1     -11.366  11.788  66.178  1.00  0.00    -0.342 A  
HETATM   29  C   UNL     1     -10.742  12.099  64.971  1.00  0.00    -0.338 A  
HETATM   30  C   UNL     1     -10.627  13.428  64.567  1.00  0.00    -0.441 A  
ENDBRANCH  24  25
ENDBRANCH  23  24
ENDBRANCH  21  23
ENDBRANCH  20  21
ENDBRANCH  19  20
ENDBRANCH  18  19
ENDBRANCH  17  18
ENDBRANCH  16  17
ENDBRANCH  15  16
ENDBRANCH  13  15
ENDBRANCH  12  13
ENDBRANCH  11  12
ENDBRANCH   8  11
TORSDOF 13
ENDMDL
MODEL      101
REMARK 921   NORMALIZED FREE ENERGY PREDICTED BY IDOCK:   -4.56 KCAL/MOL
REMARK 922        TOTAL FREE ENERGY PREDICTED BY IDOCK:  -10.78 KCAL/MOL
REMARK 923 INTER-LIGAND FREE ENERGY PREDICTED BY IDOCK:   -9.23 KCAL/MOL
REMARK 924 INTRA-LIGAND FREE ENERGY PREDICTED BY IDOCK:   -1.55 KCAL/MOL
REMARK 927      BINDING AFFINITY PREDICTED BY RF-SCORE:    0.00 PKD
ROOT
HETATM    1  O   UNL     1     -13.444  15.804  74.033  1.00  0.00    -0.704 OA 
HETATM    2  H   UNL     1     -13.183  16.589  74.499  1.00  0.00     0.000 HD 
HETATM    3  C   UNL     1     -12.929  15.445  72.816  1.00  0.00    -0.448 A  
HETATM    4  C   UNL     1     -13.310  14.294  72.133  1.00  0.00    -0.416 A  
HETATM    5  C   UNL     1     -12.714  13.973  70.912  1.00  0.00    -0.420 A  
HETATM    6  O   UNL     1     -14.261  13.434  72.605  1.00  0.00    -0.747 OA 
HETATM    7  H   UNL     1     -14.521  12.649  72.139  1.00  0.00     0.000 HD 
HETATM    8  C   UNL     1     -11.720  14.798  70.373  1.00  0.00    -0.350 A  
HETATM    9  C   UNL     1     -11.977  16.297  72.267  1.00  0.00    -0.605 A  
HETATM   10  C   UNL     1     -11.375  15.979  71.047  1.00  0.00    -0.423 A  
ENDROOT
BRANCH   8  11
HETATM   11  C   UNL     1     -11.035  14.435  69.078  1.00  0.00    -0.274 C  
BRANCH  11  12
HETATM   12  C   UNL     1     -11.975  13.684  68.134  1.00  0.00    -0.355 C  
BRANCH  12  13
HETATM   13  N   UNL     1     -11.317  12.488  67.594  1.00  0.00    -0.285 NA 
HETATM   14  H   UNL     1     -10.519  12.722  67.003  1.00  0.00     0.000 HD 
BRANCH  13  15
HETATM   15  C   UNL     1     -10.949  11.594  68.688  1.00  0.00    -0.220 C  
BRANCH  15  16
HETATM   16  C   UNL     1      -9.579  10.975  68.432  1.00  0.00    -0.181 C  
BRANCH  16  17
HETATM   17  C   UNL     1      -9.015  11.511  67.119  1.00  0.00    -0.166 C  
BRANCH  17  18
HETATM   18  C   UNL     1      -7.733  12.291  67.353  1.00  0.00    -0.165 C  
BRANCH  18  19
HETATM   19  C   UNL     1      -8.017  13.788  67.471  1.00  0.00    -0.190 C  
BRANCH  19  20
HETATM   20  C   UNL     1      -6.777  14.485  68.013  1.00  0.00    -0.145 C  
BRANCH  20  21
HETATM   21  N   UNL     1      -6.323  15.532  67.102  1.00  0.00    -0.293 NA 
HETATM   22  H   UNL     1      -5.707  15.160  66.380  1.00  0.00     0.000 HD 
BRANCH  21  23
HETATM   23  C   UNL     1      -7.461  16.259  66.519  1.00  0.00    -0.134 C  
BRANCH  23  24
HETATM   24  C   UNL     1      -7.230  17.775  66.440  1.00  0.00    -0.308 C  
BRANCH  24  25
HETATM   25  C   UNL     1      -8.380  18.560  67.013  1.00  0.00    -0.259 A  
HETATM   26  C   UNL     1      -8.853  19.694  66.342  1.00  0.00    -0.419 A  
HETATM   27  C   UNL     1      -9.926  20.420  66.861  1.00  0.00    -0.549 A  
HETATM   28  C   UNL     1     -10.522  20.019  68.053  1.00  0.00    -0.448 A  
HETATM   29  C   UNL     1     -10.047  18.897  68.732  1.00  0.00    -0.415 A  
HETATM   30  C   UNL     1      -8.976  18.170  68.215  1.00  0.00    -0.306 A  
ENDBRANCH  24  25
ENDBRANCH  23  24
ENDBRANCH  21  23
ENDBRANCH  20  21
ENDBRANCH  19  20
ENDBRANCH  18  19
ENDBRANCH  17  18
ENDBRANCH  16  17
ENDBRANCH  15  16
ENDBRANCH  13  15
ENDBRANCH  12  13
ENDBRANCH  11  12
ENDBRANCH   8  11
TORSDOF 13
ENDMDL
MODEL      102
REMARK 921   NORMALIZED FREE ENERGY PREDICTED BY IDOCK:   -4.56 KCAL/MOL
REMARK 922        TOTAL FREE ENERGY PREDICTED BY IDOCK:  -10.77 KCAL/MOL
REMARK 923 INTER-LIGAND FREE ENERGY PREDICTED BY IDOCK:   -9.18 KCAL/MOL
REMARK 924 INTRA-LIGAND FREE ENERGY PREDICTED BY IDOCK:   -1.59 KCAL/MOL
REMARK 927      BINDING AFFINITY PREDICTED BY RF-SCORE:    0.00 PKD
ROOT
HETATM    1  O   UNL     1      -8.169   7.251  68.684  1.00  0.00    -0.123 OA 
HETATM    2  H   UNL     1      -7.516   6.912  69.284  1.00  0.00     0.000 HD 
HETATM    3  C   UNL     1      -9.154   8.125  69.057  1.00  0.00    -0.148 A  
HETATM    4  C   UNL     1     -10.111   8.622  68.177  1.00  0.00    -0.197 A  
HETATM    5  C   UNL     1     -11.064   9.541  68.623  1.00  0.00    -0.034 A  
HETATM    6  O   UNL     1     -10.171   8.252  66.864  1.00  0.00    -0.268 OA 
HETATM    7  H   UNL     1     -10.824   8.591  66.264  1.00  0.00     0.000 HD 
HETATM    8  C   UNL     1     -11.056   9.978  69.952  1.00  0.00    -0.336 A  
HETATM    9  C   UNL     1      -9.167   8.516  70.392  1.00  0.00    -0.173 A  
HETATM   10  C   UNL     1     -10.115   9.437  70.842  1.00  0.00    -0.366 A  
ENDROOT
BRANCH   8  11
HETATM   11  C   UNL     1     -12.050  11.007  70.432  1.00  0.00    -0.463 C  
BRANCH  11  12
HETATM   12  C   UNL     1     -12.954  10.447  71.532  1.00  0.00    -0.458 C  
BRANCH  12  13
HETATM   13  N   UNL     1     -13.532  11.535  72.330  1.00  0.00    -0.521 NA 
HETATM   14  H   UNL     1     -13.267  11.473  73.313  1.00  0.00     0.000 HD 
BRANCH  13  15
HETATM   15  C   UNL     1     -13.168  12.821  71.742  1.00  0.00    -0.374 C  
BRANCH  15  16
HETATM   16  C   UNL     1     -13.427  13.952  72.731  1.00  0.00    -0.547 C  
BRANCH  16  17
HETATM   17  C   UNL     1     -13.357  15.292  72.002  1.00  0.00    -0.522 C  
BRANCH  17  18
HETATM   18  C   UNL     1     -11.963  15.888  72.087  1.00  0.00    -0.612 C  
BRANCH  18  19
HETATM   19  C   UNL     1     -11.198  15.675  70.782  1.00  0.00    -0.396 C  
BRANCH  19  20
HETATM   20  C   UNL     1     -12.132  15.949  69.612  1.00  0.00    -0.201 C  
BRANCH  20  21
HETATM   21  N   UNL     1     -11.616  15.358  68.379  1.00  0.00    -0.354 NA 
HETATM   22  H   UNL     1     -10.614  15.517  68.278  1.00  0.00     0.000 HD 
BRANCH  21  23
HETATM   23  C   UNL     1     -11.949  13.929  68.295  1.00  0.00    -0.357 C  
BRANCH  23  24
HETATM   24  C   UNL     1     -10.814  13.081  67.700  1.00  0.00    -0.256 C  
BRANCH  24  25
HETATM   25  C   UNL     1     -11.056  12.736  66.255  1.00  0.00    -0.321 A  
HETATM   26  C   UNL     1     -10.283  11.747  65.635  1.00  0.00    -0.284 A  
HETATM   27  C   UNL     1     -10.508  11.414  64.299  1.00  0.00    -0.401 A  
HETATM   28  C   UNL     1     -11.501  12.073  63.578  1.00  0.00    -0.536 A  
HETATM   29  C   UNL     1     -12.265  13.068  64.187  1.00  0.00    -0.471 A  
HETATM   30  C   UNL     1     -12.042  13.401  65.521  1.00  0.00    -0.467 A  
ENDBRANCH  24  25
ENDBRANCH  23  24
ENDBRANCH  21  23
ENDBRANCH  20  21
ENDBRANCH  19  20
ENDBRANCH  18  19
ENDBRANCH  17  18
ENDBRANCH  16  17
ENDBRANCH  15  16
ENDBRANCH  13  15
ENDBRANCH  12  13
ENDBRANCH  11  12
ENDBRANCH   8  11
TORSDOF 13
ENDMDL
MODEL      103
REMARK 921   NORMALIZED FREE ENERGY PREDICTED BY IDOCK:   -4.54 KCAL/MOL
REMARK 922        TOTAL FREE ENERGY PREDICTED BY IDOCK:  -10.75 KCAL/MOL
REMARK 923 INTER-LIGAND FREE ENERGY PREDICTED BY IDOCK:   -9.30 KCAL/MOL
REMARK 924 INTRA-LIGAND FREE ENERGY PREDICTED BY IDOCK:   -1.44 KCAL/MOL
REMARK 927      BINDING AFFINITY PREDICTED BY RF-SCORE:    0.00 PKD
ROOT
HETATM    1  O   UNL     1     -11.422   4.679  65.218  1.00  0.00    -1.070 OA 
HETATM    2  H   UNL     1     -11.983   5.281  64.743  1.00  0.00     0.000 HD 
HETATM    3  C   UNL     1     -10.725   5.029  66.343  1.00  0.00    -0.178 A  
HETATM    4  C   UNL     1      -9.903   4.148  67.039  1.00  0.00    -0.151 A  
HETATM    5  C   UNL     1      -9.252   4.566  68.202  1.00  0.00    -0.170 A  
HETATM    6  O   UNL     1      -9.692   2.860  66.638  1.00  0.00    -0.403 OA 
HETATM    7  H   UNL     1      -9.131   2.258  67.113  1.00  0.00     0.000 HD 
HETATM    8  C   UNL     1      -9.432   5.868  68.683  1.00  0.00    -0.137 A  
HETATM    9  C   UNL     1     -10.873   6.339  66.785  1.00  0.00    -0.367 A  
HETATM   10  C   UNL     1     -10.227   6.761  67.949  1.00  0.00    -0.207 A  
ENDROOT
BRANCH   8  11
HETATM   11  C   UNL     1      -8.772   6.315  69.965  1.00  0.00    -0.141 C  
BRANCH  11  12
HETATM   12  C   UNL     1      -9.788   6.901  70.947  1.00  0.00    -0.185 C  
BRANCH  12  13
HETATM   13  N   UNL     1     -10.386   5.840  71.766  1.00  0.00    -0.214 NA 
HETATM   14  H   UNL     1      -9.805   5.601  72.570  1.00  0.00     0.000 HD 
BRANCH  13  15
HETATM   15  C   UNL     1     -11.738   6.227  72.160  1.00  0.00    -0.319 C  
BRANCH  15  16
HETATM   16  C   UNL     1     -12.370   7.116  71.094  1.00  0.00    -0.404 C  
BRANCH  16  17
HETATM   17  C   UNL     1     -13.747   7.574  71.566  1.00  0.00    -0.460 C  
BRANCH  17  18
HETATM   18  C   UNL     1     -13.709   9.013  72.050  1.00  0.00    -0.516 C  
BRANCH  18  19
HETATM   19  C   UNL     1     -12.454   9.725  71.547  1.00  0.00    -0.495 C  
BRANCH  19  20
HETATM   20  C   UNL     1     -12.784  11.190  71.299  1.00  0.00    -0.426 C  
BRANCH  20  21
HETATM   21  N   UNL     1     -11.847  11.785  70.348  1.00  0.00    -0.499 NA 
HETATM   22  H   UNL     1     -10.889  11.752  70.695  1.00  0.00     0.000 HD 
BRANCH  21  23
HETATM   23  C   UNL     1     -11.965  11.157  69.024  1.00  0.00    -0.320 C  
BRANCH  23  24
HETATM   24  C   UNL     1     -10.637  11.127  68.251  1.00  0.00    -0.221 C  
BRANCH  24  25
HETATM   25  C   UNL     1     -10.832  11.325  66.772  1.00  0.00    -0.334 A  
HETATM   26  C   UNL     1     -11.776  12.250  66.311  1.00  0.00    -0.431 A  
HETATM   27  C   UNL     1     -11.955  12.448  64.941  1.00  0.00    -0.458 A  
HETATM   28  C   UNL     1     -11.197  11.717  64.031  1.00  0.00    -0.448 A  
HETATM   29  C   UNL     1     -10.263  10.785  64.484  1.00  0.00    -0.428 A  
HETATM   30  C   UNL     1     -10.083  10.587  65.852  1.00  0.00    -0.323 A  
ENDBRANCH  24  25
ENDBRANCH  23  24
ENDBRANCH  21  23
ENDBRANCH  20  21
ENDBRANCH  19  20
ENDBRANCH  18  19
ENDBRANCH  17  18
ENDBRANCH  16  17
ENDBRANCH  15  16
ENDBRANCH  13  15
ENDBRANCH  12  13
ENDBRANCH  11  12
ENDBRANCH   8  11
TORSDOF 13
ENDMDL
MODEL      104
REMARK 921   NORMALIZED FREE ENERGY PREDICTED BY IDOCK:   -4.53 KCAL/MOL
REMARK 922        TOTAL FREE ENERGY PREDICTED BY IDOCK:  -10.72 KCAL/MOL
REMARK 923 INTER-LIGAND FREE ENERGY PREDICTED BY IDOCK:   -9.20 KCAL/MOL
REMARK 924 INTRA-LIGAND FREE ENERGY PREDICTED BY IDOCK:   -1.52 KCAL/MOL
REMARK 927      BINDING AFFINITY PREDICTED BY RF-SCORE:    0.00 PKD
ROOT
HETATM    1  O   UNL     1     -12.348  13.661  62.804  1.00  0.00    -0.858 OA 
HETATM    2  H   UNL     1     -12.768  14.513  62.783  1.00  0.00     0.000 HD 
HETATM    3  C   UNL     1     -11.997  13.024  63.963  1.00  0.00    -0.456 A  
HETATM    4  C   UNL     1     -11.382  11.775  63.994  1.00  0.00    -0.381 A  
HETATM    5  C   UNL     1     -11.087  11.169  65.217  1.00  0.00    -0.076 A  
HETATM    6  O   UNL     1     -11.043  11.090  62.863  1.00  0.00    -0.775 OA 
HETATM    7  H   UNL     1     -10.623  10.238  62.883  1.00  0.00     0.000 HD 
HETATM    8  C   UNL     1     -11.418  11.804  66.419  1.00  0.00    -0.309 A  
HETATM    9  C   UNL     1     -12.287  13.686  65.151  1.00  0.00    -0.486 A  
HETATM   10  C   UNL     1     -11.997  13.082  66.376  1.00  0.00    -0.466 A  
ENDROOT
BRANCH   8  11
HETATM   11  C   UNL     1     -11.147  11.137  67.745  1.00  0.00    -0.344 C  
BRANCH  11  12
HETATM   12  C   UNL     1     -10.101  10.029  67.615  1.00  0.00    -0.190 C  
BRANCH  12  13
HETATM   13  N   UNL     1      -8.748  10.597  67.574  1.00  0.00    -0.125 NA 
HETATM   14  H   UNL     1      -8.452  10.817  66.623  1.00  0.00     0.000 HD 
BRANCH  13  15
HETATM   15  C   UNL     1      -8.678  11.760  68.455  1.00  0.00    -0.155 C  
BRANCH  15  16
HETATM   16  C   UNL     1      -8.460  13.032  67.643  1.00  0.00    -0.187 C  
BRANCH  16  17
HETATM   17  C   UNL     1      -7.595  14.003  68.442  1.00  0.00    -0.129 C  
BRANCH  17  18
HETATM   18  C   UNL     1      -7.905  15.443  68.071  1.00  0.00    -0.133 C  
BRANCH  18  19
HETATM   19  C   UNL     1      -8.799  15.508  66.834  1.00  0.00    -0.284 C  
BRANCH  19  20
HETATM   20  C   UNL     1     -10.182  15.991  67.248  1.00  0.00    -0.277 C  
BRANCH  20  21
HETATM   21  N   UNL     1     -10.122  16.737  68.503  1.00  0.00    -0.265 NA 
HETATM   22  H   UNL     1     -10.250  17.737  68.350  1.00  0.00     0.000 HD 
BRANCH  21  23
HETATM   23  C   UNL     1     -11.087  16.211  69.479  1.00  0.00    -0.344 C  
BRANCH  23  24
HETATM   24  C   UNL     1     -11.311  14.697  69.348  1.00  0.00    -0.314 C  
BRANCH  24  25
HETATM   25  C   UNL     1     -12.173  14.149  70.453  1.00  0.00    -0.427 A  
HETATM   26  C   UNL     1     -12.100  12.791  70.785  1.00  0.00    -0.246 A  
HETATM   27  C   UNL     1     -12.888  12.276  71.816  1.00  0.00    -0.359 A  
HETATM   28  C   UNL     1     -13.753  13.116  72.512  1.00  0.00    -0.563 A  
HETATM   29  C   UNL     1     -13.838  14.467  72.178  1.00  0.00    -0.574 A  
HETATM   30  C   UNL     1     -13.052  14.983  71.149  1.00  0.00    -0.479 A  
ENDBRANCH  24  25
ENDBRANCH  23  24
ENDBRANCH  21  23
ENDBRANCH  20  21
ENDBRANCH  19  20
ENDBRANCH  18  19
ENDBRANCH  17  18
ENDBRANCH  16  17
ENDBRANCH  15  16
ENDBRANCH  13  15
ENDBRANCH  12  13
ENDBRANCH  11  12
ENDBRANCH   8  11
TORSDOF 13
ENDMDL
MODEL      105
REMARK 921   NORMALIZED FREE ENERGY PREDICTED BY IDOCK:   -4.53 KCAL/MOL
REMARK 922        TOTAL FREE ENERGY PREDICTED BY IDOCK:  -10.72 KCAL/MOL
REMARK 923 INTER-LIGAND FREE ENERGY PREDICTED BY IDOCK:   -9.52 KCAL/MOL
REMARK 924 INTRA-LIGAND FREE ENERGY PREDICTED BY IDOCK:   -1.20 KCAL/MOL
REMARK 927      BINDING AFFINITY PREDICTED BY RF-SCORE:    0.00 PKD
ROOT
HETATM    1  O   UNL     1     -11.479  16.358  63.708  1.00  0.00    -1.590 OA 
HETATM    2  H   UNL     1     -11.097  17.213  63.870  1.00  0.00     0.000 HD 
HETATM    3  C   UNL     1     -11.550  15.373  64.656  1.00  0.00    -0.311 A  
HETATM    4  C   UNL     1     -12.109  14.121  64.419  1.00  0.00    -0.463 A  
HETATM    5  C   UNL     1     -12.181  13.179  65.448  1.00  0.00    -0.510 A  
HETATM    6  O   UNL     1     -12.607  13.752  63.203  1.00  0.00    -1.024 OA 
HETATM    7  H   UNL     1     -12.988  12.897  63.041  1.00  0.00     0.000 HD 
HETATM    8  C   UNL     1     -11.705  13.491  66.726  1.00  0.00    -0.430 A  
HETATM    9  C   UNL     1     -11.030  15.677  65.910  1.00  0.00    -0.231 A  
HETATM   10  C   UNL     1     -11.103  14.740  66.943  1.00  0.00    -0.339 A  
ENDROOT
BRANCH   8  11
HETATM   11  C   UNL     1     -11.822  12.498  67.856  1.00  0.00    -0.383 C  
BRANCH  11  12
HETATM   12  C   UNL     1     -10.566  12.486  68.729  1.00  0.00    -0.175 C  
BRANCH  12  13
HETATM   13  N   UNL     1      -9.737  11.313  68.427  1.00  0.00    -0.188 NA 
HETATM   14  H   UNL     1     -10.293  10.525  68.093  1.00  0.00     0.000 HD 
BRANCH  13  15
HETATM   15  C   UNL     1      -8.687  11.684  67.482  1.00  0.00    -0.156 C  
BRANCH  15  16
HETATM   16  C   UNL     1      -8.971  11.090  66.107  1.00  0.00    -0.203 C  
BRANCH  16  17
HETATM   17  C   UNL     1      -8.628   9.603  66.115  1.00  0.00    -0.138 C  
BRANCH  17  18
HETATM   18  C   UNL     1      -9.885   8.753  66.194  1.00  0.00    -0.297 C  
BRANCH  18  19
HETATM   19  C   UNL     1      -9.545   7.307  66.554  1.00  0.00    -0.211 C  
BRANCH  19  20
HETATM   20  C   UNL     1     -10.290   6.927  67.826  1.00  0.00    -0.203 C  
BRANCH  20  21
HETATM   21  N   UNL     1     -10.916   8.097  68.437  1.00  0.00    -0.426 NA 
HETATM   22  H   UNL     1     -11.859   8.248  68.078  1.00  0.00     0.000 HD 
BRANCH  21  23
HETATM   23  C   UNL     1     -10.904   8.001  69.903  1.00  0.00    -0.217 C  
BRANCH  23  24
HETATM   24  C   UNL     1     -11.871   6.936  70.444  1.00  0.00    -0.351 C  
BRANCH  24  25
HETATM   25  C   UNL     1     -11.189   5.959  71.364  1.00  0.00    -0.285 A  
HETATM   26  C   UNL     1     -10.125   5.182  70.890  1.00  0.00    -0.302 A  
HETATM   27  C   UNL     1      -9.479   4.282  71.739  1.00  0.00    -0.206 A  
HETATM   28  C   UNL     1      -9.901   4.151  73.060  1.00  0.00    -0.178 A  
HETATM   29  C   UNL     1     -10.968   4.914  73.534  1.00  0.00    -0.397 A  
HETATM   30  C   UNL     1     -11.613   5.814  72.687  1.00  0.00    -0.304 A  
ENDBRANCH  24  25
ENDBRANCH  23  24
ENDBRANCH  21  23
ENDBRANCH  20  21
ENDBRANCH  19  20
ENDBRANCH  18  19
ENDBRANCH  17  18
ENDBRANCH  16  17
ENDBRANCH  15  16
ENDBRANCH  13  15
ENDBRANCH  12  13
ENDBRANCH  11  12
ENDBRANCH   8  11
TORSDOF 13
ENDMDL
MODEL      106
REMARK 921   NORMALIZED FREE ENERGY PREDICTED BY IDOCK:   -4.52 KCAL/MOL
REMARK 922        TOTAL FREE ENERGY PREDICTED BY IDOCK:  -10.71 KCAL/MOL
REMARK 923 INTER-LIGAND FREE ENERGY PREDICTED BY IDOCK:   -8.76 KCAL/MOL
REMARK 924 INTRA-LIGAND FREE ENERGY PREDICTED BY IDOCK:   -1.95 KCAL/MOL
REMARK 927      BINDING AFFINITY PREDICTED BY RF-SCORE:    0.00 PKD
ROOT
HETATM    1  O   UNL     1      -9.384   5.973  70.549  1.00  0.00    -0.157 OA 
HETATM    2  H   UNL     1      -9.605   5.173  70.086  1.00  0.00     0.000 HD 
HETATM    3  C   UNL     1     -10.312   6.906  70.925  1.00  0.00    -0.198 A  
HETATM    4  C   UNL     1      -9.988   8.078  71.603  1.00  0.00    -0.184 A  
HETATM    5  C   UNL     1     -10.995   8.966  71.988  1.00  0.00    -0.412 A  
HETATM    6  O   UNL     1      -8.705   8.416  71.924  1.00  0.00    -0.159 OA 
HETATM    7  H   UNL     1      -8.484   9.215  72.387  1.00  0.00     0.000 HD 
HETATM    8  C   UNL     1     -12.335   8.680  71.707  1.00  0.00    -0.402 A  
HETATM    9  C   UNL     1     -11.636   6.634  70.598  1.00  0.00    -0.439 A  
HETATM   10  C   UNL     1     -12.646   7.518  70.984  1.00  0.00    -0.223 A  
ENDROOT
BRANCH   8  11
HETATM   11  C   UNL     1     -13.434   9.609  72.161  1.00  0.00    -0.516 C  
BRANCH  11  12
HETATM   12  C   UNL     1     -13.090  11.071  71.873  1.00  0.00    -0.419 C  
BRANCH  12  13
HETATM   13  N   UNL     1     -14.007  11.968  72.587  1.00  0.00    -0.186 NA 
HETATM   14  H   UNL     1     -14.046  11.762  73.586  1.00  0.00     0.000 HD 
BRANCH  13  15
HETATM   15  C   UNL     1     -13.637  13.357  72.326  1.00  0.00    -0.605 C  
BRANCH  15  16
HETATM   16  C   UNL     1     -12.584  13.431  71.226  1.00  0.00    -0.411 C  
BRANCH  16  17
HETATM   17  C   UNL     1     -12.485  14.865  70.713  1.00  0.00    -0.401 C  
BRANCH  17  18
HETATM   18  C   UNL     1     -11.076  15.408  70.878  1.00  0.00    -0.374 C  
BRANCH  18  19
HETATM   19  C   UNL     1     -10.614  16.124  69.610  1.00  0.00    -0.311 C  
BRANCH  19  20
HETATM   20  C   UNL     1     -11.623  15.862  68.500  1.00  0.00    -0.349 C  
BRANCH  20  21
HETATM   21  N   UNL     1     -11.029  15.067  67.428  1.00  0.00    -0.307 NA 
HETATM   22  H   UNL     1     -10.252  14.502  67.767  1.00  0.00     0.000 HD 
BRANCH  21  23
HETATM   23  C   UNL     1     -12.043  14.245  66.753  1.00  0.00    -0.417 C  
BRANCH  23  24
HETATM   24  C   UNL     1     -11.435  13.143  65.872  1.00  0.00    -0.366 C  
BRANCH  24  25
HETATM   25  C   UNL     1     -11.137  11.889  66.649  1.00  0.00    -0.360 A  
HETATM   26  C   UNL     1     -10.370  10.873  66.066  1.00  0.00    -0.304 A  
HETATM   27  C   UNL     1     -10.080   9.711  66.783  1.00  0.00    -0.301 A  
HETATM   28  C   UNL     1     -10.562   9.561  68.081  1.00  0.00    -0.265 A  
HETATM   29  C   UNL     1     -11.336  10.564  68.662  1.00  0.00    -0.315 A  
HETATM   30  C   UNL     1     -11.626  11.724  67.947  1.00  0.00    -0.377 A  
ENDBRANCH  24  25
ENDBRANCH  23  24
ENDBRANCH  21  23
ENDBRANCH  20  21
ENDBRANCH  19  20
ENDBRANCH  18  19
ENDBRANCH  17  18
ENDBRANCH  16  17
ENDBRANCH  15  16
ENDBRANCH  13  15
ENDBRANCH  12  13
ENDBRANCH  11  12
ENDBRANCH   8  11
TORSDOF 13
ENDMDL
MODEL      107
REMARK 921   NORMALIZED FREE ENERGY PREDICTED BY IDOCK:   -4.51 KCAL/MOL
REMARK 922        TOTAL FREE ENERGY PREDICTED BY IDOCK:  -10.70 KCAL/MOL
REMARK 923 INTER-LIGAND FREE ENERGY PREDICTED BY IDOCK:   -8.99 KCAL/MOL
REMARK 924 INTRA-LIGAND FREE ENERGY PREDICTED BY IDOCK:   -1.70 KCAL/MOL
REMARK 927      BINDING AFFINITY PREDICTED BY RF-SCORE:    0.00 PKD
ROOT
HETATM    1  O   UNL     1     -14.389   7.040  71.968  1.00  0.00    -0.592 OA 
HETATM    2  H   UNL     1     -14.563   6.115  71.839  1.00  0.00     0.000 HD 
HETATM    3  C   UNL     1     -13.181   7.624  71.701  1.00  0.00    -0.352 A  
HETATM    4  C   UNL     1     -12.926   8.979  71.890  1.00  0.00    -0.389 A  
HETATM    5  C   UNL     1     -11.678   9.512  71.559  1.00  0.00    -0.472 A  
HETATM    6  O   UNL     1     -13.856   9.843  72.394  1.00  0.00    -0.568 OA 
HETATM    7  H   UNL     1     -13.683  10.768  72.524  1.00  0.00     0.000 HD 
HETATM    8  C   UNL     1     -10.680   8.691  71.023  1.00  0.00    -0.284 A  
HETATM    9  C   UNL     1     -12.180   6.790  71.214  1.00  0.00    -0.415 A  
HETATM   10  C   UNL     1     -10.932   7.318  70.879  1.00  0.00    -0.275 A  
ENDROOT
BRANCH   8  11
HETATM   11  C   UNL     1      -9.345   9.265  70.617  1.00  0.00    -0.329 C  
BRANCH  11  12
HETATM   12  C   UNL     1      -8.545   8.282  69.761  1.00  0.00    -0.129 C  
BRANCH  12  13
HETATM   13  N   UNL     1      -8.632   8.643  68.341  1.00  0.00    -0.134 NA 
HETATM   14  H   UNL     1      -9.599   8.749  68.030  1.00  0.00     0.000 HD 
BRANCH  13  15
HETATM   15  C   UNL     1      -7.839   9.843  68.090  1.00  0.00    -0.085 C  
BRANCH  15  16
HETATM   16  C   UNL     1      -7.777  10.139  66.595  1.00  0.00    -0.106 C  
BRANCH  16  17
HETATM   17  C   UNL     1      -8.447   9.004  65.825  1.00  0.00    -0.153 C  
BRANCH  17  18
HETATM   18  C   UNL     1      -9.349   9.547  64.729  1.00  0.00    -0.235 C  
BRANCH  18  19
HETATM   19  C   UNL     1      -8.529  10.227  63.634  1.00  0.00    -0.183 C  
BRANCH  19  20
HETATM   20  C   UNL     1      -9.463  11.046  62.754  1.00  0.00    -0.334 C  
BRANCH  20  21
HETATM   21  N   UNL     1     -10.796  11.136  63.346  1.00  0.00    -0.732 NA 
HETATM   22  H   UNL     1     -10.917  10.462  64.101  1.00  0.00     0.000 HD 
BRANCH  21  23
HETATM   23  C   UNL     1     -11.088  12.506  63.791  1.00  0.00    -0.448 C  
BRANCH  23  24
HETATM   24  C   UNL     1     -12.343  12.599  64.672  1.00  0.00    -0.546 C  
BRANCH  24  25
HETATM   25  C   UNL     1     -12.007  12.748  66.131  1.00  0.00    -0.476 A  
HETATM   26  C   UNL     1     -12.250  13.964  66.781  1.00  0.00    -0.438 A  
HETATM   27  C   UNL     1     -11.952  14.108  68.137  1.00  0.00    -0.367 A  
HETATM   28  C   UNL     1     -11.404  13.040  68.843  1.00  0.00    -0.333 A  
HETATM   29  C   UNL     1     -11.149  11.830  68.198  1.00  0.00    -0.297 A  
HETATM   30  C   UNL     1     -11.447  11.685  66.844  1.00  0.00    -0.320 A  
ENDBRANCH  24  25
ENDBRANCH  23  24
ENDBRANCH  21  23
ENDBRANCH  20  21
ENDBRANCH  19  20
ENDBRANCH  18  19
ENDBRANCH  17  18
ENDBRANCH  16  17
ENDBRANCH  15  16
ENDBRANCH  13  15
ENDBRANCH  12  13
ENDBRANCH  11  12
ENDBRANCH   8  11
TORSDOF 13
ENDMDL
MODEL      108
REMARK 921   NORMALIZED FREE ENERGY PREDICTED BY IDOCK:   -4.51 KCAL/MOL
REMARK 922        TOTAL FREE ENERGY PREDICTED BY IDOCK:  -10.69 KCAL/MOL
REMARK 923 INTER-LIGAND FREE ENERGY PREDICTED BY IDOCK:   -8.62 KCAL/MOL
REMARK 924 INTRA-LIGAND FREE ENERGY PREDICTED BY IDOCK:   -2.07 KCAL/MOL
REMARK 927      BINDING AFFINITY PREDICTED BY RF-SCORE:    0.00 PKD
ROOT
HETATM    1  O   UNL     1     -10.810  18.829  65.329  1.00  0.00    -0.576 OA 
HETATM    2  H   UNL     1     -10.579  19.613  65.812  1.00  0.00     0.000 HD 
HETATM    3  C   UNL     1     -10.695  17.566  65.845  1.00  0.00    -0.119 A  
HETATM    4  C   UNL     1     -11.034  16.416  65.139  1.00  0.00    -0.232 A  
HETATM    5  C   UNL     1     -10.926  15.163  65.745  1.00  0.00    -0.350 A  
HETATM    6  O   UNL     1     -11.480  16.446  63.848  1.00  0.00    -1.569 OA 
HETATM    7  H   UNL     1     -11.711  15.661  63.366  1.00  0.00     0.000 HD 
HETATM    8  C   UNL     1     -10.489  15.054  67.070  1.00  0.00    -0.278 A  
HETATM    9  C   UNL     1     -10.215  17.467  67.147  1.00  0.00    -0.323 A  
HETATM   10  C   UNL     1     -10.108  16.216  67.759  1.00  0.00    -0.250 A  
ENDROOT
BRANCH   8  11
HETATM   11  C   UNL     1     -10.415  13.709  67.750  1.00  0.00    -0.241 C  
BRANCH  11  12
HETATM   12  C   UNL     1     -11.622  13.469  68.659  1.00  0.00    -0.330 C  
BRANCH  12  13
HETATM   13  N   UNL     1     -11.319  12.440  69.660  1.00  0.00    -0.476 NA 
HETATM   14  H   UNL     1     -11.531  12.752  70.608  1.00  0.00     0.000 HD 
BRANCH  13  15
HETATM   15  C   UNL     1     -12.018  11.203  69.319  1.00  0.00    -0.351 C  
BRANCH  15  16
HETATM   16  C   UNL     1     -11.708  10.116  70.343  1.00  0.00    -0.390 C  
BRANCH  16  17
HETATM   17  C   UNL     1     -10.196   9.987  70.505  1.00  0.00    -0.160 C  
BRANCH  17  18
HETATM   18  C   UNL     1      -9.841   8.803  71.388  1.00  0.00    -0.353 C  
BRANCH  18  19
HETATM   19  C   UNL     1     -10.999   7.809  71.461  1.00  0.00    -0.267 C  
BRANCH  19  20
HETATM   20  C   UNL     1     -10.615   6.545  70.705  1.00  0.00    -0.231 C  
BRANCH  20  21
HETATM   21  N   UNL     1     -11.594   6.237  69.665  1.00  0.00    -0.526 NA 
HETATM   22  H   UNL     1     -12.397   6.864  69.709  1.00  0.00     0.000 HD 
BRANCH  21  23
HETATM   23  C   UNL     1     -10.973   6.244  68.333  1.00  0.00    -0.325 C  
BRANCH  23  24
HETATM   24  C   UNL     1      -9.533   6.780  68.342  1.00  0.00    -0.126 C  
BRANCH  24  25
HETATM   25  C   UNL     1      -9.411   8.103  67.635  1.00  0.00    -0.172 A  
HETATM   26  C   UNL     1      -8.200   8.803  67.670  1.00  0.00    -0.110 A  
HETATM   27  C   UNL     1      -8.074  10.026  67.008  1.00  0.00    -0.117 A  
HETATM   28  C   UNL     1      -9.162  10.553  66.316  1.00  0.00    -0.192 A  
HETATM   29  C   UNL     1     -10.375   9.865  66.287  1.00  0.00    -0.233 A  
HETATM   30  C   UNL     1     -10.501   8.645  66.948  1.00  0.00    -0.329 A  
ENDBRANCH  24  25
ENDBRANCH  23  24
ENDBRANCH  21  23
ENDBRANCH  20  21
ENDBRANCH  19  20
ENDBRANCH  18  19
ENDBRANCH  17  18
ENDBRANCH  16  17
ENDBRANCH  15  16
ENDBRANCH  13  15
ENDBRANCH  12  13
ENDBRANCH  11  12
ENDBRANCH   8  11
TORSDOF 13
ENDMDL
MODEL      109
REMARK 921   NORMALIZED FREE ENERGY PREDICTED BY IDOCK:   -4.51 KCAL/MOL
REMARK 922        TOTAL FREE ENERGY PREDICTED BY IDOCK:  -10.69 KCAL/MOL
REMARK 923 INTER-LIGAND FREE ENERGY PREDICTED BY IDOCK:   -9.10 KCAL/MOL
REMARK 924 INTRA-LIGAND FREE ENERGY PREDICTED BY IDOCK:   -1.59 KCAL/MOL
REMARK 927      BINDING AFFINITY PREDICTED BY RF-SCORE:    0.00 PKD
ROOT
HETATM    1  O   UNL     1     -11.108   5.747  69.654  1.00  0.00    -0.372 OA 
HETATM    2  H   UNL     1     -11.072   5.720  70.602  1.00  0.00     0.000 HD 
HETATM    3  C   UNL     1     -10.823   6.868  68.922  1.00  0.00    -0.207 A  
HETATM    4  C   UNL     1     -10.876   6.909  67.531  1.00  0.00    -0.292 A  
HETATM    5  C   UNL     1     -10.535   8.079  66.850  1.00  0.00    -0.387 A  
HETATM    6  O   UNL     1     -11.252   5.836  66.774  1.00  0.00    -0.540 OA 
HETATM    7  H   UNL     1     -11.288   5.864  65.825  1.00  0.00     0.000 HD 
HETATM    8  C   UNL     1     -10.125   9.215  67.558  1.00  0.00    -0.284 A  
HETATM    9  C   UNL     1     -10.464   8.005  69.638  1.00  0.00    -0.224 A  
HETATM   10  C   UNL     1     -10.119   9.177  68.961  1.00  0.00    -0.199 A  
ENDROOT
BRANCH   8  11
HETATM   11  C   UNL     1      -9.708  10.469  66.831  1.00  0.00    -0.218 C  
BRANCH  11  12
HETATM   12  C   UNL     1      -8.628  10.182  65.787  1.00  0.00    -0.149 C  
BRANCH  12  13
HETATM   13  N   UNL     1      -8.859  10.974  64.573  1.00  0.00    -0.366 NA 
HETATM   14  H   UNL     1      -8.323  10.624  63.778  1.00  0.00     0.000 HD 
BRANCH  13  15
HETATM   15  C   UNL     1     -10.290  11.032  64.290  1.00  0.00    -0.364 C  
BRANCH  15  16
HETATM   16  C   UNL     1     -10.684  12.426  63.812  1.00  0.00    -0.492 C  
BRANCH  16  17
HETATM   17  C   UNL     1     -11.210  13.238  64.992  1.00  0.00    -0.325 C  
BRANCH  17  18
HETATM   18  C   UNL     1     -10.590  14.624  65.021  1.00  0.00    -0.461 C  
BRANCH  18  19
HETATM   19  C   UNL     1     -10.169  15.004  66.440  1.00  0.00    -0.286 C  
BRANCH  19  20
HETATM   20  C   UNL     1     -10.547  16.456  66.695  1.00  0.00    -0.239 C  
BRANCH  20  21
HETATM   21  N   UNL     1     -10.947  16.658  68.086  1.00  0.00    -0.351 NA 
HETATM   22  H   UNL     1     -11.806  17.202  68.154  1.00  0.00     0.000 HD 
BRANCH  21  23
HETATM   23  C   UNL     1     -11.060  15.376  68.797  1.00  0.00    -0.283 C  
BRANCH  23  24
HETATM   24  C   UNL     1     -12.153  15.381  69.876  1.00  0.00    -0.382 C  
BRANCH  24  25
HETATM   25  C   UNL     1     -12.423  14.005  70.423  1.00  0.00    -0.418 A  
HETATM   26  C   UNL     1     -11.969  12.878  69.729  1.00  0.00    -0.365 A  
HETATM   27  C   UNL     1     -12.205  11.598  70.234  1.00  0.00    -0.401 A  
HETATM   28  C   UNL     1     -12.901  11.444  71.431  1.00  0.00    -0.502 A  
HETATM   29  C   UNL     1     -13.365  12.563  72.121  1.00  0.00    -0.540 A  
HETATM   30  C   UNL     1     -13.130  13.841  71.617  1.00  0.00    -0.456 A  
ENDBRANCH  24  25
ENDBRANCH  23  24
ENDBRANCH  21  23
ENDBRANCH  20  21
ENDBRANCH  19  20
ENDBRANCH  18  19
ENDBRANCH  17  18
ENDBRANCH  16  17
ENDBRANCH  15  16
ENDBRANCH  13  15
ENDBRANCH  12  13
ENDBRANCH  11  12
ENDBRANCH   8  11
TORSDOF 13
ENDMDL
MODEL      110
REMARK 921   NORMALIZED FREE ENERGY PREDICTED BY IDOCK:   -4.51 KCAL/MOL
REMARK 922        TOTAL FREE ENERGY PREDICTED BY IDOCK:  -10.69 KCAL/MOL
REMARK 923 INTER-LIGAND FREE ENERGY PREDICTED BY IDOCK:   -9.05 KCAL/MOL
REMARK 924 INTRA-LIGAND FREE ENERGY PREDICTED BY IDOCK:   -1.64 KCAL/MOL
REMARK 927      BINDING AFFINITY PREDICTED BY RF-SCORE:    0.00 PKD
ROOT
HETATM    1  O   UNL     1      -8.217  10.653  67.143  1.00  0.00    -0.119 OA 
HETATM    2  H   UNL     1      -7.673  11.206  67.691  1.00  0.00     0.000 HD 
HETATM    3  C   UNL     1      -8.966   9.615  67.629  1.00  0.00    -0.125 A  
HETATM    4  C   UNL     1      -9.763   8.804  66.826  1.00  0.00    -0.221 A  
HETATM    5  C   UNL     1     -10.529   7.787  67.399  1.00  0.00    -0.362 A  
HETATM    6  O   UNL     1      -9.841   8.953  65.471  1.00  0.00    -0.458 OA 
HETATM    7  H   UNL     1     -10.384   8.400  64.923  1.00  0.00     0.000 HD 
HETATM    8  C   UNL     1     -10.512   7.583  68.783  1.00  0.00    -0.212 A  
HETATM    9  C   UNL     1      -8.904   9.391  69.000  1.00  0.00    -0.141 A  
HETATM   10  C   UNL     1      -9.671   8.377  69.578  1.00  0.00    -0.177 A  
ENDROOT
BRANCH   8  11
HETATM   11  C   UNL     1     -11.374   6.519  69.417  1.00  0.00    -0.395 C  
BRANCH  11  12
HETATM   12  C   UNL     1     -11.691   6.846  70.877  1.00  0.00    -0.361 C  
BRANCH  12  13
HETATM   13  N   UNL     1     -12.778   7.828  70.962  1.00  0.00    -0.531 NA 
HETATM   14  H   UNL     1     -13.698   7.388  70.917  1.00  0.00     0.000 HD 
BRANCH  13  15
HETATM   15  C   UNL     1     -12.614   8.640  72.164  1.00  0.00    -0.391 C  
BRANCH  15  16
HETATM   16  C   UNL     1     -12.883  10.109  71.857  1.00  0.00    -0.526 C  
BRANCH  16  17
HETATM   17  C   UNL     1     -12.757  10.346  70.355  1.00  0.00    -0.289 C  
BRANCH  17  18
HETATM   18  C   UNL     1     -11.909  11.573  70.064  1.00  0.00    -0.435 C  
BRANCH  18  19
HETATM   19  C   UNL     1     -11.770  11.797  68.559  1.00  0.00    -0.390 C  
BRANCH  19  20
HETATM   20  C   UNL     1     -11.368  13.244  68.311  1.00  0.00    -0.300 C  
BRANCH  20  21
HETATM   21  N   UNL     1     -11.004  13.909  69.560  1.00  0.00    -0.432 NA 
HETATM   22  H   UNL     1     -10.235  13.431  70.028  1.00  0.00     0.000 HD 
BRANCH  21  23
HETATM   23  C   UNL     1     -10.702  15.330  69.336  1.00  0.00    -0.265 C  
BRANCH  23  24
HETATM   24  C   UNL     1     -10.311  15.641  67.883  1.00  0.00    -0.259 C  
BRANCH  24  25
HETATM   25  C   UNL     1     -10.307  17.118  67.596  1.00  0.00    -0.344 A  
HETATM   26  C   UNL     1     -10.128  18.031  68.642  1.00  0.00    -0.401 A  
HETATM   27  C   UNL     1     -10.112  19.403  68.383  1.00  0.00    -0.538 A  
HETATM   28  C   UNL     1     -10.282  19.863  67.080  1.00  0.00    -0.588 A  
HETATM   29  C   UNL     1     -10.472  18.959  66.036  1.00  0.00    -0.507 A  
HETATM   30  C   UNL     1     -10.488  17.589  66.293  1.00  0.00    -0.283 A  
ENDBRANCH  24  25
ENDBRANCH  23  24
ENDBRANCH  21  23
ENDBRANCH  20  21
ENDBRANCH  19  20
ENDBRANCH  18  19
ENDBRANCH  17  18
ENDBRANCH  16  17
ENDBRANCH  15  16
ENDBRANCH  13  15
ENDBRANCH  12  13
ENDBRANCH  11  12
ENDBRANCH   8  11
TORSDOF 13
ENDMDL
MODEL      111
REMARK 921   NORMALIZED FREE ENERGY PREDICTED BY IDOCK:   -4.51 KCAL/MOL
REMARK 922        TOTAL FREE ENERGY PREDICTED BY IDOCK:  -10.69 KCAL/MOL
REMARK 923 INTER-LIGAND FREE ENERGY PREDICTED BY IDOCK:   -7.71 KCAL/MOL
REMARK 924 INTRA-LIGAND FREE ENERGY PREDICTED BY IDOCK:   -2.98 KCAL/MOL
REMARK 927      BINDING AFFINITY PREDICTED BY RF-SCORE:    0.00 PKD
ROOT
HETATM    1  O   UNL     1     -11.663   7.253  69.717  1.00  0.00    -0.509 OA 
HETATM    2  H   UNL     1     -12.324   6.695  69.325  1.00  0.00     0.000 HD 
HETATM    3  C   UNL     1     -10.642   7.823  69.006  1.00  0.00    -0.166 A  
HETATM    4  C   UNL     1      -9.673   8.642  69.580  1.00  0.00    -0.179 A  
HETATM    5  C   UNL     1      -8.682   9.220  68.783  1.00  0.00    -0.132 A  
HETATM    6  O   UNL     1      -9.638   8.920  70.916  1.00  0.00    -0.196 OA 
HETATM    7  H   UNL     1      -8.976   9.478  71.308  1.00  0.00     0.000 HD 
HETATM    8  C   UNL     1      -8.663   8.992  67.403  1.00  0.00    -0.122 A  
HETATM    9  C   UNL     1     -10.604   7.552  67.642  1.00  0.00    -0.303 A  
HETATM   10  C   UNL     1      -9.617   8.130  66.841  1.00  0.00    -0.269 A  
ENDROOT
BRANCH   8  11
HETATM   11  C   UNL     1      -7.626   9.650  66.527  1.00  0.00    -0.098 C  
BRANCH  11  12
HETATM   12  C   UNL     1      -7.097  10.942  67.152  1.00  0.00    -0.103 C  
BRANCH  12  13
HETATM   13  N   UNL     1      -7.761  12.111  66.563  1.00  0.00    -0.379 NA 
HETATM   14  H   UNL     1      -8.671  11.877  66.166  1.00  0.00     0.000 HD 
BRANCH  13  15
HETATM   15  C   UNL     1      -7.852  13.177  67.557  1.00  0.00    -0.172 C  
BRANCH  15  16
HETATM   16  C   UNL     1      -8.487  14.422  66.947  1.00  0.00    -0.156 C  
BRANCH  16  17
HETATM   17  C   UNL     1      -8.839  15.409  68.058  1.00  0.00    -0.165 C  
BRANCH  17  18
HETATM   18  C   UNL     1      -9.568  16.620  67.501  1.00  0.00    -0.242 C  
BRANCH  18  19
HETATM   19  C   UNL     1      -9.520  16.632  65.974  1.00  0.00    -0.286 C  
BRANCH  19  20
HETATM   20  C   UNL     1     -10.878  17.067  65.441  1.00  0.00    -0.073 C  
BRANCH  20  21
HETATM   21  N   UNL     1     -11.201  16.369  64.198  1.00  0.00    -1.371 NA 
HETATM   22  H   UNL     1     -10.603  16.673  63.431  1.00  0.00     0.000 HD 
BRANCH  21  23
HETATM   23  C   UNL     1     -11.150  14.911  64.379  1.00  0.00    -0.108 C  
BRANCH  23  24
HETATM   24  C   UNL     1     -12.384  14.351  65.103  1.00  0.00    -0.383 C  
BRANCH  24  25
HETATM   25  C   UNL     1     -12.015  13.515  66.299  1.00  0.00    -0.457 A  
HETATM   26  C   UNL     1     -11.543  12.209  66.118  1.00  0.00    -0.418 A  
HETATM   27  C   UNL     1     -11.188  11.431  67.221  1.00  0.00    -0.370 A  
HETATM   28  C   UNL     1     -11.311  11.954  68.506  1.00  0.00    -0.329 A  
HETATM   29  C   UNL     1     -11.792  13.250  68.692  1.00  0.00    -0.380 A  
HETATM   30  C   UNL     1     -12.146  14.028  67.592  1.00  0.00    -0.344 A  
ENDBRANCH  24  25
ENDBRANCH  23  24
ENDBRANCH  21  23
ENDBRANCH  20  21
ENDBRANCH  19  20
ENDBRANCH  18  19
ENDBRANCH  17  18
ENDBRANCH  16  17
ENDBRANCH  15  16
ENDBRANCH  13  15
ENDBRANCH  12  13
ENDBRANCH  11  12
ENDBRANCH   8  11
TORSDOF 13
ENDMDL
MODEL      112
REMARK 921   NORMALIZED FREE ENERGY PREDICTED BY IDOCK:   -4.50 KCAL/MOL
REMARK 922        TOTAL FREE ENERGY PREDICTED BY IDOCK:  -10.67 KCAL/MOL
REMARK 923 INTER-LIGAND FREE ENERGY PREDICTED BY IDOCK:   -8.21 KCAL/MOL
REMARK 924 INTRA-LIGAND FREE ENERGY PREDICTED BY IDOCK:   -2.47 KCAL/MOL
REMARK 927      BINDING AFFINITY PREDICTED BY RF-SCORE:    0.00 PKD
ROOT
HETATM    1  O   UNL     1     -11.960   5.697  73.120  1.00  0.00    -0.499 OA 
HETATM    2  H   UNL     1     -11.555   5.257  73.858  1.00  0.00     0.000 HD 
HETATM    3  C   UNL     1     -11.405   5.736  71.870  1.00  0.00    -0.204 A  
HETATM    4  C   UNL     1     -11.998   6.381  70.788  1.00  0.00    -0.181 A  
HETATM    5  C   UNL     1     -11.390   6.347  69.532  1.00  0.00    -0.460 A  
HETATM    6  O   UNL     1     -13.176   7.063  70.890  1.00  0.00    -0.520 OA 
HETATM    7  H   UNL     1     -13.581   7.504  70.152  1.00  0.00     0.000 HD 
HETATM    8  C   UNL     1     -10.188   5.654  69.347  1.00  0.00    -0.315 A  
HETATM    9  C   UNL     1     -10.186   5.085  71.709  1.00  0.00    -0.272 A  
HETATM   10  C   UNL     1      -9.576   5.045  70.454  1.00  0.00    -0.260 A  
ENDROOT
BRANCH   8  11
HETATM   11  C   UNL     1      -9.547   5.570  67.984  1.00  0.00    -0.147 C  
BRANCH  11  12
HETATM   12  C   UNL     1     -10.304   6.409  66.953  1.00  0.00    -0.241 C  
BRANCH  12  13
HETATM   13  N   UNL     1      -9.434   6.743  65.819  1.00  0.00    -0.375 NA 
HETATM   14  H   UNL     1      -9.933   6.710  64.929  1.00  0.00     0.000 HD 
BRANCH  13  15
HETATM   15  C   UNL     1      -8.803   8.039  66.049  1.00  0.00    -0.162 C  
BRANCH  15  16
HETATM   16  C   UNL     1      -9.857   9.136  66.145  1.00  0.00    -0.363 C  
BRANCH  16  17
HETATM   17  C   UNL     1      -9.342  10.399  65.459  1.00  0.00    -0.244 C  
BRANCH  17  18
HETATM   18  C   UNL     1     -10.489  11.221  64.897  1.00  0.00    -0.375 C  
BRANCH  18  19
HETATM   19  C   UNL     1     -10.595  12.569  65.610  1.00  0.00    -0.298 C  
BRANCH  19  20
HETATM   20  C   UNL     1     -11.968  12.678  66.257  1.00  0.00    -0.374 C  
BRANCH  20  21
HETATM   21  N   UNL     1     -11.877  13.287  67.582  1.00  0.00    -0.360 NA 
HETATM   22  H   UNL     1     -12.799  13.459  67.980  1.00  0.00     0.000 HD 
BRANCH  21  23
HETATM   23  C   UNL     1     -11.042  12.478  68.481  1.00  0.00    -0.262 C  
BRANCH  23  24
HETATM   24  C   UNL     1     -11.679  11.127  68.842  1.00  0.00    -0.406 C  
BRANCH  24  25
HETATM   25  C   UNL     1     -10.817  10.318  69.772  1.00  0.00    -0.332 A  
HETATM   26  C   UNL     1     -11.323   9.908  71.011  1.00  0.00    -0.460 A  
HETATM   27  C   UNL     1     -10.534   9.148  71.876  1.00  0.00    -0.280 A  
HETATM   28  C   UNL     1      -9.236   8.803  71.507  1.00  0.00    -0.332 A  
HETATM   29  C   UNL     1      -8.723   9.220  70.279  1.00  0.00    -0.246 A  
HETATM   30  C   UNL     1      -9.510   9.978  69.415  1.00  0.00    -0.237 A  
ENDBRANCH  24  25
ENDBRANCH  23  24
ENDBRANCH  21  23
ENDBRANCH  20  21
ENDBRANCH  19  20
ENDBRANCH  18  19
ENDBRANCH  17  18
ENDBRANCH  16  17
ENDBRANCH  15  16
ENDBRANCH  13  15
ENDBRANCH  12  13
ENDBRANCH  11  12
ENDBRANCH   8  11
TORSDOF 13
ENDMDL
MODEL      113
REMARK 921   NORMALIZED FREE ENERGY PREDICTED BY IDOCK:   -4.50 KCAL/MOL
REMARK 922        TOTAL FREE ENERGY PREDICTED BY IDOCK:  -10.67 KCAL/MOL
REMARK 923 INTER-LIGAND FREE ENERGY PREDICTED BY IDOCK:   -8.36 KCAL/MOL
REMARK 924 INTRA-LIGAND FREE ENERGY PREDICTED BY IDOCK:   -2.31 KCAL/MOL
REMARK 927      BINDING AFFINITY PREDICTED BY RF-SCORE:    0.00 PKD
ROOT
HETATM    1  O   UNL     1     -11.842   7.165  72.794  1.00  0.00    -0.518 OA 
HETATM    2  H   UNL     1     -11.117   6.565  72.668  1.00  0.00     0.000 HD 
HETATM    3  C   UNL     1     -11.938   8.375  72.161  1.00  0.00    -0.374 A  
HETATM    4  C   UNL     1     -13.001   9.254  72.345  1.00  0.00    -0.377 A  
HETATM    5  C   UNL     1     -13.049  10.455  71.635  1.00  0.00    -0.553 A  
HETATM    6  O   UNL     1     -14.031   8.999  73.205  1.00  0.00    -1.205 OA 
HETATM    7  H   UNL     1     -14.756   9.599  73.331  1.00  0.00     0.000 HD 
HETATM    8  C   UNL     1     -12.037  10.779  70.724  1.00  0.00    -0.473 A  
HETATM    9  C   UNL     1     -10.902   8.707  71.294  1.00  0.00    -0.327 A  
HETATM   10  C   UNL     1     -10.947   9.906  70.579  1.00  0.00    -0.391 A  
ENDROOT
BRANCH   8  11
HETATM   11  C   UNL     1     -12.104  12.051  69.916  1.00  0.00    -0.334 C  
BRANCH  11  12
HETATM   12  C   UNL     1     -12.247  13.282  70.814  1.00  0.00    -0.308 C  
BRANCH  12  13
HETATM   13  N   UNL     1     -11.519  14.423  70.246  1.00  0.00    -0.426 NA 
HETATM   14  H   UNL     1     -10.803  14.776  70.881  1.00  0.00     0.000 HD 
BRANCH  13  15
HETATM   15  C   UNL     1     -10.969  14.056  68.945  1.00  0.00    -0.259 C  
BRANCH  15  16
HETATM   16  C   UNL     1      -9.777  14.943  68.600  1.00  0.00    -0.226 C  
BRANCH  16  17
HETATM   17  C   UNL     1      -8.511  14.092  68.536  1.00  0.00    -0.143 C  
BRANCH  17  18
HETATM   18  C   UNL     1      -8.842  12.645  68.211  1.00  0.00    -0.172 C  
BRANCH  18  19
HETATM   19  C   UNL     1      -8.143  12.200  66.928  1.00  0.00    -0.112 C  
BRANCH  19  20
HETATM   20  C   UNL     1      -9.198  11.836  65.892  1.00  0.00    -0.170 C  
BRANCH  20  21
HETATM   21  N   UNL     1      -8.750  10.726  65.055  1.00  0.00    -0.276 NA 
HETATM   22  H   UNL     1      -7.847  10.922  64.623  1.00  0.00     0.000 HD 
BRANCH  21  23
HETATM   23  C   UNL     1      -8.726   9.466  65.811  1.00  0.00    -0.158 C  
BRANCH  23  24
HETATM   24  C   UNL     1     -10.088   9.107  66.426  1.00  0.00    -0.345 C  
BRANCH  24  25
HETATM   25  C   UNL     1      -9.994   7.955  67.390  1.00  0.00    -0.261 A  
HETATM   26  C   UNL     1     -11.123   7.169  67.649  1.00  0.00    -0.134 A  
HETATM   27  C   UNL     1     -11.042   6.093  68.534  1.00  0.00    -0.352 A  
HETATM   28  C   UNL     1      -9.834   5.805  69.165  1.00  0.00    -0.211 A  
HETATM   29  C   UNL     1      -8.710   6.592  68.920  1.00  0.00    -0.127 A  
HETATM   30  C   UNL     1      -8.789   7.667  68.037  1.00  0.00    -0.127 A  
ENDBRANCH  24  25
ENDBRANCH  23  24
ENDBRANCH  21  23
ENDBRANCH  20  21
ENDBRANCH  19  20
ENDBRANCH  18  19
ENDBRANCH  17  18
ENDBRANCH  16  17
ENDBRANCH  15  16
ENDBRANCH  13  15
ENDBRANCH  12  13
ENDBRANCH  11  12
ENDBRANCH   8  11
TORSDOF 13
ENDMDL
MODEL      114
REMARK 921   NORMALIZED FREE ENERGY PREDICTED BY IDOCK:   -4.49 KCAL/MOL
REMARK 922        TOTAL FREE ENERGY PREDICTED BY IDOCK:  -10.66 KCAL/MOL
REMARK 923 INTER-LIGAND FREE ENERGY PREDICTED BY IDOCK:   -8.04 KCAL/MOL
REMARK 924 INTRA-LIGAND FREE ENERGY PREDICTED BY IDOCK:   -2.62 KCAL/MOL
REMARK 927      BINDING AFFINITY PREDICTED BY RF-SCORE:    0.00 PKD
ROOT
HETATM    1  O   UNL     1     -11.855  15.966  68.779  1.00  0.00    -0.419 OA 
HETATM    2  H   UNL     1     -12.100  16.698  69.333  1.00  0.00     0.000 HD 
HETATM    3  C   UNL     1     -11.911  14.661  69.187  1.00  0.00    -0.294 A  
HETATM    4  C   UNL     1     -11.554  13.588  68.375  1.00  0.00    -0.343 A  
HETATM    5  C   UNL     1     -11.673  12.280  68.848  1.00  0.00    -0.380 A  
HETATM    6  O   UNL     1     -11.081  13.749  67.104  1.00  0.00    -0.291 OA 
HETATM    7  H   UNL     1     -10.836  13.017  66.550  1.00  0.00     0.000 HD 
HETATM    8  C   UNL     1     -12.165  12.036  70.136  1.00  0.00    -0.309 A  
HETATM    9  C   UNL     1     -12.356  14.433  70.485  1.00  0.00    -0.413 A  
HETATM   10  C   UNL     1     -12.480  13.126  70.962  1.00  0.00    -0.406 A  
ENDROOT
BRANCH   8  11
HETATM   11  C   UNL     1     -12.343  10.625  70.639  1.00  0.00    -0.462 C  
BRANCH  11  12
HETATM   12  C   UNL     1     -13.283  10.571  71.844  1.00  0.00    -0.420 C  
BRANCH  12  13
HETATM   13  N   UNL     1     -13.303   9.223  72.425  1.00  0.00    -0.515 NA 
HETATM   14  H   UNL     1     -13.615   9.227  73.396  1.00  0.00     0.000 HD 
BRANCH  13  15
HETATM   15  C   UNL     1     -14.113   8.341  71.590  1.00  0.00    -0.418 C  
BRANCH  15  16
HETATM   16  C   UNL     1     -13.532   6.931  71.582  1.00  0.00    -0.284 C  
BRANCH  16  17
HETATM   17  C   UNL     1     -12.317   6.887  70.660  1.00  0.00    -0.248 C  
BRANCH  17  18
HETATM   18  C   UNL     1     -11.181   6.100  71.291  1.00  0.00    -0.348 C  
BRANCH  18  19
HETATM   19  C   UNL     1     -11.112   6.352  72.796  1.00  0.00    -0.281 C  
BRANCH  19  20
HETATM   20  C   UNL     1      -9.841   7.130  73.109  1.00  0.00    -0.211 C  
BRANCH  20  21
HETATM   21  N   UNL     1      -9.867   8.449  72.481  1.00  0.00    -0.296 NA 
HETATM   22  H   UNL     1     -10.011   9.189  73.167  1.00  0.00     0.000 HD 
BRANCH  21  23
HETATM   23  C   UNL     1      -8.654   8.680  71.683  1.00  0.00    -0.189 C  
BRANCH  23  24
HETATM   24  C   UNL     1      -8.930   9.431  70.371  1.00  0.00    -0.294 C  
BRANCH  24  25
HETATM   25  C   UNL     1      -9.214   8.497  69.226  1.00  0.00    -0.153 A  
HETATM   26  C   UNL     1      -8.488   7.306  69.102  1.00  0.00    -0.133 A  
HETATM   27  C   UNL     1      -8.752   6.429  68.049  1.00  0.00    -0.115 A  
HETATM   28  C   UNL     1      -9.737   6.743  67.116  1.00  0.00    -0.191 A  
HETATM   29  C   UNL     1     -10.455   7.933  67.229  1.00  0.00    -0.390 A  
HETATM   30  C   UNL     1     -10.192   8.810  68.280  1.00  0.00    -0.240 A  
ENDBRANCH  24  25
ENDBRANCH  23  24
ENDBRANCH  21  23
ENDBRANCH  20  21
ENDBRANCH  19  20
ENDBRANCH  18  19
ENDBRANCH  17  18
ENDBRANCH  16  17
ENDBRANCH  15  16
ENDBRANCH  13  15
ENDBRANCH  12  13
ENDBRANCH  11  12
ENDBRANCH   8  11
TORSDOF 13
ENDMDL
MODEL      115
REMARK 921   NORMALIZED FREE ENERGY PREDICTED BY IDOCK:   -4.49 KCAL/MOL
REMARK 922        TOTAL FREE ENERGY PREDICTED BY IDOCK:  -10.66 KCAL/MOL
REMARK 923 INTER-LIGAND FREE ENERGY PREDICTED BY IDOCK:   -9.07 KCAL/MOL
REMARK 924 INTRA-LIGAND FREE ENERGY PREDICTED BY IDOCK:   -1.59 KCAL/MOL
REMARK 927      BINDING AFFINITY PREDICTED BY RF-SCORE:    0.00 PKD
ROOT
HETATM    1  O   UNL     1     -12.032  16.567  71.628  1.00  0.00    -0.651 OA 
HETATM    2  H   UNL     1     -11.523  17.008  70.958  1.00  0.00     0.000 HD 
HETATM    3  C   UNL     1     -12.334  15.233  71.589  1.00  0.00    -0.363 A  
HETATM    4  C   UNL     1     -13.080  14.587  72.570  1.00  0.00    -0.431 A  
HETATM    5  C   UNL     1     -13.316  13.213  72.482  1.00  0.00    -0.525 A  
HETATM    6  O   UNL     1     -13.607  15.239  73.647  1.00  0.00    -0.573 OA 
HETATM    7  H   UNL     1     -14.117  14.799  74.317  1.00  0.00     0.000 HD 
HETATM    8  C   UNL     1     -12.795  12.474  71.414  1.00  0.00    -0.359 A  
HETATM    9  C   UNL     1     -11.852  14.517  70.498  1.00  0.00    -0.372 A  
HETATM   10  C   UNL     1     -12.082  13.143  70.406  1.00  0.00    -0.392 A  
ENDROOT
BRANCH   8  11
HETATM   11  C   UNL     1     -13.003  10.982  71.334  1.00  0.00    -0.517 C  
BRANCH  11  12
HETATM   12  C   UNL     1     -11.681  10.238  71.139  1.00  0.00    -0.341 C  
BRANCH  12  13
HETATM   13  N   UNL     1     -11.760   9.338  69.982  1.00  0.00    -0.456 NA 
HETATM   14  H   UNL     1     -12.615   9.478  69.444  1.00  0.00     0.000 HD 
BRANCH  13  15
HETATM   15  C   UNL     1     -10.562   9.490  69.160  1.00  0.00    -0.222 C  
BRANCH  15  16
HETATM   16  C   UNL     1      -9.397   8.717  69.768  1.00  0.00    -0.163 C  
BRANCH  16  17
HETATM   17  C   UNL     1      -8.179   9.632  69.873  1.00  0.00    -0.184 C  
BRANCH  17  18
HETATM   18  C   UNL     1      -8.394  10.918  69.093  1.00  0.00    -0.077 C  
BRANCH  18  19
HETATM   19  C   UNL     1      -7.059  11.534  68.678  1.00  0.00    -0.098 C  
BRANCH  19  20
HETATM   20  C   UNL     1      -7.178  12.058  67.254  1.00  0.00    -0.150 C  
BRANCH  20  21
HETATM   21  N   UNL     1      -6.929  13.497  67.202  1.00  0.00    -0.414 NA 
HETATM   22  H   UNL     1      -6.607  13.788  66.279  1.00  0.00     0.000 HD 
BRANCH  21  23
HETATM   23  C   UNL     1      -8.113  14.257  67.627  1.00  0.00    -0.179 C  
BRANCH  23  24
HETATM   24  C   UNL     1      -8.811  14.983  66.466  1.00  0.00    -0.286 C  
BRANCH  24  25
HETATM   25  C   UNL     1     -10.068  14.283  66.026  1.00  0.00    -0.333 A  
HETATM   26  C   UNL     1     -11.278  14.547  66.679  1.00  0.00    -0.346 A  
HETATM   27  C   UNL     1     -12.451  13.910  66.271  1.00  0.00    -0.454 A  
HETATM   28  C   UNL     1     -12.414  13.003  65.214  1.00  0.00    -0.555 A  
HETATM   29  C   UNL     1     -11.210  12.727  64.569  1.00  0.00    -0.373 A  
HETATM   30  C   UNL     1     -10.038  13.363  64.975  1.00  0.00    -0.261 A  
ENDBRANCH  24  25
ENDBRANCH  23  24
ENDBRANCH  21  23
ENDBRANCH  20  21
ENDBRANCH  19  20
ENDBRANCH  18  19
ENDBRANCH  17  18
ENDBRANCH  16  17
ENDBRANCH  15  16
ENDBRANCH  13  15
ENDBRANCH  12  13
ENDBRANCH  11  12
ENDBRANCH   8  11
TORSDOF 13
ENDMDL
MODEL      116
REMARK 921   NORMALIZED FREE ENERGY PREDICTED BY IDOCK:   -4.49 KCAL/MOL
REMARK 922        TOTAL FREE ENERGY PREDICTED BY IDOCK:  -10.66 KCAL/MOL
REMARK 923 INTER-LIGAND FREE ENERGY PREDICTED BY IDOCK:   -8.49 KCAL/MOL
REMARK 924 INTRA-LIGAND FREE ENERGY PREDICTED BY IDOCK:   -2.17 KCAL/MOL
REMARK 927      BINDING AFFINITY PREDICTED BY RF-SCORE:    0.00 PKD
ROOT
HETATM    1  O   UNL     1     -11.261  15.438  64.444  1.00  0.00    -0.676 OA 
HETATM    2  H   UNL     1     -11.077  16.235  64.927  1.00  0.00     0.000 HD 
HETATM    3  C   UNL     1     -10.907  14.192  64.884  1.00  0.00    -0.411 A  
HETATM    4  C   UNL     1     -11.178  13.024  64.176  1.00  0.00    -0.399 A  
HETATM    5  C   UNL     1     -10.820  11.783  64.707  1.00  0.00    -0.358 A  
HETATM    6  O   UNL     1     -11.794  13.024  62.958  1.00  0.00    -0.841 OA 
HETATM    7  H   UNL     1     -11.978  12.228  62.474  1.00  0.00     0.000 HD 
HETATM    8  C   UNL     1     -10.199  11.702  65.959  1.00  0.00    -0.270 A  
HETATM    9  C   UNL     1     -10.248  14.127  66.107  1.00  0.00    -0.313 A  
HETATM   10  C   UNL     1      -9.890  12.888  66.643  1.00  0.00    -0.250 A  
ENDROOT
BRANCH   8  11
HETATM   11  C   UNL     1      -9.851  10.364  66.563  1.00  0.00    -0.256 C  
BRANCH  11  12
HETATM   12  C   UNL     1      -8.378  10.294  66.968  1.00  0.00    -0.126 C  
BRANCH  12  13
HETATM   13  N   UNL     1      -8.241   9.768  68.331  1.00  0.00    -0.105 NA 
HETATM   14  H   UNL     1      -7.975  10.494  68.998  1.00  0.00     0.000 HD 
BRANCH  13  15
HETATM   15  C   UNL     1      -9.473   9.088  68.721  1.00  0.00    -0.148 C  
BRANCH  15  16
HETATM   16  C   UNL     1      -9.782   9.344  70.192  1.00  0.00    -0.274 C  
BRANCH  16  17
HETATM   17  C   UNL     1     -11.285   9.546  70.368  1.00  0.00    -0.323 C  
BRANCH  17  18
HETATM   18  C   UNL     1     -11.620  11.016  70.553  1.00  0.00    -0.344 C  
BRANCH  18  19
HETATM   19  C   UNL     1     -12.014  11.658  69.224  1.00  0.00    -0.382 C  
BRANCH  19  20
HETATM   20  C   UNL     1     -12.282  13.139  69.451  1.00  0.00    -0.137 C  
BRANCH  20  21
HETATM   21  N   UNL     1     -11.775  13.570  70.753  1.00  0.00    -0.481 NA 
HETATM   22  H   UNL     1     -10.884  13.127  70.973  1.00  0.00     0.000 HD 
BRANCH  21  23
HETATM   23  C   UNL     1     -11.685  15.035  70.829  1.00  0.00    -0.320 C  
BRANCH  23  24
HETATM   24  C   UNL     1     -11.628  15.707  69.448  1.00  0.00    -0.378 C  
BRANCH  24  25
HETATM   25  C   UNL     1     -10.270  16.283  69.149  1.00  0.00    -0.266 A  
HETATM   26  C   UNL     1      -9.126  15.493  69.316  1.00  0.00    -0.266 A  
HETATM   27  C   UNL     1      -7.863  16.015  69.030  1.00  0.00    -0.222 A  
HETATM   28  C   UNL     1      -7.742  17.329  68.584  1.00  0.00    -0.265 A  
HETATM   29  C   UNL     1      -8.877  18.124  68.427  1.00  0.00    -0.305 A  
HETATM   30  C   UNL     1     -10.138  17.603  68.712  1.00  0.00    -0.377 A  
ENDBRANCH  24  25
ENDBRANCH  23  24
ENDBRANCH  21  23
ENDBRANCH  20  21
ENDBRANCH  19  20
ENDBRANCH  18  19
ENDBRANCH  17  18
ENDBRANCH  16  17
ENDBRANCH  15  16
ENDBRANCH  13  15
ENDBRANCH  12  13
ENDBRANCH  11  12
ENDBRANCH   8  11
TORSDOF 13
ENDMDL
MODEL      117
REMARK 921   NORMALIZED FREE ENERGY PREDICTED BY IDOCK:   -4.49 KCAL/MOL
REMARK 922        TOTAL FREE ENERGY PREDICTED BY IDOCK:  -10.65 KCAL/MOL
REMARK 923 INTER-LIGAND FREE ENERGY PREDICTED BY IDOCK:   -9.50 KCAL/MOL
REMARK 924 INTRA-LIGAND FREE ENERGY PREDICTED BY IDOCK:   -1.15 KCAL/MOL
REMARK 927      BINDING AFFINITY PREDICTED BY RF-SCORE:    0.00 PKD
ROOT
HETATM    1  O   UNL     1      -7.579   8.016  69.353  1.00  0.00    -0.097 OA 
HETATM    2  H   UNL     1      -7.234   7.430  70.016  1.00  0.00     0.000 HD 
HETATM    3  C   UNL     1      -8.719   8.755  69.521  1.00  0.00    -0.138 A  
HETATM    4  C   UNL     1      -9.224   9.614  68.549  1.00  0.00    -0.137 A  
HETATM    5  C   UNL     1     -10.373  10.365  68.807  1.00  0.00    -0.213 A  
HETATM    6  O   UNL     1      -8.643   9.768  67.324  1.00  0.00    -0.127 OA 
HETATM    7  H   UNL     1      -8.988  10.354  66.660  1.00  0.00     0.000 HD 
HETATM    8  C   UNL     1     -11.016  10.272  70.046  1.00  0.00    -0.371 A  
HETATM    9  C   UNL     1      -9.376   8.618  70.739  1.00  0.00    -0.231 A  
HETATM   10  C   UNL     1     -10.523   9.370  71.002  1.00  0.00    -0.392 A  
ENDROOT
BRANCH   8  11
HETATM   11  C   UNL     1     -12.229  11.115  70.352  1.00  0.00    -0.457 C  
BRANCH  11  12
HETATM   12  C   UNL     1     -13.001  10.576  71.558  1.00  0.00    -0.460 C  
BRANCH  12  13
HETATM   13  N   UNL     1     -13.496  11.680  72.389  1.00  0.00    -0.475 NA 
HETATM   14  H   UNL     1     -13.095  11.664  73.327  1.00  0.00     0.000 HD 
BRANCH  13  15
HETATM   15  C   UNL     1     -13.259  12.951  71.710  1.00  0.00    -0.384 C  
BRANCH  15  16
HETATM   16  C   UNL     1     -13.792  14.109  72.546  1.00  0.00    -0.590 C  
BRANCH  16  17
HETATM   17  C   UNL     1     -13.530  15.425  71.817  1.00  0.00    -0.581 C  
BRANCH  17  18
HETATM   18  C   UNL     1     -12.132  15.942  72.109  1.00  0.00    -0.596 C  
BRANCH  18  19
HETATM   19  C   UNL     1     -11.233  15.807  70.881  1.00  0.00    -0.404 C  
BRANCH  19  20
HETATM   20  C   UNL     1     -12.106  15.709  69.638  1.00  0.00    -0.308 C  
BRANCH  20  21
HETATM   21  N   UNL     1     -11.587  14.708  68.709  1.00  0.00    -0.300 NA 
HETATM   22  H   UNL     1     -12.233  13.927  68.600  1.00  0.00     0.000 HD 
BRANCH  21  23
HETATM   23  C   UNL     1     -11.244  15.312  67.414  1.00  0.00    -0.311 C  
BRANCH  23  24
HETATM   24  C   UNL     1      -9.860  15.980  67.409  1.00  0.00    -0.236 C  
BRANCH  24  25
HETATM   25  C   UNL     1      -9.949  17.478  67.286  1.00  0.00    -0.312 A  
HETATM   26  C   UNL     1     -10.377  18.054  66.085  1.00  0.00    -0.368 A  
HETATM   27  C   UNL     1     -10.472  19.442  65.965  1.00  0.00    -0.596 A  
HETATM   28  C   UNL     1     -10.133  20.254  67.045  1.00  0.00    -0.567 A  
HETATM   29  C   UNL     1      -9.695  19.686  68.240  1.00  0.00    -0.500 A  
HETATM   30  C   UNL     1      -9.599  18.300  68.360  1.00  0.00    -0.350 A  
ENDBRANCH  24  25
ENDBRANCH  23  24
ENDBRANCH  21  23
ENDBRANCH  20  21
ENDBRANCH  19  20
ENDBRANCH  18  19
ENDBRANCH  17  18
ENDBRANCH  16  17
ENDBRANCH  15  16
ENDBRANCH  13  15
ENDBRANCH  12  13
ENDBRANCH  11  12
ENDBRANCH   8  11
TORSDOF 13
ENDMDL
MODEL      118
REMARK 921   NORMALIZED FREE ENERGY PREDICTED BY IDOCK:   -4.48 KCAL/MOL
REMARK 922        TOTAL FREE ENERGY PREDICTED BY IDOCK:  -10.64 KCAL/MOL
REMARK 923 INTER-LIGAND FREE ENERGY PREDICTED BY IDOCK:   -9.02 KCAL/MOL
REMARK 924 INTRA-LIGAND FREE ENERGY PREDICTED BY IDOCK:   -1.62 KCAL/MOL
REMARK 927      BINDING AFFINITY PREDICTED BY RF-SCORE:    0.00 PKD
ROOT
HETATM    1  O   UNL     1     -13.068  12.012  71.538  1.00  0.00    -0.390 OA 
HETATM    2  H   UNL     1     -13.796  12.272  72.090  1.00  0.00     0.000 HD 
HETATM    3  C   UNL     1     -12.669  10.712  71.382  1.00  0.00    -0.440 A  
HETATM    4  C   UNL     1     -11.602  10.331  70.573  1.00  0.00    -0.338 A  
HETATM    5  C   UNL     1     -11.276   8.980  70.433  1.00  0.00    -0.275 A  
HETATM    6  O   UNL     1     -10.835  11.229  69.889  1.00  0.00    -0.463 OA 
HETATM    7  H   UNL     1     -10.106  10.969  69.338  1.00  0.00     0.000 HD 
HETATM    8  C   UNL     1     -12.027   8.000  71.091  1.00  0.00    -0.297 A  
HETATM    9  C   UNL     1     -13.392   9.750  72.079  1.00  0.00    -0.547 A  
HETATM   10  C   UNL     1     -13.073   8.398  71.939  1.00  0.00    -0.383 A  
ENDROOT
BRANCH   8  11
HETATM   11  C   UNL     1     -11.715   6.535  70.908  1.00  0.00    -0.416 C  
BRANCH  11  12
HETATM   12  C   UNL     1     -10.227   6.307  70.633  1.00  0.00    -0.194 C  
BRANCH  12  13
HETATM   13  N   UNL     1     -10.046   5.390  69.501  1.00  0.00    -0.217 NA 
HETATM   14  H   UNL     1     -10.907   4.896  69.265  1.00  0.00     0.000 HD 
BRANCH  13  15
HETATM   15  C   UNL     1      -9.499   6.120  68.361  1.00  0.00    -0.118 C  
BRANCH  15  16
HETATM   16  C   UNL     1     -10.597   6.431  67.350  1.00  0.00    -0.363 C  
BRANCH  16  17
HETATM   17  C   UNL     1     -10.572   7.920  67.014  1.00  0.00    -0.381 C  
BRANCH  17  18
HETATM   18  C   UNL     1      -9.228   8.536  67.363  1.00  0.00    -0.163 C  
BRANCH  18  19
HETATM   19  C   UNL     1      -9.112   9.951  66.798  1.00  0.00    -0.164 C  
BRANCH  19  20
HETATM   20  C   UNL     1      -9.367   9.905  65.297  1.00  0.00    -0.251 C  
BRANCH  20  21
HETATM   21  N   UNL     1      -9.313  11.244  64.716  1.00  0.00    -0.338 NA 
HETATM   22  H   UNL     1      -8.355  11.527  64.513  1.00  0.00     0.000 HD 
BRANCH  21  23
HETATM   23  C   UNL     1     -10.169  11.340  63.524  1.00  0.00    -0.403 C  
BRANCH  23  24
HETATM   24  C   UNL     1     -11.523  12.009  63.808  1.00  0.00    -0.547 C  
BRANCH  24  25
HETATM   25  C   UNL     1     -11.451  12.983  64.953  1.00  0.00    -0.348 A  
HETATM   26  C   UNL     1     -11.963  12.626  66.206  1.00  0.00    -0.439 A  
HETATM   27  C   UNL     1     -11.890  13.520  67.276  1.00  0.00    -0.427 A  
HETATM   28  C   UNL     1     -11.312  14.773  67.093  1.00  0.00    -0.363 A  
HETATM   29  C   UNL     1     -10.811  15.139  65.844  1.00  0.00    -0.342 A  
HETATM   30  C   UNL     1     -10.883  14.248  64.775  1.00  0.00    -0.420 A  
ENDBRANCH  24  25
ENDBRANCH  23  24
ENDBRANCH  21  23
ENDBRANCH  20  21
ENDBRANCH  19  20
ENDBRANCH  18  19
ENDBRANCH  17  18
ENDBRANCH  16  17
ENDBRANCH  15  16
ENDBRANCH  13  15
ENDBRANCH  12  13
ENDBRANCH  11  12
ENDBRANCH   8  11
TORSDOF 13
ENDMDL
MODEL      119
REMARK 921   NORMALIZED FREE ENERGY PREDICTED BY IDOCK:   -4.47 KCAL/MOL
REMARK 922        TOTAL FREE ENERGY PREDICTED BY IDOCK:  -10.62 KCAL/MOL
REMARK 923 INTER-LIGAND FREE ENERGY PREDICTED BY IDOCK:   -8.69 KCAL/MOL
REMARK 924 INTRA-LIGAND FREE ENERGY PREDICTED BY IDOCK:   -1.93 KCAL/MOL
REMARK 927      BINDING AFFINITY PREDICTED BY RF-SCORE:    0.00 PKD
ROOT
HETATM    1  O   UNL     1     -11.963   7.833  73.195  1.00  0.00    -0.644 OA 
HETATM    2  H   UNL     1     -11.465   8.059  73.971  1.00  0.00     0.000 HD 
HETATM    3  C   UNL     1     -11.420   7.196  72.111  1.00  0.00    -0.269 A  
HETATM    4  C   UNL     1     -12.149   6.864  70.974  1.00  0.00    -0.380 A  
HETATM    5  C   UNL     1     -11.535   6.180  69.922  1.00  0.00    -0.371 A  
HETATM    6  O   UNL     1     -13.470   7.177  70.824  1.00  0.00    -0.538 OA 
HETATM    7  H   UNL     1     -13.967   6.950  70.048  1.00  0.00     0.000 HD 
HETATM    8  C   UNL     1     -10.188   5.812  70.009  1.00  0.00    -0.304 A  
HETATM    9  C   UNL     1     -10.068   6.878  72.189  1.00  0.00    -0.198 A  
HETATM   10  C   UNL     1      -9.450   6.192  71.142  1.00  0.00    -0.182 A  
ENDROOT
BRANCH   8  11
HETATM   11  C   UNL     1      -9.528   5.031  68.900  1.00  0.00    -0.195 C  
BRANCH  11  12
HETATM   12  C   UNL     1      -8.167   5.623  68.526  1.00  0.00    -0.106 C  
BRANCH  12  13
HETATM   13  N   UNL     1      -8.319   6.656  67.495  1.00  0.00    -0.121 NA 
HETATM   14  H   UNL     1      -7.492   6.732  66.902  1.00  0.00     0.000 HD 
BRANCH  13  15
HETATM   15  C   UNL     1      -9.530   6.402  66.719  1.00  0.00    -0.150 C  
BRANCH  15  16
HETATM   16  C   UNL     1     -10.445   7.621  66.743  1.00  0.00    -0.319 C  
BRANCH  16  17
HETATM   17  C   UNL     1      -9.603   8.891  66.652  1.00  0.00    -0.281 C  
BRANCH  17  18
HETATM   18  C   UNL     1     -10.081   9.936  67.645  1.00  0.00    -0.241 C  
BRANCH  18  19
HETATM   19  C   UNL     1      -9.645   9.580  69.066  1.00  0.00    -0.166 C  
BRANCH  19  20
HETATM   20  C   UNL     1     -10.679  10.112  70.048  1.00  0.00    -0.305 C  
BRANCH  20  21
HETATM   21  N   UNL     1     -12.016  10.099  69.459  1.00  0.00    -0.490 NA 
HETATM   22  H   UNL     1     -12.243   9.187  69.063  1.00  0.00     0.000 HD 
BRANCH  21  23
HETATM   23  C   UNL     1     -13.029  10.533  70.432  1.00  0.00    -0.144 C  
BRANCH  23  24
HETATM   24  C   UNL     1     -12.443  11.375  71.575  1.00  0.00    -0.305 C  
BRANCH  24  25
HETATM   25  C   UNL     1     -12.836  12.825  71.477  1.00  0.00    -0.369 A  
HETATM   26  C   UNL     1     -12.238  13.645  70.513  1.00  0.00    -0.438 A  
HETATM   27  C   UNL     1     -12.604  14.988  70.408  1.00  0.00    -0.399 A  
HETATM   28  C   UNL     1     -13.564  15.514  71.270  1.00  0.00    -0.520 A  
HETATM   29  C   UNL     1     -14.154  14.704  72.239  1.00  0.00    -0.588 A  
HETATM   30  C   UNL     1     -13.789  13.363  72.345  1.00  0.00    -0.665 A  
ENDBRANCH  24  25
ENDBRANCH  23  24
ENDBRANCH  21  23
ENDBRANCH  20  21
ENDBRANCH  19  20
ENDBRANCH  18  19
ENDBRANCH  17  18
ENDBRANCH  16  17
ENDBRANCH  15  16
ENDBRANCH  13  15
ENDBRANCH  12  13
ENDBRANCH  11  12
ENDBRANCH   8  11
TORSDOF 13
ENDMDL
MODEL      120
REMARK 921   NORMALIZED FREE ENERGY PREDICTED BY IDOCK:   -4.46 KCAL/MOL
REMARK 922        TOTAL FREE ENERGY PREDICTED BY IDOCK:  -10.61 KCAL/MOL
REMARK 923 INTER-LIGAND FREE ENERGY PREDICTED BY IDOCK:   -8.41 KCAL/MOL
REMARK 924 INTRA-LIGAND FREE ENERGY PREDICTED BY IDOCK:   -2.20 KCAL/MOL
REMARK 927      BINDING AFFINITY PREDICTED BY RF-SCORE:    0.00 PKD
ROOT
HETATM    1  O   UNL     1     -12.025   8.010  72.997  1.00  0.00    -0.626 OA 
HETATM    2  H   UNL     1     -12.314   7.318  73.580  1.00  0.00     0.000 HD 
HETATM    3  C   UNL     1     -11.607   7.787  71.713  1.00  0.00    -0.272 A  
HETATM    4  C   UNL     1     -11.183   8.801  70.859  1.00  0.00    -0.270 A  
HETATM    5  C   UNL     1     -10.806   8.502  69.548  1.00  0.00    -0.134 A  
HETATM    6  O   UNL     1     -11.116  10.110  71.241  1.00  0.00    -0.240 OA 
HETATM    7  H   UNL     1     -10.827  10.802  70.659  1.00  0.00     0.000 HD 
HETATM    8  C   UNL     1     -10.863   7.184  69.079  1.00  0.00    -0.172 A  
HETATM    9  C   UNL     1     -11.622   6.467  71.273  1.00  0.00    -0.381 A  
HETATM   10  C   UNL     1     -11.249   6.164  69.962  1.00  0.00    -0.471 A  
ENDROOT
BRANCH   8  11
HETATM   11  C   UNL     1     -10.504   6.857  67.651  1.00  0.00    -0.290 C  
BRANCH  11  12
HETATM   12  C   UNL     1      -9.336   7.710  67.154  1.00  0.00    -0.146 C  
BRANCH  12  13
HETATM   13  N   UNL     1      -9.325   7.767  65.687  1.00  0.00    -0.392 NA 
HETATM   14  H   UNL     1     -10.249   7.597  65.289  1.00  0.00     0.000 HD 
BRANCH  13  15
HETATM   15  C   UNL     1      -8.763   9.042  65.250  1.00  0.00    -0.193 C  
BRANCH  15  16
HETATM   16  C   UNL     1      -9.871  10.069  65.040  1.00  0.00    -0.374 C  
BRANCH  16  17
HETATM   17  C   UNL     1      -9.664  10.774  63.702  1.00  0.00    -0.376 C  
BRANCH  17  18
HETATM   18  C   UNL     1     -10.340  12.134  63.691  1.00  0.00    -0.482 C  
BRANCH  18  19
HETATM   19  C   UNL     1     -11.820  12.006  63.333  1.00  0.00    -0.542 C  
BRANCH  19  20
HETATM   20  C   UNL     1     -12.654  12.588  64.466  1.00  0.00    -0.421 C  
BRANCH  20  21
HETATM   21  N   UNL     1     -12.470  14.034  64.563  1.00  0.00    -0.646 NA 
HETATM   22  H   UNL     1     -13.310  14.538  64.279  1.00  0.00     0.000 HD 
BRANCH  21  23
HETATM   23  C   UNL     1     -12.034  14.425  65.911  1.00  0.00    -0.359 C  
BRANCH  23  24
HETATM   24  C   UNL     1     -11.992  13.246  66.896  1.00  0.00    -0.430 C  
BRANCH  24  25
HETATM   25  C   UNL     1     -10.590  12.908  67.323  1.00  0.00    -0.243 A  
HETATM   26  C   UNL     1      -9.519  13.699  66.889  1.00  0.00    -0.263 A  
HETATM   27  C   UNL     1      -8.216  13.399  67.289  1.00  0.00    -0.162 A  
HETATM   28  C   UNL     1      -7.981  12.304  68.118  1.00  0.00    -0.155 A  
HETATM   29  C   UNL     1      -9.042  11.506  68.543  1.00  0.00    -0.157 A  
HETATM   30  C   UNL     1     -10.344  11.804  68.144  1.00  0.00    -0.213 A  
ENDBRANCH  24  25
ENDBRANCH  23  24
ENDBRANCH  21  23
ENDBRANCH  20  21
ENDBRANCH  19  20
ENDBRANCH  18  19
ENDBRANCH  17  18
ENDBRANCH  16  17
ENDBRANCH  15  16
ENDBRANCH  13  15
ENDBRANCH  12  13
ENDBRANCH  11  12
ENDBRANCH   8  11
TORSDOF 13
ENDMDL
MODEL      121
REMARK 921   NORMALIZED FREE ENERGY PREDICTED BY IDOCK:   -4.45 KCAL/MOL
REMARK 922        TOTAL FREE ENERGY PREDICTED BY IDOCK:  -10.59 KCAL/MOL
REMARK 923 INTER-LIGAND FREE ENERGY PREDICTED BY IDOCK:   -9.76 KCAL/MOL
REMARK 924 INTRA-LIGAND FREE ENERGY PREDICTED BY IDOCK:   -0.82 KCAL/MOL
REMARK 927      BINDING AFFINITY PREDICTED BY RF-SCORE:    0.00 PKD
ROOT
HETATM    1  O   UNL     1     -11.396  16.480  63.696  1.00  0.00    -1.318 OA 
HETATM    2  H   UNL     1     -10.982  17.324  63.829  1.00  0.00     0.000 HD 
HETATM    3  C   UNL     1     -11.454  15.510  64.661  1.00  0.00    -0.324 A  
HETATM    4  C   UNL     1     -12.061  14.273  64.467  1.00  0.00    -0.480 A  
HETATM    5  C   UNL     1     -12.115  13.346  65.511  1.00  0.00    -0.467 A  
HETATM    6  O   UNL     1     -12.625  13.904  63.279  1.00  0.00    -1.049 OA 
HETATM    7  H   UNL     1     -13.039  13.059  63.146  1.00  0.00     0.000 HD 
HETATM    8  C   UNL     1     -11.571  13.659  66.762  1.00  0.00    -0.393 A  
HETATM    9  C   UNL     1     -10.868  15.813  65.885  1.00  0.00    -0.272 A  
HETATM   10  C   UNL     1     -10.922  14.892  66.933  1.00  0.00    -0.327 A  
ENDROOT
BRANCH   8  11
HETATM   11  C   UNL     1     -11.667  12.685  67.910  1.00  0.00    -0.412 C  
BRANCH  11  12
HETATM   12  C   UNL     1     -11.321  13.350  69.244  1.00  0.00    -0.257 C  
BRANCH  12  13
HETATM   13  N   UNL     1     -11.611  12.446  70.362  1.00  0.00    -0.493 NA 
HETATM   14  H   UNL     1     -12.433  12.739  70.891  1.00  0.00     0.000 HD 
BRANCH  13  15
HETATM   15  C   UNL     1     -11.735  11.077  69.868  1.00  0.00    -0.346 C  
BRANCH  15  16
HETATM   16  C   UNL     1     -12.377  10.184  70.924  1.00  0.00    -0.461 C  
BRANCH  16  17
HETATM   17  C   UNL     1     -11.287   9.440  71.691  1.00  0.00    -0.452 C  
BRANCH  17  18
HETATM   18  C   UNL     1     -11.856   8.229  72.411  1.00  0.00    -0.461 C  
BRANCH  18  19
HETATM   19  C   UNL     1     -12.745   7.407  71.478  1.00  0.00    -0.409 C  
BRANCH  19  20
HETATM   20  C   UNL     1     -11.936   6.244  70.923  1.00  0.00    -0.052 C  
BRANCH  20  21
HETATM   21  N   UNL     1     -11.710   6.400  69.488  1.00  0.00    -0.588 NA 
HETATM   22  H   UNL     1     -11.824   7.369  69.193  1.00  0.00     0.000 HD 
BRANCH  21  23
HETATM   23  C   UNL     1     -10.398   5.865  69.095  1.00  0.00    -0.238 C  
BRANCH  23  24
HETATM   24  C   UNL     1      -9.326   6.043  70.181  1.00  0.00    -0.172 C  
BRANCH  24  25
HETATM   25  C   UNL     1      -8.894   4.731  70.778  1.00  0.00    -0.153 A  
HETATM   26  C   UNL     1      -9.490   3.540  70.348  1.00  0.00    -0.254 A  
HETATM   27  C   UNL     1      -9.087   2.317  70.889  1.00  0.00    -0.177 A  
HETATM   28  C   UNL     1      -8.092   2.285  71.863  1.00  0.00    -0.052 A  
HETATM   29  C   UNL     1      -7.503   3.470  72.302  1.00  0.00    -0.057 A  
HETATM   30  C   UNL     1      -7.905   4.691  71.764  1.00  0.00    -0.098 A  
ENDBRANCH  24  25
ENDBRANCH  23  24
ENDBRANCH  21  23
ENDBRANCH  20  21
ENDBRANCH  19  20
ENDBRANCH  18  19
ENDBRANCH  17  18
ENDBRANCH  16  17
ENDBRANCH  15  16
ENDBRANCH  13  15
ENDBRANCH  12  13
ENDBRANCH  11  12
ENDBRANCH   8  11
TORSDOF 13
ENDMDL
MODEL      122
REMARK 921   NORMALIZED FREE ENERGY PREDICTED BY IDOCK:   -4.44 KCAL/MOL
REMARK 922        TOTAL FREE ENERGY PREDICTED BY IDOCK:  -10.57 KCAL/MOL
REMARK 923 INTER-LIGAND FREE ENERGY PREDICTED BY IDOCK:   -9.57 KCAL/MOL
REMARK 924 INTRA-LIGAND FREE ENERGY PREDICTED BY IDOCK:   -1.00 KCAL/MOL
REMARK 927      BINDING AFFINITY PREDICTED BY RF-SCORE:    0.00 PKD
ROOT
HETATM    1  O   UNL     1      -9.348  18.433  66.115  1.00  0.00    -0.465 OA 
HETATM    2  H   UNL     1      -9.068  18.679  65.241  1.00  0.00     0.000 HD 
HETATM    3  C   UNL     1     -10.090  17.314  66.380  1.00  0.00    -0.316 A  
HETATM    4  C   UNL     1     -10.500  16.952  67.660  1.00  0.00    -0.332 A  
HETATM    5  C   UNL     1     -11.225  15.775  67.859  1.00  0.00    -0.313 A  
HETATM    6  O   UNL     1     -10.225  17.706  68.765  1.00  0.00    -0.354 OA 
HETATM    7  H   UNL     1     -10.505  17.460  69.639  1.00  0.00     0.000 HD 
HETATM    8  C   UNL     1     -11.532  14.943  66.775  1.00  0.00    -0.304 A  
HETATM    9  C   UNL     1     -10.431  16.520  65.290  1.00  0.00    -0.236 A  
HETATM   10  C   UNL     1     -11.152  15.340  65.484  1.00  0.00    -0.330 A  
ENDROOT
BRANCH   8  11
HETATM   11  C   UNL     1     -12.271  13.645  66.985  1.00  0.00    -0.373 C  
BRANCH  11  12
HETATM   12  C   UNL     1     -11.917  12.615  65.911  1.00  0.00    -0.438 C  
BRANCH  12  13
HETATM   13  N   UNL     1     -12.896  12.650  64.818  1.00  0.00    -0.830 NA 
HETATM   14  H   UNL     1     -13.325  13.570  64.716  1.00  0.00     0.000 HD 
BRANCH  13  15
HETATM   15  C   UNL     1     -12.266  12.196  63.581  1.00  0.00    -0.562 C  
BRANCH  15  16
HETATM   16  C   UNL     1     -10.747  12.256  63.702  1.00  0.00    -0.513 C  
BRANCH  16  17
HETATM   17  C   UNL     1     -10.172  10.847  63.594  1.00  0.00    -0.395 C  
BRANCH  17  18
HETATM   18  C   UNL     1      -8.905  10.709  64.422  1.00  0.00    -0.185 C  
BRANCH  18  19
HETATM   19  C   UNL     1      -9.238  10.541  65.904  1.00  0.00    -0.210 C  
BRANCH  19  20
HETATM   20  C   UNL     1      -8.494  11.604  66.700  1.00  0.00    -0.165 C  
BRANCH  20  21
HETATM   21  N   UNL     1      -9.036  11.722  68.051  1.00  0.00    -0.174 NA 
HETATM   22  H   UNL     1      -9.565  12.586  68.169  1.00  0.00     0.000 HD 
BRANCH  21  23
HETATM   23  C   UNL     1      -9.840  10.544  68.406  1.00  0.00    -0.161 C  
BRANCH  23  24
HETATM   24  C   UNL     1      -9.461   9.945  69.769  1.00  0.00    -0.254 C  
BRANCH  24  25
HETATM   25  C   UNL     1     -10.661   9.730  70.652  1.00  0.00    -0.394 A  
HETATM   26  C   UNL     1     -11.773  10.573  70.535  1.00  0.00    -0.443 A  
HETATM   27  C   UNL     1     -12.894  10.374  71.342  1.00  0.00    -0.556 A  
HETATM   28  C   UNL     1     -12.903   9.337  72.272  1.00  0.00    -0.459 A  
HETATM   29  C   UNL     1     -11.794   8.502  72.401  1.00  0.00    -0.437 A  
HETATM   30  C   UNL     1     -10.674   8.700  71.595  1.00  0.00    -0.374 A  
ENDBRANCH  24  25
ENDBRANCH  23  24
ENDBRANCH  21  23
ENDBRANCH  20  21
ENDBRANCH  19  20
ENDBRANCH  18  19
ENDBRANCH  17  18
ENDBRANCH  16  17
ENDBRANCH  15  16
ENDBRANCH  13  15
ENDBRANCH  12  13
ENDBRANCH  11  12
ENDBRANCH   8  11
TORSDOF 13
ENDMDL
MODEL      123
REMARK 921   NORMALIZED FREE ENERGY PREDICTED BY IDOCK:   -4.44 KCAL/MOL
REMARK 922        TOTAL FREE ENERGY PREDICTED BY IDOCK:  -10.56 KCAL/MOL
REMARK 923 INTER-LIGAND FREE ENERGY PREDICTED BY IDOCK:   -9.58 KCAL/MOL
REMARK 924 INTRA-LIGAND FREE ENERGY PREDICTED BY IDOCK:   -0.99 KCAL/MOL
REMARK 927      BINDING AFFINITY PREDICTED BY RF-SCORE:    0.00 PKD
ROOT
HETATM    1  O   UNL     1      -9.502  21.155  67.028  1.00  0.00    -0.668 OA 
HETATM    2  H   UNL     1     -10.199  21.705  66.690  1.00  0.00     0.000 HD 
HETATM    3  C   UNL     1      -9.475  19.795  66.876  1.00  0.00    -0.371 A  
HETATM    4  C   UNL     1      -8.453  18.989  67.370  1.00  0.00    -0.277 A  
HETATM    5  C   UNL     1      -8.475  17.611  67.144  1.00  0.00    -0.239 A  
HETATM    6  O   UNL     1      -7.400  19.486  68.084  1.00  0.00    -0.279 OA 
HETATM    7  H   UNL     1      -6.703  18.936  68.421  1.00  0.00     0.000 HD 
HETATM    8  C   UNL     1      -9.515  17.032  66.409  1.00  0.00    -0.294 A  
HETATM    9  C   UNL     1     -10.539  19.224  66.185  1.00  0.00    -0.549 A  
HETATM   10  C   UNL     1     -10.563  17.847  65.953  1.00  0.00    -0.216 A  
ENDROOT
BRANCH   8  11
HETATM   11  C   UNL     1      -9.522  15.552  66.117  1.00  0.00    -0.376 C  
BRANCH  11  12
HETATM   12  C   UNL     1     -10.470  15.209  64.967  1.00  0.00    -0.389 C  
BRANCH  12  13
HETATM   13  N   UNL     1     -10.162  13.881  64.422  1.00  0.00    -0.732 NA 
HETATM   14  H   UNL     1      -9.203  13.819  64.081  1.00  0.00     0.000 HD 
BRANCH  13  15
HETATM   15  C   UNL     1     -10.459  12.859  65.421  1.00  0.00    -0.292 C  
BRANCH  15  16
HETATM   16  C   UNL     1     -11.957  12.805  65.701  1.00  0.00    -0.503 C  
BRANCH  16  17
HETATM   17  C   UNL     1     -12.234  13.352  67.099  1.00  0.00    -0.306 C  
BRANCH  17  18
HETATM   18  C   UNL     1     -11.551  12.507  68.161  1.00  0.00    -0.390 C  
BRANCH  18  19
HETATM   19  C   UNL     1     -11.582  13.206  69.519  1.00  0.00    -0.347 C  
BRANCH  19  20
HETATM   20  C   UNL     1     -12.274  12.298  70.526  1.00  0.00    -0.300 C  
BRANCH  20  21
HETATM   21  N   UNL     1     -12.214  10.902  70.100  1.00  0.00    -0.324 NA 
HETATM   22  H   UNL     1     -11.788  10.808  69.179  1.00  0.00     0.000 HD 
BRANCH  21  23
HETATM   23  C   UNL     1     -11.529  10.070  71.100  1.00  0.00    -0.354 C  
BRANCH  23  24
HETATM   24  C   UNL     1     -10.210   9.474  70.585  1.00  0.00    -0.364 C  
BRANCH  24  25
HETATM   25  C   UNL     1     -10.432   8.399  69.555  1.00  0.00    -0.225 A  
HETATM   26  C   UNL     1     -10.307   8.702  68.194  1.00  0.00    -0.267 A  
HETATM   27  C   UNL     1     -10.501   7.709  67.232  1.00  0.00    -0.396 A  
HETATM   28  C   UNL     1     -10.825   6.414  67.630  1.00  0.00    -0.425 A  
HETATM   29  C   UNL     1     -10.962   6.110  68.984  1.00  0.00    -0.436 A  
HETATM   30  C   UNL     1     -10.769   7.101  69.945  1.00  0.00    -0.258 A  
ENDBRANCH  24  25
ENDBRANCH  23  24
ENDBRANCH  21  23
ENDBRANCH  20  21
ENDBRANCH  19  20
ENDBRANCH  18  19
ENDBRANCH  17  18
ENDBRANCH  16  17
ENDBRANCH  15  16
ENDBRANCH  13  15
ENDBRANCH  12  13
ENDBRANCH  11  12
ENDBRANCH   8  11
TORSDOF 13
ENDMDL
MODEL      124
REMARK 921   NORMALIZED FREE ENERGY PREDICTED BY IDOCK:   -4.43 KCAL/MOL
REMARK 922        TOTAL FREE ENERGY PREDICTED BY IDOCK:  -10.56 KCAL/MOL
REMARK 923 INTER-LIGAND FREE ENERGY PREDICTED BY IDOCK:   -9.32 KCAL/MOL
REMARK 924 INTRA-LIGAND FREE ENERGY PREDICTED BY IDOCK:   -1.24 KCAL/MOL
REMARK 927      BINDING AFFINITY PREDICTED BY RF-SCORE:    0.00 PKD
ROOT
HETATM    1  O   UNL     1     -11.955  16.682  71.478  1.00  0.00    -0.562 OA 
HETATM    2  H   UNL     1     -11.366  17.047  70.828  1.00  0.00     0.000 HD 
HETATM    3  C   UNL     1     -12.315  15.362  71.510  1.00  0.00    -0.377 A  
HETATM    4  C   UNL     1     -13.177  14.826  72.463  1.00  0.00    -0.416 A  
HETATM    5  C   UNL     1     -13.469  13.461  72.456  1.00  0.00    -0.640 A  
HETATM    6  O   UNL     1     -13.769  15.584  73.433  1.00  0.00    -0.587 OA 
HETATM    7  H   UNL     1     -14.357  15.219  74.083  1.00  0.00     0.000 HD 
HETATM    8  C   UNL     1     -12.888  12.619  71.501  1.00  0.00    -0.368 A  
HETATM    9  C   UNL     1     -11.769  14.543  70.527  1.00  0.00    -0.338 A  
HETATM   10  C   UNL     1     -12.056  13.176  70.518  1.00  0.00    -0.385 A  
ENDROOT
BRANCH   8  11
HETATM   11  C   UNL     1     -13.159  11.135  71.515  1.00  0.00    -0.489 C  
BRANCH  11  12
HETATM   12  C   UNL     1     -11.878  10.326  71.301  1.00  0.00    -0.335 C  
BRANCH  12  13
HETATM   13  N   UNL     1     -12.034   9.399  70.174  1.00  0.00    -0.460 NA 
HETATM   14  H   UNL     1     -13.014   9.252  69.930  1.00  0.00     0.000 HD 
BRANCH  13  15
HETATM   15  C   UNL     1     -11.249   9.872  69.037  1.00  0.00    -0.087 C  
BRANCH  15  16
HETATM   16  C   UNL     1     -10.031   8.979  68.822  1.00  0.00    -0.194 C  
BRANCH  16  17
HETATM   17  C   UNL     1      -8.867   9.824  68.311  1.00  0.00    -0.119 C  
BRANCH  17  18
HETATM   18  C   UNL     1      -9.187  11.306  68.399  1.00  0.00    -0.178 C  
BRANCH  18  19
HETATM   19  C   UNL     1      -8.546  12.073  67.243  1.00  0.00    -0.177 C  
BRANCH  19  20
HETATM   20  C   UNL     1      -9.613  12.912  66.555  1.00  0.00    -0.259 C  
BRANCH  20  21
HETATM   21  N   UNL     1      -9.168  14.294  66.390  1.00  0.00    -0.448 NA 
HETATM   22  H   UNL     1      -9.343  14.633  65.444  1.00  0.00     0.000 HD 
BRANCH  21  23
HETATM   23  C   UNL     1      -9.776  15.172  67.400  1.00  0.00    -0.209 C  
BRANCH  23  24
HETATM   24  C   UNL     1     -10.596  16.317  66.787  1.00  0.00    -0.257 C  
BRANCH  24  25
HETATM   25  C   UNL     1      -9.985  17.666  67.056  1.00  0.00    -0.320 A  
HETATM   26  C   UNL     1     -10.491  18.801  66.412  1.00  0.00    -0.485 A  
HETATM   27  C   UNL     1      -9.938  20.058  66.664  1.00  0.00    -0.598 A  
HETATM   28  C   UNL     1      -8.873  20.179  67.554  1.00  0.00    -0.431 A  
HETATM   29  C   UNL     1      -8.358  19.050  68.189  1.00  0.00    -0.347 A  
HETATM   30  C   UNL     1      -8.910  17.795  67.938  1.00  0.00    -0.251 A  
ENDBRANCH  24  25
ENDBRANCH  23  24
ENDBRANCH  21  23
ENDBRANCH  20  21
ENDBRANCH  19  20
ENDBRANCH  18  19
ENDBRANCH  17  18
ENDBRANCH  16  17
ENDBRANCH  15  16
ENDBRANCH  13  15
ENDBRANCH  12  13
ENDBRANCH  11  12
ENDBRANCH   8  11
TORSDOF 13
ENDMDL
MODEL      125
REMARK 921   NORMALIZED FREE ENERGY PREDICTED BY IDOCK:   -4.43 KCAL/MOL
REMARK 922        TOTAL FREE ENERGY PREDICTED BY IDOCK:  -10.55 KCAL/MOL
REMARK 923 INTER-LIGAND FREE ENERGY PREDICTED BY IDOCK:   -8.75 KCAL/MOL
REMARK 924 INTRA-LIGAND FREE ENERGY PREDICTED BY IDOCK:   -1.81 KCAL/MOL
REMARK 927      BINDING AFFINITY PREDICTED BY RF-SCORE:    0.00 PKD
ROOT
HETATM    1  O   UNL     1     -10.036  10.355  70.046  1.00  0.00    -0.418 OA 
HETATM    2  H   UNL     1      -9.275  10.254  70.606  1.00  0.00     0.000 HD 
HETATM    3  C   UNL     1      -9.966  10.376  68.679  1.00  0.00    -0.177 A  
HETATM    4  C   UNL     1     -11.080  10.522  67.858  1.00  0.00    -0.304 A  
HETATM    5  C   UNL     1     -10.936  10.496  66.469  1.00  0.00    -0.054 A  
HETATM    6  O   UNL     1     -12.343  10.693  68.348  1.00  0.00    -0.776 OA 
HETATM    7  H   UNL     1     -13.103  10.793  67.788  1.00  0.00     0.000 HD 
HETATM    8  C   UNL     1      -9.675  10.310  65.893  1.00  0.00    -0.283 A  
HETATM    9  C   UNL     1      -8.701  10.238  68.117  1.00  0.00    -0.123 A  
HETATM   10  C   UNL     1      -8.552  10.208  66.729  1.00  0.00    -0.129 A  
ENDROOT
BRANCH   8  11
HETATM   11  C   UNL     1      -9.514  10.232  64.394  1.00  0.00    -0.360 C  
BRANCH  11  12
HETATM   12  C   UNL     1     -10.473  11.183  63.675  1.00  0.00    -0.376 C  
BRANCH  12  13
HETATM   13  N   UNL     1      -9.978  12.563  63.740  1.00  0.00    -0.630 NA 
HETATM   14  H   UNL     1      -9.581  12.871  62.851  1.00  0.00     0.000 HD 
BRANCH  13  15
HETATM   15  C   UNL     1     -11.045  13.446  64.202  1.00  0.00    -0.327 C  
BRANCH  15  16
HETATM   16  C   UNL     1     -10.514  14.422  65.246  1.00  0.00    -0.410 C  
BRANCH  16  17
HETATM   17  C   UNL     1      -9.743  13.654  66.316  1.00  0.00    -0.295 C  
BRANCH  17  18
HETATM   18  C   UNL     1      -8.738  14.552  67.016  1.00  0.00    -0.256 C  
BRANCH  18  19
HETATM   19  C   UNL     1      -8.647  14.214  68.504  1.00  0.00    -0.163 C  
BRANCH  19  20
HETATM   20  C   UNL     1      -8.875  15.483  69.313  1.00  0.00    -0.256 C  
BRANCH  20  21
HETATM   21  N   UNL     1      -9.650  16.459  68.551  1.00  0.00    -0.222 NA 
HETATM   22  H   UNL     1      -9.556  16.311  67.546  1.00  0.00     0.000 HD 
BRANCH  21  23
HETATM   23  C   UNL     1     -11.060  16.460  68.967  1.00  0.00    -0.315 C  
BRANCH  23  24
HETATM   24  C   UNL     1     -11.241  16.670  70.479  1.00  0.00     0.054 C  
BRANCH  24  25
HETATM   25  C   UNL     1     -11.971  15.527  71.131  1.00  0.00    -0.432 A  
HETATM   26  C   UNL     1     -12.230  14.359  70.404  1.00  0.00    -0.404 A  
HETATM   27  C   UNL     1     -12.897  13.290  71.004  1.00  0.00    -0.311 A  
HETATM   28  C   UNL     1     -13.312  13.390  72.330  1.00  0.00    -0.641 A  
HETATM   29  C   UNL     1     -13.066  14.555  73.056  1.00  0.00    -0.611 A  
HETATM   30  C   UNL     1     -12.400  15.623  72.457  1.00  0.00    -0.528 A  
ENDBRANCH  24  25
ENDBRANCH  23  24
ENDBRANCH  21  23
ENDBRANCH  20  21
ENDBRANCH  19  20
ENDBRANCH  18  19
ENDBRANCH  17  18
ENDBRANCH  16  17
ENDBRANCH  15  16
ENDBRANCH  13  15
ENDBRANCH  12  13
ENDBRANCH  11  12
ENDBRANCH   8  11
TORSDOF 13
ENDMDL
MODEL      126
REMARK 921   NORMALIZED FREE ENERGY PREDICTED BY IDOCK:   -4.43 KCAL/MOL
REMARK 922        TOTAL FREE ENERGY PREDICTED BY IDOCK:  -10.55 KCAL/MOL
REMARK 923 INTER-LIGAND FREE ENERGY PREDICTED BY IDOCK:   -7.67 KCAL/MOL
REMARK 924 INTRA-LIGAND FREE ENERGY PREDICTED BY IDOCK:   -2.88 KCAL/MOL
REMARK 927      BINDING AFFINITY PREDICTED BY RF-SCORE:    0.00 PKD
ROOT
HETATM    1  O   UNL     1      -8.531   6.288  70.723  1.00  0.00    -0.131 OA 
HETATM    2  H   UNL     1      -7.720   6.567  71.132  1.00  0.00     0.000 HD 
HETATM    3  C   UNL     1      -9.755   6.809  71.043  1.00  0.00    -0.174 A  
HETATM    4  C   UNL     1     -10.942   6.400  70.443  1.00  0.00    -0.308 A  
HETATM    5  C   UNL     1     -12.151   7.005  70.795  1.00  0.00    -0.374 A  
HETATM    6  O   UNL     1     -10.993   5.412  69.502  1.00  0.00    -0.212 OA 
HETATM    7  H   UNL     1     -11.803   5.132  69.092  1.00  0.00     0.000 HD 
HETATM    8  C   UNL     1     -12.176   8.035  71.742  1.00  0.00    -0.352 A  
HETATM    9  C   UNL     1      -9.774   7.799  72.020  1.00  0.00    -0.224 A  
HETATM   10  C   UNL     1     -10.980   8.409  72.373  1.00  0.00    -0.425 A  
ENDROOT
BRANCH   8  11
HETATM   11  C   UNL     1     -13.469   8.728  72.093  1.00  0.00    -0.469 C  
BRANCH  11  12
HETATM   12  C   UNL     1     -13.385  10.236  71.851  1.00  0.00    -0.383 C  
BRANCH  12  13
HETATM   13  N   UNL     1     -13.215  10.521  70.421  1.00  0.00    -0.371 NA 
HETATM   14  H   UNL     1     -14.104  10.722  69.961  1.00  0.00     0.000 HD 
BRANCH  13  15
HETATM   15  C   UNL     1     -12.249  11.601  70.247  1.00  0.00    -0.318 C  
BRANCH  15  16
HETATM   16  C   UNL     1     -10.939  11.060  69.683  1.00  0.00    -0.286 C  
BRANCH  16  17
HETATM   17  C   UNL     1     -11.238  10.120  68.517  1.00  0.00    -0.226 C  
BRANCH  17  18
HETATM   18  C   UNL     1     -10.063   9.197  68.245  1.00  0.00    -0.221 C  
BRANCH  18  19
HETATM   19  C   UNL     1     -10.342   8.297  67.043  1.00  0.00    -0.393 C  
BRANCH  19  20
HETATM   20  C   UNL     1      -9.343   8.620  65.941  1.00  0.00    -0.195 C  
BRANCH  20  21
HETATM   21  N   UNL     1      -8.158   9.280  66.484  1.00  0.00    -0.104 NA 
HETATM   22  H   UNL     1      -7.307   8.763  66.263  1.00  0.00     0.000 HD 
BRANCH  21  23
HETATM   23  C   UNL     1      -8.075  10.677  66.035  1.00  0.00    -0.159 C  
BRANCH  23  24
HETATM   24  C   UNL     1      -9.211  11.071  65.079  1.00  0.00    -0.219 C  
BRANCH  24  25
HETATM   25  C   UNL     1     -10.172  12.046  65.705  1.00  0.00    -0.284 A  
HETATM   26  C   UNL     1      -9.747  12.863  66.759  1.00  0.00    -0.246 A  
HETATM   27  C   UNL     1     -10.628  13.778  67.338  1.00  0.00    -0.260 A  
HETATM   28  C   UNL     1     -11.936  13.873  66.868  1.00  0.00    -0.467 A  
HETATM   29  C   UNL     1     -12.367  13.053  65.826  1.00  0.00    -0.477 A  
HETATM   30  C   UNL     1     -11.489  12.139  65.247  1.00  0.00    -0.388 A  
ENDBRANCH  24  25
ENDBRANCH  23  24
ENDBRANCH  21  23
ENDBRANCH  20  21
ENDBRANCH  19  20
ENDBRANCH  18  19
ENDBRANCH  17  18
ENDBRANCH  16  17
ENDBRANCH  15  16
ENDBRANCH  13  15
ENDBRANCH  12  13
ENDBRANCH  11  12
ENDBRANCH   8  11
TORSDOF 13
ENDMDL
MODEL      127
REMARK 921   NORMALIZED FREE ENERGY PREDICTED BY IDOCK:   -4.42 KCAL/MOL
REMARK 922        TOTAL FREE ENERGY PREDICTED BY IDOCK:  -10.53 KCAL/MOL
REMARK 923 INTER-LIGAND FREE ENERGY PREDICTED BY IDOCK:   -9.50 KCAL/MOL
REMARK 924 INTRA-LIGAND FREE ENERGY PREDICTED BY IDOCK:   -1.02 KCAL/MOL
REMARK 927      BINDING AFFINITY PREDICTED BY RF-SCORE:    0.00 PKD
ROOT
HETATM    1  O   UNL     1      -9.275   6.904  69.763  1.00  0.00    -0.147 OA 
HETATM    2  H   UNL     1      -9.386   5.963  69.698  1.00  0.00     0.000 HD 
HETATM    3  C   UNL     1     -10.244   7.745  70.239  1.00  0.00    -0.199 A  
HETATM    4  C   UNL     1     -10.082   9.124  70.335  1.00  0.00    -0.218 A  
HETATM    5  C   UNL     1     -11.103   9.915  70.867  1.00  0.00    -0.418 A  
HETATM    6  O   UNL     1      -8.948   9.765  69.928  1.00  0.00    -0.206 OA 
HETATM    7  H   UNL     1      -8.837  10.706  69.993  1.00  0.00     0.000 HD 
HETATM    8  C   UNL     1     -12.290   9.327  71.319  1.00  0.00    -0.403 A  
HETATM    9  C   UNL     1     -11.438   7.155  70.641  1.00  0.00    -0.346 A  
HETATM   10  C   UNL     1     -12.461   7.941  71.177  1.00  0.00    -0.221 A  
ENDROOT
BRANCH   8  11
HETATM   11  C   UNL     1     -13.379  10.167  71.939  1.00  0.00    -0.505 C  
BRANCH  11  12
HETATM   12  C   UNL     1     -13.149  11.659  71.696  1.00  0.00    -0.351 C  
BRANCH  12  13
HETATM   13  N   UNL     1     -13.767  12.458  72.760  1.00  0.00    -0.535 NA 
HETATM   14  H   UNL     1     -13.227  12.431  73.625  1.00  0.00     0.000 HD 
BRANCH  13  15
HETATM   15  C   UNL     1     -13.981  13.823  72.288  1.00  0.00    -0.573 C  
BRANCH  15  16
HETATM   16  C   UNL     1     -13.044  14.789  73.005  1.00  0.00    -0.614 C  
BRANCH  16  17
HETATM   17  C   UNL     1     -12.008  15.321  72.018  1.00  0.00    -0.488 C  
BRANCH  17  18
HETATM   18  C   UNL     1     -12.610  15.488  70.633  1.00  0.00    -0.493 C  
BRANCH  18  19
HETATM   19  C   UNL     1     -11.593  15.137  69.549  1.00  0.00    -0.340 C  
BRANCH  19  20
HETATM   20  C   UNL     1     -10.394  16.067  69.677  1.00  0.00    -0.283 C  
BRANCH  20  21
HETATM   21  N   UNL     1     -10.012  16.612  68.376  1.00  0.00    -0.244 NA 
HETATM   22  H   UNL     1      -9.008  16.533  68.217  1.00  0.00     0.000 HD 
BRANCH  21  23
HETATM   23  C   UNL     1     -10.783  15.987  67.291  1.00  0.00    -0.295 C  
BRANCH  23  24
HETATM   24  C   UNL     1      -9.896  15.309  66.236  1.00  0.00    -0.316 C  
BRANCH  24  25
HETATM   25  C   UNL     1     -10.642  14.270  65.443  1.00  0.00    -0.367 A  
HETATM   26  C   UNL     1     -11.742  14.646  64.662  1.00  0.00    -0.431 A  
HETATM   27  C   UNL     1     -12.433  13.691  63.916  1.00  0.00    -0.276 A  
HETATM   28  C   UNL     1     -12.031  12.358  63.954  1.00  0.00    -0.572 A  
HETATM   29  C   UNL     1     -10.943  11.976  64.739  1.00  0.00    -0.361 A  
HETATM   30  C   UNL     1     -10.252  12.929  65.485  1.00  0.00    -0.299 A  
ENDBRANCH  24  25
ENDBRANCH  23  24
ENDBRANCH  21  23
ENDBRANCH  20  21
ENDBRANCH  19  20
ENDBRANCH  18  19
ENDBRANCH  17  18
ENDBRANCH  16  17
ENDBRANCH  15  16
ENDBRANCH  13  15
ENDBRANCH  12  13
ENDBRANCH  11  12
ENDBRANCH   8  11
TORSDOF 13
ENDMDL
MODEL      128
REMARK 921   NORMALIZED FREE ENERGY PREDICTED BY IDOCK:   -4.41 KCAL/MOL
REMARK 922        TOTAL FREE ENERGY PREDICTED BY IDOCK:  -10.52 KCAL/MOL
REMARK 923 INTER-LIGAND FREE ENERGY PREDICTED BY IDOCK:   -7.11 KCAL/MOL
REMARK 924 INTRA-LIGAND FREE ENERGY PREDICTED BY IDOCK:   -3.41 KCAL/MOL
REMARK 927      BINDING AFFINITY PREDICTED BY RF-SCORE:    0.00 PKD
ROOT
HETATM    1  O   UNL     1      -6.495  10.847  64.530  1.00  0.00    -0.353 OA 
HETATM    2  H   UNL     1      -5.577  10.623  64.624  1.00  0.00     0.000 HD 
HETATM    3  C   UNL     1      -7.512  10.083  65.034  1.00  0.00    -0.139 A  
HETATM    4  C   UNL     1      -8.858  10.412  64.897  1.00  0.00    -0.190 A  
HETATM    5  C   UNL     1      -9.840   9.602  65.471  1.00  0.00    -0.352 A  
HETATM    6  O   UNL     1      -9.283  11.515  64.214  1.00  0.00    -0.407 OA 
HETATM    7  H   UNL     1     -10.201  11.740  64.120  1.00  0.00     0.000 HD 
HETATM    8  C   UNL     1      -9.480   8.463  66.200  1.00  0.00    -0.263 A  
HETATM    9  C   UNL     1      -7.145   8.927  65.715  1.00  0.00    -0.084 A  
HETATM   10  C   UNL     1      -8.123   8.116  66.294  1.00  0.00    -0.107 A  
ENDROOT
BRANCH   8  11
HETATM   11  C   UNL     1     -10.530   7.609  66.865  1.00  0.00    -0.388 C  
BRANCH  11  12
HETATM   12  C   UNL     1     -10.275   6.118  66.632  1.00  0.00    -0.178 C  
BRANCH  12  13
HETATM   13  N   UNL     1     -10.119   5.415  67.911  1.00  0.00    -0.165 NA 
HETATM   14  H   UNL     1      -9.141   5.344  68.194  1.00  0.00     0.000 HD 
BRANCH  13  15
HETATM   15  C   UNL     1     -10.942   6.060  68.930  1.00  0.00    -0.325 C  
BRANCH  15  16
HETATM   16  C   UNL     1     -10.484   5.648  70.325  1.00  0.00    -0.363 C  
BRANCH  16  17
HETATM   17  C   UNL     1     -11.332   6.367  71.371  1.00  0.00    -0.354 C  
BRANCH  17  18
HETATM   18  C   UNL     1     -12.402   7.221  70.714  1.00  0.00    -0.223 C  
BRANCH  18  19
HETATM   19  C   UNL     1     -13.378   7.770  71.754  1.00  0.00    -0.362 C  
BRANCH  19  20
HETATM   20  C   UNL     1     -13.082   9.246  71.977  1.00  0.00    -0.436 C  
BRANCH  20  21
HETATM   21  N   UNL     1     -13.390  10.029  70.783  1.00  0.00    -0.578 NA 
HETATM   22  H   UNL     1     -14.281  10.516  70.872  1.00  0.00     0.000 HD 
BRANCH  21  23
HETATM   23  C   UNL     1     -12.296  10.958  70.461  1.00  0.00    -0.374 C  
BRANCH  23  24
HETATM   24  C   UNL     1     -11.655  10.681  69.092  1.00  0.00    -0.342 C  
BRANCH  24  25
HETATM   25  C   UNL     1     -10.161  10.528  69.182  1.00  0.00    -0.240 A  
HETATM   26  C   UNL     1      -9.610   9.519  69.982  1.00  0.00    -0.272 A  
HETATM   27  C   UNL     1      -8.226   9.363  70.062  1.00  0.00    -0.171 A  
HETATM   28  C   UNL     1      -7.390  10.218  69.349  1.00  0.00    -0.115 A  
HETATM   29  C   UNL     1      -7.932  11.232  68.560  1.00  0.00    -0.145 A  
HETATM   30  C   UNL     1      -9.315  11.389  68.479  1.00  0.00    -0.180 A  
ENDBRANCH  24  25
ENDBRANCH  23  24
ENDBRANCH  21  23
ENDBRANCH  20  21
ENDBRANCH  19  20
ENDBRANCH  18  19
ENDBRANCH  17  18
ENDBRANCH  16  17
ENDBRANCH  15  16
ENDBRANCH  13  15
ENDBRANCH  12  13
ENDBRANCH  11  12
ENDBRANCH   8  11
TORSDOF 13
ENDMDL
MODEL      129
REMARK 921   NORMALIZED FREE ENERGY PREDICTED BY IDOCK:   -4.41 KCAL/MOL
REMARK 922        TOTAL FREE ENERGY PREDICTED BY IDOCK:  -10.51 KCAL/MOL
REMARK 923 INTER-LIGAND FREE ENERGY PREDICTED BY IDOCK:   -7.43 KCAL/MOL
REMARK 924 INTRA-LIGAND FREE ENERGY PREDICTED BY IDOCK:   -3.08 KCAL/MOL
REMARK 927      BINDING AFFINITY PREDICTED BY RF-SCORE:    0.00 PKD
ROOT
HETATM    1  O   UNL     1     -10.516   5.909  68.966  1.00  0.00    -0.209 OA 
HETATM    2  H   UNL     1     -11.455   5.951  69.102  1.00  0.00     0.000 HD 
HETATM    3  C   UNL     1      -9.854   6.678  68.046  1.00  0.00    -0.131 A  
HETATM    4  C   UNL     1      -8.478   6.617  67.846  1.00  0.00    -0.119 A  
HETATM    5  C   UNL     1      -7.867   7.460  66.915  1.00  0.00    -0.115 A  
HETATM    6  O   UNL     1      -7.669   5.756  68.530  1.00  0.00    -0.090 OA 
HETATM    7  H   UNL     1      -6.730   5.715  68.394  1.00  0.00     0.000 HD 
HETATM    8  C   UNL     1      -8.630   8.380  66.187  1.00  0.00    -0.157 A  
HETATM    9  C   UNL     1     -10.629   7.554  67.294  1.00  0.00    -0.394 A  
HETATM   10  C   UNL     1     -10.022   8.401  66.364  1.00  0.00    -0.291 A  
ENDROOT
BRANCH   8  11
HETATM   11  C   UNL     1      -7.974   9.328  65.214  1.00  0.00    -0.107 C  
BRANCH  11  12
HETATM   12  C   UNL     1      -8.941   9.765  64.113  1.00  0.00    -0.239 C  
BRANCH  12  13
HETATM   13  N   UNL     1      -8.674  11.150  63.710  1.00  0.00    -0.388 NA 
HETATM   14  H   UNL     1      -7.977  11.207  62.966  1.00  0.00     0.000 HD 
BRANCH  13  15
HETATM   15  C   UNL     1      -9.926  11.805  63.341  1.00  0.00    -0.423 C  
BRANCH  15  16
HETATM   16  C   UNL     1     -11.071  11.291  64.208  1.00  0.00    -0.293 C  
BRANCH  16  17
HETATM   17  C   UNL     1     -12.352  12.044  63.857  1.00  0.00    -0.553 C  
BRANCH  17  18
HETATM   18  C   UNL     1     -12.139  13.547  63.932  1.00  0.00    -0.493 C  
BRANCH  18  19
HETATM   19  C   UNL     1     -12.747  14.121  65.211  1.00  0.00    -0.425 C  
BRANCH  19  20
HETATM   20  C   UNL     1     -11.696  14.098  66.311  1.00  0.00    -0.390 C  
BRANCH  20  21
HETATM   21  N   UNL     1     -12.279  14.459  67.601  1.00  0.00    -0.623 NA 
HETATM   22  H   UNL     1     -13.283  14.619  67.527  1.00  0.00     0.000 HD 
BRANCH  21  23
HETATM   23  C   UNL     1     -11.966  13.453  68.626  1.00  0.00    -0.327 C  
BRANCH  23  24
HETATM   24  C   UNL     1     -11.731  12.052  68.042  1.00  0.00    -0.398 C  
BRANCH  24  25
HETATM   25  C   UNL     1     -10.445  11.438  68.526  1.00  0.00    -0.223 A  
HETATM   26  C   UNL     1     -10.478  10.412  69.479  1.00  0.00    -0.274 A  
HETATM   27  C   UNL     1      -9.290   9.830  69.925  1.00  0.00    -0.262 A  
HETATM   28  C   UNL     1      -8.069  10.277  69.426  1.00  0.00    -0.167 A  
HETATM   29  C   UNL     1      -8.031  11.306  68.486  1.00  0.00    -0.145 A  
HETATM   30  C   UNL     1      -9.216  11.888  68.039  1.00  0.00    -0.190 A  
ENDBRANCH  24  25
ENDBRANCH  23  24
ENDBRANCH  21  23
ENDBRANCH  20  21
ENDBRANCH  19  20
ENDBRANCH  18  19
ENDBRANCH  17  18
ENDBRANCH  16  17
ENDBRANCH  15  16
ENDBRANCH  13  15
ENDBRANCH  12  13
ENDBRANCH  11  12
ENDBRANCH   8  11
TORSDOF 13
ENDMDL
MODEL      130
REMARK 921   NORMALIZED FREE ENERGY PREDICTED BY IDOCK:   -4.40 KCAL/MOL
REMARK 922        TOTAL FREE ENERGY PREDICTED BY IDOCK:  -10.49 KCAL/MOL
REMARK 923 INTER-LIGAND FREE ENERGY PREDICTED BY IDOCK:   -8.22 KCAL/MOL
REMARK 924 INTRA-LIGAND FREE ENERGY PREDICTED BY IDOCK:   -2.27 KCAL/MOL
REMARK 927      BINDING AFFINITY PREDICTED BY RF-SCORE:    0.00 PKD
ROOT
HETATM    1  O   UNL     1      -9.418   6.252  72.647  1.00  0.00    -0.150 OA 
HETATM    2  H   UNL     1      -9.747   5.383  72.847  1.00  0.00     0.000 HD 
HETATM    3  C   UNL     1     -10.203   7.259  72.155  1.00  0.00    -0.190 A  
HETATM    4  C   UNL     1      -9.721   8.532  71.862  1.00  0.00    -0.287 A  
HETATM    5  C   UNL     1     -10.590   9.522  71.398  1.00  0.00    -0.307 A  
HETATM    6  O   UNL     1      -8.408   8.877  72.009  1.00  0.00    -0.367 OA 
HETATM    7  H   UNL     1      -8.079   9.746  71.809  1.00  0.00     0.000 HD 
HETATM    8  C   UNL     1     -11.953   9.246  71.237  1.00  0.00    -0.414 A  
HETATM    9  C   UNL     1     -11.546   6.960  71.952  1.00  0.00    -0.321 A  
HETATM   10  C   UNL     1     -12.420   7.947  71.492  1.00  0.00    -0.341 A  
ENDROOT
BRANCH   8  11
HETATM   11  C   UNL     1     -12.909  10.321  70.782  1.00  0.00    -0.427 C  
BRANCH  11  12
HETATM   12  C   UNL     1     -12.248  11.281  69.791  1.00  0.00    -0.275 C  
BRANCH  12  13
HETATM   13  N   UNL     1     -12.030  12.594  70.411  1.00  0.00    -0.522 NA 
HETATM   14  H   UNL     1     -11.280  12.573  71.102  1.00  0.00     0.000 HD 
BRANCH  13  15
HETATM   15  C   UNL     1     -11.793  13.593  69.372  1.00  0.00    -0.339 C  
BRANCH  15  16
HETATM   16  C   UNL     1     -11.550  12.917  68.027  1.00  0.00    -0.385 C  
BRANCH  16  17
HETATM   17  C   UNL     1     -11.859  13.900  66.901  1.00  0.00    -0.453 C  
BRANCH  17  18
HETATM   18  C   UNL     1     -10.620  14.182  66.067  1.00  0.00    -0.297 C  
BRANCH  18  19
HETATM   19  C   UNL     1     -11.002  14.630  64.657  1.00  0.00    -0.340 C  
BRANCH  19  20
HETATM   20  C   UNL     1     -11.840  13.540  64.003  1.00  0.00    -0.427 C  
BRANCH  20  21
HETATM   21  N   UNL     1     -11.010  12.662  63.182  1.00  0.00    -0.653 NA 
HETATM   22  H   UNL     1     -10.046  12.992  63.135  1.00  0.00     0.000 HD 
BRANCH  21  23
HETATM   23  C   UNL     1     -11.082  11.271  63.651  1.00  0.00    -0.215 C  
BRANCH  23  24
HETATM   24  C   UNL     1      -9.703  10.663  63.949  1.00  0.00    -0.378 C  
BRANCH  24  25
HETATM   25  C   UNL     1      -9.440  10.538  65.425  1.00  0.00    -0.273 A  
HETATM   26  C   UNL     1      -8.504  11.378  66.040  1.00  0.00    -0.058 A  
HETATM   27  C   UNL     1      -8.262  11.276  67.411  1.00  0.00    -0.135 A  
HETATM   28  C   UNL     1      -8.950  10.330  68.168  1.00  0.00    -0.130 A  
HETATM   29  C   UNL     1      -9.875   9.484  67.558  1.00  0.00    -0.213 A  
HETATM   30  C   UNL     1     -10.117   9.584  66.189  1.00  0.00    -0.326 A  
ENDBRANCH  24  25
ENDBRANCH  23  24
ENDBRANCH  21  23
ENDBRANCH  20  21
ENDBRANCH  19  20
ENDBRANCH  18  19
ENDBRANCH  17  18
ENDBRANCH  16  17
ENDBRANCH  15  16
ENDBRANCH  13  15
ENDBRANCH  12  13
ENDBRANCH  11  12
ENDBRANCH   8  11
TORSDOF 13
ENDMDL
MODEL      131
REMARK 921   NORMALIZED FREE ENERGY PREDICTED BY IDOCK:   -4.39 KCAL/MOL
REMARK 922        TOTAL FREE ENERGY PREDICTED BY IDOCK:  -10.48 KCAL/MOL
REMARK 923 INTER-LIGAND FREE ENERGY PREDICTED BY IDOCK:   -9.47 KCAL/MOL
REMARK 924 INTRA-LIGAND FREE ENERGY PREDICTED BY IDOCK:   -1.01 KCAL/MOL
REMARK 927      BINDING AFFINITY PREDICTED BY RF-SCORE:    0.00 PKD
ROOT
HETATM    1  O   UNL     1     -10.281  19.629  69.337  1.00  0.00    -0.636 OA 
HETATM    2  H   UNL     1     -10.039  20.523  69.124  1.00  0.00     0.000 HD 
HETATM    3  C   UNL     1     -10.380  18.633  68.404  1.00  0.00    -0.311 A  
HETATM    4  C   UNL     1     -10.733  17.323  68.717  1.00  0.00    -0.247 A  
HETATM    5  C   UNL     1     -10.778  16.351  67.716  1.00  0.00    -0.328 A  
HETATM    6  O   UNL     1     -11.046  16.924  69.985  1.00  0.00    -0.417 OA 
HETATM    7  H   UNL     1     -11.287  16.031  70.198  1.00  0.00     0.000 HD 
HETATM    8  C   UNL     1     -10.455  16.681  66.395  1.00  0.00    -0.266 A  
HETATM    9  C   UNL     1     -10.104  18.984  67.087  1.00  0.00    -0.435 A  
HETATM   10  C   UNL     1     -10.144  18.014  66.083  1.00  0.00    -0.334 A  
ENDROOT
BRANCH   8  11
HETATM   11  C   UNL     1     -10.453  15.628  65.314  1.00  0.00    -0.439 C  
BRANCH  11  12
HETATM   12  C   UNL     1     -11.487  15.932  64.229  1.00  0.00    -0.191 C  
BRANCH  12  13
HETATM   13  N   UNL     1     -12.251  14.725  63.891  1.00  0.00    -1.018 NA 
HETATM   14  H   UNL     1     -11.815  14.193  63.136  1.00  0.00     0.000 HD 
BRANCH  13  15
HETATM   15  C   UNL     1     -12.449  13.917  65.091  1.00  0.00    -0.453 C  
BRANCH  15  16
HETATM   16  C   UNL     1     -11.843  12.530  64.906  1.00  0.00    -0.438 C  
BRANCH  16  17
HETATM   17  C   UNL     1     -11.482  11.947  66.270  1.00  0.00    -0.367 C  
BRANCH  17  18
HETATM   18  C   UNL     1     -11.924  12.870  67.392  1.00  0.00    -0.360 C  
BRANCH  18  19
HETATM   19  C   UNL     1     -11.647  12.241  68.757  1.00  0.00    -0.380 C  
BRANCH  19  20
HETATM   20  C   UNL     1     -10.685  11.075  68.577  1.00  0.00    -0.202 C  
BRANCH  20  21
HETATM   21  N   UNL     1      -9.940  10.815  69.807  1.00  0.00    -0.423 NA 
HETATM   22  H   UNL     1     -10.545  10.849  70.626  1.00  0.00     0.000 HD 
BRANCH  21  23
HETATM   23  C   UNL     1      -9.210   9.542  69.726  1.00  0.00    -0.208 C  
BRANCH  23  24
HETATM   24  C   UNL     1     -10.128   8.314  69.827  1.00  0.00    -0.197 C  
BRANCH  24  25
HETATM   25  C   UNL     1     -10.182   7.753  71.222  1.00  0.00    -0.218 A  
HETATM   26  C   UNL     1     -11.016   6.665  71.505  1.00  0.00    -0.287 A  
HETATM   27  C   UNL     1     -11.064   6.132  72.794  1.00  0.00    -0.294 A  
HETATM   28  C   UNL     1     -10.283   6.689  73.803  1.00  0.00    -0.354 A  
HETATM   29  C   UNL     1      -9.459   7.780  73.530  1.00  0.00    -0.346 A  
HETATM   30  C   UNL     1      -9.411   8.314  72.244  1.00  0.00    -0.323 A  
ENDBRANCH  24  25
ENDBRANCH  23  24
ENDBRANCH  21  23
ENDBRANCH  20  21
ENDBRANCH  19  20
ENDBRANCH  18  19
ENDBRANCH  17  18
ENDBRANCH  16  17
ENDBRANCH  15  16
ENDBRANCH  13  15
ENDBRANCH  12  13
ENDBRANCH  11  12
ENDBRANCH   8  11
TORSDOF 13
ENDMDL
MODEL      132
REMARK 921   NORMALIZED FREE ENERGY PREDICTED BY IDOCK:   -4.37 KCAL/MOL
REMARK 922        TOTAL FREE ENERGY PREDICTED BY IDOCK:  -10.45 KCAL/MOL
REMARK 923 INTER-LIGAND FREE ENERGY PREDICTED BY IDOCK:   -9.24 KCAL/MOL
REMARK 924 INTRA-LIGAND FREE ENERGY PREDICTED BY IDOCK:   -1.21 KCAL/MOL
REMARK 927      BINDING AFFINITY PREDICTED BY RF-SCORE:    0.00 PKD
ROOT
HETATM    1  O   UNL     1      -8.847  20.825  67.206  1.00  0.00    -0.500 OA 
HETATM    2  H   UNL     1      -9.577  21.425  67.307  1.00  0.00     0.000 HD 
HETATM    3  C   UNL     1      -8.997  19.509  66.860  1.00  0.00    -0.325 A  
HETATM    4  C   UNL     1      -7.929  18.629  66.711  1.00  0.00    -0.255 A  
HETATM    5  C   UNL     1      -8.157  17.309  66.318  1.00  0.00    -0.315 A  
HETATM    6  O   UNL     1      -6.633  18.996  66.933  1.00  0.00    -0.194 OA 
HETATM    7  H   UNL     1      -5.904  18.396  66.832  1.00  0.00     0.000 HD 
HETATM    8  C   UNL     1      -9.458  16.863  66.058  1.00  0.00    -0.227 A  
HETATM    9  C   UNL     1     -10.299  19.065  66.650  1.00  0.00    -0.501 A  
HETATM   10  C   UNL     1     -10.532  17.746  66.254  1.00  0.00    -0.307 A  
ENDROOT
BRANCH   8  11
HETATM   11  C   UNL     1      -9.711  15.453  65.587  1.00  0.00    -0.366 C  
BRANCH  11  12
HETATM   12  C   UNL     1     -11.208  15.151  65.488  1.00  0.00    -0.320 C  
BRANCH  12  13
HETATM   13  N   UNL     1     -11.451  13.707  65.580  1.00  0.00    -0.305 NA 
HETATM   14  H   UNL     1     -10.700  13.163  65.155  1.00  0.00     0.000 HD 
BRANCH  13  15
HETATM   15  C   UNL     1     -11.679  13.335  66.974  1.00  0.00    -0.389 C  
BRANCH  15  16
HETATM   16  C   UNL     1     -11.840  14.581  67.838  1.00  0.00    -0.370 C  
BRANCH  16  17
HETATM   17  C   UNL     1     -10.907  14.487  69.043  1.00  0.00    -0.265 C  
BRANCH  17  18
HETATM   18  C   UNL     1     -11.142  15.638  70.006  1.00  0.00    -0.332 C  
BRANCH  18  19
HETATM   19  C   UNL     1     -12.625  15.771  70.348  1.00  0.00    -0.279 C  
BRANCH  19  20
HETATM   20  C   UNL     1     -12.839  15.337  71.792  1.00  0.00    -0.380 C  
BRANCH  20  21
HETATM   21  N   UNL     1     -14.007  14.467  71.911  1.00  0.00    -0.445 NA 
HETATM   22  H   UNL     1     -14.597  14.516  71.080  1.00  0.00     0.000 HD 
BRANCH  21  23
HETATM   23  C   UNL     1     -13.610  13.084  72.212  1.00  0.00    -0.547 C  
BRANCH  23  24
HETATM   24  C   UNL     1     -13.027  12.347  70.996  1.00  0.00    -0.151 C  
BRANCH  24  25
HETATM   25  C   UNL     1     -12.590  10.946  71.332  1.00  0.00    -0.508 A  
HETATM   26  C   UNL     1     -13.324  10.189  72.253  1.00  0.00    -0.337 A  
HETATM   27  C   UNL     1     -12.932   8.886  72.562  1.00  0.00    -0.415 A  
HETATM   28  C   UNL     1     -11.802   8.340  71.957  1.00  0.00    -0.408 A  
HETATM   29  C   UNL     1     -11.061   9.094  71.049  1.00  0.00    -0.374 A  
HETATM   30  C   UNL     1     -11.451  10.396  70.739  1.00  0.00    -0.422 A  
ENDBRANCH  24  25
ENDBRANCH  23  24
ENDBRANCH  21  23
ENDBRANCH  20  21
ENDBRANCH  19  20
ENDBRANCH  18  19
ENDBRANCH  17  18
ENDBRANCH  16  17
ENDBRANCH  15  16
ENDBRANCH  13  15
ENDBRANCH  12  13
ENDBRANCH  11  12
ENDBRANCH   8  11
TORSDOF 13
ENDMDL
MODEL      133
REMARK 921   NORMALIZED FREE ENERGY PREDICTED BY IDOCK:   -4.37 KCAL/MOL
REMARK 922        TOTAL FREE ENERGY PREDICTED BY IDOCK:  -10.44 KCAL/MOL
REMARK 923 INTER-LIGAND FREE ENERGY PREDICTED BY IDOCK:   -8.42 KCAL/MOL
REMARK 924 INTRA-LIGAND FREE ENERGY PREDICTED BY IDOCK:   -2.02 KCAL/MOL
REMARK 927      BINDING AFFINITY PREDICTED BY RF-SCORE:    0.00 PKD
ROOT
HETATM    1  O   UNL     1      -9.272   4.127  71.733  1.00  0.00    -0.118 OA 
HETATM    2  H   UNL     1      -8.900   3.819  72.550  1.00  0.00     0.000 HD 
HETATM    3  C   UNL     1     -10.113   5.204  71.648  1.00  0.00    -0.200 A  
HETATM    4  C   UNL     1     -10.658   5.657  70.450  1.00  0.00    -0.294 A  
HETATM    5  C   UNL     1     -11.480   6.787  70.436  1.00  0.00    -0.419 A  
HETATM    6  O   UNL     1     -10.428   5.042  69.253  1.00  0.00    -0.190 OA 
HETATM    7  H   UNL     1     -10.800   5.351  68.436  1.00  0.00     0.000 HD 
HETATM    8  C   UNL     1     -11.749   7.479  71.622  1.00  0.00    -0.313 A  
HETATM    9  C   UNL     1     -10.413   5.856  72.839  1.00  0.00    -0.249 A  
HETATM   10  C   UNL     1     -11.231   6.988  72.830  1.00  0.00    -0.273 A  
ENDROOT
BRANCH   8  11
HETATM   11  C   UNL     1     -12.595   8.728  71.611  1.00  0.00    -0.393 C  
BRANCH  11  12
HETATM   12  C   UNL     1     -11.757   9.974  71.320  1.00  0.00    -0.369 C  
BRANCH  12  13
HETATM   13  N   UNL     1     -12.588  11.030  70.729  1.00  0.00    -0.366 NA 
HETATM   14  H   UNL     1     -12.932  11.686  71.430  1.00  0.00     0.000 HD 
BRANCH  13  15
HETATM   15  C   UNL     1     -11.846  11.700  69.665  1.00  0.00    -0.352 C  
BRANCH  15  16
HETATM   16  C   UNL     1     -11.595  10.743  68.504  1.00  0.00    -0.325 C  
BRANCH  16  17
HETATM   17  C   UNL     1     -10.267  11.092  67.836  1.00  0.00    -0.207 C  
BRANCH  17  18
HETATM   18  C   UNL     1     -10.081  10.306  66.549  1.00  0.00    -0.290 C  
BRANCH  18  19
HETATM   19  C   UNL     1      -8.975  10.918  65.691  1.00  0.00    -0.209 C  
BRANCH  19  20
HETATM   20  C   UNL     1      -9.054  10.328  64.290  1.00  0.00    -0.243 C  
BRANCH  20  21
HETATM   21  N   UNL     1     -10.383  10.519  63.714  1.00  0.00    -0.436 NA 
HETATM   22  H   UNL     1     -11.115  10.404  64.415  1.00  0.00     0.000 HD 
BRANCH  21  23
HETATM   23  C   UNL     1     -10.485  11.818  63.034  1.00  0.00    -0.166 C  
BRANCH  23  24
HETATM   24  C   UNL     1     -11.717  12.629  63.465  1.00  0.00    -0.604 C  
BRANCH  24  25
HETATM   25  C   UNL     1     -11.479  13.395  64.739  1.00  0.00    -0.359 A  
HETATM   26  C   UNL     1     -10.349  14.213  64.860  1.00  0.00    -0.435 A  
HETATM   27  C   UNL     1     -10.127  14.936  66.033  1.00  0.00    -0.331 A  
HETATM   28  C   UNL     1     -11.030  14.837  67.089  1.00  0.00    -0.320 A  
HETATM   29  C   UNL     1     -12.151  14.014  66.978  1.00  0.00    -0.455 A  
HETATM   30  C   UNL     1     -12.374  13.292  65.807  1.00  0.00    -0.505 A  
ENDBRANCH  24  25
ENDBRANCH  23  24
ENDBRANCH  21  23
ENDBRANCH  20  21
ENDBRANCH  19  20
ENDBRANCH  18  19
ENDBRANCH  17  18
ENDBRANCH  16  17
ENDBRANCH  15  16
ENDBRANCH  13  15
ENDBRANCH  12  13
ENDBRANCH  11  12
ENDBRANCH   8  11
TORSDOF 13
ENDMDL
MODEL      134
REMARK 921   NORMALIZED FREE ENERGY PREDICTED BY IDOCK:   -4.36 KCAL/MOL
REMARK 922        TOTAL FREE ENERGY PREDICTED BY IDOCK:  -10.42 KCAL/MOL
REMARK 923 INTER-LIGAND FREE ENERGY PREDICTED BY IDOCK:   -8.75 KCAL/MOL
REMARK 924 INTRA-LIGAND FREE ENERGY PREDICTED BY IDOCK:   -1.68 KCAL/MOL
REMARK 927      BINDING AFFINITY PREDICTED BY RF-SCORE:    0.00 PKD
ROOT
HETATM    1  O   UNL     1     -10.343   9.118  69.578  1.00  0.00    -0.202 OA 
HETATM    2  H   UNL     1     -10.938   8.381  69.644  1.00  0.00     0.000 HD 
HETATM    3  C   UNL     1      -9.858   9.591  68.388  1.00  0.00    -0.158 A  
HETATM    4  C   UNL     1      -8.987  10.672  68.291  1.00  0.00    -0.143 A  
HETATM    5  C   UNL     1      -8.564  11.122  67.039  1.00  0.00    -0.147 A  
HETATM    6  O   UNL     1      -8.509  11.337  69.384  1.00  0.00    -0.374 OA 
HETATM    7  H   UNL     1      -7.914  12.074  69.319  1.00  0.00     0.000 HD 
HETATM    8  C   UNL     1      -9.023  10.500  65.872  1.00  0.00    -0.185 A  
HETATM    9  C   UNL     1     -10.283   8.935  67.238  1.00  0.00    -0.326 A  
HETATM   10  C   UNL     1      -9.866   9.383  65.983  1.00  0.00    -0.366 A  
ENDROOT
BRANCH   8  11
HETATM   11  C   UNL     1      -8.611  11.009  64.513  1.00  0.00     0.129 C  
BRANCH  11  12
HETATM   12  C   UNL     1      -9.658  10.680  63.447  1.00  0.00    -0.332 C  
BRANCH  12  13
HETATM   13  N   UNL     1     -10.317  11.903  62.975  1.00  0.00    -0.623 NA 
HETATM   14  H   UNL     1     -10.405  11.924  61.959  1.00  0.00     0.000 HD 
BRANCH  13  15
HETATM   15  C   UNL     1     -11.606  12.056  63.643  1.00  0.00    -0.486 C  
BRANCH  15  16
HETATM   16  C   UNL     1     -12.072  13.506  63.580  1.00  0.00    -0.459 C  
BRANCH  16  17
HETATM   17  C   UNL     1     -11.954  14.138  64.965  1.00  0.00    -0.412 C  
BRANCH  17  18
HETATM   18  C   UNL     1     -11.728  13.080  66.031  1.00  0.00    -0.442 C  
BRANCH  18  19
HETATM   19  C   UNL     1     -11.112  13.693  67.288  1.00  0.00    -0.309 C  
BRANCH  19  20
HETATM   20  C   UNL     1     -11.947  13.289  68.495  1.00  0.00    -0.304 C  
BRANCH  20  21
HETATM   21  N   UNL     1     -12.291  14.452  69.308  1.00  0.00    -0.543 NA 
HETATM   22  H   UNL     1     -11.812  14.436  70.208  1.00  0.00     0.000 HD 
BRANCH  21  23
HETATM   23  C   UNL     1     -12.035  15.703  68.580  1.00  0.00    -0.182 C  
BRANCH  23  24
HETATM   24  C   UNL     1     -10.786  16.445  69.080  1.00  0.00    -0.322 C  
BRANCH  24  25
HETATM   25  C   UNL     1     -10.494  17.681  68.272  1.00  0.00    -0.376 A  
HETATM   26  C   UNL     1     -10.089  18.856  68.917  1.00  0.00    -0.372 A  
HETATM   27  C   UNL     1      -9.806  20.004  68.175  1.00  0.00    -0.499 A  
HETATM   28  C   UNL     1      -9.933  19.981  66.789  1.00  0.00    -0.585 A  
HETATM   29  C   UNL     1     -10.348  18.817  66.142  1.00  0.00    -0.494 A  
HETATM   30  C   UNL     1     -10.631  17.670  66.882  1.00  0.00    -0.235 A  
ENDBRANCH  24  25
ENDBRANCH  23  24
ENDBRANCH  21  23
ENDBRANCH  20  21
ENDBRANCH  19  20
ENDBRANCH  18  19
ENDBRANCH  17  18
ENDBRANCH  16  17
ENDBRANCH  15  16
ENDBRANCH  13  15
ENDBRANCH  12  13
ENDBRANCH  11  12
ENDBRANCH   8  11
TORSDOF 13
ENDMDL
MODEL      135
REMARK 921   NORMALIZED FREE ENERGY PREDICTED BY IDOCK:   -4.34 KCAL/MOL
REMARK 922        TOTAL FREE ENERGY PREDICTED BY IDOCK:  -10.40 KCAL/MOL
REMARK 923 INTER-LIGAND FREE ENERGY PREDICTED BY IDOCK:   -9.04 KCAL/MOL
REMARK 924 INTRA-LIGAND FREE ENERGY PREDICTED BY IDOCK:   -1.35 KCAL/MOL
REMARK 927      BINDING AFFINITY PREDICTED BY RF-SCORE:    0.00 PKD
ROOT
HETATM    1  O   UNL     1      -8.190   4.870  70.368  1.00  0.00    -0.085 OA 
HETATM    2  H   UNL     1      -7.554   4.729  71.059  1.00  0.00     0.000 HD 
HETATM    3  C   UNL     1      -9.407   5.463  70.574  1.00  0.00    -0.157 A  
HETATM    4  C   UNL     1     -10.338   5.671  69.561  1.00  0.00    -0.275 A  
HETATM    5  C   UNL     1     -11.545   6.317  69.839  1.00  0.00    -0.361 A  
HETATM    6  O   UNL     1     -10.132   5.268  68.273  1.00  0.00    -0.165 OA 
HETATM    7  H   UNL     1     -10.768   5.409  67.581  1.00  0.00     0.000 HD 
HETATM    8  C   UNL     1     -11.820   6.772  71.134  1.00  0.00    -0.410 A  
HETATM    9  C   UNL     1      -9.690   5.868  71.874  1.00  0.00    -0.173 A  
HETATM   10  C   UNL     1     -10.893   6.518  72.157  1.00  0.00    -0.264 A  
ENDROOT
BRANCH   8  11
HETATM   11  C   UNL     1     -13.099   7.514  71.435  1.00  0.00    -0.373 C  
BRANCH  11  12
HETATM   12  C   UNL     1     -12.842   9.000  71.689  1.00  0.00    -0.359 C  
BRANCH  12  13
HETATM   13  N   UNL     1     -13.228   9.799  70.520  1.00  0.00    -0.582 NA 
HETATM   14  H   UNL     1     -14.138  10.245  70.642  1.00  0.00     0.000 HD 
BRANCH  13  15
HETATM   15  C   UNL     1     -12.177  10.766  70.217  1.00  0.00    -0.348 C  
BRANCH  15  16
HETATM   16  C   UNL     1     -10.802  10.123  70.368  1.00  0.00    -0.365 C  
BRANCH  16  17
HETATM   17  C   UNL     1     -10.045  10.226  69.047  1.00  0.00    -0.225 C  
BRANCH  17  18
HETATM   18  C   UNL     1     -11.003  10.391  67.879  1.00  0.00    -0.354 C  
BRANCH  18  19
HETATM   19  C   UNL     1     -10.479  11.426  66.885  1.00  0.00    -0.278 C  
BRANCH  19  20
HETATM   20  C   UNL     1     -10.207  12.728  67.625  1.00  0.00    -0.219 C  
BRANCH  20  21
HETATM   21  N   UNL     1     -11.206  13.740  67.291  1.00  0.00    -0.301 NA 
HETATM   22  H   UNL     1     -11.788  13.448  66.506  1.00  0.00     0.000 HD 
BRANCH  21  23
HETATM   23  C   UNL     1     -12.018  14.092  68.464  1.00  0.00    -0.332 C  
BRANCH  23  24
HETATM   24  C   UNL     1     -11.387  15.198  69.324  1.00  0.00    -0.313 C  
BRANCH  24  25
HETATM   25  C   UNL     1     -12.109  15.390  70.630  1.00  0.00    -0.412 A  
HETATM   26  C   UNL     1     -13.404  14.881  70.792  1.00  0.00    -0.338 A  
HETATM   27  C   UNL     1     -14.077  15.045  72.003  1.00  0.00    -0.633 A  
HETATM   28  C   UNL     1     -13.461  15.723  73.052  1.00  0.00    -0.672 A  
HETATM   29  C   UNL     1     -12.177  16.243  72.892  1.00  0.00    -0.610 A  
HETATM   30  C   UNL     1     -11.503  16.079  71.683  1.00  0.00    -0.443 A  
ENDBRANCH  24  25
ENDBRANCH  23  24
ENDBRANCH  21  23
ENDBRANCH  20  21
ENDBRANCH  19  20
ENDBRANCH  18  19
ENDBRANCH  17  18
ENDBRANCH  16  17
ENDBRANCH  15  16
ENDBRANCH  13  15
ENDBRANCH  12  13
ENDBRANCH  11  12
ENDBRANCH   8  11
TORSDOF 13
ENDMDL
MODEL      136
REMARK 921   NORMALIZED FREE ENERGY PREDICTED BY IDOCK:   -4.33 KCAL/MOL
REMARK 922        TOTAL FREE ENERGY PREDICTED BY IDOCK:  -10.38 KCAL/MOL
REMARK 923 INTER-LIGAND FREE ENERGY PREDICTED BY IDOCK:   -7.91 KCAL/MOL
REMARK 924 INTRA-LIGAND FREE ENERGY PREDICTED BY IDOCK:   -2.47 KCAL/MOL
REMARK 927      BINDING AFFINITY PREDICTED BY RF-SCORE:    0.00 PKD
ROOT
HETATM    1  O   UNL     1     -11.846  16.349  72.820  1.00  0.00    -0.534 OA 
HETATM    2  H   UNL     1     -11.329  17.141  72.905  1.00  0.00     0.000 HD 
HETATM    3  C   UNL     1     -11.972  15.654  71.647  1.00  0.00    -0.430 A  
HETATM    4  C   UNL     1     -12.730  14.493  71.522  1.00  0.00    -0.339 A  
HETATM    5  C   UNL     1     -12.781  13.817  70.301  1.00  0.00    -0.208 A  
HETATM    6  O   UNL     1     -13.445  13.963  72.557  1.00  0.00    -0.497 OA 
HETATM    7  H   UNL     1     -13.963  13.171  72.472  1.00  0.00     0.000 HD 
HETATM    8  C   UNL     1     -12.061  14.293  69.199  1.00  0.00    -0.337 A  
HETATM    9  C   UNL     1     -11.291  16.163  70.546  1.00  0.00    -0.392 A  
HETATM   10  C   UNL     1     -11.336  15.489  69.324  1.00  0.00    -0.330 A  
ENDROOT
BRANCH   8  11
HETATM   11  C   UNL     1     -12.071  13.544  67.890  1.00  0.00    -0.304 C  
BRANCH  11  12
HETATM   12  C   UNL     1     -12.408  14.465  66.716  1.00  0.00    -0.170 C  
BRANCH  12  13
HETATM   13  N   UNL     1     -12.860  13.683  65.559  1.00  0.00    -0.627 NA 
HETATM   14  H   UNL     1     -13.618  14.144  65.056  1.00  0.00     0.000 HD 
BRANCH  13  15
HETATM   15  C   UNL     1     -11.722  13.390  64.691  1.00  0.00    -0.372 C  
BRANCH  15  16
HETATM   16  C   UNL     1     -12.126  12.410  63.595  1.00  0.00    -0.648 C  
BRANCH  16  17
HETATM   17  C   UNL     1     -10.921  11.557  63.206  1.00  0.00    -0.308 C  
BRANCH  17  18
HETATM   18  C   UNL     1      -9.862  11.580  64.295  1.00  0.00    -0.279 C  
BRANCH  18  19
HETATM   19  C   UNL     1      -9.615  10.176  64.845  1.00  0.00    -0.369 C  
BRANCH  19  20
HETATM   20  C   UNL     1      -9.028  10.290  66.245  1.00  0.00    -0.153 C  
BRANCH  20  21
HETATM   21  N   UNL     1     -10.042  10.723  67.204  1.00  0.00    -0.197 NA 
HETATM   22  H   UNL     1     -10.606   9.940  67.532  1.00  0.00     0.000 HD 
BRANCH  21  23
HETATM   23  C   UNL     1      -9.435  11.459  68.322  1.00  0.00    -0.187 C  
BRANCH  23  24
HETATM   24  C   UNL     1      -8.090  12.107  67.957  1.00  0.00    -0.155 C  
BRANCH  24  25
HETATM   25  C   UNL     1      -8.201  13.599  67.794  1.00  0.00    -0.179 A  
HETATM   26  C   UNL     1      -7.767  14.447  68.820  1.00  0.00    -0.139 A  
HETATM   27  C   UNL     1      -7.856  15.832  68.672  1.00  0.00    -0.156 A  
HETATM   28  C   UNL     1      -8.384  16.371  67.502  1.00  0.00    -0.176 A  
HETATM   29  C   UNL     1      -8.828  15.531  66.481  1.00  0.00    -0.348 A  
HETATM   30  C   UNL     1      -8.740  14.148  66.627  1.00  0.00    -0.073 A  
ENDBRANCH  24  25
ENDBRANCH  23  24
ENDBRANCH  21  23
ENDBRANCH  20  21
ENDBRANCH  19  20
ENDBRANCH  18  19
ENDBRANCH  17  18
ENDBRANCH  16  17
ENDBRANCH  15  16
ENDBRANCH  13  15
ENDBRANCH  12  13
ENDBRANCH  11  12
ENDBRANCH   8  11
TORSDOF 13
ENDMDL
MODEL      137
REMARK 921   NORMALIZED FREE ENERGY PREDICTED BY IDOCK:   -4.32 KCAL/MOL
REMARK 922        TOTAL FREE ENERGY PREDICTED BY IDOCK:  -10.36 KCAL/MOL
REMARK 923 INTER-LIGAND FREE ENERGY PREDICTED BY IDOCK:   -7.96 KCAL/MOL
REMARK 924 INTRA-LIGAND FREE ENERGY PREDICTED BY IDOCK:   -2.40 KCAL/MOL
REMARK 927      BINDING AFFINITY PREDICTED BY RF-SCORE:    0.00 PKD
ROOT
HETATM    1  O   UNL     1      -9.124  10.534  69.708  1.00  0.00    -0.409 OA 
HETATM    2  H   UNL     1      -9.689  10.846  70.405  1.00  0.00     0.000 HD 
HETATM    3  C   UNL     1      -9.449  10.618  68.381  1.00  0.00    -0.165 A  
HETATM    4  C   UNL     1      -8.622  10.162  67.359  1.00  0.00    -0.122 A  
HETATM    5  C   UNL     1      -9.004  10.316  66.025  1.00  0.00    -0.173 A  
HETATM    6  O   UNL     1      -7.422   9.554  67.596  1.00  0.00    -0.090 OA 
HETATM    7  H   UNL     1      -6.857   9.242  66.898  1.00  0.00     0.000 HD 
HETATM    8  C   UNL     1     -10.214  10.943  65.705  1.00  0.00    -0.323 A  
HETATM    9  C   UNL     1     -10.676  11.200  68.076  1.00  0.00    -0.254 A  
HETATM   10  C   UNL     1     -11.061  11.360  66.744  1.00  0.00    -0.343 A  
ENDROOT
BRANCH   8  11
HETATM   11  C   UNL     1     -10.614  11.159  64.266  1.00  0.00    -0.425 C  
BRANCH  11  12
HETATM   12  C   UNL     1     -11.329  12.497  64.074  1.00  0.00    -0.405 C  
BRANCH  12  13
HETATM   13  N   UNL     1     -10.357  13.591  63.959  1.00  0.00    -0.691 NA 
HETATM   14  H   UNL     1     -10.251  13.911  62.996  1.00  0.00     0.000 HD 
BRANCH  13  15
HETATM   15  C   UNL     1     -10.731  14.677  64.862  1.00  0.00    -0.427 C  
BRANCH  15  16
HETATM   16  C   UNL     1      -9.682  14.846  65.956  1.00  0.00    -0.358 C  
BRANCH  16  17
HETATM   17  C   UNL     1     -10.004  16.088  66.782  1.00  0.00    -0.265 C  
BRANCH  17  18
HETATM   18  C   UNL     1     -10.223  17.296  65.888  1.00  0.00    -0.273 C  
BRANCH  18  19
HETATM   19  C   UNL     1     -10.597  18.526  66.714  1.00  0.00    -0.395 C  
BRANCH  19  20
HETATM   20  C   UNL     1     -10.094  19.773  65.999  1.00  0.00    -0.477 C  
BRANCH  20  21
HETATM   21  N   UNL     1      -9.541  20.735  66.949  1.00  0.00    -0.678 NA 
HETATM   22  H   UNL     1     -10.029  20.701  67.843  1.00  0.00     0.000 HD 
BRANCH  21  23
HETATM   23  C   UNL     1      -8.093  20.546  67.114  1.00  0.00    -0.302 C  
BRANCH  23  24
HETATM   24  C   UNL     1      -7.731  19.734  68.368  1.00  0.00    -0.336 C  
BRANCH  24  25
HETATM   25  C   UNL     1      -7.218  18.360  68.031  1.00  0.00    -0.248 A  
HETATM   26  C   UNL     1      -6.642  18.119  66.778  1.00  0.00    -0.215 A  
HETATM   27  C   UNL     1      -6.153  16.850  66.462  1.00  0.00    -0.106 A  
HETATM   28  C   UNL     1      -6.246  15.820  67.395  1.00  0.00    -0.144 A  
HETATM   29  C   UNL     1      -6.829  16.052  68.640  1.00  0.00    -0.131 A  
HETATM   30  C   UNL     1      -7.317  17.318  68.957  1.00  0.00    -0.209 A  
ENDBRANCH  24  25
ENDBRANCH  23  24
ENDBRANCH  21  23
ENDBRANCH  20  21
ENDBRANCH  19  20
ENDBRANCH  18  19
ENDBRANCH  17  18
ENDBRANCH  16  17
ENDBRANCH  15  16
ENDBRANCH  13  15
ENDBRANCH  12  13
ENDBRANCH  11  12
ENDBRANCH   8  11
TORSDOF 13
ENDMDL
MODEL      138
REMARK 921   NORMALIZED FREE ENERGY PREDICTED BY IDOCK:   -4.32 KCAL/MOL
REMARK 922        TOTAL FREE ENERGY PREDICTED BY IDOCK:  -10.35 KCAL/MOL
REMARK 923 INTER-LIGAND FREE ENERGY PREDICTED BY IDOCK:   -9.00 KCAL/MOL
REMARK 924 INTRA-LIGAND FREE ENERGY PREDICTED BY IDOCK:   -1.35 KCAL/MOL
REMARK 927      BINDING AFFINITY PREDICTED BY RF-SCORE:    0.00 PKD
ROOT
HETATM    1  O   UNL     1     -12.128   8.070  73.085  1.00  0.00    -0.656 OA 
HETATM    2  H   UNL     1     -11.675   7.351  73.510  1.00  0.00     0.000 HD 
HETATM    3  C   UNL     1     -11.581   8.809  72.071  1.00  0.00    -0.366 A  
HETATM    4  C   UNL     1     -12.243   9.862  71.447  1.00  0.00    -0.408 A  
HETATM    5  C   UNL     1     -11.635  10.547  70.393  1.00  0.00    -0.430 A  
HETATM    6  O   UNL     1     -13.491  10.274  71.819  1.00  0.00    -0.358 OA 
HETATM    7  H   UNL     1     -13.943  10.993  71.393  1.00  0.00     0.000 HD 
HETATM    8  C   UNL     1     -10.363  10.172  69.947  1.00  0.00    -0.308 A  
HETATM    9  C   UNL     1     -10.296   8.459  71.668  1.00  0.00    -0.312 A  
HETATM   10  C   UNL     1      -9.685   9.138  70.612  1.00  0.00    -0.314 A  
ENDROOT
BRANCH   8  11
HETATM   11  C   UNL     1      -9.717  10.874  68.778  1.00  0.00    -0.196 C  
BRANCH  11  12
HETATM   12  C   UNL     1     -10.303  10.404  67.445  1.00  0.00    -0.228 C  
BRANCH  12  13
HETATM   13  N   UNL     1     -10.007  11.371  66.381  1.00  0.00    -0.208 NA 
HETATM   14  H   UNL     1      -9.072  11.769  66.473  1.00  0.00     0.000 HD 
BRANCH  13  15
HETATM   15  C   UNL     1     -10.213  10.745  65.078  1.00  0.00    -0.306 C  
BRANCH  15  16
HETATM   16  C   UNL     1     -10.307  11.804  63.986  1.00  0.00    -0.401 C  
BRANCH  16  17
HETATM   17  C   UNL     1     -11.767  11.993  63.584  1.00  0.00    -0.587 C  
BRANCH  17  18
HETATM   18  C   UNL     1     -12.506  12.850  64.597  1.00  0.00    -0.499 C  
BRANCH  18  19
HETATM   19  C   UNL     1     -12.003  14.293  64.562  1.00  0.00    -0.478 C  
BRANCH  19  20
HETATM   20  C   UNL     1     -11.550  14.692  65.959  1.00  0.00    -0.328 C  
BRANCH  20  21
HETATM   21  N   UNL     1     -11.961  13.698  66.948  1.00  0.00    -0.405 NA 
HETATM   22  H   UNL     1     -11.555  12.784  66.751  1.00  0.00     0.000 HD 
BRANCH  21  23
HETATM   23  C   UNL     1     -11.649  14.146  68.313  1.00  0.00    -0.321 C  
BRANCH  23  24
HETATM   24  C   UNL     1     -11.574  15.676  68.442  1.00  0.00    -0.358 C  
BRANCH  24  25
HETATM   25  C   UNL     1     -10.160  16.168  68.591  1.00  0.00    -0.231 A  
HETATM   26  C   UNL     1      -9.145  15.275  68.954  1.00  0.00    -0.209 A  
HETATM   27  C   UNL     1      -7.829  15.721  69.084  1.00  0.00    -0.227 A  
HETATM   28  C   UNL     1      -7.526  17.061  68.858  1.00  0.00    -0.237 A  
HETATM   29  C   UNL     1      -8.535  17.958  68.508  1.00  0.00    -0.303 A  
HETATM   30  C   UNL     1      -9.850  17.514  68.377  1.00  0.00    -0.325 A  
ENDBRANCH  24  25
ENDBRANCH  23  24
ENDBRANCH  21  23
ENDBRANCH  20  21
ENDBRANCH  19  20
ENDBRANCH  18  19
ENDBRANCH  17  18
ENDBRANCH  16  17
ENDBRANCH  15  16
ENDBRANCH  13  15
ENDBRANCH  12  13
ENDBRANCH  11  12
ENDBRANCH   8  11
TORSDOF 13
ENDMDL
MODEL      139
REMARK 921   NORMALIZED FREE ENERGY PREDICTED BY IDOCK:   -4.31 KCAL/MOL
REMARK 922        TOTAL FREE ENERGY PREDICTED BY IDOCK:  -10.34 KCAL/MOL
REMARK 923 INTER-LIGAND FREE ENERGY PREDICTED BY IDOCK:   -7.99 KCAL/MOL
REMARK 924 INTRA-LIGAND FREE ENERGY PREDICTED BY IDOCK:   -2.35 KCAL/MOL
REMARK 927      BINDING AFFINITY PREDICTED BY RF-SCORE:    0.00 PKD
ROOT
HETATM    1  O   UNL     1      -9.621   7.549  66.115  1.00  0.00    -0.392 OA 
HETATM    2  H   UNL     1     -10.347   7.672  65.514  1.00  0.00     0.000 HD 
HETATM    3  C   UNL     1      -9.775   7.105  67.400  1.00  0.00    -0.148 A  
HETATM    4  C   UNL     1      -8.713   6.924  68.280  1.00  0.00    -0.123 A  
HETATM    5  C   UNL     1      -8.943   6.431  69.566  1.00  0.00    -0.136 A  
HETATM    6  O   UNL     1      -7.419   7.208  67.946  1.00  0.00    -0.094 OA 
HETATM    7  H   UNL     1      -6.694   7.085  68.547  1.00  0.00     0.000 HD 
HETATM    8  C   UNL     1     -10.241   6.102  69.975  1.00  0.00    -0.250 A  
HETATM    9  C   UNL     1     -11.075   6.827  67.812  1.00  0.00    -0.285 A  
HETATM   10  C   UNL     1     -11.310   6.331  69.095  1.00  0.00    -0.358 A  
ENDROOT
BRANCH   8  11
HETATM   11  C   UNL     1     -10.495   5.524  71.345  1.00  0.00    -0.305 C  
BRANCH  11  12
HETATM   12  C   UNL     1     -11.772   6.089  71.968  1.00  0.00    -0.257 C  
BRANCH  12  13
HETATM   13  N   UNL     1     -11.449   7.085  72.996  1.00  0.00    -0.540 NA 
HETATM   14  H   UNL     1     -10.564   6.883  73.463  1.00  0.00     0.000 HD 
BRANCH  13  15
HETATM   15  C   UNL     1     -11.467   8.422  72.408  1.00  0.00    -0.380 C  
BRANCH  15  16
HETATM   16  C   UNL     1     -12.785   8.666  71.680  1.00  0.00    -0.379 C  
BRANCH  16  17
HETATM   17  C   UNL     1     -12.626   9.842  70.721  1.00  0.00    -0.324 C  
BRANCH  17  18
HETATM   18  C   UNL     1     -11.160  10.118  70.433  1.00  0.00    -0.393 C  
BRANCH  18  19
HETATM   19  C   UNL     1     -10.934  10.368  68.943  1.00  0.00    -0.289 C  
BRANCH  19  20
HETATM   20  C   UNL     1      -9.454  10.633  68.705  1.00  0.00    -0.183 C  
BRANCH  20  21
HETATM   21  N   UNL     1      -9.112  10.473  67.294  1.00  0.00    -0.143 NA 
HETATM   22  H   UNL     1      -9.920  10.183  66.743  1.00  0.00     0.000 HD 
BRANCH  21  23
HETATM   23  C   UNL     1      -8.499  11.694  66.754  1.00  0.00    -0.177 C  
BRANCH  23  24
HETATM   24  C   UNL     1      -9.497  12.852  66.601  1.00  0.00    -0.255 C  
BRANCH  24  25
HETATM   25  C   UNL     1     -10.531  12.580  65.542  1.00  0.00    -0.305 A  
HETATM   26  C   UNL     1     -11.876  12.885  65.785  1.00  0.00    -0.469 A  
HETATM   27  C   UNL     1     -12.839  12.646  64.804  1.00  0.00    -0.349 A  
HETATM   28  C   UNL     1     -12.461  12.096  63.582  1.00  0.00    -0.658 A  
HETATM   29  C   UNL     1     -11.125  11.779  63.339  1.00  0.00    -0.448 A  
HETATM   30  C   UNL     1     -10.162  12.018  64.317  1.00  0.00    -0.347 A  
ENDBRANCH  24  25
ENDBRANCH  23  24
ENDBRANCH  21  23
ENDBRANCH  20  21
ENDBRANCH  19  20
ENDBRANCH  18  19
ENDBRANCH  17  18
ENDBRANCH  16  17
ENDBRANCH  15  16
ENDBRANCH  13  15
ENDBRANCH  12  13
ENDBRANCH  11  12
ENDBRANCH   8  11
TORSDOF 13
ENDMDL
MODEL      140
REMARK 921   NORMALIZED FREE ENERGY PREDICTED BY IDOCK:   -4.31 KCAL/MOL
REMARK 922        TOTAL FREE ENERGY PREDICTED BY IDOCK:  -10.34 KCAL/MOL
REMARK 923 INTER-LIGAND FREE ENERGY PREDICTED BY IDOCK:   -9.10 KCAL/MOL
REMARK 924 INTRA-LIGAND FREE ENERGY PREDICTED BY IDOCK:   -1.24 KCAL/MOL
REMARK 927      BINDING AFFINITY PREDICTED BY RF-SCORE:    0.00 PKD
ROOT
HETATM    1  O   UNL     1      -8.499  17.374  65.571  1.00  0.00    -0.242 OA 
HETATM    2  H   UNL     1      -7.711  17.747  65.947  1.00  0.00     0.000 HD 
HETATM    3  C   UNL     1      -9.351  16.558  66.265  1.00  0.00    -0.302 A  
HETATM    4  C   UNL     1     -10.506  16.010  65.714  1.00  0.00    -0.374 A  
HETATM    5  C   UNL     1     -11.348  15.216  66.496  1.00  0.00    -0.234 A  
HETATM    6  O   UNL     1     -10.874  16.214  64.415  1.00  0.00    -0.898 OA 
HETATM    7  H   UNL     1     -11.662  15.840  64.039  1.00  0.00     0.000 HD 
HETATM    8  C   UNL     1     -11.044  14.975  67.841  1.00  0.00    -0.310 A  
HETATM    9  C   UNL     1      -9.014  16.286  67.587  1.00  0.00    -0.194 A  
HETATM   10  C   UNL     1      -9.854  15.495  68.374  1.00  0.00    -0.210 A  
ENDROOT
BRANCH   8  11
HETATM   11  C   UNL     1     -11.971  14.159  68.707  1.00  0.00    -0.367 C  
BRANCH  11  12
HETATM   12  C   UNL     1     -12.220  14.833  70.057  1.00  0.00    -0.333 C  
BRANCH  12  13
HETATM   13  N   UNL     1     -12.008  13.884  71.157  1.00  0.00    -0.467 NA 
HETATM   14  H   UNL     1     -11.180  14.113  71.707  1.00  0.00     0.000 HD 
BRANCH  13  15
HETATM   15  C   UNL     1     -13.212  13.808  71.979  1.00  0.00    -0.432 C  
BRANCH  15  16
HETATM   16  C   UNL     1     -13.635  12.355  72.171  1.00  0.00    -0.405 C  
BRANCH  16  17
HETATM   17  C   UNL     1     -12.575  11.433  71.576  1.00  0.00    -0.393 C  
BRANCH  17  18
HETATM   18  C   UNL     1     -13.197  10.148  71.058  1.00  0.00    -0.412 C  
BRANCH  18  19
HETATM   19  C   UNL     1     -14.099   9.514  72.115  1.00  0.00    -0.200 C  
BRANCH  19  20
HETATM   20  C   UNL     1     -14.076   8.001  71.942  1.00  0.00    -0.397 C  
BRANCH  20  21
HETATM   21  N   UNL     1     -12.821   7.437  72.434  1.00  0.00    -0.493 NA 
HETATM   22  H   UNL     1     -12.965   6.883  73.278  1.00  0.00     0.000 HD 
BRANCH  21  23
HETATM   23  C   UNL     1     -12.141   6.661  71.387  1.00  0.00    -0.347 C  
BRANCH  23  24
HETATM   24  C   UNL     1     -10.793   7.266  70.969  1.00  0.00    -0.258 C  
BRANCH  24  25
HETATM   25  C   UNL     1     -10.698   7.478  69.482  1.00  0.00    -0.222 A  
HETATM   26  C   UNL     1     -10.174   8.676  68.980  1.00  0.00    -0.218 A  
HETATM   27  C   UNL     1     -10.072   8.876  67.603  1.00  0.00    -0.274 A  
HETATM   28  C   UNL     1     -10.500   7.883  66.725  1.00  0.00    -0.317 A  
HETATM   29  C   UNL     1     -11.033   6.693  67.219  1.00  0.00    -0.456 A  
HETATM   30  C   UNL     1     -11.135   6.492  68.594  1.00  0.00    -0.348 A  
ENDBRANCH  24  25
ENDBRANCH  23  24
ENDBRANCH  21  23
ENDBRANCH  20  21
ENDBRANCH  19  20
ENDBRANCH  18  19
ENDBRANCH  17  18
ENDBRANCH  16  17
ENDBRANCH  15  16
ENDBRANCH  13  15
ENDBRANCH  12  13
ENDBRANCH  11  12
ENDBRANCH   8  11
TORSDOF 13
ENDMDL
MODEL      141
REMARK 921   NORMALIZED FREE ENERGY PREDICTED BY IDOCK:   -4.30 KCAL/MOL
REMARK 922        TOTAL FREE ENERGY PREDICTED BY IDOCK:  -10.32 KCAL/MOL
REMARK 923 INTER-LIGAND FREE ENERGY PREDICTED BY IDOCK:   -8.87 KCAL/MOL
REMARK 924 INTRA-LIGAND FREE ENERGY PREDICTED BY IDOCK:   -1.45 KCAL/MOL
REMARK 927      BINDING AFFINITY PREDICTED BY RF-SCORE:    0.00 PKD
ROOT
HETATM    1  O   UNL     1     -12.566  13.911  63.105  1.00  0.00    -1.057 OA 
HETATM    2  H   UNL     1     -12.992  13.113  62.813  1.00  0.00     0.000 HD 
HETATM    3  C   UNL     1     -12.154  14.116  64.394  1.00  0.00    -0.463 A  
HETATM    4  C   UNL     1     -11.530  15.285  64.821  1.00  0.00    -0.363 A  
HETATM    5  C   UNL     1     -11.103  15.408  66.145  1.00  0.00    -0.230 A  
HETATM    6  O   UNL     1     -11.304  16.347  63.994  1.00  0.00    -1.416 OA 
HETATM    7  H   UNL     1     -10.878  17.145  64.286  1.00  0.00     0.000 HD 
HETATM    8  C   UNL     1     -11.287  14.354  67.048  1.00  0.00    -0.357 A  
HETATM    9  C   UNL     1     -12.386  13.082  65.294  1.00  0.00    -0.537 A  
HETATM   10  C   UNL     1     -11.958  13.198  66.618  1.00  0.00    -0.451 A  
ENDROOT
BRANCH   8  11
HETATM   11  C   UNL     1     -10.787  14.458  68.468  1.00  0.00    -0.260 C  
BRANCH  11  12
HETATM   12  C   UNL     1      -9.552  15.356  68.566  1.00  0.00    -0.201 C  
BRANCH  12  13
HETATM   13  N   UNL     1      -8.415  14.611  69.119  1.00  0.00    -0.344 NA 
HETATM   14  H   UNL     1      -8.648  14.153  70.001  1.00  0.00     0.000 HD 
BRANCH  13  15
HETATM   15  C   UNL     1      -7.915  13.668  68.124  1.00  0.00    -0.148 C  
BRANCH  15  16
HETATM   16  C   UNL     1      -7.086  12.576  68.793  1.00  0.00    -0.092 C  
BRANCH  16  17
HETATM   17  C   UNL     1      -7.634  11.207  68.397  1.00  0.00    -0.110 C  
BRANCH  17  18
HETATM   18  C   UNL     1      -8.858  11.345  67.508  1.00  0.00    -0.146 C  
BRANCH  18  19
HETATM   19  C   UNL     1     -10.024  10.522  68.053  1.00  0.00    -0.177 C  
BRANCH  19  20
HETATM   20  C   UNL     1      -9.898  10.429  69.568  1.00  0.00    -0.184 C  
BRANCH  20  21
HETATM   21  N   UNL     1     -11.193  10.621  70.215  1.00  0.00    -0.383 NA 
HETATM   22  H   UNL     1     -11.958  10.576  69.543  1.00  0.00     0.000 HD 
BRANCH  21  23
HETATM   23  C   UNL     1     -11.383   9.667  71.317  1.00  0.00    -0.388 C  
BRANCH  23  24
HETATM   24  C   UNL     1     -10.882   8.253  70.981  1.00  0.00    -0.269 C  
BRANCH  24  25
HETATM   25  C   UNL     1     -10.356   7.531  72.192  1.00  0.00    -0.252 A  
HETATM   26  C   UNL     1     -11.149   6.568  72.828  1.00  0.00    -0.279 A  
HETATM   27  C   UNL     1     -10.665   5.885  73.945  1.00  0.00    -0.168 A  
HETATM   28  C   UNL     1      -9.391   6.169  74.432  1.00  0.00    -0.181 A  
HETATM   29  C   UNL     1      -8.602   7.136  73.809  1.00  0.00    -0.185 A  
HETATM   30  C   UNL     1      -9.084   7.818  72.694  1.00  0.00    -0.228 A  
ENDBRANCH  24  25
ENDBRANCH  23  24
ENDBRANCH  21  23
ENDBRANCH  20  21
ENDBRANCH  19  20
ENDBRANCH  18  19
ENDBRANCH  17  18
ENDBRANCH  16  17
ENDBRANCH  15  16
ENDBRANCH  13  15
ENDBRANCH  12  13
ENDBRANCH  11  12
ENDBRANCH   8  11
TORSDOF 13
ENDMDL
MODEL      142
REMARK 921   NORMALIZED FREE ENERGY PREDICTED BY IDOCK:   -4.29 KCAL/MOL
REMARK 922        TOTAL FREE ENERGY PREDICTED BY IDOCK:  -10.31 KCAL/MOL
REMARK 923 INTER-LIGAND FREE ENERGY PREDICTED BY IDOCK:   -9.32 KCAL/MOL
REMARK 924 INTRA-LIGAND FREE ENERGY PREDICTED BY IDOCK:   -0.98 KCAL/MOL
REMARK 927      BINDING AFFINITY PREDICTED BY RF-SCORE:    0.00 PKD
ROOT
HETATM    1  O   UNL     1      -9.651   4.263  66.570  1.00  0.00    -0.171 OA 
HETATM    2  H   UNL     1      -9.079   3.506  66.519  1.00  0.00     0.000 HD 
HETATM    3  C   UNL     1     -10.074   4.808  67.752  1.00  0.00    -0.069 A  
HETATM    4  C   UNL     1     -10.911   5.917  67.827  1.00  0.00    -0.145 A  
HETATM    5  C   UNL     1     -11.271   6.442  69.071  1.00  0.00    -0.402 A  
HETATM    6  O   UNL     1     -11.414   6.541  66.721  1.00  0.00    -0.774 OA 
HETATM    7  H   UNL     1     -11.986   7.297  66.772  1.00  0.00     0.000 HD 
HETATM    8  C   UNL     1     -10.783   5.865  70.249  1.00  0.00    -0.383 A  
HETATM    9  C   UNL     1      -9.622   4.198  68.917  1.00  0.00    -0.222 A  
HETATM   10  C   UNL     1      -9.976   4.720  70.163  1.00  0.00    -0.321 A  
ENDROOT
BRANCH   8  11
HETATM   11  C   UNL     1     -11.127   6.453  71.595  1.00  0.00    -0.314 C  
BRANCH  11  12
HETATM   12  C   UNL     1     -10.086   7.480  72.044  1.00  0.00    -0.187 C  
BRANCH  12  13
HETATM   13  N   UNL     1     -10.613   8.843  71.907  1.00  0.00    -0.348 NA 
HETATM   14  H   UNL     1     -10.273   9.304  71.063  1.00  0.00     0.000 HD 
BRANCH  13  15
HETATM   15  C   UNL     1     -12.072   8.814  71.969  1.00  0.00    -0.377 C  
BRANCH  15  16
HETATM   16  C   UNL     1     -12.665   9.920  71.103  1.00  0.00    -0.462 C  
BRANCH  16  17
HETATM   17  C   UNL     1     -11.540  10.796  70.556  1.00  0.00    -0.425 C  
BRANCH  17  18
HETATM   18  C   UNL     1     -12.095  11.952  69.742  1.00  0.00    -0.321 C  
BRANCH  18  19
HETATM   19  C   UNL     1     -12.077  13.248  70.551  1.00  0.00    -0.391 C  
BRANCH  19  20
HETATM   20  C   UNL     1     -12.133  14.429  69.592  1.00  0.00    -0.334 C  
BRANCH  20  21
HETATM   21  N   UNL     1     -12.278  13.977  68.210  1.00  0.00    -0.540 NA 
HETATM   22  H   UNL     1     -13.251  14.002  67.908  1.00  0.00     0.000 HD 
BRANCH  21  23
HETATM   23  C   UNL     1     -11.411  14.745  67.306  1.00  0.00    -0.357 C  
BRANCH  23  24
HETATM   24  C   UNL     1     -10.300  15.510  68.043  1.00  0.00    -0.247 C  
BRANCH  24  25
HETATM   25  C   UNL     1     -10.274  16.971  67.680  1.00  0.00    -0.317 A  
HETATM   26  C   UNL     1     -10.320  17.355  66.334  1.00  0.00    -0.317 A  
HETATM   27  C   UNL     1     -10.307  18.708  65.989  1.00  0.00    -0.436 A  
HETATM   28  C   UNL     1     -10.242  19.676  66.987  1.00  0.00    -0.559 A  
HETATM   29  C   UNL     1     -10.184  19.299  68.328  1.00  0.00    -0.513 A  
HETATM   30  C   UNL     1     -10.197  17.949  68.674  1.00  0.00    -0.387 A  
ENDBRANCH  24  25
ENDBRANCH  23  24
ENDBRANCH  21  23
ENDBRANCH  20  21
ENDBRANCH  19  20
ENDBRANCH  18  19
ENDBRANCH  17  18
ENDBRANCH  16  17
ENDBRANCH  15  16
ENDBRANCH  13  15
ENDBRANCH  12  13
ENDBRANCH  11  12
ENDBRANCH   8  11
TORSDOF 13
ENDMDL
MODEL      143
REMARK 921   NORMALIZED FREE ENERGY PREDICTED BY IDOCK:   -4.28 KCAL/MOL
REMARK 922        TOTAL FREE ENERGY PREDICTED BY IDOCK:  -10.29 KCAL/MOL
REMARK 923 INTER-LIGAND FREE ENERGY PREDICTED BY IDOCK:   -7.86 KCAL/MOL
REMARK 924 INTRA-LIGAND FREE ENERGY PREDICTED BY IDOCK:   -2.42 KCAL/MOL
REMARK 927      BINDING AFFINITY PREDICTED BY RF-SCORE:    0.00 PKD
ROOT
HETATM    1  O   UNL     1     -13.377  10.974  72.212  1.00  0.00    -0.633 OA 
HETATM    2  H   UNL     1     -13.129  10.076  72.027  1.00  0.00     0.000 HD 
HETATM    3  C   UNL     1     -12.984  12.037  71.444  1.00  0.00    -0.262 A  
HETATM    4  C   UNL     1     -13.347  13.353  71.714  1.00  0.00    -0.394 A  
HETATM    5  C   UNL     1     -12.939  14.382  70.863  1.00  0.00    -0.413 A  
HETATM    6  O   UNL     1     -14.102  13.704  72.796  1.00  0.00    -0.711 OA 
HETATM    7  H   UNL     1     -14.350  14.602  72.981  1.00  0.00     0.000 HD 
HETATM    8  C   UNL     1     -12.175  14.097  69.725  1.00  0.00    -0.397 A  
HETATM    9  C   UNL     1     -12.185  11.747  70.342  1.00  0.00    -0.416 A  
HETATM   10  C   UNL     1     -11.777  12.772  69.486  1.00  0.00    -0.383 A  
ENDROOT
BRANCH   8  11
HETATM   11  C   UNL     1     -11.770  15.195  68.773  1.00  0.00    -0.366 C  
BRANCH  11  12
HETATM   12  C   UNL     1     -10.261  15.443  68.807  1.00  0.00    -0.217 C  
BRANCH  12  13
HETATM   13  N   UNL     1      -9.838  16.220  67.636  1.00  0.00    -0.235 NA 
HETATM   14  H   UNL     1      -9.538  17.162  67.887  1.00  0.00     0.000 HD 
BRANCH  13  15
HETATM   15  C   UNL     1      -8.804  15.488  66.909  1.00  0.00    -0.255 C  
BRANCH  15  16
HETATM   16  C   UNL     1      -8.924  13.991  67.173  1.00  0.00    -0.241 C  
BRANCH  16  17
HETATM   17  C   UNL     1      -7.544  13.416  67.477  1.00  0.00    -0.176 C  
BRANCH  17  18
HETATM   18  C   UNL     1      -7.352  12.070  66.799  1.00  0.00     0.031 C  
BRANCH  18  19
HETATM   19  C   UNL     1      -7.012  10.987  67.823  1.00  0.00    -0.080 C  
BRANCH  19  20
HETATM   20  C   UNL     1      -8.099  10.957  68.888  1.00  0.00    -0.144 C  
BRANCH  20  21
HETATM   21  N   UNL     1      -8.568   9.593  69.120  1.00  0.00    -0.137 NA 
HETATM   22  H   UNL     1      -8.499   9.335  70.104  1.00  0.00     0.000 HD 
BRANCH  21  23
HETATM   23  C   UNL     1      -9.933   9.406  68.607  1.00  0.00    -0.173 C  
BRANCH  23  24
HETATM   24  C   UNL     1      -9.966   8.905  67.155  1.00  0.00    -0.289 C  
BRANCH  24  25
HETATM   25  C   UNL     1     -10.284  10.004  66.178  1.00  0.00    -0.283 A  
HETATM   26  C   UNL     1      -9.723   9.980  64.895  1.00  0.00    -0.377 A  
HETATM   27  C   UNL     1     -10.021  10.990  63.979  1.00  0.00    -0.390 A  
HETATM   28  C   UNL     1     -10.874  12.028  64.345  1.00  0.00    -0.378 A  
HETATM   29  C   UNL     1     -11.426  12.063  65.625  1.00  0.00    -0.372 A  
HETATM   30  C   UNL     1     -11.129  11.055  66.541  1.00  0.00    -0.174 A  
ENDBRANCH  24  25
ENDBRANCH  23  24
ENDBRANCH  21  23
ENDBRANCH  20  21
ENDBRANCH  19  20
ENDBRANCH  18  19
ENDBRANCH  17  18
ENDBRANCH  16  17
ENDBRANCH  15  16
ENDBRANCH  13  15
ENDBRANCH  12  13
ENDBRANCH  11  12
ENDBRANCH   8  11
TORSDOF 13
ENDMDL
MODEL      144
REMARK 921   NORMALIZED FREE ENERGY PREDICTED BY IDOCK:   -4.26 KCAL/MOL
REMARK 922        TOTAL FREE ENERGY PREDICTED BY IDOCK:  -10.26 KCAL/MOL
REMARK 923 INTER-LIGAND FREE ENERGY PREDICTED BY IDOCK:   -8.44 KCAL/MOL
REMARK 924 INTRA-LIGAND FREE ENERGY PREDICTED BY IDOCK:   -1.82 KCAL/MOL
REMARK 927      BINDING AFFINITY PREDICTED BY RF-SCORE:    0.00 PKD
ROOT
HETATM    1  O   UNL     1     -11.690  13.933  63.484  1.00  0.00    -0.632 OA 
HETATM    2  H   UNL     1     -11.655  14.655  62.867  1.00  0.00     0.000 HD 
HETATM    3  C   UNL     1     -11.415  14.069  64.818  1.00  0.00    -0.369 A  
HETATM    4  C   UNL     1     -11.467  13.012  65.722  1.00  0.00    -0.332 A  
HETATM    5  C   UNL     1     -11.210  13.234  67.077  1.00  0.00    -0.319 A  
HETATM    6  O   UNL     1     -11.764  11.733  65.348  1.00  0.00    -0.232 OA 
HETATM    7  H   UNL     1     -11.798  11.011  65.964  1.00  0.00     0.000 HD 
HETATM    8  C   UNL     1     -10.913  14.522  67.537  1.00  0.00    -0.297 A  
HETATM    9  C   UNL     1     -11.074  15.344  65.257  1.00  0.00    -0.367 A  
HETATM   10  C   UNL     1     -10.820  15.572  66.611  1.00  0.00    -0.285 A  
ENDROOT
BRANCH   8  11
HETATM   11  C   UNL     1     -10.682  14.782  69.006  1.00  0.00    -0.251 C  
BRANCH  11  12
HETATM   12  C   UNL     1     -11.684  15.794  69.563  1.00  0.00    -0.360 C  
BRANCH  12  13
HETATM   13  N   UNL     1     -12.970  15.146  69.847  1.00  0.00    -0.590 NA 
HETATM   14  H   UNL     1     -12.969  14.159  69.587  1.00  0.00     0.000 HD 
BRANCH  13  15
HETATM   15  C   UNL     1     -13.322  15.346  71.249  1.00  0.00    -0.520 C  
BRANCH  15  16
HETATM   16  C   UNL     1     -12.723  14.241  72.113  1.00  0.00    -0.388 C  
BRANCH  16  17
HETATM   17  C   UNL     1     -13.525  12.956  71.922  1.00  0.00    -0.478 C  
BRANCH  17  18
HETATM   18  C   UNL     1     -12.667  11.864  71.305  1.00  0.00    -0.401 C  
BRANCH  18  19
HETATM   19  C   UNL     1     -12.988  10.503  71.922  1.00  0.00    -0.553 C  
BRANCH  19  20
HETATM   20  C   UNL     1     -11.906   9.511  71.520  1.00  0.00    -0.405 C  
BRANCH  20  21
HETATM   21  N   UNL     1     -12.016   9.158  70.107  1.00  0.00    -0.443 NA 
HETATM   22  H   UNL     1     -12.598   9.824  69.599  1.00  0.00     0.000 HD 
BRANCH  21  23
HETATM   23  C   UNL     1     -10.689   9.018  69.490  1.00  0.00    -0.206 C  
BRANCH  23  24
HETATM   24  C   UNL     1     -10.163  10.331  68.888  1.00  0.00    -0.220 C  
BRANCH  24  25
HETATM   25  C   UNL     1      -8.708  10.558  69.196  1.00  0.00    -0.155 A  
HETATM   26  C   UNL     1      -8.053   9.731  70.117  1.00  0.00    -0.202 A  
HETATM   27  C   UNL     1      -6.700   9.928  70.400  1.00  0.00    -0.136 A  
HETATM   28  C   UNL     1      -6.003  10.954  69.768  1.00  0.00    -0.076 A  
HETATM   29  C   UNL     1      -6.653  11.788  68.859  1.00  0.00    -0.082 A  
HETATM   30  C   UNL     1      -8.004  11.592  68.575  1.00  0.00    -0.144 A  
ENDBRANCH  24  25
ENDBRANCH  23  24
ENDBRANCH  21  23
ENDBRANCH  20  21
ENDBRANCH  19  20
ENDBRANCH  18  19
ENDBRANCH  17  18
ENDBRANCH  16  17
ENDBRANCH  15  16
ENDBRANCH  13  15
ENDBRANCH  12  13
ENDBRANCH  11  12
ENDBRANCH   8  11
TORSDOF 13
ENDMDL
MODEL      145
REMARK 921   NORMALIZED FREE ENERGY PREDICTED BY IDOCK:   -4.25 KCAL/MOL
REMARK 922        TOTAL FREE ENERGY PREDICTED BY IDOCK:  -10.24 KCAL/MOL
REMARK 923 INTER-LIGAND FREE ENERGY PREDICTED BY IDOCK:   -8.01 KCAL/MOL
REMARK 924 INTRA-LIGAND FREE ENERGY PREDICTED BY IDOCK:   -2.23 KCAL/MOL
REMARK 927      BINDING AFFINITY PREDICTED BY RF-SCORE:    0.00 PKD
ROOT
HETATM    1  O   UNL     1      -6.531  11.726  69.189  1.00  0.00    -0.080 OA 
HETATM    2  H   UNL     1      -6.414  11.909  70.114  1.00  0.00     0.000 HD 
HETATM    3  C   UNL     1      -7.459  10.842  68.708  1.00  0.00    -0.112 A  
HETATM    4  C   UNL     1      -7.630  10.574  67.353  1.00  0.00    -0.094 A  
HETATM    5  C   UNL     1      -8.624   9.687  66.933  1.00  0.00    -0.132 A  
HETATM    6  O   UNL     1      -6.859  11.148  66.383  1.00  0.00    -0.181 OA 
HETATM    7  H   UNL     1      -6.976  10.965  65.458  1.00  0.00     0.000 HD 
HETATM    8  C   UNL     1      -9.463   9.072  67.869  1.00  0.00    -0.159 A  
HETATM    9  C   UNL     1      -8.255  10.200  69.650  1.00  0.00    -0.176 A  
HETATM   10  C   UNL     1      -9.253   9.315  69.236  1.00  0.00    -0.152 A  
ENDROOT
BRANCH   8  11
HETATM   11  C   UNL     1     -10.571   8.150  67.424  1.00  0.00    -0.325 C  
BRANCH  11  12
HETATM   12  C   UNL     1     -10.559   6.835  68.205  1.00  0.00    -0.230 C  
BRANCH  12  13
HETATM   13  N   UNL     1     -11.695   6.773  69.132  1.00  0.00    -0.530 NA 
HETATM   14  H   UNL     1     -12.487   6.267  68.735  1.00  0.00     0.000 HD 
BRANCH  13  15
HETATM   15  C   UNL     1     -11.260   6.205  70.404  1.00  0.00    -0.353 C  
BRANCH  15  16
HETATM   16  C   UNL     1     -11.328   7.255  71.508  1.00  0.00    -0.280 C  
BRANCH  16  17
HETATM   17  C   UNL     1     -12.755   7.787  71.617  1.00  0.00    -0.358 C  
BRANCH  17  18
HETATM   18  C   UNL     1     -12.762   9.258  71.998  1.00  0.00    -0.479 C  
BRANCH  18  19
HETATM   19  C   UNL     1     -12.158  10.113  70.885  1.00  0.00    -0.453 C  
BRANCH  19  20
HETATM   20  C   UNL     1     -12.444  11.579  71.178  1.00  0.00    -0.337 C  
BRANCH  20  21
HETATM   21  N   UNL     1     -11.685  12.451  70.284  1.00  0.00    -0.546 NA 
HETATM   22  H   UNL     1     -10.693  12.454  70.517  1.00  0.00     0.000 HD 
BRANCH  21  23
HETATM   23  C   UNL     1     -11.909  12.092  68.877  1.00  0.00    -0.299 C  
BRANCH  23  24
HETATM   24  C   UNL     1     -10.800  12.599  67.942  1.00  0.00    -0.244 C  
BRANCH  24  25
HETATM   25  C   UNL     1     -11.293  12.821  66.537  1.00  0.00    -0.369 A  
HETATM   26  C   UNL     1     -10.793  12.035  65.492  1.00  0.00    -0.336 A  
HETATM   27  C   UNL     1     -11.253  12.227  64.188  1.00  0.00    -0.430 A  
HETATM   28  C   UNL     1     -12.207  13.207  63.926  1.00  0.00    -0.503 A  
HETATM   29  C   UNL     1     -12.699  14.000  64.962  1.00  0.00    -0.359 A  
HETATM   30  C   UNL     1     -12.241  13.810  66.265  1.00  0.00    -0.489 A  
ENDBRANCH  24  25
ENDBRANCH  23  24
ENDBRANCH  21  23
ENDBRANCH  20  21
ENDBRANCH  19  20
ENDBRANCH  18  19
ENDBRANCH  17  18
ENDBRANCH  16  17
ENDBRANCH  15  16
ENDBRANCH  13  15
ENDBRANCH  12  13
ENDBRANCH  11  12
ENDBRANCH   8  11
TORSDOF 13
ENDMDL
MODEL      146
REMARK 921   NORMALIZED FREE ENERGY PREDICTED BY IDOCK:   -4.25 KCAL/MOL
REMARK 922        TOTAL FREE ENERGY PREDICTED BY IDOCK:  -10.23 KCAL/MOL
REMARK 923 INTER-LIGAND FREE ENERGY PREDICTED BY IDOCK:   -9.41 KCAL/MOL
REMARK 924 INTRA-LIGAND FREE ENERGY PREDICTED BY IDOCK:   -0.83 KCAL/MOL
REMARK 927      BINDING AFFINITY PREDICTED BY RF-SCORE:    0.00 PKD
ROOT
HETATM    1  O   UNL     1      -7.338   8.838  73.965  1.00  0.00    -0.392 OA 
HETATM    2  H   UNL     1      -7.024   8.656  74.842  1.00  0.00     0.000 HD 
HETATM    3  C   UNL     1      -8.431   8.226  73.414  1.00  0.00    -0.199 A  
HETATM    4  C   UNL     1      -8.892   8.493  72.128  1.00  0.00    -0.216 A  
HETATM    5  C   UNL     1     -10.038   7.855  71.647  1.00  0.00    -0.228 A  
HETATM    6  O   UNL     1      -8.269   9.369  71.287  1.00  0.00    -0.315 OA 
HETATM    7  H   UNL     1      -8.583   9.551  70.409  1.00  0.00     0.000 HD 
HETATM    8  C   UNL     1     -10.738   6.955  72.458  1.00  0.00    -0.263 A  
HETATM    9  C   UNL     1      -9.092   7.297  74.211  1.00  0.00    -0.245 A  
HETATM   10  C   UNL     1     -10.240   6.659  73.736  1.00  0.00    -0.354 A  
ENDROOT
BRANCH   8  11
HETATM   11  C   UNL     1     -12.004   6.298  71.965  1.00  0.00    -0.353 C  
BRANCH  11  12
HETATM   12  C   UNL     1     -12.942   7.308  71.301  1.00  0.00    -0.328 C  
BRANCH  12  13
HETATM   13  N   UNL     1     -14.021   7.692  72.218  1.00  0.00    -0.542 NA 
HETATM   14  H   UNL     1     -13.852   7.366  73.169  1.00  0.00     0.000 HD 
BRANCH  13  15
HETATM   15  C   UNL     1     -14.222   9.138  72.159  1.00  0.00    -0.279 C  
BRANCH  15  16
HETATM   16  C   UNL     1     -12.944   9.837  71.709  1.00  0.00    -0.536 C  
BRANCH  16  17
HETATM   17  C   UNL     1     -13.151  11.349  71.746  1.00  0.00    -0.523 C  
BRANCH  17  18
HETATM   18  C   UNL     1     -12.334  12.039  70.667  1.00  0.00    -0.394 C  
BRANCH  18  19
HETATM   19  C   UNL     1     -12.447  13.558  70.785  1.00  0.00    -0.428 C  
BRANCH  19  20
HETATM   20  C   UNL     1     -11.847  14.195  69.539  1.00  0.00    -0.322 C  
BRANCH  20  21
HETATM   21  N   UNL     1     -10.400  14.345  69.672  1.00  0.00    -0.435 NA 
HETATM   22  H   UNL     1      -9.899  13.743  69.019  1.00  0.00     0.000 HD 
BRANCH  21  23
HETATM   23  C   UNL     1      -9.996  15.751  69.531  1.00  0.00    -0.283 C  
BRANCH  23  24
HETATM   24  C   UNL     1     -10.812  16.508  68.472  1.00  0.00    -0.349 C  
BRANCH  24  25
HETATM   25  C   UNL     1     -10.130  17.770  68.019  1.00  0.00    -0.355 A  
HETATM   26  C   UNL     1     -10.852  18.738  67.310  1.00  0.00    -0.408 A  
HETATM   27  C   UNL     1     -10.230  19.916  66.895  1.00  0.00    -0.600 A  
HETATM   28  C   UNL     1      -8.884  20.127  67.183  1.00  0.00    -0.446 A  
HETATM   29  C   UNL     1      -8.156  19.162  67.878  1.00  0.00    -0.323 A  
HETATM   30  C   UNL     1      -8.777  17.984  68.293  1.00  0.00    -0.289 A  
ENDBRANCH  24  25
ENDBRANCH  23  24
ENDBRANCH  21  23
ENDBRANCH  20  21
ENDBRANCH  19  20
ENDBRANCH  18  19
ENDBRANCH  17  18
ENDBRANCH  16  17
ENDBRANCH  15  16
ENDBRANCH  13  15
ENDBRANCH  12  13
ENDBRANCH  11  12
ENDBRANCH   8  11
TORSDOF 13
ENDMDL
MODEL      147
REMARK 921   NORMALIZED FREE ENERGY PREDICTED BY IDOCK:   -4.24 KCAL/MOL
REMARK 922        TOTAL FREE ENERGY PREDICTED BY IDOCK:  -10.21 KCAL/MOL
REMARK 923 INTER-LIGAND FREE ENERGY PREDICTED BY IDOCK:   -8.30 KCAL/MOL
REMARK 924 INTRA-LIGAND FREE ENERGY PREDICTED BY IDOCK:   -1.92 KCAL/MOL
REMARK 927      BINDING AFFINITY PREDICTED BY RF-SCORE:    0.00 PKD
ROOT
HETATM    1  O   UNL     1      -7.806  12.148  69.223  1.00  0.00    -0.325 OA 
HETATM    2  H   UNL     1      -7.462  12.158  70.109  1.00  0.00     0.000 HD 
HETATM    3  C   UNL     1      -8.491  11.089  68.693  1.00  0.00    -0.157 A  
HETATM    4  C   UNL     1      -8.995  11.075  67.396  1.00  0.00    -0.141 A  
HETATM    5  C   UNL     1      -9.717   9.972  66.936  1.00  0.00    -0.237 A  
HETATM    6  O   UNL     1      -8.819  12.110  66.523  1.00  0.00    -0.253 OA 
HETATM    7  H   UNL     1      -9.162  12.101  65.637  1.00  0.00     0.000 HD 
HETATM    8  C   UNL     1      -9.951   8.879  67.778  1.00  0.00    -0.241 A  
HETATM    9  C   UNL     1      -8.676   9.988  69.523  1.00  0.00    -0.205 A  
HETATM   10  C   UNL     1      -9.400   8.885  69.069  1.00  0.00    -0.144 A  
ENDROOT
BRANCH   8  11
HETATM   11  C   UNL     1     -10.771   7.704  67.307  1.00  0.00    -0.344 C  
BRANCH  11  12
HETATM   12  C   UNL     1     -10.028   6.382  67.507  1.00  0.00    -0.136 C  
BRANCH  12  13
HETATM   13  N   UNL     1     -10.645   5.599  68.584  1.00  0.00    -0.215 NA 
HETATM   14  H   UNL     1     -11.310   4.912  68.228  1.00  0.00     0.000 HD 
BRANCH  13  15
HETATM   15  C   UNL     1      -9.603   4.984  69.402  1.00  0.00    -0.166 C  
BRANCH  15  16
HETATM   16  C   UNL     1      -9.660   5.519  70.829  1.00  0.00    -0.220 C  
BRANCH  16  17
HETATM   17  C   UNL     1     -11.084   5.968  71.148  1.00  0.00    -0.336 C  
BRANCH  17  18
HETATM   18  C   UNL     1     -11.149   6.665  72.496  1.00  0.00    -0.296 C  
BRANCH  18  19
HETATM   19  C   UNL     1     -11.618   8.111  72.340  1.00  0.00    -0.463 C  
BRANCH  19  20
HETATM   20  C   UNL     1     -12.515   8.210  71.115  1.00  0.00    -0.182 C  
BRANCH  20  21
HETATM   21  N   UNL     1     -13.000   9.575  70.928  1.00  0.00    -0.543 NA 
HETATM   22  H   UNL     1     -13.834   9.757  71.486  1.00  0.00     0.000 HD 
BRANCH  21  23
HETATM   23  C   UNL     1     -11.940  10.557  71.203  1.00  0.00    -0.336 C  
BRANCH  23  24
HETATM   24  C   UNL     1     -11.924  11.722  70.201  1.00  0.00    -0.421 C  
BRANCH  24  25
HETATM   25  C   UNL     1     -12.558  12.966  70.762  1.00  0.00    -0.314 A  
HETATM   26  C   UNL     1     -13.347  12.888  71.915  1.00  0.00    -0.530 A  
HETATM   27  C   UNL     1     -13.930  14.039  72.448  1.00  0.00    -0.622 A  
HETATM   28  C   UNL     1     -13.730  15.268  71.825  1.00  0.00    -0.605 A  
HETATM   29  C   UNL     1     -12.955  15.350  70.669  1.00  0.00    -0.450 A  
HETATM   30  C   UNL     1     -12.372  14.201  70.136  1.00  0.00    -0.413 A  
ENDBRANCH  24  25
ENDBRANCH  23  24
ENDBRANCH  21  23
ENDBRANCH  20  21
ENDBRANCH  19  20
ENDBRANCH  18  19
ENDBRANCH  17  18
ENDBRANCH  16  17
ENDBRANCH  15  16
ENDBRANCH  13  15
ENDBRANCH  12  13
ENDBRANCH  11  12
ENDBRANCH   8  11
TORSDOF 13
ENDMDL
MODEL      148
REMARK 921   NORMALIZED FREE ENERGY PREDICTED BY IDOCK:   -4.24 KCAL/MOL
REMARK 922        TOTAL FREE ENERGY PREDICTED BY IDOCK:  -10.21 KCAL/MOL
REMARK 923 INTER-LIGAND FREE ENERGY PREDICTED BY IDOCK:   -8.12 KCAL/MOL
REMARK 924 INTRA-LIGAND FREE ENERGY PREDICTED BY IDOCK:   -2.08 KCAL/MOL
REMARK 927      BINDING AFFINITY PREDICTED BY RF-SCORE:    0.00 PKD
ROOT
HETATM    1  O   UNL     1     -14.135  15.503  72.161  1.00  0.00    -0.514 OA 
HETATM    2  H   UNL     1     -14.674  15.462  72.942  1.00  0.00     0.000 HD 
HETATM    3  C   UNL     1     -13.486  14.418  71.635  1.00  0.00    -0.372 A  
HETATM    4  C   UNL     1     -12.697  14.479  70.490  1.00  0.00    -0.345 A  
HETATM    5  C   UNL     1     -12.096  13.321  69.991  1.00  0.00    -0.385 A  
HETATM    6  O   UNL     1     -12.472  15.640  69.808  1.00  0.00    -0.535 OA 
HETATM    7  H   UNL     1     -11.933  15.681  69.027  1.00  0.00     0.000 HD 
HETATM    8  C   UNL     1     -12.294  12.091  70.628  1.00  0.00    -0.394 A  
HETATM    9  C   UNL     1     -13.650  13.210  72.304  1.00  0.00    -0.677 A  
HETATM   10  C   UNL     1     -13.055  12.049  71.807  1.00  0.00    -0.460 A  
ENDROOT
BRANCH   8  11
HETATM   11  C   UNL     1     -11.689  10.827  70.069  1.00  0.00    -0.417 C  
BRANCH  11  12
HETATM   12  C   UNL     1     -10.937  11.091  68.764  1.00  0.00    -0.221 C  
BRANCH  12  13
HETATM   13  N   UNL     1      -9.505  11.279  69.021  1.00  0.00    -0.398 NA 
HETATM   14  H   UNL     1      -9.327  11.646  69.956  1.00  0.00     0.000 HD 
BRANCH  13  15
HETATM   15  C   UNL     1      -8.793  10.028  68.776  1.00  0.00    -0.137 C  
BRANCH  15  16
HETATM   16  C   UNL     1      -7.805  10.192  67.627  1.00  0.00    -0.098 C  
BRANCH  16  17
HETATM   17  C   UNL     1      -7.464  11.670  67.457  1.00  0.00    -0.123 C  
BRANCH  17  18
HETATM   18  C   UNL     1      -6.142  12.006  68.126  1.00  0.00    -0.053 C  
BRANCH  18  19
HETATM   19  C   UNL     1      -6.280  13.238  69.020  1.00  0.00    -0.093 C  
BRANCH  19  20
HETATM   20  C   UNL     1      -6.753  14.411  68.173  1.00  0.00    -0.127 C  
BRANCH  20  21
HETATM   21  N   UNL     1      -7.683  15.255  68.919  1.00  0.00    -0.152 NA 
HETATM   22  H   UNL     1      -7.550  16.242  68.703  1.00  0.00     0.000 HD 
BRANCH  21  23
HETATM   23  C   UNL     1      -9.075  14.836  68.698  1.00  0.00    -0.186 C  
BRANCH  23  24
HETATM   24  C   UNL     1      -9.686  15.431  67.420  1.00  0.00    -0.215 C  
BRANCH  24  25
HETATM   25  C   UNL     1     -10.496  14.422  66.650  1.00  0.00    -0.274 A  
HETATM   26  C   UNL     1     -11.890  14.540  66.599  1.00  0.00    -0.383 A  
HETATM   27  C   UNL     1     -12.647  13.615  65.878  1.00  0.00    -0.478 A  
HETATM   28  C   UNL     1     -12.013  12.568  65.214  1.00  0.00    -0.490 A  
HETATM   29  C   UNL     1     -10.626  12.439  65.272  1.00  0.00    -0.322 A  
HETATM   30  C   UNL     1      -9.868  13.362  65.991  1.00  0.00    -0.273 A  
ENDBRANCH  24  25
ENDBRANCH  23  24
ENDBRANCH  21  23
ENDBRANCH  20  21
ENDBRANCH  19  20
ENDBRANCH  18  19
ENDBRANCH  17  18
ENDBRANCH  16  17
ENDBRANCH  15  16
ENDBRANCH  13  15
ENDBRANCH  12  13
ENDBRANCH  11  12
ENDBRANCH   8  11
TORSDOF 13
ENDMDL
MODEL      149
REMARK 921   NORMALIZED FREE ENERGY PREDICTED BY IDOCK:   -4.23 KCAL/MOL
REMARK 922        TOTAL FREE ENERGY PREDICTED BY IDOCK:  -10.21 KCAL/MOL
REMARK 923 INTER-LIGAND FREE ENERGY PREDICTED BY IDOCK:   -8.58 KCAL/MOL
REMARK 924 INTRA-LIGAND FREE ENERGY PREDICTED BY IDOCK:   -1.63 KCAL/MOL
REMARK 927      BINDING AFFINITY PREDICTED BY RF-SCORE:    0.00 PKD
ROOT
HETATM    1  O   UNL     1     -13.284   9.160  73.114  1.00  0.00    -0.772 OA 
HETATM    2  H   UNL     1     -12.930   9.759  73.761  1.00  0.00     0.000 HD 
HETATM    3  C   UNL     1     -12.503   8.405  72.281  1.00  0.00    -0.361 A  
HETATM    4  C   UNL     1     -13.021   7.527  71.334  1.00  0.00    -0.335 A  
HETATM    5  C   UNL     1     -12.161   6.761  70.544  1.00  0.00    -0.332 A  
HETATM    6  O   UNL     1     -14.361   7.366  71.129  1.00  0.00    -0.618 OA 
HETATM    7  H   UNL     1     -14.715   6.767  70.482  1.00  0.00     0.000 HD 
HETATM    8  C   UNL     1     -10.775   6.860  70.707  1.00  0.00    -0.262 A  
HETATM    9  C   UNL     1     -11.126   8.548  72.419  1.00  0.00    -0.397 A  
HETATM   10  C   UNL     1     -10.263   7.781  71.634  1.00  0.00    -0.225 A  
ENDROOT
BRANCH   8  11
HETATM   11  C   UNL     1      -9.838   6.002  69.893  1.00  0.00    -0.213 C  
BRANCH  11  12
HETATM   12  C   UNL     1      -9.091   6.824  68.841  1.00  0.00    -0.133 C  
BRANCH  12  13
HETATM   13  N   UNL     1      -9.735   6.692  67.529  1.00  0.00    -0.124 NA 
HETATM   14  H   UNL     1     -10.201   5.791  67.418  1.00  0.00     0.000 HD 
BRANCH  13  15
HETATM   15  C   UNL     1     -10.646   7.813  67.315  1.00  0.00    -0.306 C  
BRANCH  15  16
HETATM   16  C   UNL     1      -9.921   8.966  66.627  1.00  0.00    -0.346 C  
BRANCH  16  17
HETATM   17  C   UNL     1     -10.130  10.248  67.428  1.00  0.00    -0.246 C  
BRANCH  17  18
HETATM   18  C   UNL     1     -10.714   9.947  68.798  1.00  0.00    -0.247 C  
BRANCH  18  19
HETATM   19  C   UNL     1     -12.024  10.705  69.011  1.00  0.00    -0.186 C  
BRANCH  19  20
HETATM   20  C   UNL     1     -11.874  11.620  70.218  1.00  0.00    -0.326 C  
BRANCH  20  21
HETATM   21  N   UNL     1     -11.201  12.864  69.852  1.00  0.00    -0.482 NA 
HETATM   22  H   UNL     1     -10.440  12.699  69.194  1.00  0.00     0.000 HD 
BRANCH  21  23
HETATM   23  C   UNL     1     -12.158  13.854  69.336  1.00  0.00    -0.337 C  
BRANCH  23  24
HETATM   24  C   UNL     1     -12.029  14.083  67.822  1.00  0.00    -0.392 C  
BRANCH  24  25
HETATM   25  C   UNL     1     -11.080  15.204  67.492  1.00  0.00    -0.319 A  
HETATM   26  C   UNL     1     -10.344  15.166  66.302  1.00  0.00    -0.303 A  
HETATM   27  C   UNL     1      -9.470  16.207  65.983  1.00  0.00    -0.374 A  
HETATM   28  C   UNL     1      -9.326  17.282  66.856  1.00  0.00    -0.264 A  
HETATM   29  C   UNL     1     -10.048  17.319  68.048  1.00  0.00    -0.324 A  
HETATM   30  C   UNL     1     -10.921  16.281  68.368  1.00  0.00    -0.351 A  
ENDBRANCH  24  25
ENDBRANCH  23  24
ENDBRANCH  21  23
ENDBRANCH  20  21
ENDBRANCH  19  20
ENDBRANCH  18  19
ENDBRANCH  17  18
ENDBRANCH  16  17
ENDBRANCH  15  16
ENDBRANCH  13  15
ENDBRANCH  12  13
ENDBRANCH  11  12
ENDBRANCH   8  11
TORSDOF 13
ENDMDL
MODEL      150
REMARK 921   NORMALIZED FREE ENERGY PREDICTED BY IDOCK:   -4.23 KCAL/MOL
REMARK 922        TOTAL FREE ENERGY PREDICTED BY IDOCK:  -10.20 KCAL/MOL
REMARK 923 INTER-LIGAND FREE ENERGY PREDICTED BY IDOCK:   -8.74 KCAL/MOL
REMARK 924 INTRA-LIGAND FREE ENERGY PREDICTED BY IDOCK:   -1.46 KCAL/MOL
REMARK 927      BINDING AFFINITY PREDICTED BY RF-SCORE:    0.00 PKD
ROOT
HETATM    1  O   UNL     1      -9.300   4.794  66.875  1.00  0.00    -0.120 OA 
HETATM    2  H   UNL     1      -8.661   4.091  66.857  1.00  0.00     0.000 HD 
HETATM    3  C   UNL     1      -9.930   5.210  68.017  1.00  0.00    -0.145 A  
HETATM    4  C   UNL     1     -10.866   6.239  68.044  1.00  0.00    -0.326 A  
HETATM    5  C   UNL     1     -11.440   6.634  69.255  1.00  0.00    -0.253 A  
HETATM    6  O   UNL     1     -11.265   6.905  66.921  1.00  0.00    -0.597 OA 
HETATM    7  H   UNL     1     -11.904   7.608  66.939  1.00  0.00     0.000 HD 
HETATM    8  C   UNL     1     -11.069   6.008  70.450  1.00  0.00    -0.399 A  
HETATM    9  C   UNL     1      -9.589   4.548  69.192  1.00  0.00    -0.251 A  
HETATM   10  C   UNL     1     -10.158   4.941  70.406  1.00  0.00    -0.316 A  
ENDROOT
BRANCH   8  11
HETATM   11  C   UNL     1     -11.646   6.459  71.769  1.00  0.00    -0.367 C  
BRANCH  11  12
HETATM   12  C   UNL     1     -13.076   6.980  71.610  1.00  0.00    -0.330 C  
BRANCH  12  13
HETATM   13  N   UNL     1     -13.284   8.176  72.434  1.00  0.00    -0.557 NA 
HETATM   14  H   UNL     1     -13.570   7.943  73.385  1.00  0.00     0.000 HD 
BRANCH  13  15
HETATM   15  C   UNL     1     -12.083   9.006  72.407  1.00  0.00    -0.219 C  
BRANCH  15  16
HETATM   16  C   UNL     1     -12.233  10.129  71.386  1.00  0.00    -0.492 C  
BRANCH  16  17
HETATM   17  C   UNL     1     -11.143  10.000  70.325  1.00  0.00    -0.381 C  
BRANCH  17  18
HETATM   18  C   UNL     1     -11.370  10.979  69.186  1.00  0.00    -0.348 C  
BRANCH  18  19
HETATM   19  C   UNL     1     -11.244  10.282  67.833  1.00  0.00    -0.290 C  
BRANCH  19  20
HETATM   20  C   UNL     1     -10.366  11.128  66.921  1.00  0.00    -0.231 C  
BRANCH  20  21
HETATM   21  N   UNL     1     -11.016  11.357  65.632  1.00  0.00    -0.235 NA 
HETATM   22  H   UNL     1     -11.592  10.562  65.356  1.00  0.00     0.000 HD 
BRANCH  21  23
HETATM   23  C   UNL     1     -11.788  12.608  65.642  1.00  0.00    -0.437 C  
BRANCH  23  24
HETATM   24  C   UNL     1     -10.969  13.824  65.184  1.00  0.00    -0.337 C  
BRANCH  24  25
HETATM   25  C   UNL     1     -10.906  14.900  66.235  1.00  0.00    -0.331 A  
HETATM   26  C   UNL     1     -11.559  14.716  67.460  1.00  0.00    -0.396 A  
HETATM   27  C   UNL     1     -11.497  15.703  68.445  1.00  0.00    -0.374 A  
HETATM   28  C   UNL     1     -10.788  16.878  68.204  1.00  0.00    -0.351 A  
HETATM   29  C   UNL     1     -10.146  17.071  66.981  1.00  0.00    -0.295 A  
HETATM   30  C   UNL     1     -10.207  16.086  65.998  1.00  0.00    -0.360 A  
ENDBRANCH  24  25
ENDBRANCH  23  24
ENDBRANCH  21  23
ENDBRANCH  20  21
ENDBRANCH  19  20
ENDBRANCH  18  19
ENDBRANCH  17  18
ENDBRANCH  16  17
ENDBRANCH  15  16
ENDBRANCH  13  15
ENDBRANCH  12  13
ENDBRANCH  11  12
ENDBRANCH   8  11
TORSDOF 13
ENDMDL
MODEL      151
REMARK 921   NORMALIZED FREE ENERGY PREDICTED BY IDOCK:   -4.23 KCAL/MOL
REMARK 922        TOTAL FREE ENERGY PREDICTED BY IDOCK:  -10.20 KCAL/MOL
REMARK 923 INTER-LIGAND FREE ENERGY PREDICTED BY IDOCK:   -8.60 KCAL/MOL
REMARK 924 INTRA-LIGAND FREE ENERGY PREDICTED BY IDOCK:   -1.60 KCAL/MOL
REMARK 927      BINDING AFFINITY PREDICTED BY RF-SCORE:    0.00 PKD
ROOT
HETATM    1  O   UNL     1     -11.124   5.904  67.465  1.00  0.00    -0.401 OA 
HETATM    2  H   UNL     1     -11.918   6.120  67.940  1.00  0.00     0.000 HD 
HETATM    3  C   UNL     1     -10.315   6.843  66.884  1.00  0.00    -0.262 A  
HETATM    4  C   UNL     1      -9.151   6.527  66.189  1.00  0.00    -0.124 A  
HETATM    5  C   UNL     1      -8.356   7.543  65.655  1.00  0.00    -0.144 A  
HETATM    6  O   UNL     1      -8.731   5.242  65.997  1.00  0.00    -0.128 OA 
HETATM    7  H   UNL     1      -7.937   5.027  65.522  1.00  0.00     0.000 HD 
HETATM    8  C   UNL     1      -8.715   8.885  65.825  1.00  0.00    -0.205 A  
HETATM    9  C   UNL     1     -10.707   8.171  67.018  1.00  0.00    -0.247 A  
HETATM   10  C   UNL     1      -9.914   9.190  66.488  1.00  0.00    -0.359 A  
ENDROOT
BRANCH   8  11
HETATM   11  C   UNL     1      -7.838   9.992  65.294  1.00  0.00    -0.138 C  
BRANCH  11  12
HETATM   12  C   UNL     1      -8.052  10.211  63.795  1.00  0.00    -0.160 C  
BRANCH  12  13
HETATM   13  N   UNL     1      -8.830  11.432  63.557  1.00  0.00    -0.437 NA 
HETATM   14  H   UNL     1      -8.363  12.065  62.907  1.00  0.00     0.000 HD 
BRANCH  13  15
HETATM   15  C   UNL     1     -10.175  11.078  63.110  1.00  0.00    -0.245 C  
BRANCH  15  16
HETATM   16  C   UNL     1     -11.219  11.899  63.858  1.00  0.00    -0.497 C  
BRANCH  16  17
HETATM   17  C   UNL     1     -10.528  13.018  64.632  1.00  0.00    -0.400 C  
BRANCH  17  18
HETATM   18  C   UNL     1     -10.906  12.979  66.103  1.00  0.00    -0.296 C  
BRANCH  18  19
HETATM   19  C   UNL     1      -9.660  12.921  66.986  1.00  0.00    -0.231 C  
BRANCH  19  20
HETATM   20  C   UNL     1      -9.924  13.703  68.265  1.00  0.00    -0.236 C  
BRANCH  20  21
HETATM   21  N   UNL     1      -9.816  15.141  68.033  1.00  0.00    -0.212 NA 
HETATM   22  H   UNL     1     -10.003  15.378  67.059  1.00  0.00     0.000 HD 
BRANCH  21  23
HETATM   23  C   UNL     1     -10.683  15.894  68.950  1.00  0.00    -0.254 C  
BRANCH  23  24
HETATM   24  C   UNL     1     -12.005  15.173  69.256  1.00  0.00    -0.322 C  
BRANCH  24  25
HETATM   25  C   UNL     1     -12.323  15.161  70.727  1.00  0.00    -0.415 A  
HETATM   26  C   UNL     1     -13.092  14.123  71.266  1.00  0.00    -0.420 A  
HETATM   27  C   UNL     1     -13.382  14.098  72.631  1.00  0.00    -0.638 A  
HETATM   28  C   UNL     1     -12.909  15.113  73.458  1.00  0.00    -0.657 A  
HETATM   29  C   UNL     1     -12.152  16.156  72.925  1.00  0.00    -0.643 A  
HETATM   30  C   UNL     1     -11.861  16.182  71.562  1.00  0.00    -0.528 A  
ENDBRANCH  24  25
ENDBRANCH  23  24
ENDBRANCH  21  23
ENDBRANCH  20  21
ENDBRANCH  19  20
ENDBRANCH  18  19
ENDBRANCH  17  18
ENDBRANCH  16  17
ENDBRANCH  15  16
ENDBRANCH  13  15
ENDBRANCH  12  13
ENDBRANCH  11  12
ENDBRANCH   8  11
TORSDOF 13
ENDMDL
MODEL      152
REMARK 921   NORMALIZED FREE ENERGY PREDICTED BY IDOCK:   -4.23 KCAL/MOL
REMARK 922        TOTAL FREE ENERGY PREDICTED BY IDOCK:  -10.20 KCAL/MOL
REMARK 923 INTER-LIGAND FREE ENERGY PREDICTED BY IDOCK:   -8.20 KCAL/MOL
REMARK 924 INTRA-LIGAND FREE ENERGY PREDICTED BY IDOCK:   -2.00 KCAL/MOL
REMARK 927      BINDING AFFINITY PREDICTED BY RF-SCORE:    0.00 PKD
ROOT
HETATM    1  O   UNL     1     -12.113  16.211  70.731  1.00  0.00    -0.500 OA 
HETATM    2  H   UNL     1     -11.491  16.419  70.045  1.00  0.00     0.000 HD 
HETATM    3  C   UNL     1     -12.497  14.933  71.038  1.00  0.00    -0.330 A  
HETATM    4  C   UNL     1     -13.408  14.627  72.044  1.00  0.00    -0.365 A  
HETATM    5  C   UNL     1     -13.723  13.296  72.326  1.00  0.00    -0.686 A  
HETATM    6  O   UNL     1     -14.029  15.584  72.795  1.00  0.00    -0.527 OA 
HETATM    7  H   UNL     1     -14.652  15.376  73.481  1.00  0.00     0.000 HD 
HETATM    8  C   UNL     1     -13.115  12.260  71.608  1.00  0.00    -0.408 A  
HETATM    9  C   UNL     1     -11.922  13.913  70.286  1.00  0.00    -0.401 A  
HETATM   10  C   UNL     1     -12.231  12.580  70.566  1.00  0.00    -0.382 A  
ENDROOT
BRANCH   8  11
HETATM   11  C   UNL     1     -13.410  10.817  71.936  1.00  0.00    -0.445 C  
BRANCH  11  12
HETATM   12  C   UNL     1     -12.172   9.935  71.767  1.00  0.00    -0.341 C  
BRANCH  12  13
HETATM   13  N   UNL     1     -12.376   8.958  70.691  1.00  0.00    -0.486 NA 
HETATM   14  H   UNL     1     -12.837   9.371  69.879  1.00  0.00     0.000 HD 
BRANCH  13  15
HETATM   15  C   UNL     1     -11.101   8.338  70.343  1.00  0.00    -0.235 C  
BRANCH  15  16
HETATM   16  C   UNL     1      -9.941   9.251  70.726  1.00  0.00    -0.357 C  
BRANCH  16  17
HETATM   17  C   UNL     1      -9.191   9.675  69.466  1.00  0.00    -0.214 C  
BRANCH  17  18
HETATM   18  C   UNL     1     -10.010  10.659  68.648  1.00  0.00    -0.188 C  
BRANCH  18  19
HETATM   19  C   UNL     1     -10.461  10.031  67.330  1.00  0.00    -0.316 C  
BRANCH  19  20
HETATM   20  C   UNL     1      -9.503   8.906  66.966  1.00  0.00    -0.166 C  
BRANCH  20  21
HETATM   21  N   UNL     1     -10.219   7.780  66.371  1.00  0.00    -0.487 NA 
HETATM   22  H   UNL     1     -10.496   7.977  65.410  1.00  0.00     0.000 HD 
BRANCH  21  23
HETATM   23  C   UNL     1      -9.432   6.542  66.464  1.00  0.00    -0.154 C  
BRANCH  23  24
HETATM   24  C   UNL     1     -10.103   5.465  67.331  1.00  0.00    -0.223 C  
BRANCH  24  25
HETATM   25  C   UNL     1      -9.544   5.426  68.728  1.00  0.00    -0.182 A  
HETATM   26  C   UNL     1     -10.280   4.828  69.757  1.00  0.00    -0.218 A  
HETATM   27  C   UNL     1      -9.765   4.777  71.053  1.00  0.00    -0.257 A  
HETATM   28  C   UNL     1      -8.516   5.331  71.323  1.00  0.00    -0.124 A  
HETATM   29  C   UNL     1      -7.783   5.939  70.305  1.00  0.00    -0.096 A  
HETATM   30  C   UNL     1      -8.297   5.990  69.010  1.00  0.00    -0.111 A  
ENDBRANCH  24  25
ENDBRANCH  23  24
ENDBRANCH  21  23
ENDBRANCH  20  21
ENDBRANCH  19  20
ENDBRANCH  18  19
ENDBRANCH  17  18
ENDBRANCH  16  17
ENDBRANCH  15  16
ENDBRANCH  13  15
ENDBRANCH  12  13
ENDBRANCH  11  12
ENDBRANCH   8  11
TORSDOF 13
ENDMDL
MODEL      153
REMARK 921   NORMALIZED FREE ENERGY PREDICTED BY IDOCK:   -4.22 KCAL/MOL
REMARK 922        TOTAL FREE ENERGY PREDICTED BY IDOCK:  -10.18 KCAL/MOL
REMARK 923 INTER-LIGAND FREE ENERGY PREDICTED BY IDOCK:   -8.21 KCAL/MOL
REMARK 924 INTRA-LIGAND FREE ENERGY PREDICTED BY IDOCK:   -1.97 KCAL/MOL
REMARK 927      BINDING AFFINITY PREDICTED BY RF-SCORE:    0.00 PKD
ROOT
HETATM    1  O   UNL     1      -8.689   7.752  64.931  1.00  0.00    -0.373 OA 
HETATM    2  H   UNL     1      -7.978   8.127  64.424  1.00  0.00     0.000 HD 
HETATM    3  C   UNL     1      -9.119   8.269  66.123  1.00  0.00    -0.189 A  
HETATM    4  C   UNL     1     -10.160   7.720  66.865  1.00  0.00    -0.286 A  
HETATM    5  C   UNL     1     -10.569   8.325  68.055  1.00  0.00    -0.188 A  
HETATM    6  O   UNL     1     -10.825   6.590  66.483  1.00  0.00    -0.526 OA 
HETATM    7  H   UNL     1     -11.535   6.214  66.989  1.00  0.00     0.000 HD 
HETATM    8  C   UNL     1      -9.945   9.495  68.503  1.00  0.00    -0.184 A  
HETATM    9  C   UNL     1      -8.460   9.404  66.583  1.00  0.00    -0.130 A  
HETATM   10  C   UNL     1      -8.867  10.016  67.770  1.00  0.00    -0.125 A  
ENDROOT
BRANCH   8  11
HETATM   11  C   UNL     1     -10.411  10.185  69.762  1.00  0.00    -0.301 C  
BRANCH  11  12
HETATM   12  C   UNL     1     -11.808  10.786  69.591  1.00  0.00    -0.320 C  
BRANCH  12  13
HETATM   13  N   UNL     1     -11.797  11.836  68.567  1.00  0.00    -0.412 NA 
HETATM   14  H   UNL     1     -12.709  11.950  68.123  1.00  0.00     0.000 HD 
BRANCH  13  15
HETATM   15  C   UNL     1     -11.309  13.084  69.148  1.00  0.00    -0.273 C  
BRANCH  15  16
HETATM   16  C   UNL     1     -12.324  14.202  68.940  1.00  0.00    -0.115 C  
BRANCH  16  17
HETATM   17  C   UNL     1     -12.094  15.297  69.979  1.00  0.00    -0.386 C  
BRANCH  17  18
HETATM   18  C   UNL     1     -10.661  15.801  69.932  1.00  0.00    -0.332 C  
BRANCH  18  19
HETATM   19  C   UNL     1     -10.513  16.932  68.915  1.00  0.00    -0.346 C  
BRANCH  19  20
HETATM   20  C   UNL     1      -9.299  16.652  68.040  1.00  0.00    -0.227 C  
BRANCH  20  21
HETATM   21  N   UNL     1      -9.546  17.056  66.657  1.00  0.00    -0.254 NA 
HETATM   22  H   UNL     1      -8.675  17.238  66.159  1.00  0.00     0.000 HD 
BRANCH  21  23
HETATM   23  C   UNL     1     -10.375  16.066  65.955  1.00  0.00    -0.368 C  
BRANCH  23  24
HETATM   24  C   UNL     1      -9.881  14.624  66.144  1.00  0.00    -0.334 C  
BRANCH  24  25
HETATM   25  C   UNL     1     -10.576  13.656  65.225  1.00  0.00    -0.354 A  
HETATM   26  C   UNL     1     -10.228  12.300  65.248  1.00  0.00    -0.305 A  
HETATM   27  C   UNL     1     -10.875  11.394  64.406  1.00  0.00    -0.397 A  
HETATM   28  C   UNL     1     -11.866  11.843  63.536  1.00  0.00    -0.560 A  
HETATM   29  C   UNL     1     -12.208  13.194  63.500  1.00  0.00    -0.552 A  
HETATM   30  C   UNL     1     -11.563  14.100  64.340  1.00  0.00    -0.377 A  
ENDBRANCH  24  25
ENDBRANCH  23  24
ENDBRANCH  21  23
ENDBRANCH  20  21
ENDBRANCH  19  20
ENDBRANCH  18  19
ENDBRANCH  17  18
ENDBRANCH  16  17
ENDBRANCH  15  16
ENDBRANCH  13  15
ENDBRANCH  12  13
ENDBRANCH  11  12
ENDBRANCH   8  11
TORSDOF 13
ENDMDL
MODEL      154
REMARK 921   NORMALIZED FREE ENERGY PREDICTED BY IDOCK:   -4.21 KCAL/MOL
REMARK 922        TOTAL FREE ENERGY PREDICTED BY IDOCK:  -10.16 KCAL/MOL
REMARK 923 INTER-LIGAND FREE ENERGY PREDICTED BY IDOCK:   -8.74 KCAL/MOL
REMARK 924 INTRA-LIGAND FREE ENERGY PREDICTED BY IDOCK:   -1.41 KCAL/MOL
REMARK 927      BINDING AFFINITY PREDICTED BY RF-SCORE:    0.00 PKD
ROOT
HETATM    1  O   UNL     1     -10.064   4.852  68.491  1.00  0.00    -0.145 OA 
HETATM    2  H   UNL     1      -9.946   4.433  67.647  1.00  0.00     0.000 HD 
HETATM    3  C   UNL     1     -10.215   6.204  68.646  1.00  0.00    -0.181 A  
HETATM    4  C   UNL     1     -10.388   6.819  69.882  1.00  0.00    -0.203 A  
HETATM    5  C   UNL     1     -10.573   8.201  69.959  1.00  0.00    -0.239 A  
HETATM    6  O   UNL     1     -10.388   6.126  71.059  1.00  0.00    -0.197 OA 
HETATM    7  H   UNL     1     -10.505   6.546  71.903  1.00  0.00     0.000 HD 
HETATM    8  C   UNL     1     -10.600   8.976  68.793  1.00  0.00    -0.196 A  
HETATM    9  C   UNL     1     -10.192   6.970  67.485  1.00  0.00    -0.257 A  
HETATM   10  C   UNL     1     -10.380   8.352  67.556  1.00  0.00    -0.333 A  
ENDROOT
BRANCH   8  11
HETATM   11  C   UNL     1     -10.848  10.462  68.861  1.00  0.00    -0.273 C  
BRANCH  11  12
HETATM   12  C   UNL     1     -11.058  11.063  67.470  1.00  0.00    -0.302 C  
BRANCH  12  13
HETATM   13  N   UNL     1      -9.922  11.912  67.096  1.00  0.00    -0.193 NA 
HETATM   14  H   UNL     1      -9.159  11.853  67.772  1.00  0.00     0.000 HD 
BRANCH  13  15
HETATM   15  C   UNL     1      -9.485  11.581  65.743  1.00  0.00    -0.234 C  
BRANCH  15  16
HETATM   16  C   UNL     1     -10.626  10.946  64.955  1.00  0.00    -0.304 C  
BRANCH  16  17
HETATM   17  C   UNL     1     -11.158  11.948  63.933  1.00  0.00    -0.483 C  
BRANCH  17  18
HETATM   18  C   UNL     1     -10.787  13.370  64.319  1.00  0.00    -0.383 C  
BRANCH  18  19
HETATM   19  C   UNL     1     -12.037  14.230  64.502  1.00  0.00    -0.499 C  
BRANCH  19  20
HETATM   20  C   UNL     1     -12.596  13.997  65.899  1.00  0.00    -0.449 C  
BRANCH  20  21
HETATM   21  N   UNL     1     -11.698  14.533  66.919  1.00  0.00    -0.385 NA 
HETATM   22  H   UNL     1     -11.474  15.512  66.745  1.00  0.00     0.000 HD 
BRANCH  21  23
HETATM   23  C   UNL     1     -12.249  14.336  68.268  1.00  0.00    -0.146 C  
BRANCH  23  24
HETATM   24  C   UNL     1     -11.273  14.743  69.382  1.00  0.00    -0.308 C  
BRANCH  24  25
HETATM   25  C   UNL     1     -11.947  14.846  70.724  1.00  0.00    -0.372 A  
HETATM   26  C   UNL     1     -12.941  13.926  71.077  1.00  0.00    -0.357 A  
HETATM   27  C   UNL     1     -13.564  14.008  72.323  1.00  0.00    -0.622 A  
HETATM   28  C   UNL     1     -13.200  15.014  73.215  1.00  0.00    -0.537 A  
HETATM   29  C   UNL     1     -12.219  15.941  72.863  1.00  0.00    -0.605 A  
HETATM   30  C   UNL     1     -11.596  15.860  71.619  1.00  0.00    -0.541 A  
ENDBRANCH  24  25
ENDBRANCH  23  24
ENDBRANCH  21  23
ENDBRANCH  20  21
ENDBRANCH  19  20
ENDBRANCH  18  19
ENDBRANCH  17  18
ENDBRANCH  16  17
ENDBRANCH  15  16
ENDBRANCH  13  15
ENDBRANCH  12  13
ENDBRANCH  11  12
ENDBRANCH   8  11
TORSDOF 13
ENDMDL
MODEL      155
REMARK 921   NORMALIZED FREE ENERGY PREDICTED BY IDOCK:   -4.20 KCAL/MOL
REMARK 922        TOTAL FREE ENERGY PREDICTED BY IDOCK:  -10.14 KCAL/MOL
REMARK 923 INTER-LIGAND FREE ENERGY PREDICTED BY IDOCK:   -9.34 KCAL/MOL
REMARK 924 INTRA-LIGAND FREE ENERGY PREDICTED BY IDOCK:   -0.80 KCAL/MOL
REMARK 927      BINDING AFFINITY PREDICTED BY RF-SCORE:    0.00 PKD
ROOT
HETATM    1  O   UNL     1     -12.587  13.476  62.778  1.00  0.00    -0.740 OA 
HETATM    2  H   UNL     1     -13.164  14.230  62.816  1.00  0.00     0.000 HD 
HETATM    3  C   UNL     1     -12.013  12.910  63.883  1.00  0.00    -0.480 A  
HETATM    4  C   UNL     1     -11.168  11.806  63.827  1.00  0.00    -0.436 A  
HETATM    5  C   UNL     1     -10.648  11.259  65.002  1.00  0.00    -0.353 A  
HETATM    6  O   UNL     1     -10.808  11.209  62.652  1.00  0.00    -0.630 OA 
HETATM    7  H   UNL     1     -10.231  10.456  62.614  1.00  0.00     0.000 HD 
HETATM    8  C   UNL     1     -10.984  11.807  66.245  1.00  0.00    -0.346 A  
HETATM    9  C   UNL     1     -12.315  13.493  65.110  1.00  0.00    -0.488 A  
HETATM   10  C   UNL     1     -11.801  12.948  66.288  1.00  0.00    -0.477 A  
ENDROOT
BRANCH   8  11
HETATM   11  C   UNL     1     -10.468  11.195  67.524  1.00  0.00    -0.239 C  
BRANCH  11  12
HETATM   12  C   UNL     1     -11.384  10.075  68.022  1.00  0.00     0.004 C  
BRANCH  12  13
HETATM   13  N   UNL     1     -12.461  10.622  68.856  1.00  0.00    -0.730 NA 
HETATM   14  H   UNL     1     -13.053   9.889  69.248  1.00  0.00     0.000 HD 
BRANCH  13  15
HETATM   15  C   UNL     1     -11.894  11.484  69.889  1.00  0.00    -0.355 C  
BRANCH  15  16
HETATM   16  C   UNL     1     -12.480  11.137  71.254  1.00  0.00    -0.466 C  
BRANCH  16  17
HETATM   17  C   UNL     1     -13.282   9.843  71.149  1.00  0.00    -0.424 C  
BRANCH  17  18
HETATM   18  C   UNL     1     -12.855   8.847  72.214  1.00  0.00    -0.475 C  
BRANCH  18  19
HETATM   19  C   UNL     1     -11.332   8.776  72.314  1.00  0.00    -0.356 C  
BRANCH  19  20
HETATM   20  C   UNL     1     -10.942   7.466  72.983  1.00  0.00    -0.374 C  
BRANCH  20  21
HETATM   21  N   UNL     1     -11.312   6.322  72.152  1.00  0.00    -0.282 NA 
HETATM   22  H   UNL     1     -12.147   6.514  71.601  1.00  0.00     0.000 HD 
BRANCH  21  23
HETATM   23  C   UNL     1     -10.189   5.898  71.303  1.00  0.00    -0.210 C  
BRANCH  23  24
HETATM   24  C   UNL     1      -9.878   4.398  71.422  1.00  0.00    -0.262 C  
BRANCH  24  25
HETATM   25  C   UNL     1      -9.635   3.757  70.082  1.00  0.00    -0.258 A  
HETATM   26  C   UNL     1      -9.848   4.491  68.909  1.00  0.00    -0.190 A  
HETATM   27  C   UNL     1      -9.615   3.908  67.663  1.00  0.00    -0.205 A  
HETATM   28  C   UNL     1      -9.176   2.589  67.587  1.00  0.00    -0.225 A  
HETATM   29  C   UNL     1      -8.974   1.849  68.751  1.00  0.00    -0.156 A  
HETATM   30  C   UNL     1      -9.206   2.430  69.996  1.00  0.00    -0.189 A  
ENDBRANCH  24  25
ENDBRANCH  23  24
ENDBRANCH  21  23
ENDBRANCH  20  21
ENDBRANCH  19  20
ENDBRANCH  18  19
ENDBRANCH  17  18
ENDBRANCH  16  17
ENDBRANCH  15  16
ENDBRANCH  13  15
ENDBRANCH  12  13
ENDBRANCH  11  12
ENDBRANCH   8  11
TORSDOF 13
ENDMDL
MODEL      156
REMARK 921   NORMALIZED FREE ENERGY PREDICTED BY IDOCK:   -4.20 KCAL/MOL
REMARK 922        TOTAL FREE ENERGY PREDICTED BY IDOCK:  -10.14 KCAL/MOL
REMARK 923 INTER-LIGAND FREE ENERGY PREDICTED BY IDOCK:   -9.05 KCAL/MOL
REMARK 924 INTRA-LIGAND FREE ENERGY PREDICTED BY IDOCK:   -1.09 KCAL/MOL
REMARK 927      BINDING AFFINITY PREDICTED BY RF-SCORE:    0.00 PKD
ROOT
HETATM    1  O   UNL     1      -9.161   4.970  66.760  1.00  0.00    -0.116 OA 
HETATM    2  H   UNL     1      -8.504   4.293  66.647  1.00  0.00     0.000 HD 
HETATM    3  C   UNL     1      -9.794   5.212  67.949  1.00  0.00    -0.155 A  
HETATM    4  C   UNL     1     -10.757   6.204  68.116  1.00  0.00    -0.294 A  
HETATM    5  C   UNL     1     -11.333   6.418  69.370  1.00  0.00    -0.443 A  
HETATM    6  O   UNL     1     -11.181   7.002  67.093  1.00  0.00    -0.590 OA 
HETATM    7  H   UNL     1     -11.838   7.679  67.207  1.00  0.00     0.000 HD 
HETATM    8  C   UNL     1     -10.938   5.648  70.470  1.00  0.00    -0.267 A  
HETATM    9  C   UNL     1      -9.429   4.409  69.025  1.00  0.00    -0.237 A  
HETATM   10  C   UNL     1      -9.999   4.622  70.281  1.00  0.00    -0.309 A  
ENDROOT
BRANCH   8  11
HETATM   11  C   UNL     1     -11.518   5.904  71.839  1.00  0.00    -0.287 C  
BRANCH  11  12
HETATM   12  C   UNL     1     -10.843   7.092  72.525  1.00  0.00    -0.264 C  
BRANCH  12  13
HETATM   13  N   UNL     1     -11.826   8.134  72.842  1.00  0.00    -0.551 NA 
HETATM   14  H   UNL     1     -11.428   9.071  72.778  1.00  0.00     0.000 HD 
BRANCH  13  15
HETATM   15  C   UNL     1     -13.000   7.976  71.988  1.00  0.00    -0.279 C  
BRANCH  15  16
HETATM   16  C   UNL     1     -13.176   9.197  71.091  1.00  0.00    -0.205 C  
BRANCH  16  17
HETATM   17  C   UNL     1     -11.997  10.147  71.289  1.00  0.00    -0.473 C  
BRANCH  17  18
HETATM   18  C   UNL     1     -12.417  11.591  71.073  1.00  0.00    -0.458 C  
BRANCH  18  19
HETATM   19  C   UNL     1     -13.559  11.974  72.014  1.00  0.00    -0.230 C  
BRANCH  19  20
HETATM   20  C   UNL     1     -13.332  13.394  72.513  1.00  0.00    -0.484 C  
BRANCH  20  21
HETATM   21  N   UNL     1     -14.287  14.321  71.911  1.00  0.00    -0.514 NA 
HETATM   22  H   UNL     1     -15.015  14.591  72.572  1.00  0.00     0.000 HD 
BRANCH  21  23
HETATM   23  C   UNL     1     -13.605  15.494  71.346  1.00  0.00    -0.474 C  
BRANCH  23  24
HETATM   24  C   UNL     1     -12.101  15.268  71.127  1.00  0.00    -0.405 C  
BRANCH  24  25
HETATM   25  C   UNL     1     -11.724  15.306  69.671  1.00  0.00    -0.355 A  
HETATM   26  C   UNL     1     -10.971  16.376  69.173  1.00  0.00    -0.324 A  
HETATM   27  C   UNL     1     -10.607  16.413  67.826  1.00  0.00    -0.321 A  
HETATM   28  C   UNL     1     -11.001  15.384  66.974  1.00  0.00    -0.306 A  
HETATM   29  C   UNL     1     -11.760  14.322  67.462  1.00  0.00    -0.415 A  
HETATM   30  C   UNL     1     -12.124  14.284  68.807  1.00  0.00    -0.300 A  
ENDBRANCH  24  25
ENDBRANCH  23  24
ENDBRANCH  21  23
ENDBRANCH  20  21
ENDBRANCH  19  20
ENDBRANCH  18  19
ENDBRANCH  17  18
ENDBRANCH  16  17
ENDBRANCH  15  16
ENDBRANCH  13  15
ENDBRANCH  12  13
ENDBRANCH  11  12
ENDBRANCH   8  11
TORSDOF 13
ENDMDL
MODEL      157
REMARK 921   NORMALIZED FREE ENERGY PREDICTED BY IDOCK:   -4.19 KCAL/MOL
REMARK 922        TOTAL FREE ENERGY PREDICTED BY IDOCK:  -10.14 KCAL/MOL
REMARK 923 INTER-LIGAND FREE ENERGY PREDICTED BY IDOCK:   -8.43 KCAL/MOL
REMARK 924 INTRA-LIGAND FREE ENERGY PREDICTED BY IDOCK:   -1.71 KCAL/MOL
REMARK 927      BINDING AFFINITY PREDICTED BY RF-SCORE:    0.00 PKD
ROOT
HETATM    1  O   UNL     1      -8.820   4.684  66.917  1.00  0.00    -0.110 OA 
HETATM    2  H   UNL     1      -8.050   4.149  67.071  1.00  0.00     0.000 HD 
HETATM    3  C   UNL     1      -9.637   5.132  67.919  1.00  0.00    -0.135 A  
HETATM    4  C   UNL     1     -10.765   5.917  67.695  1.00  0.00    -0.270 A  
HETATM    5  C   UNL     1     -11.531   6.368  68.772  1.00  0.00    -0.087 A  
HETATM    6  O   UNL     1     -11.175   6.281  66.445  1.00  0.00    -0.688 OA 
HETATM    7  H   UNL     1     -11.945   6.816  66.291  1.00  0.00     0.000 HD 
HETATM    8  C   UNL     1     -11.164   6.048  70.084  1.00  0.00    -0.412 A  
HETATM    9  C   UNL     1      -9.290   4.767  69.216  1.00  0.00    -0.196 A  
HETATM   10  C   UNL     1     -10.051   5.219  70.296  1.00  0.00    -0.329 A  
ENDROOT
BRANCH   8  11
HETATM   11  C   UNL     1     -11.956   6.570  71.256  1.00  0.00    -0.364 C  
BRANCH  11  12
HETATM   12  C   UNL     1     -11.481   5.959  72.575  1.00  0.00    -0.298 C  
BRANCH  12  13
HETATM   13  N   UNL     1     -11.233   7.008  73.572  1.00  0.00    -0.496 NA 
HETATM   14  H   UNL     1     -12.039   7.160  74.179  1.00  0.00     0.000 HD 
BRANCH  13  15
HETATM   15  C   UNL     1     -10.026   6.690  74.329  1.00  0.00    -0.345 C  
BRANCH  15  16
HETATM   16  C   UNL     1      -8.803   6.711  73.418  1.00  0.00    -0.138 C  
BRANCH  16  17
HETATM   17  C   UNL     1      -8.458   8.155  73.064  1.00  0.00    -0.272 C  
BRANCH  17  18
HETATM   18  C   UNL     1      -8.606   8.403  71.573  1.00  0.00    -0.215 C  
BRANCH  18  19
HETATM   19  C   UNL     1      -9.784   9.334  71.288  1.00  0.00    -0.299 C  
BRANCH  19  20
HETATM   20  C   UNL     1      -9.762   9.721  69.816  1.00  0.00    -0.229 C  
BRANCH  20  21
HETATM   21  N   UNL     1     -11.101   9.645  69.234  1.00  0.00    -0.401 NA 
HETATM   22  H   UNL     1     -11.809   9.471  69.946  1.00  0.00     0.000 HD 
BRANCH  21  23
HETATM   23  C   UNL     1     -11.407  10.848  68.448  1.00  0.00    -0.304 C  
BRANCH  23  24
HETATM   24  C   UNL     1     -10.731  10.854  67.068  1.00  0.00    -0.323 C  
BRANCH  24  25
HETATM   25  C   UNL     1     -11.221  11.978  66.196  1.00  0.00    -0.394 A  
HETATM   26  C   UNL     1     -11.307  11.799  64.810  1.00  0.00    -0.313 A  
HETATM   27  C   UNL     1     -11.770  12.834  63.995  1.00  0.00    -0.494 A  
HETATM   28  C   UNL     1     -12.141  14.050  64.564  1.00  0.00    -0.484 A  
HETATM   29  C   UNL     1     -12.046  14.237  65.942  1.00  0.00    -0.416 A  
HETATM   30  C   UNL     1     -11.583  13.206  66.757  1.00  0.00    -0.414 A  
ENDBRANCH  24  25
ENDBRANCH  23  24
ENDBRANCH  21  23
ENDBRANCH  20  21
ENDBRANCH  19  20
ENDBRANCH  18  19
ENDBRANCH  17  18
ENDBRANCH  16  17
ENDBRANCH  15  16
ENDBRANCH  13  15
ENDBRANCH  12  13
ENDBRANCH  11  12
ENDBRANCH   8  11
TORSDOF 13
ENDMDL
MODEL      158
REMARK 921   NORMALIZED FREE ENERGY PREDICTED BY IDOCK:   -4.19 KCAL/MOL
REMARK 922        TOTAL FREE ENERGY PREDICTED BY IDOCK:  -10.13 KCAL/MOL
REMARK 923 INTER-LIGAND FREE ENERGY PREDICTED BY IDOCK:   -7.43 KCAL/MOL
REMARK 924 INTRA-LIGAND FREE ENERGY PREDICTED BY IDOCK:   -2.70 KCAL/MOL
REMARK 927      BINDING AFFINITY PREDICTED BY RF-SCORE:    0.00 PKD
ROOT
HETATM    1  O   UNL     1     -10.702   5.287  65.519  1.00  0.00    -0.460 OA 
HETATM    2  H   UNL     1     -11.135   6.023  65.103  1.00  0.00     0.000 HD 
HETATM    3  C   UNL     1     -10.527   5.183  66.872  1.00  0.00    -0.223 A  
HETATM    4  C   UNL     1      -9.894   4.104  67.482  1.00  0.00    -0.084 A  
HETATM    5  C   UNL     1      -9.785   4.049  68.873  1.00  0.00    -0.151 A  
HETATM    6  O   UNL     1      -9.358   3.065  66.775  1.00  0.00    -0.273 OA 
HETATM    7  H   UNL     1      -8.925   2.329  67.191  1.00  0.00     0.000 HD 
HETATM    8  C   UNL     1     -10.323   5.070  69.665  1.00  0.00    -0.260 A  
HETATM    9  C   UNL     1     -11.023   6.227  67.646  1.00  0.00    -0.438 A  
HETATM   10  C   UNL     1     -10.920   6.174  69.038  1.00  0.00    -0.436 A  
ENDROOT
BRANCH   8  11
HETATM   11  C   UNL     1     -10.255   4.996  71.170  1.00  0.00    -0.281 C  
BRANCH  11  12
HETATM   12  C   UNL     1     -11.195   6.008  71.827  1.00  0.00    -0.275 C  
BRANCH  12  13
HETATM   13  N   UNL     1     -10.667   6.435  73.128  1.00  0.00    -0.257 NA 
HETATM   14  H   UNL     1     -10.624   5.666  73.797  1.00  0.00     0.000 HD 
BRANCH  13  15
HETATM   15  C   UNL     1      -9.368   7.077  72.944  1.00  0.00    -0.140 C  
BRANCH  15  16
HETATM   16  C   UNL     1      -9.546   8.516  72.473  1.00  0.00    -0.324 C  
BRANCH  16  17
HETATM   17  C   UNL     1      -8.972   8.666  71.067  1.00  0.00    -0.242 C  
BRANCH  17  18
HETATM   18  C   UNL     1      -9.871   9.530  70.199  1.00  0.00    -0.288 C  
BRANCH  18  19
HETATM   19  C   UNL     1     -11.262   9.664  70.818  1.00  0.00    -0.403 C  
BRANCH  19  20
HETATM   20  C   UNL     1     -11.854  11.007  70.413  1.00  0.00    -0.367 C  
BRANCH  20  21
HETATM   21  N   UNL     1     -12.269  10.996  69.012  1.00  0.00    -0.669 NA 
HETATM   22  H   UNL     1     -13.275  10.860  68.920  1.00  0.00     0.000 HD 
BRANCH  21  23
HETATM   23  C   UNL     1     -11.822  12.211  68.316  1.00  0.00    -0.301 C  
BRANCH  23  24
HETATM   24  C   UNL     1     -11.360  11.945  66.876  1.00  0.00    -0.392 C  
BRANCH  24  25
HETATM   25  C   UNL     1     -10.138  11.068  66.820  1.00  0.00    -0.260 A  
HETATM   26  C   UNL     1     -10.246   9.750  66.361  1.00  0.00    -0.288 A  
HETATM   27  C   UNL     1      -9.116   8.933  66.296  1.00  0.00    -0.236 A  
HETATM   28  C   UNL     1      -7.878   9.431  66.695  1.00  0.00    -0.104 A  
HETATM   29  C   UNL     1      -7.767  10.739  67.164  1.00  0.00    -0.120 A  
HETATM   30  C   UNL     1      -8.894  11.556  67.229  1.00  0.00    -0.160 A  
ENDBRANCH  24  25
ENDBRANCH  23  24
ENDBRANCH  21  23
ENDBRANCH  20  21
ENDBRANCH  19  20
ENDBRANCH  18  19
ENDBRANCH  17  18
ENDBRANCH  16  17
ENDBRANCH  15  16
ENDBRANCH  13  15
ENDBRANCH  12  13
ENDBRANCH  11  12
ENDBRANCH   8  11
TORSDOF 13
ENDMDL
MODEL      159
REMARK 921   NORMALIZED FREE ENERGY PREDICTED BY IDOCK:   -4.18 KCAL/MOL
REMARK 922        TOTAL FREE ENERGY PREDICTED BY IDOCK:  -10.11 KCAL/MOL
REMARK 923 INTER-LIGAND FREE ENERGY PREDICTED BY IDOCK:   -6.92 KCAL/MOL
REMARK 924 INTRA-LIGAND FREE ENERGY PREDICTED BY IDOCK:   -3.19 KCAL/MOL
REMARK 927      BINDING AFFINITY PREDICTED BY RF-SCORE:    0.00 PKD
ROOT
HETATM    1  O   UNL     1      -7.787   7.904  67.822  1.00  0.00    -0.118 OA 
HETATM    2  H   UNL     1      -6.906   8.256  67.873  1.00  0.00     0.000 HD 
HETATM    3  C   UNL     1      -8.739   8.118  68.781  1.00  0.00    -0.138 A  
HETATM    4  C   UNL     1     -10.030   7.604  68.707  1.00  0.00    -0.174 A  
HETATM    5  C   UNL     1     -10.960   7.897  69.707  1.00  0.00    -0.148 A  
HETATM    6  O   UNL     1     -10.451   6.807  67.681  1.00  0.00    -0.178 OA 
HETATM    7  H   UNL     1     -11.331   6.455  67.631  1.00  0.00     0.000 HD 
HETATM    8  C   UNL     1     -10.606   8.719  70.783  1.00  0.00    -0.269 A  
HETATM    9  C   UNL     1      -8.362   8.898  69.870  1.00  0.00    -0.128 A  
HETATM   10  C   UNL     1      -9.289   9.196  70.870  1.00  0.00    -0.335 A  
ENDROOT
BRANCH   8  11
HETATM   11  C   UNL     1     -11.617   9.081  71.842  1.00  0.00    -0.441 C  
BRANCH  11  12
HETATM   12  C   UNL     1     -12.871   9.712  71.234  1.00  0.00    -0.350 C  
BRANCH  12  13
HETATM   13  N   UNL     1     -12.978  11.124  71.617  1.00  0.00    -0.462 NA 
HETATM   14  H   UNL     1     -12.704  11.281  72.588  1.00  0.00     0.000 HD 
BRANCH  13  15
HETATM   15  C   UNL     1     -12.205  11.945  70.688  1.00  0.00    -0.331 C  
BRANCH  15  16
HETATM   16  C   UNL     1     -12.349  11.418  69.264  1.00  0.00    -0.148 C  
BRANCH  16  17
HETATM   17  C   UNL     1     -10.999  11.489  68.557  1.00  0.00    -0.268 C  
BRANCH  17  18
HETATM   18  C   UNL     1     -11.019  10.698  67.260  1.00  0.00    -0.348 C  
BRANCH  18  19
HETATM   19  C   UNL     1      -9.738  10.928  66.460  1.00  0.00    -0.235 C  
BRANCH  19  20
HETATM   20  C   UNL     1     -10.105  11.215  65.011  1.00  0.00    -0.283 C  
BRANCH  20  21
HETATM   21  N   UNL     1     -11.253  12.115  64.929  1.00  0.00    -0.316 NA 
HETATM   22  H   UNL     1     -11.884  11.991  65.720  1.00  0.00     0.000 HD 
BRANCH  21  23
HETATM   23  C   UNL     1     -10.822  13.514  64.794  1.00  0.00    -0.381 C  
BRANCH  23  24
HETATM   24  C   UNL     1     -11.560  14.466  65.748  1.00  0.00    -0.353 C  
BRANCH  24  25
HETATM   25  C   UNL     1     -10.787  14.719  67.014  1.00  0.00    -0.315 A  
HETATM   26  C   UNL     1     -11.468  15.061  68.189  1.00  0.00    -0.355 A  
HETATM   27  C   UNL     1     -10.760  15.286  69.371  1.00  0.00    -0.266 A  
HETATM   28  C   UNL     1      -9.371  15.177  69.378  1.00  0.00    -0.176 A  
HETATM   29  C   UNL     1      -8.688  14.848  68.208  1.00  0.00    -0.166 A  
HETATM   30  C   UNL     1      -9.394  14.623  67.028  1.00  0.00    -0.244 A  
ENDBRANCH  24  25
ENDBRANCH  23  24
ENDBRANCH  21  23
ENDBRANCH  20  21
ENDBRANCH  19  20
ENDBRANCH  18  19
ENDBRANCH  17  18
ENDBRANCH  16  17
ENDBRANCH  15  16
ENDBRANCH  13  15
ENDBRANCH  12  13
ENDBRANCH  11  12
ENDBRANCH   8  11
TORSDOF 13
ENDMDL
MODEL      160
REMARK 921   NORMALIZED FREE ENERGY PREDICTED BY IDOCK:   -4.17 KCAL/MOL
REMARK 922        TOTAL FREE ENERGY PREDICTED BY IDOCK:  -10.10 KCAL/MOL
REMARK 923 INTER-LIGAND FREE ENERGY PREDICTED BY IDOCK:   -9.29 KCAL/MOL
REMARK 924 INTRA-LIGAND FREE ENERGY PREDICTED BY IDOCK:   -0.81 KCAL/MOL
REMARK 927      BINDING AFFINITY PREDICTED BY RF-SCORE:    0.00 PKD
ROOT
HETATM    1  O   UNL     1      -9.855   3.808  71.306  1.00  0.00    -0.178 OA 
HETATM    2  H   UNL     1      -9.513   3.376  70.532  1.00  0.00     0.000 HD 
HETATM    3  C   UNL     1     -10.400   5.063  71.290  1.00  0.00    -0.185 A  
HETATM    4  C   UNL     1     -10.902   5.695  72.423  1.00  0.00    -0.248 A  
HETATM    5  C   UNL     1     -11.478   6.963  72.323  1.00  0.00    -0.313 A  
HETATM    6  O   UNL     1     -10.863   5.127  73.665  1.00  0.00    -0.272 OA 
HETATM    7  H   UNL     1     -11.205   5.559  74.439  1.00  0.00     0.000 HD 
HETATM    8  C   UNL     1     -11.567   7.602  71.081  1.00  0.00    -0.301 A  
HETATM    9  C   UNL     1     -10.440   5.709  70.058  1.00  0.00    -0.367 A  
HETATM   10  C   UNL     1     -11.017   6.975  69.951  1.00  0.00    -0.296 A  
ENDROOT
BRANCH   8  11
HETATM   11  C   UNL     1     -12.230   8.951  70.953  1.00  0.00    -0.177 C  
BRANCH  11  12
HETATM   12  C   UNL     1     -12.443   9.607  72.318  1.00  0.00    -0.174 C  
BRANCH  12  13
HETATM   13  N   UNL     1     -13.538  10.582  72.259  1.00  0.00    -0.506 NA 
HETATM   14  H   UNL     1     -14.079  10.606  73.124  1.00  0.00     0.000 HD 
BRANCH  13  15
HETATM   15  C   UNL     1     -13.007  11.895  71.905  1.00  0.00    -0.329 C  
BRANCH  15  16
HETATM   16  C   UNL     1     -13.968  12.995  72.344  1.00  0.00    -0.426 C  
BRANCH  16  17
HETATM   17  C   UNL     1     -13.186  14.280  72.604  1.00  0.00    -0.601 C  
BRANCH  17  18
HETATM   18  C   UNL     1     -13.662  15.402  71.697  1.00  0.00    -0.606 C  
BRANCH  18  19
HETATM   19  C   UNL     1     -12.750  15.543  70.479  1.00  0.00    -0.436 C  
BRANCH  19  20
HETATM   20  C   UNL     1     -11.368  15.010  70.832  1.00  0.00    -0.265 C  
BRANCH  20  21
HETATM   21  N   UNL     1     -10.702  14.459  69.654  1.00  0.00    -0.439 NA 
HETATM   22  H   UNL     1      -9.979  13.788  69.912  1.00  0.00     0.000 HD 
BRANCH  21  23
HETATM   23  C   UNL     1     -11.674  13.873  68.720  1.00  0.00    -0.357 C  
BRANCH  23  24
HETATM   24  C   UNL     1     -11.625  14.510  67.323  1.00  0.00    -0.405 C  
BRANCH  24  25
HETATM   25  C   UNL     1     -11.458  13.485  66.233  1.00  0.00    -0.350 A  
HETATM   26  C   UNL     1     -12.336  13.478  65.143  1.00  0.00    -0.488 A  
HETATM   27  C   UNL     1     -12.182  12.538  64.122  1.00  0.00    -0.552 A  
HETATM   28  C   UNL     1     -11.155  11.600  64.194  1.00  0.00    -0.435 A  
HETATM   29  C   UNL     1     -10.285  11.595  65.284  1.00  0.00    -0.316 A  
HETATM   30  C   UNL     1     -10.438  12.533  66.303  1.00  0.00    -0.268 A  
ENDBRANCH  24  25
ENDBRANCH  23  24
ENDBRANCH  21  23
ENDBRANCH  20  21
ENDBRANCH  19  20
ENDBRANCH  18  19
ENDBRANCH  17  18
ENDBRANCH  16  17
ENDBRANCH  15  16
ENDBRANCH  13  15
ENDBRANCH  12  13
ENDBRANCH  11  12
ENDBRANCH   8  11
TORSDOF 13
ENDMDL
MODEL      161
REMARK 921   NORMALIZED FREE ENERGY PREDICTED BY IDOCK:   -4.16 KCAL/MOL
REMARK 922        TOTAL FREE ENERGY PREDICTED BY IDOCK:  -10.08 KCAL/MOL
REMARK 923 INTER-LIGAND FREE ENERGY PREDICTED BY IDOCK:   -8.00 KCAL/MOL
REMARK 924 INTRA-LIGAND FREE ENERGY PREDICTED BY IDOCK:   -2.08 KCAL/MOL
REMARK 927      BINDING AFFINITY PREDICTED BY RF-SCORE:    0.00 PKD
ROOT
HETATM    1  O   UNL     1     -14.146   9.030  73.249  1.00  0.00    -1.218 OA 
HETATM    2  H   UNL     1     -14.364   8.168  73.584  1.00  0.00     0.000 HD 
HETATM    3  C   UNL     1     -13.154   9.253  72.333  1.00  0.00    -0.406 A  
HETATM    4  C   UNL     1     -12.835  10.515  71.841  1.00  0.00    -0.403 A  
HETATM    5  C   UNL     1     -11.834  10.660  70.879  1.00  0.00    -0.433 A  
HETATM    6  O   UNL     1     -13.466  11.652  72.258  1.00  0.00    -0.610 OA 
HETATM    7  H   UNL     1     -13.248  12.513  71.923  1.00  0.00     0.000 HD 
HETATM    8  C   UNL     1     -11.153   9.538  70.392  1.00  0.00    -0.330 A  
HETATM    9  C   UNL     1     -12.452   8.136  71.892  1.00  0.00    -0.368 A  
HETATM   10  C   UNL     1     -11.452   8.276  70.927  1.00  0.00    -0.296 A  
ENDROOT
BRANCH   8  11
HETATM   11  C   UNL     1     -10.104   9.679  69.318  1.00  0.00    -0.201 C  
BRANCH  11  12
HETATM   12  C   UNL     1      -9.174   8.465  69.275  1.00  0.00    -0.154 C  
BRANCH  12  13
HETATM   13  N   UNL     1      -7.936   8.787  68.556  1.00  0.00    -0.110 NA 
HETATM   14  H   UNL     1      -8.095   8.915  67.556  1.00  0.00     0.000 HD 
BRANCH  13  15
HETATM   15  C   UNL     1      -7.302   9.951  69.167  1.00  0.00    -0.083 C  
BRANCH  15  16
HETATM   16  C   UNL     1      -6.896  10.960  68.098  1.00  0.00    -0.067 C  
BRANCH  16  17
HETATM   17  C   UNL     1      -7.714  12.238  68.268  1.00  0.00    -0.143 C  
BRANCH  17  18
HETATM   18  C   UNL     1      -8.329  12.673  66.949  1.00  0.00    -0.078 C  
BRANCH  18  19
HETATM   19  C   UNL     1      -9.142  11.539  66.325  1.00  0.00    -0.215 C  
BRANCH  19  20
HETATM   20  C   UNL     1     -10.537  12.054  65.998  1.00  0.00    -0.268 C  
BRANCH  20  21
HETATM   21  N   UNL     1     -11.220  12.520  67.203  1.00  0.00    -0.283 NA 
HETATM   22  H   UNL     1     -10.566  12.665  67.972  1.00  0.00     0.000 HD 
BRANCH  21  23
HETATM   23  C   UNL     1     -12.011  13.729  66.931  1.00  0.00    -0.421 C  
BRANCH  23  24
HETATM   24  C   UNL     1     -11.746  14.860  67.937  1.00  0.00    -0.344 C  
BRANCH  24  25
HETATM   25  C   UNL     1     -10.399  15.500  67.736  1.00  0.00    -0.263 A  
HETATM   26  C   UNL     1      -9.937  15.761  66.440  1.00  0.00    -0.294 A  
HETATM   27  C   UNL     1      -8.694  16.364  66.245  1.00  0.00    -0.369 A  
HETATM   28  C   UNL     1      -7.908  16.701  67.344  1.00  0.00    -0.188 A  
HETATM   29  C   UNL     1      -8.358  16.433  68.637  1.00  0.00    -0.221 A  
HETATM   30  C   UNL     1      -9.599  15.831  68.833  1.00  0.00    -0.229 A  
ENDBRANCH  24  25
ENDBRANCH  23  24
ENDBRANCH  21  23
ENDBRANCH  20  21
ENDBRANCH  19  20
ENDBRANCH  18  19
ENDBRANCH  17  18
ENDBRANCH  16  17
ENDBRANCH  15  16
ENDBRANCH  13  15
ENDBRANCH  12  13
ENDBRANCH  11  12
ENDBRANCH   8  11
TORSDOF 13
ENDMDL
MODEL      162
REMARK 921   NORMALIZED FREE ENERGY PREDICTED BY IDOCK:   -4.15 KCAL/MOL
REMARK 922        TOTAL FREE ENERGY PREDICTED BY IDOCK:  -10.06 KCAL/MOL
REMARK 923 INTER-LIGAND FREE ENERGY PREDICTED BY IDOCK:   -8.80 KCAL/MOL
REMARK 924 INTRA-LIGAND FREE ENERGY PREDICTED BY IDOCK:   -1.26 KCAL/MOL
REMARK 927      BINDING AFFINITY PREDICTED BY RF-SCORE:    0.00 PKD
ROOT
HETATM    1  O   UNL     1      -9.130   5.218  71.941  1.00  0.00    -0.136 OA 
HETATM    2  H   UNL     1      -9.146   4.477  71.347  1.00  0.00     0.000 HD 
HETATM    3  C   UNL     1     -10.127   6.154  72.004  1.00  0.00    -0.181 A  
HETATM    4  C   UNL     1     -10.104   7.240  72.874  1.00  0.00    -0.227 A  
HETATM    5  C   UNL     1     -11.175   8.135  72.908  1.00  0.00    -0.312 A  
HETATM    6  O   UNL     1      -9.062   7.486  73.721  1.00  0.00    -0.218 OA 
HETATM    7  H   UNL     1      -9.045   8.228  74.315  1.00  0.00     0.000 HD 
HETATM    8  C   UNL     1     -12.286   7.939  72.079  1.00  0.00    -0.357 A  
HETATM    9  C   UNL     1     -11.203   5.977  71.141  1.00  0.00    -0.328 A  
HETATM   10  C   UNL     1     -12.279   6.866  71.174  1.00  0.00    -0.428 A  
ENDROOT
BRANCH   8  11
HETATM   11  C   UNL     1     -13.470   8.872  72.142  1.00  0.00    -0.497 C  
BRANCH  11  12
HETATM   12  C   UNL     1     -13.100  10.284  71.686  1.00  0.00    -0.449 C  
BRANCH  12  13
HETATM   13  N   UNL     1     -13.007  10.347  70.223  1.00  0.00    -0.513 NA 
HETATM   14  H   UNL     1     -13.926  10.386  69.780  1.00  0.00     0.000 HD 
BRANCH  13  15
HETATM   15  C   UNL     1     -12.161  11.471  69.833  1.00  0.00    -0.316 C  
BRANCH  15  16
HETATM   16  C   UNL     1     -11.070  11.010  68.872  1.00  0.00    -0.295 C  
BRANCH  16  17
HETATM   17  C   UNL     1     -10.337  12.227  68.313  1.00  0.00    -0.227 C  
BRANCH  17  18
HETATM   18  C   UNL     1     -11.204  13.471  68.393  1.00  0.00    -0.309 C  
BRANCH  18  19
HETATM   19  C   UNL     1     -11.571  13.972  66.997  1.00  0.00    -0.394 C  
BRANCH  19  20
HETATM   20  C   UNL     1     -10.314  14.492  66.313  1.00  0.00    -0.294 C  
BRANCH  20  21
HETATM   21  N   UNL     1     -10.219  13.994  64.943  1.00  0.00    -0.552 NA 
HETATM   22  H   UNL     1      -9.377  13.436  64.804  1.00  0.00     0.000 HD 
BRANCH  21  23
HETATM   23  C   UNL     1     -11.429  13.251  64.562  1.00  0.00    -0.365 C  
BRANCH  23  24
HETATM   24  C   UNL     1     -11.186  12.247  63.425  1.00  0.00    -0.497 C  
BRANCH  24  25
HETATM   25  C   UNL     1     -10.301  11.106  63.848  1.00  0.00    -0.441 A  
HETATM   26  C   UNL     1      -9.498  10.458  62.902  1.00  0.00    -0.354 A  
HETATM   27  C   UNL     1      -8.666   9.406  63.288  1.00  0.00    -0.220 A  
HETATM   28  C   UNL     1      -8.641   8.995  64.618  1.00  0.00    -0.190 A  
HETATM   29  C   UNL     1      -9.447   9.629  65.563  1.00  0.00    -0.330 A  
HETATM   30  C   UNL     1     -10.278  10.680  65.179  1.00  0.00    -0.368 A  
ENDBRANCH  24  25
ENDBRANCH  23  24
ENDBRANCH  21  23
ENDBRANCH  20  21
ENDBRANCH  19  20
ENDBRANCH  18  19
ENDBRANCH  17  18
ENDBRANCH  16  17
ENDBRANCH  15  16
ENDBRANCH  13  15
ENDBRANCH  12  13
ENDBRANCH  11  12
ENDBRANCH   8  11
TORSDOF 13
ENDMDL
MODEL      163
REMARK 921   NORMALIZED FREE ENERGY PREDICTED BY IDOCK:   -4.14 KCAL/MOL
REMARK 922        TOTAL FREE ENERGY PREDICTED BY IDOCK:  -10.04 KCAL/MOL
REMARK 923 INTER-LIGAND FREE ENERGY PREDICTED BY IDOCK:   -9.09 KCAL/MOL
REMARK 924 INTRA-LIGAND FREE ENERGY PREDICTED BY IDOCK:   -0.95 KCAL/MOL
REMARK 927      BINDING AFFINITY PREDICTED BY RF-SCORE:    0.00 PKD
ROOT
HETATM    1  O   UNL     1     -11.486  16.374  63.695  1.00  0.00    -1.446 OA 
HETATM    2  H   UNL     1     -11.186  17.244  63.927  1.00  0.00     0.000 HD 
HETATM    3  C   UNL     1     -11.481  15.318  64.567  1.00  0.00    -0.315 A  
HETATM    4  C   UNL     1     -11.922  14.043  64.227  1.00  0.00    -0.435 A  
HETATM    5  C   UNL     1     -11.922  13.023  65.182  1.00  0.00    -0.440 A  
HETATM    6  O   UNL     1     -12.367  13.723  62.977  1.00  0.00    -1.089 OA 
HETATM    7  H   UNL     1     -12.667  12.852  62.745  1.00  0.00     0.000 HD 
HETATM    8  C   UNL     1     -11.493  13.280  66.489  1.00  0.00    -0.372 A  
HETATM    9  C   UNL     1     -11.008  15.573  65.850  1.00  0.00    -0.264 A  
HETATM   10  C   UNL     1     -11.010  14.558  66.809  1.00  0.00    -0.316 A  
ENDROOT
BRANCH   8  11
HETATM   11  C   UNL     1     -11.535  12.199  67.541  1.00  0.00    -0.410 C  
BRANCH  11  12
HETATM   12  C   UNL     1     -10.371  12.324  68.525  1.00  0.00    -0.223 C  
BRANCH  12  13
HETATM   13  N   UNL     1      -9.309  11.367  68.194  1.00  0.00    -0.175 NA 
HETATM   14  H   UNL     1      -9.667  10.553  67.693  1.00  0.00     0.000 HD 
BRANCH  13  15
HETATM   15  C   UNL     1      -8.250  12.046  67.453  1.00  0.00    -0.168 C  
BRANCH  15  16
HETATM   16  C   UNL     1      -8.205  11.551  66.011  1.00  0.00     0.089 C  
BRANCH  16  17
HETATM   17  C   UNL     1      -7.485  10.206  65.958  1.00  0.00    -0.118 C  
BRANCH  17  18
HETATM   18  C   UNL     1      -8.460   9.075  65.677  1.00  0.00    -0.163 C  
BRANCH  18  19
HETATM   19  C   UNL     1      -7.836   7.721  66.009  1.00  0.00    -0.100 C  
BRANCH  19  20
HETATM   20  C   UNL     1      -8.785   6.948  66.913  1.00  0.00    -0.118 C  
BRANCH  20  21
HETATM   21  N   UNL     1      -9.928   7.772  67.301  1.00  0.00    -0.189 NA 
HETATM   22  H   UNL     1     -10.668   7.739  66.601  1.00  0.00     0.000 HD 
BRANCH  21  23
HETATM   23  C   UNL     1     -10.425   7.398  68.633  1.00  0.00    -0.189 C  
BRANCH  23  24
HETATM   24  C   UNL     1      -9.942   8.343  69.743  1.00  0.00    -0.191 C  
BRANCH  24  25
HETATM   25  C   UNL     1     -11.078   8.873  70.577  1.00  0.00    -0.288 A  
HETATM   26  C   UNL     1     -11.759   8.018  71.451  1.00  0.00    -0.320 A  
HETATM   27  C   UNL     1     -12.806   8.503  72.235  1.00  0.00    -0.404 A  
HETATM   28  C   UNL     1     -13.178   9.842  72.143  1.00  0.00    -0.511 A  
HETATM   29  C   UNL     1     -12.510  10.696  71.265  1.00  0.00    -0.515 A  
HETATM   30  C   UNL     1     -11.464  10.212  70.481  1.00  0.00    -0.417 A  
ENDBRANCH  24  25
ENDBRANCH  23  24
ENDBRANCH  21  23
ENDBRANCH  20  21
ENDBRANCH  19  20
ENDBRANCH  18  19
ENDBRANCH  17  18
ENDBRANCH  16  17
ENDBRANCH  15  16
ENDBRANCH  13  15
ENDBRANCH  12  13
ENDBRANCH  11  12
ENDBRANCH   8  11
TORSDOF 13
ENDMDL
MODEL      164
REMARK 921   NORMALIZED FREE ENERGY PREDICTED BY IDOCK:   -4.14 KCAL/MOL
REMARK 922        TOTAL FREE ENERGY PREDICTED BY IDOCK:  -10.03 KCAL/MOL
REMARK 923 INTER-LIGAND FREE ENERGY PREDICTED BY IDOCK:   -8.58 KCAL/MOL
REMARK 924 INTRA-LIGAND FREE ENERGY PREDICTED BY IDOCK:   -1.46 KCAL/MOL
REMARK 927      BINDING AFFINITY PREDICTED BY RF-SCORE:    0.00 PKD
ROOT
HETATM    1  O   UNL     1     -13.202  15.966  72.954  1.00  0.00    -0.483 OA 
HETATM    2  H   UNL     1     -13.054  16.887  73.134  1.00  0.00     0.000 HD 
HETATM    3  C   UNL     1     -12.713  15.327  71.846  1.00  0.00    -0.361 A  
HETATM    4  C   UNL     1     -12.929  13.978  71.582  1.00  0.00    -0.352 A  
HETATM    5  C   UNL     1     -12.366  13.386  70.450  1.00  0.00    -0.382 A  
HETATM    6  O   UNL     1     -13.681  13.177  72.393  1.00  0.00    -0.581 OA 
HETATM    7  H   UNL     1     -13.829  12.256  72.213  1.00  0.00     0.000 HD 
HETATM    8  C   UNL     1     -11.571  14.140  69.580  1.00  0.00    -0.349 A  
HETATM    9  C   UNL     1     -11.964  16.098  70.963  1.00  0.00    -0.309 A  
HETATM   10  C   UNL     1     -11.397  15.510  69.831  1.00  0.00    -0.323 A  
ENDROOT
BRANCH   8  11
HETATM   11  C   UNL     1     -10.919  13.499  68.379  1.00  0.00    -0.289 C  
BRANCH  11  12
HETATM   12  C   UNL     1     -10.431  12.084  68.692  1.00  0.00    -0.218 C  
BRANCH  12  13
HETATM   13  N   UNL     1      -8.980  11.981  68.491  1.00  0.00    -0.327 NA 
HETATM   14  H   UNL     1      -8.460  12.157  69.351  1.00  0.00     0.000 HD 
BRANCH  13  15
HETATM   15  C   UNL     1      -8.657  10.681  67.909  1.00  0.00    -0.124 C  
BRANCH  15  16
HETATM   16  C   UNL     1      -8.793  10.729  66.391  1.00  0.00    -0.174 C  
BRANCH  16  17
HETATM   17  C   UNL     1      -9.895   9.770  65.949  1.00  0.00    -0.352 C  
BRANCH  17  18
HETATM   18  C   UNL     1     -10.315   8.858  67.090  1.00  0.00    -0.351 C  
BRANCH  18  19
HETATM   19  C   UNL     1      -9.954   7.404  66.788  1.00  0.00    -0.300 C  
BRANCH  19  20
HETATM   20  C   UNL     1     -10.642   6.504  67.805  1.00  0.00    -0.259 C  
BRANCH  20  21
HETATM   21  N   UNL     1      -9.724   6.126  68.877  1.00  0.00    -0.128 NA 
HETATM   22  H   UNL     1      -8.786   6.489  68.712  1.00  0.00     0.000 HD 
BRANCH  21  23
HETATM   23  C   UNL     1     -10.242   6.540  70.189  1.00  0.00    -0.192 C  
BRANCH  23  24
HETATM   24  C   UNL     1     -11.766   6.391  70.309  1.00  0.00    -0.389 C  
BRANCH  24  25
HETATM   25  C   UNL     1     -12.395   7.535  71.058  1.00  0.00    -0.265 A  
HETATM   26  C   UNL     1     -11.685   8.729  71.230  1.00  0.00    -0.356 A  
HETATM   27  C   UNL     1     -12.265   9.799  71.914  1.00  0.00    -0.378 A  
HETATM   28  C   UNL     1     -13.551   9.674  72.433  1.00  0.00    -0.397 A  
HETATM   29  C   UNL     1     -14.258   8.483  72.274  1.00  0.00    -0.471 A  
HETATM   30  C   UNL     1     -13.681   7.414  71.591  1.00  0.00    -0.468 A  
ENDBRANCH  24  25
ENDBRANCH  23  24
ENDBRANCH  21  23
ENDBRANCH  20  21
ENDBRANCH  19  20
ENDBRANCH  18  19
ENDBRANCH  17  18
ENDBRANCH  16  17
ENDBRANCH  15  16
ENDBRANCH  13  15
ENDBRANCH  12  13
ENDBRANCH  11  12
ENDBRANCH   8  11
TORSDOF 13
ENDMDL
MODEL      165
REMARK 921   NORMALIZED FREE ENERGY PREDICTED BY IDOCK:   -4.13 KCAL/MOL
REMARK 922        TOTAL FREE ENERGY PREDICTED BY IDOCK:  -10.03 KCAL/MOL
REMARK 923 INTER-LIGAND FREE ENERGY PREDICTED BY IDOCK:   -7.34 KCAL/MOL
REMARK 924 INTRA-LIGAND FREE ENERGY PREDICTED BY IDOCK:   -2.69 KCAL/MOL
REMARK 927      BINDING AFFINITY PREDICTED BY RF-SCORE:    0.00 PKD
ROOT
HETATM    1  O   UNL     1      -7.385  19.155  68.320  1.00  0.00    -0.266 OA 
HETATM    2  H   UNL     1      -7.576  19.963  68.783  1.00  0.00     0.000 HD 
HETATM    3  C   UNL     1      -8.284  18.527  67.501  1.00  0.00    -0.252 A  
HETATM    4  C   UNL     1      -8.005  17.345  66.822  1.00  0.00    -0.244 A  
HETATM    5  C   UNL     1      -8.960  16.781  65.973  1.00  0.00    -0.220 A  
HETATM    6  O   UNL     1      -6.815  16.687  66.942  1.00  0.00    -0.185 OA 
HETATM    7  H   UNL     1      -6.624  15.879  66.479  1.00  0.00     0.000 HD 
HETATM    8  C   UNL     1     -10.198  17.407  65.788  1.00  0.00    -0.204 A  
HETATM    9  C   UNL     1      -9.529  19.132  67.362  1.00  0.00    -0.362 A  
HETATM   10  C   UNL     1     -10.486  18.574  66.512  1.00  0.00    -0.435 A  
ENDROOT
BRANCH   8  11
HETATM   11  C   UNL     1     -11.218  16.832  64.837  1.00  0.00     0.019 C  
BRANCH  11  12
HETATM   12  C   UNL     1     -11.202  15.303  64.848  1.00  0.00    -0.415 C  
BRANCH  12  13
HETATM   13  N   UNL     1     -12.329  14.768  64.075  1.00  0.00    -1.010 NA 
HETATM   14  H   UNL     1     -12.647  15.420  63.358  1.00  0.00     0.000 HD 
BRANCH  13  15
HETATM   15  C   UNL     1     -11.968  13.468  63.516  1.00  0.00    -0.332 C  
BRANCH  15  16
HETATM   16  C   UNL     1     -10.954  12.765  64.413  1.00  0.00    -0.393 C  
BRANCH  16  17
HETATM   17  C   UNL     1     -11.661  11.688  65.232  1.00  0.00    -0.105 C  
BRANCH  17  18
HETATM   18  C   UNL     1     -10.690  10.599  65.656  1.00  0.00    -0.104 C  
BRANCH  18  19
HETATM   19  C   UNL     1      -9.377  10.707  64.882  1.00  0.00    -0.271 C  
BRANCH  19  20
HETATM   20  C   UNL     1      -8.226  10.809  65.874  1.00  0.00    -0.155 C  
BRANCH  20  21
HETATM   21  N   UNL     1      -8.011  12.194  66.285  1.00  0.00    -0.308 NA 
HETATM   22  H   UNL     1      -8.513  12.847  65.684  1.00  0.00     0.000 HD 
BRANCH  21  23
HETATM   23  C   UNL     1      -8.357  12.388  67.701  1.00  0.00    -0.169 C  
BRANCH  23  24
HETATM   24  C   UNL     1      -8.141  13.830  68.182  1.00  0.00    -0.155 C  
BRANCH  24  25
HETATM   25  C   UNL     1      -9.424  14.488  68.614  1.00  0.00    -0.205 A  
HETATM   26  C   UNL     1     -10.646  14.028  68.110  1.00  0.00    -0.252 A  
HETATM   27  C   UNL     1     -11.842  14.624  68.513  1.00  0.00    -0.346 A  
HETATM   28  C   UNL     1     -11.817  15.685  69.415  1.00  0.00    -0.391 A  
HETATM   29  C   UNL     1     -10.601  16.155  69.912  1.00  0.00    -0.302 A  
HETATM   30  C   UNL     1      -9.407  15.560  69.510  1.00  0.00    -0.276 A  
ENDBRANCH  24  25
ENDBRANCH  23  24
ENDBRANCH  21  23
ENDBRANCH  20  21
ENDBRANCH  19  20
ENDBRANCH  18  19
ENDBRANCH  17  18
ENDBRANCH  16  17
ENDBRANCH  15  16
ENDBRANCH  13  15
ENDBRANCH  12  13
ENDBRANCH  11  12
ENDBRANCH   8  11
TORSDOF 13
ENDMDL
MODEL      166
REMARK 921   NORMALIZED FREE ENERGY PREDICTED BY IDOCK:   -4.13 KCAL/MOL
REMARK 922        TOTAL FREE ENERGY PREDICTED BY IDOCK:  -10.02 KCAL/MOL
REMARK 923 INTER-LIGAND FREE ENERGY PREDICTED BY IDOCK:   -8.48 KCAL/MOL
REMARK 924 INTRA-LIGAND FREE ENERGY PREDICTED BY IDOCK:   -1.54 KCAL/MOL
REMARK 927      BINDING AFFINITY PREDICTED BY RF-SCORE:    0.00 PKD
ROOT
HETATM    1  O   UNL     1     -14.188   8.883  73.412  1.00  0.00    -1.241 OA 
HETATM    2  H   UNL     1     -14.324   8.019  73.783  1.00  0.00     0.000 HD 
HETATM    3  C   UNL     1     -13.135   9.194  72.595  1.00  0.00    -0.276 A  
HETATM    4  C   UNL     1     -12.935  10.459  72.050  1.00  0.00    -0.396 A  
HETATM    5  C   UNL     1     -11.857  10.692  71.193  1.00  0.00    -0.339 A  
HETATM    6  O   UNL     1     -13.758  11.516  72.315  1.00  0.00    -0.442 OA 
HETATM    7  H   UNL     1     -13.622  12.380  71.944  1.00  0.00     0.000 HD 
HETATM    8  C   UNL     1     -10.980   9.653  70.864  1.00  0.00    -0.412 A  
HETATM    9  C   UNL     1     -12.241   8.166  72.312  1.00  0.00    -0.397 A  
HETATM   10  C   UNL     1     -11.165   8.392  71.453  1.00  0.00    -0.316 A  
ENDROOT
BRANCH   8  11
HETATM   11  C   UNL     1      -9.841   9.881  69.900  1.00  0.00    -0.285 C  
BRANCH  11  12
HETATM   12  C   UNL     1      -8.870   8.699  69.886  1.00  0.00    -0.144 C  
BRANCH  12  13
HETATM   13  N   UNL     1      -7.531   9.136  69.471  1.00  0.00    -0.074 NA 
HETATM   14  H   UNL     1      -7.331   8.895  68.500  1.00  0.00     0.000 HD 
BRANCH  13  15
HETATM   15  C   UNL     1      -7.380  10.566  69.726  1.00  0.00    -0.134 C  
BRANCH  15  16
HETATM   16  C   UNL     1      -6.387  11.181  68.747  1.00  0.00    -0.046 C  
BRANCH  16  17
HETATM   17  C   UNL     1      -7.043  11.319  67.376  1.00  0.00    -0.109 C  
BRANCH  17  18
HETATM   18  C   UNL     1      -8.301  12.168  67.455  1.00  0.00    -0.166 C  
BRANCH  18  19
HETATM   19  C   UNL     1      -7.967  13.598  67.876  1.00  0.00    -0.161 C  
BRANCH  19  20
HETATM   20  C   UNL     1      -8.571  14.563  66.865  1.00  0.00    -0.179 C  
BRANCH  20  21
HETATM   21  N   UNL     1      -9.332  13.846  65.845  1.00  0.00    -0.508 NA 
HETATM   22  H   UNL     1      -9.670  12.948  66.191  1.00  0.00     0.000 HD 
BRANCH  21  23
HETATM   23  C   UNL     1     -10.429  14.672  65.322  1.00  0.00    -0.398 C  
BRANCH  23  24
HETATM   24  C   UNL     1     -11.802  14.278  65.888  1.00  0.00    -0.386 C  
BRANCH  24  25
HETATM   25  C   UNL     1     -11.834  14.320  67.392  1.00  0.00    -0.441 A  
HETATM   26  C   UNL     1     -11.820  13.126  68.123  1.00  0.00    -0.386 A  
HETATM   27  C   UNL     1     -11.838  13.155  69.518  1.00  0.00    -0.383 A  
HETATM   28  C   UNL     1     -11.877  14.378  70.184  1.00  0.00    -0.380 A  
HETATM   29  C   UNL     1     -11.903  15.570  69.461  1.00  0.00    -0.390 A  
HETATM   30  C   UNL     1     -11.885  15.541  68.068  1.00  0.00    -0.088 A  
ENDBRANCH  24  25
ENDBRANCH  23  24
ENDBRANCH  21  23
ENDBRANCH  20  21
ENDBRANCH  19  20
ENDBRANCH  18  19
ENDBRANCH  17  18
ENDBRANCH  16  17
ENDBRANCH  15  16
ENDBRANCH  13  15
ENDBRANCH  12  13
ENDBRANCH  11  12
ENDBRANCH   8  11
TORSDOF 13
ENDMDL
MODEL      167
REMARK 921   NORMALIZED FREE ENERGY PREDICTED BY IDOCK:   -4.13 KCAL/MOL
REMARK 922        TOTAL FREE ENERGY PREDICTED BY IDOCK:  -10.01 KCAL/MOL
REMARK 923 INTER-LIGAND FREE ENERGY PREDICTED BY IDOCK:   -8.06 KCAL/MOL
REMARK 924 INTRA-LIGAND FREE ENERGY PREDICTED BY IDOCK:   -1.96 KCAL/MOL
REMARK 927      BINDING AFFINITY PREDICTED BY RF-SCORE:    0.00 PKD
ROOT
HETATM    1  O   UNL     1     -11.782  11.629  65.153  1.00  0.00    -0.155 OA 
HETATM    2  H   UNL     1     -12.380  11.027  65.580  1.00  0.00     0.000 HD 
HETATM    3  C   UNL     1     -11.494  12.875  65.639  1.00  0.00    -0.332 A  
HETATM    4  C   UNL     1     -10.617  13.757  65.014  1.00  0.00    -0.389 A  
HETATM    5  C   UNL     1     -10.343  15.000  65.590  1.00  0.00    -0.374 A  
HETATM    6  O   UNL     1      -9.990  13.466  63.837  1.00  0.00    -0.715 OA 
HETATM    7  H   UNL     1      -9.392  14.068  63.410  1.00  0.00     0.000 HD 
HETATM    8  C   UNL     1     -10.937  15.363  66.804  1.00  0.00    -0.282 A  
HETATM    9  C   UNL     1     -12.127  13.244  66.821  1.00  0.00    -0.403 A  
HETATM   10  C   UNL     1     -11.854  14.484  67.403  1.00  0.00    -0.416 A  
ENDROOT
BRANCH   8  11
HETATM   11  C   UNL     1     -10.611  16.682  67.459  1.00  0.00    -0.311 C  
BRANCH  11  12
HETATM   12  C   UNL     1      -9.353  17.313  66.859  1.00  0.00    -0.255 C  
BRANCH  12  13
HETATM   13  N   UNL     1      -8.558  17.972  67.902  1.00  0.00    -0.252 NA 
HETATM   14  H   UNL     1      -9.123  18.232  68.710  1.00  0.00     0.000 HD 
BRANCH  13  15
HETATM   15  C   UNL     1      -7.429  17.121  68.269  1.00  0.00    -0.217 C  
BRANCH  15  16
HETATM   16  C   UNL     1      -7.023  16.237  67.095  1.00  0.00    -0.243 C  
BRANCH  16  17
HETATM   17  C   UNL     1      -6.553  14.882  67.618  1.00  0.00    -0.189 C  
BRANCH  17  18
HETATM   18  C   UNL     1      -7.718  14.074  68.164  1.00  0.00    -0.143 C  
BRANCH  18  19
HETATM   19  C   UNL     1      -7.878  12.761  67.398  1.00  0.00    -0.172 C  
BRANCH  19  20
HETATM   20  C   UNL     1      -7.672  11.600  68.360  1.00  0.00    -0.130 C  
BRANCH  20  21
HETATM   21  N   UNL     1      -8.814  11.455  69.260  1.00  0.00    -0.355 NA 
HETATM   22  H   UNL     1      -9.140  12.359  69.600  1.00  0.00     0.000 HD 
BRANCH  21  23
HETATM   23  C   UNL     1      -9.898  10.694  68.623  1.00  0.00    -0.179 C  
BRANCH  23  24
HETATM   24  C   UNL     1     -11.262  10.912  69.296  1.00  0.00    -0.327 C  
BRANCH  24  25
HETATM   25  C   UNL     1     -11.510   9.936  70.415  1.00  0.00    -0.372 A  
HETATM   26  C   UNL     1     -10.770   8.750  70.482  1.00  0.00    -0.259 A  
HETATM   27  C   UNL     1     -10.986   7.844  71.522  1.00  0.00    -0.269 A  
HETATM   28  C   UNL     1     -11.947   8.120  72.492  1.00  0.00    -0.410 A  
HETATM   29  C   UNL     1     -12.696   9.294  72.423  1.00  0.00    -0.383 A  
HETATM   30  C   UNL     1     -12.481  10.199  71.385  1.00  0.00    -0.524 A  
ENDBRANCH  24  25
ENDBRANCH  23  24
ENDBRANCH  21  23
ENDBRANCH  20  21
ENDBRANCH  19  20
ENDBRANCH  18  19
ENDBRANCH  17  18
ENDBRANCH  16  17
ENDBRANCH  15  16
ENDBRANCH  13  15
ENDBRANCH  12  13
ENDBRANCH  11  12
ENDBRANCH   8  11
TORSDOF 13
ENDMDL
MODEL      168
REMARK 921   NORMALIZED FREE ENERGY PREDICTED BY IDOCK:   -4.10 KCAL/MOL
REMARK 922        TOTAL FREE ENERGY PREDICTED BY IDOCK:   -9.98 KCAL/MOL
REMARK 923 INTER-LIGAND FREE ENERGY PREDICTED BY IDOCK:   -8.67 KCAL/MOL
REMARK 924 INTRA-LIGAND FREE ENERGY PREDICTED BY IDOCK:   -1.31 KCAL/MOL
REMARK 927      BINDING AFFINITY PREDICTED BY RF-SCORE:    0.00 PKD
ROOT
HETATM    1  O   UNL     1     -11.298  13.716  70.236  1.00  0.00    -0.498 OA 
HETATM    2  H   UNL     1     -11.362  14.616  70.533  1.00  0.00     0.000 HD 
HETATM    3  C   UNL     1     -11.539  13.330  68.945  1.00  0.00    -0.314 A  
HETATM    4  C   UNL     1     -11.444  12.011  68.510  1.00  0.00    -0.293 A  
HETATM    5  C   UNL     1     -11.668  11.698  67.168  1.00  0.00    -0.215 A  
HETATM    6  O   UNL     1     -11.134  10.977  69.346  1.00  0.00    -0.228 OA 
HETATM    7  H   UNL     1     -11.069  10.077  69.049  1.00  0.00     0.000 HD 
HETATM    8  C   UNL     1     -11.976  12.707  66.248  1.00  0.00    -0.439 A  
HETATM    9  C   UNL     1     -11.891  14.334  68.050  1.00  0.00    -0.379 A  
HETATM   10  C   UNL     1     -12.113  14.027  66.706  1.00  0.00    -0.480 A  
ENDROOT
BRANCH   8  11
HETATM   11  C   UNL     1     -12.172  12.386  64.787  1.00  0.00    -0.493 C  
BRANCH  11  12
HETATM   12  C   UNL     1     -10.895  12.628  63.980  1.00  0.00    -0.415 C  
BRANCH  12  13
HETATM   13  N   UNL     1     -10.693  11.555  62.999  1.00  0.00    -0.722 NA 
HETATM   14  H   UNL     1     -10.837  11.878  62.042  1.00  0.00     0.000 HD 
BRANCH  13  15
HETATM   15  C   UNL     1      -9.372  10.961  63.186  1.00  0.00    -0.324 C  
BRANCH  15  16
HETATM   16  C   UNL     1      -9.261  10.335  64.572  1.00  0.00    -0.295 C  
BRANCH  16  17
HETATM   17  C   UNL     1      -8.561   8.983  64.465  1.00  0.00    -0.181 C  
BRANCH  17  18
HETATM   18  C   UNL     1      -8.567   8.257  65.800  1.00  0.00    -0.182 C  
BRANCH  18  19
HETATM   19  C   UNL     1      -8.960   9.203  66.934  1.00  0.00    -0.143 C  
BRANCH  19  20
HETATM   20  C   UNL     1      -9.700   8.412  68.003  1.00  0.00    -0.158 C  
BRANCH  20  21
HETATM   21  N   UNL     1     -10.813   7.663  67.425  1.00  0.00    -0.528 NA 
HETATM   22  H   UNL     1     -10.795   7.690  66.406  1.00  0.00     0.000 HD 
BRANCH  21  23
HETATM   23  C   UNL     1     -10.841   6.282  67.928  1.00  0.00    -0.333 C  
BRANCH  23  24
HETATM   24  C   UNL     1      -9.786   6.014  69.012  1.00  0.00    -0.182 C  
BRANCH  24  25
HETATM   25  C   UNL     1     -10.405   5.722  70.353  1.00  0.00    -0.310 A  
HETATM   26  C   UNL     1      -9.969   4.619  71.096  1.00  0.00    -0.265 A  
HETATM   27  C   UNL     1     -10.529   4.347  72.345  1.00  0.00    -0.219 A  
HETATM   28  C   UNL     1     -11.530   5.174  72.850  1.00  0.00    -0.329 A  
HETATM   29  C   UNL     1     -11.977   6.267  72.108  1.00  0.00    -0.338 A  
HETATM   30  C   UNL     1     -11.418   6.539  70.861  1.00  0.00    -0.408 A  
ENDBRANCH  24  25
ENDBRANCH  23  24
ENDBRANCH  21  23
ENDBRANCH  20  21
ENDBRANCH  19  20
ENDBRANCH  18  19
ENDBRANCH  17  18
ENDBRANCH  16  17
ENDBRANCH  15  16
ENDBRANCH  13  15
ENDBRANCH  12  13
ENDBRANCH  11  12
ENDBRANCH   8  11
TORSDOF 13
ENDMDL
MODEL      169
REMARK 921   NORMALIZED FREE ENERGY PREDICTED BY IDOCK:   -4.10 KCAL/MOL
REMARK 922        TOTAL FREE ENERGY PREDICTED BY IDOCK:   -9.97 KCAL/MOL
REMARK 923 INTER-LIGAND FREE ENERGY PREDICTED BY IDOCK:   -7.99 KCAL/MOL
REMARK 924 INTRA-LIGAND FREE ENERGY PREDICTED BY IDOCK:   -1.98 KCAL/MOL
REMARK 927      BINDING AFFINITY PREDICTED BY RF-SCORE:    0.00 PKD
ROOT
HETATM    1  O   UNL     1     -13.539  11.780  72.237  1.00  0.00    -0.543 OA 
HETATM    2  H   UNL     1     -14.255  11.884  72.853  1.00  0.00     0.000 HD 
HETATM    3  C   UNL     1     -13.042  10.562  71.859  1.00  0.00    -0.462 A  
HETATM    4  C   UNL     1     -11.994  10.410  70.956  1.00  0.00    -0.382 A  
HETATM    5  C   UNL     1     -11.564   9.133  70.588  1.00  0.00    -0.282 A  
HETATM    6  O   UNL     1     -11.344  11.470  70.392  1.00  0.00    -0.481 OA 
HETATM    7  H   UNL     1     -10.628  11.367  69.776  1.00  0.00     0.000 HD 
HETATM    8  C   UNL     1     -12.193   7.998  71.114  1.00  0.00    -0.262 A  
HETATM    9  C   UNL     1     -13.642   9.442  72.424  1.00  0.00    -0.498 A  
HETATM   10  C   UNL     1     -13.219   8.163  72.057  1.00  0.00    -0.306 A  
ENDROOT
BRANCH   8  11
HETATM   11  C   UNL     1     -11.769   6.614  70.686  1.00  0.00    -0.452 C  
BRANCH  11  12
HETATM   12  C   UNL     1     -10.609   6.092  71.536  1.00  0.00    -0.239 C  
BRANCH  12  13
HETATM   13  N   UNL     1      -9.417   5.877  70.708  1.00  0.00    -0.163 NA 
HETATM   14  H   UNL     1      -8.870   5.075  71.023  1.00  0.00     0.000 HD 
BRANCH  13  15
HETATM   15  C   UNL     1      -9.809   5.759  69.306  1.00  0.00    -0.170 C  
BRANCH  15  16
HETATM   16  C   UNL     1      -8.887   6.593  68.423  1.00  0.00    -0.121 C  
BRANCH  16  17
HETATM   17  C   UNL     1      -8.158   7.624  69.280  1.00  0.00    -0.128 C  
BRANCH  17  18
HETATM   18  C   UNL     1      -8.372   9.029  68.744  1.00  0.00    -0.122 C  
BRANCH  18  19
HETATM   19  C   UNL     1      -9.313   9.017  67.540  1.00  0.00    -0.159 C  
BRANCH  19  20
HETATM   20  C   UNL     1      -9.918  10.405  67.373  1.00  0.00    -0.187 C  
BRANCH  20  21
HETATM   21  N   UNL     1      -9.353  11.343  68.339  1.00  0.00    -0.189 NA 
HETATM   22  H   UNL     1      -8.588  10.923  68.867  1.00  0.00     0.000 HD 
BRANCH  21  23
HETATM   23  C   UNL     1      -8.936  12.592  67.685  1.00  0.00    -0.186 C  
BRANCH  23  24
HETATM   24  C   UNL     1      -9.899  13.760  67.950  1.00  0.00    -0.232 C  
BRANCH  24  25
HETATM   25  C   UNL     1     -10.761  14.072  66.756  1.00  0.00    -0.285 A  
HETATM   26  C   UNL     1     -10.339  15.025  65.822  1.00  0.00    -0.354 A  
HETATM   27  C   UNL     1     -11.128  15.312  64.706  1.00  0.00    -0.407 A  
HETATM   28  C   UNL     1     -12.341  14.652  64.527  1.00  0.00    -0.416 A  
HETATM   29  C   UNL     1     -12.771  13.710  65.460  1.00  0.00    -0.514 A  
HETATM   30  C   UNL     1     -11.985  13.422  66.575  1.00  0.00    -0.452 A  
ENDBRANCH  24  25
ENDBRANCH  23  24
ENDBRANCH  21  23
ENDBRANCH  20  21
ENDBRANCH  19  20
ENDBRANCH  18  19
ENDBRANCH  17  18
ENDBRANCH  16  17
ENDBRANCH  15  16
ENDBRANCH  13  15
ENDBRANCH  12  13
ENDBRANCH  11  12
ENDBRANCH   8  11
TORSDOF 13
ENDMDL
MODEL      170
REMARK 921   NORMALIZED FREE ENERGY PREDICTED BY IDOCK:   -4.09 KCAL/MOL
REMARK 922        TOTAL FREE ENERGY PREDICTED BY IDOCK:   -9.95 KCAL/MOL
REMARK 923 INTER-LIGAND FREE ENERGY PREDICTED BY IDOCK:   -7.70 KCAL/MOL
REMARK 924 INTRA-LIGAND FREE ENERGY PREDICTED BY IDOCK:   -2.25 KCAL/MOL
REMARK 927      BINDING AFFINITY PREDICTED BY RF-SCORE:    0.00 PKD
ROOT
HETATM    1  O   UNL     1     -12.779  14.121  63.224  1.00  0.00    -0.952 OA 
HETATM    2  H   UNL     1     -13.323  13.393  62.949  1.00  0.00     0.000 HD 
HETATM    3  C   UNL     1     -12.164  14.182  64.445  1.00  0.00    -0.439 A  
HETATM    4  C   UNL     1     -11.367  15.249  64.849  1.00  0.00    -0.384 A  
HETATM    5  C   UNL     1     -10.740  15.224  66.097  1.00  0.00    -0.322 A  
HETATM    6  O   UNL     1     -11.155  16.350  64.069  1.00  0.00    -1.236 OA 
HETATM    7  H   UNL     1     -10.611  17.078  64.345  1.00  0.00     0.000 HD 
HETATM    8  C   UNL     1     -10.899  14.122  66.945  1.00  0.00    -0.296 A  
HETATM    9  C   UNL     1     -12.367  13.103  65.299  1.00  0.00    -0.532 A  
HETATM   10  C   UNL     1     -11.741  13.072  66.547  1.00  0.00    -0.437 A  
ENDROOT
BRANCH   8  11
HETATM   11  C   UNL     1     -10.188  14.063  68.274  1.00  0.00    -0.249 C  
BRANCH  11  12
HETATM   12  C   UNL     1      -8.932  14.936  68.281  1.00  0.00    -0.177 C  
BRANCH  12  13
HETATM   13  N   UNL     1      -7.731  14.112  68.465  1.00  0.00    -0.133 NA 
HETATM   14  H   UNL     1      -7.355  14.187  69.411  1.00  0.00     0.000 HD 
BRANCH  13  15
HETATM   15  C   UNL     1      -8.023  12.729  68.098  1.00  0.00    -0.156 C  
BRANCH  15  16
HETATM   16  C   UNL     1      -7.165  11.768  68.913  1.00  0.00    -0.107 C  
BRANCH  16  17
HETATM   17  C   UNL     1      -7.102  10.417  68.204  1.00  0.00    -0.082 C  
BRANCH  17  18
HETATM   18  C   UNL     1      -6.751   9.305  69.178  1.00  0.00    -0.050 C  
BRANCH  18  19
HETATM   19  C   UNL     1      -6.451   8.004  68.436  1.00  0.00    -0.058 C  
BRANCH  19  20
HETATM   20  C   UNL     1      -6.565   8.252  66.938  1.00  0.00    -0.057 C  
BRANCH  20  21
HETATM   21  N   UNL     1      -7.149   7.099  66.259  1.00  0.00    -0.072 NA 
HETATM   22  H   UNL     1      -6.431   6.450  65.937  1.00  0.00     0.000 HD 
BRANCH  21  23
HETATM   23  C   UNL     1      -8.143   6.429  67.109  1.00  0.00    -0.113 C  
BRANCH  23  24
HETATM   24  C   UNL     1      -9.590   6.812  66.761  1.00  0.00    -0.210 C  
BRANCH  24  25
HETATM   25  C   UNL     1     -10.057   8.025  67.519  1.00  0.00    -0.281 A  
HETATM   26  C   UNL     1     -10.349   7.925  68.885  1.00  0.00    -0.225 A  
HETATM   27  C   UNL     1     -10.772   9.047  69.598  1.00  0.00    -0.228 A  
HETATM   28  C   UNL     1     -10.912  10.270  68.946  1.00  0.00    -0.279 A  
HETATM   29  C   UNL     1     -10.634  10.373  67.584  1.00  0.00    -0.304 A  
HETATM   30  C   UNL     1     -10.211   9.253  66.870  1.00  0.00    -0.327 A  
ENDBRANCH  24  25
ENDBRANCH  23  24
ENDBRANCH  21  23
ENDBRANCH  20  21
ENDBRANCH  19  20
ENDBRANCH  18  19
ENDBRANCH  17  18
ENDBRANCH  16  17
ENDBRANCH  15  16
ENDBRANCH  13  15
ENDBRANCH  12  13
ENDBRANCH  11  12
ENDBRANCH   8  11
TORSDOF 13
ENDMDL
MODEL      171
REMARK 921   NORMALIZED FREE ENERGY PREDICTED BY IDOCK:   -4.09 KCAL/MOL
REMARK 922        TOTAL FREE ENERGY PREDICTED BY IDOCK:   -9.95 KCAL/MOL
REMARK 923 INTER-LIGAND FREE ENERGY PREDICTED BY IDOCK:   -8.18 KCAL/MOL
REMARK 924 INTRA-LIGAND FREE ENERGY PREDICTED BY IDOCK:   -1.77 KCAL/MOL
REMARK 927      BINDING AFFINITY PREDICTED BY RF-SCORE:    0.00 PKD
ROOT
HETATM    1  O   UNL     1      -8.876  10.450  70.022  1.00  0.00    -0.369 OA 
HETATM    2  H   UNL     1      -8.501  11.233  70.407  1.00  0.00     0.000 HD 
HETATM    3  C   UNL     1      -9.174  10.334  68.691  1.00  0.00    -0.159 A  
HETATM    4  C   UNL     1      -9.722   9.186  68.126  1.00  0.00    -0.154 A  
HETATM    5  C   UNL     1      -9.965   9.128  66.752  1.00  0.00    -0.322 A  
HETATM    6  O   UNL     1     -10.044   8.081  68.861  1.00  0.00    -0.190 OA 
HETATM    7  H   UNL     1     -10.419   7.298  68.476  1.00  0.00     0.000 HD 
HETATM    8  C   UNL     1      -9.646  10.216  65.931  1.00  0.00    -0.274 A  
HETATM    9  C   UNL     1      -8.898  11.439  67.892  1.00  0.00    -0.149 A  
HETATM   10  C   UNL     1      -9.135  11.384  66.517  1.00  0.00    -0.193 A  
ENDROOT
BRANCH   8  11
HETATM   11  C   UNL     1      -9.859  10.145  64.439  1.00  0.00    -0.307 C  
BRANCH  11  12
HETATM   12  C   UNL     1     -10.071  11.534  63.834  1.00  0.00    -0.345 C  
BRANCH  12  13
HETATM   13  N   UNL     1     -11.254  11.544  62.964  1.00  0.00    -0.823 NA 
HETATM   14  H   UNL     1     -11.749  10.651  62.978  1.00  0.00     0.000 HD 
BRANCH  13  15
HETATM   15  C   UNL     1     -12.121  12.660  63.328  1.00  0.00    -0.433 C  
BRANCH  15  16
HETATM   16  C   UNL     1     -12.620  12.504  64.761  1.00  0.00    -0.493 C  
BRANCH  16  17
HETATM   17  C   UNL     1     -12.689  13.875  65.428  1.00  0.00    -0.525 C  
BRANCH  17  18
HETATM   18  C   UNL     1     -11.518  14.083  66.373  1.00  0.00    -0.361 C  
BRANCH  18  19
HETATM   19  C   UNL     1     -11.799  13.456  67.737  1.00  0.00    -0.395 C  
BRANCH  19  20
HETATM   20  C   UNL     1     -11.231  14.360  68.822  1.00  0.00    -0.260 C  
BRANCH  20  21
HETATM   21  N   UNL     1     -11.963  15.623  68.889  1.00  0.00    -0.560 NA 
HETATM   22  H   UNL     1     -12.660  15.613  69.632  1.00  0.00     0.000 HD 
BRANCH  21  23
HETATM   23  C   UNL     1     -11.044  16.762  69.023  1.00  0.00    -0.171 C  
BRANCH  23  24
HETATM   24  C   UNL     1     -10.284  17.080  67.726  1.00  0.00    -0.312 C  
BRANCH  24  25
HETATM   25  C   UNL     1      -8.809  17.266  67.958  1.00  0.00    -0.238 A  
HETATM   26  C   UNL     1      -8.332  18.480  68.466  1.00  0.00    -0.359 A  
HETATM   27  C   UNL     1      -6.966  18.658  68.694  1.00  0.00    -0.297 A  
HETATM   28  C   UNL     1      -6.076  17.626  68.409  1.00  0.00    -0.175 A  
HETATM   29  C   UNL     1      -6.545  16.419  67.892  1.00  0.00    -0.148 A  
HETATM   30  C   UNL     1      -7.908  16.240  67.664  1.00  0.00    -0.162 A  
ENDBRANCH  24  25
ENDBRANCH  23  24
ENDBRANCH  21  23
ENDBRANCH  20  21
ENDBRANCH  19  20
ENDBRANCH  18  19
ENDBRANCH  17  18
ENDBRANCH  16  17
ENDBRANCH  15  16
ENDBRANCH  13  15
ENDBRANCH  12  13
ENDBRANCH  11  12
ENDBRANCH   8  11
TORSDOF 13
ENDMDL
MODEL      172
REMARK 921   NORMALIZED FREE ENERGY PREDICTED BY IDOCK:   -4.08 KCAL/MOL
REMARK 922        TOTAL FREE ENERGY PREDICTED BY IDOCK:   -9.93 KCAL/MOL
REMARK 923 INTER-LIGAND FREE ENERGY PREDICTED BY IDOCK:   -6.89 KCAL/MOL
REMARK 924 INTRA-LIGAND FREE ENERGY PREDICTED BY IDOCK:   -3.05 KCAL/MOL
REMARK 927      BINDING AFFINITY PREDICTED BY RF-SCORE:    0.00 PKD
ROOT
HETATM    1  O   UNL     1      -6.514   7.772  69.338  1.00  0.00    -0.034 OA 
HETATM    2  H   UNL     1      -6.444   7.040  68.736  1.00  0.00     0.000 HD 
HETATM    3  C   UNL     1      -6.592   9.076  68.930  1.00  0.00    -0.052 A  
HETATM    4  C   UNL     1      -6.696  10.149  69.811  1.00  0.00    -0.096 A  
HETATM    5  C   UNL     1      -6.809  11.451  69.320  1.00  0.00    -0.119 A  
HETATM    6  O   UNL     1      -6.696   9.994  71.168  1.00  0.00    -0.338 OA 
HETATM    7  H   UNL     1      -6.766  10.726  71.769  1.00  0.00     0.000 HD 
HETATM    8  C   UNL     1      -6.831  11.687  67.941  1.00  0.00    -0.074 A  
HETATM    9  C   UNL     1      -6.565   9.303  67.558  1.00  0.00    -0.064 A  
HETATM   10  C   UNL     1      -6.681  10.603  67.062  1.00  0.00    -0.086 A  
ENDROOT
BRANCH   8  11
HETATM   11  C   UNL     1      -7.002  13.085  67.400  1.00  0.00    -0.123 C  
BRANCH  11  12
HETATM   12  C   UNL     1      -8.478  13.466  67.276  1.00  0.00    -0.200 C  
BRANCH  12  13
HETATM   13  N   UNL     1      -8.908  14.253  68.437  1.00  0.00    -0.184 NA 
HETATM   14  H   UNL     1      -8.266  15.019  68.642  1.00  0.00     0.000 HD 
BRANCH  13  15
HETATM   15  C   UNL     1     -10.276  14.721  68.233  1.00  0.00    -0.227 C  
BRANCH  15  16
HETATM   16  C   UNL     1     -10.751  14.385  66.824  1.00  0.00    -0.292 C  
BRANCH  16  17
HETATM   17  C   UNL     1     -12.226  13.996  66.863  1.00  0.00    -0.415 C  
BRANCH  17  18
HETATM   18  C   UNL     1     -12.756  13.721  65.466  1.00  0.00    -0.530 C  
BRANCH  18  19
HETATM   19  C   UNL     1     -11.619  13.362  64.512  1.00  0.00    -0.405 C  
BRANCH  19  20
HETATM   20  C   UNL     1     -12.104  12.288  63.548  1.00  0.00    -0.553 C  
BRANCH  20  21
HETATM   21  N   UNL     1     -11.015  11.387  63.176  1.00  0.00    -0.820 NA 
HETATM   22  H   UNL     1     -10.609  11.642  62.276  1.00  0.00     0.000 HD 
BRANCH  21  23
HETATM   23  C   UNL     1      -9.995  11.323  64.232  1.00  0.00    -0.297 C  
BRANCH  23  24
HETATM   24  C   UNL     1      -9.684   9.887  64.682  1.00  0.00    -0.265 C  
BRANCH  24  25
HETATM   25  C   UNL     1      -9.990   9.665  66.139  1.00  0.00    -0.346 A  
HETATM   26  C   UNL     1     -10.440  10.731  66.926  1.00  0.00    -0.304 A  
HETATM   27  C   UNL     1     -10.736  10.532  68.276  1.00  0.00    -0.270 A  
HETATM   28  C   UNL     1     -10.577   9.269  68.841  1.00  0.00    -0.222 A  
HETATM   29  C   UNL     1     -10.118   8.207  68.063  1.00  0.00    -0.241 A  
HETATM   30  C   UNL     1      -9.822   8.404  66.716  1.00  0.00    -0.329 A  
ENDBRANCH  24  25
ENDBRANCH  23  24
ENDBRANCH  21  23
ENDBRANCH  20  21
ENDBRANCH  19  20
ENDBRANCH  18  19
ENDBRANCH  17  18
ENDBRANCH  16  17
ENDBRANCH  15  16
ENDBRANCH  13  15
ENDBRANCH  12  13
ENDBRANCH  11  12
ENDBRANCH   8  11
TORSDOF 13
ENDMDL
MODEL      173
REMARK 921   NORMALIZED FREE ENERGY PREDICTED BY IDOCK:   -4.06 KCAL/MOL
REMARK 922        TOTAL FREE ENERGY PREDICTED BY IDOCK:   -9.90 KCAL/MOL
REMARK 923 INTER-LIGAND FREE ENERGY PREDICTED BY IDOCK:   -9.32 KCAL/MOL
REMARK 924 INTRA-LIGAND FREE ENERGY PREDICTED BY IDOCK:   -0.58 KCAL/MOL
REMARK 927      BINDING AFFINITY PREDICTED BY RF-SCORE:    0.00 PKD
ROOT
HETATM    1  O   UNL     1     -10.429  18.599  65.389  1.00  0.00    -0.520 OA 
HETATM    2  H   UNL     1     -10.044  19.322  65.869  1.00  0.00     0.000 HD 
HETATM    3  C   UNL     1     -10.471  17.316  65.865  1.00  0.00    -0.262 A  
HETATM    4  C   UNL     1     -11.036  16.256  65.162  1.00  0.00    -0.274 A  
HETATM    5  C   UNL     1     -11.077  14.981  65.729  1.00  0.00    -0.346 A  
HETATM    6  O   UNL     1     -11.569  16.398  63.913  1.00  0.00    -1.564 OA 
HETATM    7  H   UNL     1     -11.954  15.674  63.433  1.00  0.00     0.000 HD 
HETATM    8  C   UNL     1     -10.564  14.761  67.013  1.00  0.00    -0.290 A  
HETATM    9  C   UNL     1      -9.915  17.100  67.122  1.00  0.00    -0.283 A  
HETATM   10  C   UNL     1      -9.957  15.828  67.695  1.00  0.00    -0.239 A  
ENDROOT
BRANCH   8  11
HETATM   11  C   UNL     1     -10.647  13.398  67.654  1.00  0.00    -0.249 C  
BRANCH  11  12
HETATM   12  C   UNL     1     -11.677  13.369  68.785  1.00  0.00    -0.340 C  
BRANCH  12  13
HETATM   13  N   UNL     1     -11.255  12.445  69.844  1.00  0.00    -0.486 NA 
HETATM   14  H   UNL     1     -10.770  12.925  70.603  1.00  0.00     0.000 HD 
BRANCH  13  15
HETATM   15  C   UNL     1     -12.408  11.687  70.322  1.00  0.00    -0.258 C  
BRANCH  15  16
HETATM   16  C   UNL     1     -11.960  10.555  71.240  1.00  0.00    -0.386 C  
BRANCH  16  17
HETATM   17  C   UNL     1     -10.853   9.755  70.558  1.00  0.00    -0.387 C  
BRANCH  17  18
HETATM   18  C   UNL     1     -10.815   8.327  71.073  1.00  0.00    -0.269 C  
BRANCH  18  19
HETATM   19  C   UNL     1     -11.078   8.281  72.578  1.00  0.00    -0.439 C  
BRANCH  19  20
HETATM   20  C   UNL     1     -10.147   7.256  73.210  1.00  0.00    -0.295 C  
BRANCH  20  21
HETATM   21  N   UNL     1     -10.906   6.190  73.860  1.00  0.00    -0.405 NA 
HETATM   22  H   UNL     1     -11.751   6.548  74.304  1.00  0.00     0.000 HD 
BRANCH  21  23
HETATM   23  C   UNL     1     -11.209   5.103  72.917  1.00  0.00    -0.294 C  
BRANCH  23  24
HETATM   24  C   UNL     1      -9.952   4.386  72.401  1.00  0.00    -0.232 C  
BRANCH  24  25
HETATM   25  C   UNL     1      -9.894   4.344  70.898  1.00  0.00    -0.266 A  
HETATM   26  C   UNL     1     -10.387   5.421  70.151  1.00  0.00    -0.361 A  
HETATM   27  C   UNL     1     -10.327   5.395  68.757  1.00  0.00    -0.240 A  
HETATM   28  C   UNL     1      -9.782   4.290  68.108  1.00  0.00    -0.165 A  
HETATM   29  C   UNL     1      -9.301   3.210  68.846  1.00  0.00    -0.231 A  
HETATM   30  C   UNL     1      -9.360   3.234  70.238  1.00  0.00    -0.242 A  
ENDBRANCH  24  25
ENDBRANCH  23  24
ENDBRANCH  21  23
ENDBRANCH  20  21
ENDBRANCH  19  20
ENDBRANCH  18  19
ENDBRANCH  17  18
ENDBRANCH  16  17
ENDBRANCH  15  16
ENDBRANCH  13  15
ENDBRANCH  12  13
ENDBRANCH  11  12
ENDBRANCH   8  11
TORSDOF 13
ENDMDL
MODEL      174
REMARK 921   NORMALIZED FREE ENERGY PREDICTED BY IDOCK:   -4.06 KCAL/MOL
REMARK 922        TOTAL FREE ENERGY PREDICTED BY IDOCK:   -9.89 KCAL/MOL
REMARK 923 INTER-LIGAND FREE ENERGY PREDICTED BY IDOCK:   -8.90 KCAL/MOL
REMARK 924 INTRA-LIGAND FREE ENERGY PREDICTED BY IDOCK:   -1.00 KCAL/MOL
REMARK 927      BINDING AFFINITY PREDICTED BY RF-SCORE:    0.00 PKD
ROOT
HETATM    1  O   UNL     1     -12.779  13.740  63.091  1.00  0.00    -0.900 OA 
HETATM    2  H   UNL     1     -13.206  12.920  62.873  1.00  0.00     0.000 HD 
HETATM    3  C   UNL     1     -12.204  13.989  64.308  1.00  0.00    -0.418 A  
HETATM    4  C   UNL     1     -11.577  15.190  64.627  1.00  0.00    -0.357 A  
HETATM    5  C   UNL     1     -10.978  15.358  65.878  1.00  0.00    -0.293 A  
HETATM    6  O   UNL     1     -11.512  16.243  63.761  1.00  0.00    -1.475 OA 
HETATM    7  H   UNL     1     -11.085  17.063  63.979  1.00  0.00     0.000 HD 
HETATM    8  C   UNL     1     -10.992  14.317  66.813  1.00  0.00    -0.304 A  
HETATM    9  C   UNL     1     -12.265  12.965  65.247  1.00  0.00    -0.524 A  
HETATM   10  C   UNL     1     -11.665  13.126  66.497  1.00  0.00    -0.433 A  
ENDROOT
BRANCH   8  11
HETATM   11  C   UNL     1     -10.306  14.470  68.148  1.00  0.00    -0.232 C  
BRANCH  11  12
HETATM   12  C   UNL     1      -9.316  15.637  68.143  1.00  0.00    -0.194 C  
BRANCH  12  13
HETATM   13  N   UNL     1      -7.969  15.174  68.495  1.00  0.00    -0.135 NA 
HETATM   14  H   UNL     1      -7.688  15.482  69.426  1.00  0.00     0.000 HD 
BRANCH  13  15
HETATM   15  C   UNL     1      -7.895  13.723  68.349  1.00  0.00    -0.143 C  
BRANCH  15  16
HETATM   16  C   UNL     1      -6.840  13.145  69.287  1.00  0.00    -0.024 C  
BRANCH  16  17
HETATM   17  C   UNL     1      -6.629  11.668  68.966  1.00  0.00    -0.092 C  
BRANCH  17  18
HETATM   18  C   UNL     1      -6.116  10.913  70.181  1.00  0.00    -0.132 C  
BRANCH  18  19
HETATM   19  C   UNL     1      -6.004   9.418  69.887  1.00  0.00    -0.036 C  
BRANCH  19  20
HETATM   20  C   UNL     1      -6.901   9.078  68.706  1.00  0.00    -0.061 C  
BRANCH  20  21
HETATM   21  N   UNL     1      -8.077   8.327  69.140  1.00  0.00    -0.118 NA 
HETATM   22  H   UNL     1      -7.853   7.348  69.315  1.00  0.00     0.000 HD 
BRANCH  21  23
HETATM   23  C   UNL     1      -8.707   8.956  70.309  1.00  0.00    -0.169 C  
BRANCH  23  24
HETATM   24  C   UNL     1      -9.750  10.020  69.931  1.00  0.00    -0.245 C  
BRANCH  24  25
HETATM   25  C   UNL     1     -11.025   9.875  70.718  1.00  0.00    -0.407 A  
HETATM   26  C   UNL     1     -12.045  10.823  70.571  1.00  0.00    -0.459 A  
HETATM   27  C   UNL     1     -13.235  10.690  71.289  1.00  0.00    -0.357 A  
HETATM   28  C   UNL     1     -13.404   9.615  72.158  1.00  0.00    -0.545 A  
HETATM   29  C   UNL     1     -12.386   8.675  72.316  1.00  0.00    -0.449 A  
HETATM   30  C   UNL     1     -11.198   8.806  71.601  1.00  0.00    -0.394 A  
ENDBRANCH  24  25
ENDBRANCH  23  24
ENDBRANCH  21  23
ENDBRANCH  20  21
ENDBRANCH  19  20
ENDBRANCH  18  19
ENDBRANCH  17  18
ENDBRANCH  16  17
ENDBRANCH  15  16
ENDBRANCH  13  15
ENDBRANCH  12  13
ENDBRANCH  11  12
ENDBRANCH   8  11
TORSDOF 13
ENDMDL
MODEL      175
REMARK 921   NORMALIZED FREE ENERGY PREDICTED BY IDOCK:   -4.05 KCAL/MOL
REMARK 922        TOTAL FREE ENERGY PREDICTED BY IDOCK:   -9.88 KCAL/MOL
REMARK 923 INTER-LIGAND FREE ENERGY PREDICTED BY IDOCK:   -7.47 KCAL/MOL
REMARK 924 INTRA-LIGAND FREE ENERGY PREDICTED BY IDOCK:   -2.41 KCAL/MOL
REMARK 927      BINDING AFFINITY PREDICTED BY RF-SCORE:    0.00 PKD
ROOT
HETATM    1  O   UNL     1      -7.497  17.458  67.052  1.00  0.00    -0.178 OA 
HETATM    2  H   UNL     1      -7.484  18.022  66.287  1.00  0.00     0.000 HD 
HETATM    3  C   UNL     1      -8.646  17.097  67.702  1.00  0.00    -0.212 A  
HETATM    4  C   UNL     1      -8.665  16.270  68.821  1.00  0.00    -0.244 A  
HETATM    5  C   UNL     1      -9.881  15.913  69.409  1.00  0.00    -0.280 A  
HETATM    6  O   UNL     1      -7.529  15.773  69.393  1.00  0.00    -0.210 OA 
HETATM    7  H   UNL     1      -7.542  15.209  70.157  1.00  0.00     0.000 HD 
HETATM    8  C   UNL     1     -11.088  16.372  68.870  1.00  0.00    -0.328 A  
HETATM    9  C   UNL     1      -9.837  17.597  67.186  1.00  0.00    -0.306 A  
HETATM   10  C   UNL     1     -11.055  17.241  67.768  1.00  0.00    -0.037 A  
ENDROOT
BRANCH   8  11
HETATM   11  C   UNL     1     -12.408  15.953  69.468  1.00  0.00     0.006 C  
BRANCH  11  12
HETATM   12  C   UNL     1     -12.275  14.666  70.284  1.00  0.00    -0.331 C  
BRANCH  12  13
HETATM   13  N   UNL     1     -13.300  14.611  71.333  1.00  0.00    -0.354 NA 
HETATM   14  H   UNL     1     -14.208  14.937  71.000  1.00  0.00     0.000 HD 
BRANCH  13  15
HETATM   15  C   UNL     1     -13.368  13.259  71.881  1.00  0.00    -0.451 C  
BRANCH  15  16
HETATM   16  C   UNL     1     -12.673  12.270  70.951  1.00  0.00    -0.277 C  
BRANCH  16  17
HETATM   17  C   UNL     1     -12.412  10.966  71.699  1.00  0.00    -0.347 C  
BRANCH  17  18
HETATM   18  C   UNL     1     -12.529   9.770  70.769  1.00  0.00    -0.297 C  
BRANCH  18  19
HETATM   19  C   UNL     1     -11.194   9.036  70.652  1.00  0.00    -0.318 C  
BRANCH  19  20
HETATM   20  C   UNL     1     -10.521   9.441  69.348  1.00  0.00    -0.220 C  
BRANCH  20  21
HETATM   21  N   UNL     1      -9.405  10.351  69.595  1.00  0.00    -0.399 NA 
HETATM   22  H   UNL     1      -8.553   9.844  69.833  1.00  0.00     0.000 HD 
BRANCH  21  23
HETATM   23  C   UNL     1      -9.195  11.256  68.455  1.00  0.00    -0.178 C  
BRANCH  23  24
HETATM   24  C   UNL     1     -10.115  12.486  68.486  1.00  0.00    -0.186 C  
BRANCH  24  25
HETATM   25  C   UNL     1     -10.609  12.864  67.115  1.00  0.00    -0.246 A  
HETATM   26  C   UNL     1      -9.917  13.822  66.364  1.00  0.00    -0.301 A  
HETATM   27  C   UNL     1     -10.362  14.171  65.088  1.00  0.00    -0.429 A  
HETATM   28  C   UNL     1     -11.503  13.569  64.564  1.00  0.00    -0.407 A  
HETATM   29  C   UNL     1     -12.204  12.623  65.313  1.00  0.00    -0.532 A  
HETATM   30  C   UNL     1     -11.760  12.274  66.587  1.00  0.00    -0.417 A  
ENDBRANCH  24  25
ENDBRANCH  23  24
ENDBRANCH  21  23
ENDBRANCH  20  21
ENDBRANCH  19  20
ENDBRANCH  18  19
ENDBRANCH  17  18
ENDBRANCH  16  17
ENDBRANCH  15  16
ENDBRANCH  13  15
ENDBRANCH  12  13
ENDBRANCH  11  12
ENDBRANCH   8  11
TORSDOF 13
ENDMDL
MODEL      176
REMARK 921   NORMALIZED FREE ENERGY PREDICTED BY IDOCK:   -4.05 KCAL/MOL
REMARK 922        TOTAL FREE ENERGY PREDICTED BY IDOCK:   -9.88 KCAL/MOL
REMARK 923 INTER-LIGAND FREE ENERGY PREDICTED BY IDOCK:   -8.89 KCAL/MOL
REMARK 924 INTRA-LIGAND FREE ENERGY PREDICTED BY IDOCK:   -0.99 KCAL/MOL
REMARK 927      BINDING AFFINITY PREDICTED BY RF-SCORE:    0.00 PKD
ROOT
HETATM    1  O   UNL     1      -9.363  16.998  66.510  1.00  0.00    -0.247 OA 
HETATM    2  H   UNL     1      -8.750  17.075  67.231  1.00  0.00     0.000 HD 
HETATM    3  C   UNL     1      -9.825  15.799  66.038  1.00  0.00    -0.337 A  
HETATM    4  C   UNL     1     -10.724  15.687  64.982  1.00  0.00    -0.436 A  
HETATM    5  C   UNL     1     -11.180  14.429  64.580  1.00  0.00    -0.314 A  
HETATM    6  O   UNL     1     -11.199  16.768  64.297  1.00  0.00    -1.334 OA 
HETATM    7  H   UNL     1     -11.812  16.692  63.575  1.00  0.00     0.000 HD 
HETATM    8  C   UNL     1     -10.749  13.276  65.244  1.00  0.00    -0.322 A  
HETATM    9  C   UNL     1      -9.353  14.656  66.675  1.00  0.00    -0.293 A  
HETATM   10  C   UNL     1      -9.809  13.397  66.279  1.00  0.00    -0.295 A  
ENDROOT
BRANCH   8  11
HETATM   11  C   UNL     1     -11.273  11.917  64.850  1.00  0.00    -0.350 C  
BRANCH  11  12
HETATM   12  C   UNL     1     -10.785  11.506  63.459  1.00  0.00    -0.414 C  
BRANCH  12  13
HETATM   13  N   UNL     1      -9.355  11.795  63.307  1.00  0.00    -0.594 NA 
HETATM   14  H   UNL     1      -9.018  12.451  64.013  1.00  0.00     0.000 HD 
BRANCH  13  15
HETATM   15  C   UNL     1      -8.599  10.546  63.310  1.00  0.00    -0.179 C  
BRANCH  15  16
HETATM   16  C   UNL     1      -8.269  10.125  64.738  1.00  0.00    -0.161 C  
BRANCH  16  17
HETATM   17  C   UNL     1      -8.534   8.631  64.902  1.00  0.00    -0.180 C  
BRANCH  17  18
HETATM   18  C   UNL     1      -7.719   8.054  66.047  1.00  0.00    -0.088 C  
BRANCH  18  19
HETATM   19  C   UNL     1      -8.588   7.851  67.287  1.00  0.00    -0.128 C  
BRANCH  19  20
HETATM   20  C   UNL     1      -7.743   7.220  68.384  1.00  0.00    -0.120 C  
BRANCH  20  21
HETATM   21  N   UNL     1      -8.189   7.654  69.706  1.00  0.00    -0.129 NA 
HETATM   22  H   UNL     1      -7.425   8.062  70.244  1.00  0.00     0.000 HD 
BRANCH  21  23
HETATM   23  C   UNL     1      -9.330   8.575  69.605  1.00  0.00    -0.157 C  
BRANCH  23  24
HETATM   24  C   UNL     1     -10.570   8.082  70.366  1.00  0.00    -0.224 C  
BRANCH  24  25
HETATM   25  C   UNL     1     -11.473   9.212  70.781  1.00  0.00    -0.337 A  
HETATM   26  C   UNL     1     -11.344  10.467  70.174  1.00  0.00    -0.397 A  
HETATM   27  C   UNL     1     -12.184  11.518  70.545  1.00  0.00    -0.469 A  
HETATM   28  C   UNL     1     -13.149  11.318  71.529  1.00  0.00    -0.459 A  
HETATM   29  C   UNL     1     -13.275  10.074  72.146  1.00  0.00    -0.489 A  
HETATM   30  C   UNL     1     -12.436   9.024  71.776  1.00  0.00    -0.438 A  
ENDBRANCH  24  25
ENDBRANCH  23  24
ENDBRANCH  21  23
ENDBRANCH  20  21
ENDBRANCH  19  20
ENDBRANCH  18  19
ENDBRANCH  17  18
ENDBRANCH  16  17
ENDBRANCH  15  16
ENDBRANCH  13  15
ENDBRANCH  12  13
ENDBRANCH  11  12
ENDBRANCH   8  11
TORSDOF 13
ENDMDL
MODEL      177
REMARK 921   NORMALIZED FREE ENERGY PREDICTED BY IDOCK:   -4.05 KCAL/MOL
REMARK 922        TOTAL FREE ENERGY PREDICTED BY IDOCK:   -9.88 KCAL/MOL
REMARK 923 INTER-LIGAND FREE ENERGY PREDICTED BY IDOCK:   -7.79 KCAL/MOL
REMARK 924 INTRA-LIGAND FREE ENERGY PREDICTED BY IDOCK:   -2.08 KCAL/MOL
REMARK 927      BINDING AFFINITY PREDICTED BY RF-SCORE:    0.00 PKD
ROOT
HETATM    1  O   UNL     1      -9.785  14.662  65.186  1.00  0.00    -0.482 OA 
HETATM    2  H   UNL     1      -9.230  14.363  64.475  1.00  0.00     0.000 HD 
HETATM    3  C   UNL     1     -10.378  13.817  66.085  1.00  0.00    -0.301 A  
HETATM    4  C   UNL     1     -11.189  14.255  67.127  1.00  0.00    -0.322 A  
HETATM    5  C   UNL     1     -11.730  13.337  68.029  1.00  0.00    -0.394 A  
HETATM    6  O   UNL     1     -11.494  15.572  67.324  1.00  0.00    -0.246 OA 
HETATM    7  H   UNL     1     -12.048  15.871  68.035  1.00  0.00     0.000 HD 
HETATM    8  C   UNL     1     -11.450  11.971  67.901  1.00  0.00    -0.396 A  
HETATM    9  C   UNL     1     -10.131  12.458  65.919  1.00  0.00    -0.272 A  
HETATM   10  C   UNL     1     -10.667  11.536  66.820  1.00  0.00    -0.311 A  
ENDROOT
BRANCH   8  11
HETATM   11  C   UNL     1     -11.989  10.976  68.898  1.00  0.00    -0.332 C  
BRANCH  11  12
HETATM   12  C   UNL     1     -11.906  11.510  70.329  1.00  0.00    -0.342 C  
BRANCH  12  13
HETATM   13  N   UNL     1     -11.890  10.403  71.293  1.00  0.00    -0.332 NA 
HETATM   14  H   UNL     1     -11.109  10.474  71.946  1.00  0.00     0.000 HD 
BRANCH  13  15
HETATM   15  C   UNL     1     -13.177  10.332  71.980  1.00  0.00    -0.411 C  
BRANCH  15  16
HETATM   16  C   UNL     1     -13.591   8.879  72.186  1.00  0.00    -0.502 C  
BRANCH  16  17
HETATM   17  C   UNL     1     -12.730   7.975  71.308  1.00  0.00    -0.234 C  
BRANCH  17  18
HETATM   18  C   UNL     1     -12.023   6.918  72.139  1.00  0.00    -0.302 C  
BRANCH  18  19
HETATM   19  C   UNL     1     -10.852   7.523  72.912  1.00  0.00    -0.425 C  
BRANCH  19  20
HETATM   20  C   UNL     1      -9.689   6.542  72.894  1.00  0.00    -0.154 C  
BRANCH  20  21
HETATM   21  N   UNL     1      -8.475   7.176  72.384  1.00  0.00    -0.112 NA 
HETATM   22  H   UNL     1      -7.820   6.489  72.014  1.00  0.00     0.000 HD 
BRANCH  21  23
HETATM   23  C   UNL     1      -8.794   8.211  71.390  1.00  0.00    -0.149 C  
BRANCH  23  24
HETATM   24  C   UNL     1      -8.152   7.947  70.019  1.00  0.00    -0.117 C  
BRANCH  24  25
HETATM   25  C   UNL     1      -9.164   7.537  68.984  1.00  0.00    -0.146 A  
HETATM   26  C   UNL     1      -9.317   8.297  67.819  1.00  0.00    -0.153 A  
HETATM   27  C   UNL     1     -10.245   7.918  66.848  1.00  0.00    -0.380 A  
HETATM   28  C   UNL     1     -11.027   6.781  67.044  1.00  0.00    -0.439 A  
HETATM   29  C   UNL     1     -10.887   6.027  68.208  1.00  0.00    -0.366 A  
HETATM   30  C   UNL     1      -9.960   6.405  69.178  1.00  0.00    -0.173 A  
ENDBRANCH  24  25
ENDBRANCH  23  24
ENDBRANCH  21  23
ENDBRANCH  20  21
ENDBRANCH  19  20
ENDBRANCH  18  19
ENDBRANCH  17  18
ENDBRANCH  16  17
ENDBRANCH  15  16
ENDBRANCH  13  15
ENDBRANCH  12  13
ENDBRANCH  11  12
ENDBRANCH   8  11
TORSDOF 13
ENDMDL
MODEL      178
REMARK 921   NORMALIZED FREE ENERGY PREDICTED BY IDOCK:   -4.05 KCAL/MOL
REMARK 922        TOTAL FREE ENERGY PREDICTED BY IDOCK:   -9.87 KCAL/MOL
REMARK 923 INTER-LIGAND FREE ENERGY PREDICTED BY IDOCK:   -8.42 KCAL/MOL
REMARK 924 INTRA-LIGAND FREE ENERGY PREDICTED BY IDOCK:   -1.46 KCAL/MOL
REMARK 927      BINDING AFFINITY PREDICTED BY RF-SCORE:    0.00 PKD
ROOT
HETATM    1  O   UNL     1     -11.958  16.465  72.805  1.00  0.00    -0.531 OA 
HETATM    2  H   UNL     1     -11.520  17.306  72.757  1.00  0.00     0.000 HD 
HETATM    3  C   UNL     1     -11.990  15.572  71.768  1.00  0.00    -0.419 A  
HETATM    4  C   UNL     1     -12.631  14.339  71.839  1.00  0.00    -0.315 A  
HETATM    5  C   UNL     1     -12.589  13.463  70.752  1.00  0.00    -0.369 A  
HETATM    6  O   UNL     1     -13.317  13.925  72.944  1.00  0.00    -0.604 OA 
HETATM    7  H   UNL     1     -13.755  13.083  72.993  1.00  0.00     0.000 HD 
HETATM    8  C   UNL     1     -11.892  13.812  69.590  1.00  0.00    -0.393 A  
HETATM    9  C   UNL     1     -11.334  15.950  70.601  1.00  0.00    -0.421 A  
HETATM   10  C   UNL     1     -11.287  15.076  69.513  1.00  0.00    -0.308 A  
ENDROOT
BRANCH   8  11
HETATM   11  C   UNL     1     -11.799  12.854  68.428  1.00  0.00    -0.357 C  
BRANCH  11  12
HETATM   12  C   UNL     1     -12.056  13.558  67.095  1.00  0.00    -0.340 C  
BRANCH  12  13
HETATM   13  N   UNL     1     -12.269  12.576  66.025  1.00  0.00    -0.620 NA 
HETATM   14  H   UNL     1     -12.987  12.876  65.365  1.00  0.00     0.000 HD 
BRANCH  13  15
HETATM   15  C   UNL     1     -11.000  12.288  65.363  1.00  0.00    -0.301 C  
BRANCH  15  16
HETATM   16  C   UNL     1     -11.086  10.975  64.592  1.00  0.00    -0.041 C  
BRANCH  16  17
HETATM   17  C   UNL     1      -9.718  10.297  64.587  1.00  0.00    -0.398 C  
BRANCH  17  18
HETATM   18  C   UNL     1      -9.571   9.355  65.770  1.00  0.00    -0.340 C  
BRANCH  18  19
HETATM   19  C   UNL     1      -9.111   7.972  65.312  1.00  0.00     0.190 C  
BRANCH  19  20
HETATM   20  C   UNL     1      -9.442   6.958  66.397  1.00  0.00    -0.120 C  
BRANCH  20  21
HETATM   21  N   UNL     1     -10.878   6.696  66.450  1.00  0.00    -0.426 NA 
HETATM   22  H   UNL     1     -11.168   6.048  65.718  1.00  0.00     0.000 HD 
BRANCH  21  23
HETATM   23  C   UNL     1     -11.283   6.225  67.782  1.00  0.00    -0.108 C  
BRANCH  23  24
HETATM   24  C   UNL     1     -10.297   6.628  68.889  1.00  0.00    -0.216 C  
BRANCH  24  25
HETATM   25  C   UNL     1     -10.845   7.714  69.775  1.00  0.00    -0.222 A  
HETATM   26  C   UNL     1     -11.454   7.381  70.991  1.00  0.00    -0.307 A  
HETATM   27  C   UNL     1     -11.955   8.382  71.824  1.00  0.00    -0.380 A  
HETATM   28  C   UNL     1     -11.854   9.717  71.440  1.00  0.00    -0.488 A  
HETATM   29  C   UNL     1     -11.259  10.054  70.225  1.00  0.00    -0.379 A  
HETATM   30  C   UNL     1     -10.758   9.054  69.392  1.00  0.00    -0.202 A  
ENDBRANCH  24  25
ENDBRANCH  23  24
ENDBRANCH  21  23
ENDBRANCH  20  21
ENDBRANCH  19  20
ENDBRANCH  18  19
ENDBRANCH  17  18
ENDBRANCH  16  17
ENDBRANCH  15  16
ENDBRANCH  13  15
ENDBRANCH  12  13
ENDBRANCH  11  12
ENDBRANCH   8  11
TORSDOF 13
ENDMDL
MODEL      179
REMARK 921   NORMALIZED FREE ENERGY PREDICTED BY IDOCK:   -4.03 KCAL/MOL
REMARK 922        TOTAL FREE ENERGY PREDICTED BY IDOCK:   -9.85 KCAL/MOL
REMARK 923 INTER-LIGAND FREE ENERGY PREDICTED BY IDOCK:   -9.17 KCAL/MOL
REMARK 924 INTRA-LIGAND FREE ENERGY PREDICTED BY IDOCK:   -0.68 KCAL/MOL
REMARK 927      BINDING AFFINITY PREDICTED BY RF-SCORE:    0.00 PKD
ROOT
HETATM    1  O   UNL     1      -9.470   4.602  66.957  1.00  0.00    -0.138 OA 
HETATM    2  H   UNL     1      -8.806   3.924  66.982  1.00  0.00     0.000 HD 
HETATM    3  C   UNL     1     -10.041   5.139  68.078  1.00  0.00    -0.128 A  
HETATM    4  C   UNL     1     -11.014   6.134  68.041  1.00  0.00    -0.305 A  
HETATM    5  C   UNL     1     -11.524   6.661  69.230  1.00  0.00    -0.253 A  
HETATM    6  O   UNL     1     -11.512   6.638  66.874  1.00  0.00    -0.777 OA 
HETATM    7  H   UNL     1     -12.177   7.316  66.848  1.00  0.00     0.000 HD 
HETATM    8  C   UNL     1     -11.051   6.205  70.465  1.00  0.00    -0.405 A  
HETATM    9  C   UNL     1      -9.598   4.645  69.301  1.00  0.00    -0.251 A  
HETATM   10  C   UNL     1     -10.102   5.171  70.492  1.00  0.00    -0.326 A  
ENDROOT
BRANCH   8  11
HETATM   11  C   UNL     1     -11.559   6.802  71.754  1.00  0.00    -0.336 C  
BRANCH  11  12
HETATM   12  C   UNL     1     -13.025   7.225  71.640  1.00  0.00    -0.372 C  
BRANCH  12  13
HETATM   13  N   UNL     1     -13.226   8.556  72.224  1.00  0.00    -0.502 NA 
HETATM   14  H   UNL     1     -13.158   8.544  73.242  1.00  0.00     0.000 HD 
BRANCH  13  15
HETATM   15  C   UNL     1     -12.291   9.503  71.622  1.00  0.00    -0.398 C  
BRANCH  15  16
HETATM   16  C   UNL     1     -13.045  10.666  70.986  1.00  0.00    -0.376 C  
BRANCH  16  17
HETATM   17  C   UNL     1     -13.439  11.668  72.068  1.00  0.00    -0.304 C  
BRANCH  17  18
HETATM   18  C   UNL     1     -13.276  13.096  71.576  1.00  0.00    -0.368 C  
BRANCH  18  19
HETATM   19  C   UNL     1     -13.377  14.087  72.734  1.00  0.00    -0.603 C  
BRANCH  19  20
HETATM   20  C   UNL     1     -12.464  15.272  72.450  1.00  0.00    -0.362 C  
BRANCH  20  21
HETATM   21  N   UNL     1     -11.337  14.876  71.610  1.00  0.00    -0.546 NA 
HETATM   22  H   UNL     1     -11.425  13.911  71.294  1.00  0.00     0.000 HD 
BRANCH  21  23
HETATM   23  C   UNL     1     -11.165  15.801  70.480  1.00  0.00    -0.374 C  
BRANCH  23  24
HETATM   24  C   UNL     1     -10.525  15.138  69.251  1.00  0.00    -0.261 C  
BRANCH  24  25
HETATM   25  C   UNL     1     -10.036  16.147  68.247  1.00  0.00    -0.232 A  
HETATM   26  C   UNL     1      -8.989  15.816  67.379  1.00  0.00    -0.204 A  
HETATM   27  C   UNL     1      -8.536  16.742  66.438  1.00  0.00    -0.338 A  
HETATM   28  C   UNL     1      -9.126  18.002  66.366  1.00  0.00    -0.251 A  
HETATM   29  C   UNL     1     -10.163  18.341  67.236  1.00  0.00    -0.387 A  
HETATM   30  C   UNL     1     -10.615  17.417  68.176  1.00  0.00    -0.376 A  
ENDBRANCH  24  25
ENDBRANCH  23  24
ENDBRANCH  21  23
ENDBRANCH  20  21
ENDBRANCH  19  20
ENDBRANCH  18  19
ENDBRANCH  17  18
ENDBRANCH  16  17
ENDBRANCH  15  16
ENDBRANCH  13  15
ENDBRANCH  12  13
ENDBRANCH  11  12
ENDBRANCH   8  11
TORSDOF 13
ENDMDL
MODEL      180
REMARK 921   NORMALIZED FREE ENERGY PREDICTED BY IDOCK:   -4.03 KCAL/MOL
REMARK 922        TOTAL FREE ENERGY PREDICTED BY IDOCK:   -9.84 KCAL/MOL
REMARK 923 INTER-LIGAND FREE ENERGY PREDICTED BY IDOCK:   -8.83 KCAL/MOL
REMARK 924 INTRA-LIGAND FREE ENERGY PREDICTED BY IDOCK:   -1.02 KCAL/MOL
REMARK 927      BINDING AFFINITY PREDICTED BY RF-SCORE:    0.00 PKD
ROOT
HETATM    1  O   UNL     1      -8.143   3.011  65.971  1.00  0.00    -0.084 OA 
HETATM    2  H   UNL     1      -7.641   2.284  66.316  1.00  0.00     0.000 HD 
HETATM    3  C   UNL     1      -8.951   3.803  66.742  1.00  0.00    -0.141 A  
HETATM    4  C   UNL     1      -9.687   4.870  66.236  1.00  0.00    -0.190 A  
HETATM    5  C   UNL     1     -10.460   5.658  67.092  1.00  0.00    -0.334 A  
HETATM    6  O   UNL     1      -9.695   5.200  64.911  1.00  0.00    -0.361 OA 
HETATM    7  H   UNL     1     -10.197   5.928  64.565  1.00  0.00     0.000 HD 
HETATM    8  C   UNL     1     -10.490   5.389  68.465  1.00  0.00    -0.192 A  
HETATM    9  C   UNL     1      -9.010   3.497  68.098  1.00  0.00    -0.176 A  
HETATM   10  C   UNL     1      -9.779   4.283  68.958  1.00  0.00    -0.209 A  
ENDROOT
BRANCH   8  11
HETATM   11  C   UNL     1     -11.284   6.262  69.405  1.00  0.00    -0.489 C  
BRANCH  11  12
HETATM   12  C   UNL     1     -10.903   6.011  70.865  1.00  0.00    -0.285 C  
BRANCH  12  13
HETATM   13  N   UNL     1     -11.947   6.513  71.765  1.00  0.00    -0.339 NA 
HETATM   14  H   UNL     1     -12.570   5.770  72.084  1.00  0.00     0.000 HD 
BRANCH  13  15
HETATM   15  C   UNL     1     -11.332   7.231  72.878  1.00  0.00    -0.246 C  
BRANCH  15  16
HETATM   16  C   UNL     1     -10.628   8.488  72.378  1.00  0.00    -0.368 C  
BRANCH  16  17
HETATM   17  C   UNL     1     -11.636   9.386  71.665  1.00  0.00    -0.466 C  
BRANCH  17  18
HETATM   18  C   UNL     1     -11.067   9.918  70.361  1.00  0.00    -0.382 C  
BRANCH  18  19
HETATM   19  C   UNL     1     -11.893  11.095  69.845  1.00  0.00    -0.439 C  
BRANCH  19  20
HETATM   20  C   UNL     1     -11.027  11.938  68.920  1.00  0.00    -0.238 C  
BRANCH  20  21
HETATM   21  N   UNL     1     -11.758  13.109  68.439  1.00  0.00    -0.331 NA 
HETATM   22  H   UNL     1     -12.752  13.046  68.658  1.00  0.00     0.000 HD 
BRANCH  21  23
HETATM   23  C   UNL     1     -11.167  14.352  68.954  1.00  0.00    -0.262 C  
BRANCH  23  24
HETATM   24  C   UNL     1     -12.216  15.343  69.483  1.00  0.00    -0.277 C  
BRANCH  24  25
HETATM   25  C   UNL     1     -12.379  15.260  70.976  1.00  0.00    -0.426 A  
HETATM   26  C   UNL     1     -12.942  14.115  71.553  1.00  0.00    -0.417 A  
HETATM   27  C   UNL     1     -13.087  14.025  72.939  1.00  0.00    -0.481 A  
HETATM   28  C   UNL     1     -12.677  15.082  73.748  1.00  0.00    -0.612 A  
HETATM   29  C   UNL     1     -12.127  16.229  73.177  1.00  0.00    -0.608 A  
HETATM   30  C   UNL     1     -11.981  16.320  71.794  1.00  0.00    -0.473 A  
ENDBRANCH  24  25
ENDBRANCH  23  24
ENDBRANCH  21  23
ENDBRANCH  20  21
ENDBRANCH  19  20
ENDBRANCH  18  19
ENDBRANCH  17  18
ENDBRANCH  16  17
ENDBRANCH  15  16
ENDBRANCH  13  15
ENDBRANCH  12  13
ENDBRANCH  11  12
ENDBRANCH   8  11
TORSDOF 13
ENDMDL
MODEL      181
REMARK 921   NORMALIZED FREE ENERGY PREDICTED BY IDOCK:   -4.02 KCAL/MOL
REMARK 922        TOTAL FREE ENERGY PREDICTED BY IDOCK:   -9.83 KCAL/MOL
REMARK 923 INTER-LIGAND FREE ENERGY PREDICTED BY IDOCK:   -8.38 KCAL/MOL
REMARK 924 INTRA-LIGAND FREE ENERGY PREDICTED BY IDOCK:   -1.44 KCAL/MOL
REMARK 927      BINDING AFFINITY PREDICTED BY RF-SCORE:    0.00 PKD
ROOT
HETATM    1  O   UNL     1     -13.982  13.586  72.767  1.00  0.00    -0.733 OA 
HETATM    2  H   UNL     1     -14.230  12.894  73.369  1.00  0.00     0.000 HD 
HETATM    3  C   UNL     1     -13.231  13.372  71.643  1.00  0.00    -0.364 A  
HETATM    4  C   UNL     1     -12.868  14.385  70.760  1.00  0.00    -0.353 A  
HETATM    5  C   UNL     1     -12.132  14.085  69.612  1.00  0.00    -0.408 A  
HETATM    6  O   UNL     1     -13.203  15.694  70.958  1.00  0.00    -0.508 OA 
HETATM    7  H   UNL     1     -12.955  16.385  70.356  1.00  0.00     0.000 HD 
HETATM    8  C   UNL     1     -11.765  12.763  69.333  1.00  0.00    -0.380 A  
HETATM    9  C   UNL     1     -12.831  12.062  71.401  1.00  0.00    -0.391 A  
HETATM   10  C   UNL     1     -12.097  11.756  70.253  1.00  0.00    -0.426 A  
ENDROOT
BRANCH   8  11
HETATM   11  C   UNL     1     -11.011  12.421  68.072  1.00  0.00    -0.262 C  
BRANCH  11  12
HETATM   12  C   UNL     1     -11.860  12.667  66.824  1.00  0.00    -0.370 C  
BRANCH  12  13
HETATM   13  N   UNL     1     -11.352  11.885  65.691  1.00  0.00    -0.313 NA 
HETATM   14  H   UNL     1     -11.246  12.452  64.849  1.00  0.00     0.000 HD 
BRANCH  13  15
HETATM   15  C   UNL     1     -10.106  11.224  66.070  1.00  0.00    -0.239 C  
BRANCH  15  16
HETATM   16  C   UNL     1     -10.000   9.859  65.398  1.00  0.00    -0.349 C  
BRANCH  16  17
HETATM   17  C   UNL     1      -9.347   8.869  66.359  1.00  0.00    -0.262 C  
BRANCH  17  18
HETATM   18  C   UNL     1      -8.250   8.079  65.666  1.00  0.00    -0.135 C  
BRANCH  18  19
HETATM   19  C   UNL     1      -7.563   7.127  66.644  1.00  0.00    -0.093 C  
BRANCH  19  20
HETATM   20  C   UNL     1      -8.403   7.028  67.910  1.00  0.00    -0.118 C  
BRANCH  20  21
HETATM   21  N   UNL     1      -8.625   5.633  68.284  1.00  0.00    -0.108 NA 
HETATM   22  H   UNL     1      -7.799   5.062  68.110  1.00  0.00     0.000 HD 
BRANCH  21  23
HETATM   23  C   UNL     1      -9.076   5.523  69.678  1.00  0.00    -0.128 C  
BRANCH  23  24
HETATM   24  C   UNL     1     -10.606   5.520  69.819  1.00  0.00    -0.388 C  
BRANCH  24  25
HETATM   25  C   UNL     1     -11.102   6.642  70.690  1.00  0.00    -0.349 A  
HETATM   26  C   UNL     1     -10.186   7.472  71.348  1.00  0.00    -0.201 A  
HETATM   27  C   UNL     1     -10.637   8.521  72.149  1.00  0.00    -0.419 A  
HETATM   28  C   UNL     1     -12.005   8.740  72.299  1.00  0.00    -0.415 A  
HETATM   29  C   UNL     1     -12.922   7.909  71.656  1.00  0.00    -0.359 A  
HETATM   30  C   UNL     1     -12.472   6.861  70.855  1.00  0.00    -0.314 A  
ENDBRANCH  24  25
ENDBRANCH  23  24
ENDBRANCH  21  23
ENDBRANCH  20  21
ENDBRANCH  19  20
ENDBRANCH  18  19
ENDBRANCH  17  18
ENDBRANCH  16  17
ENDBRANCH  15  16
ENDBRANCH  13  15
ENDBRANCH  12  13
ENDBRANCH  11  12
ENDBRANCH   8  11
TORSDOF 13
ENDMDL
MODEL      182
REMARK 921   NORMALIZED FREE ENERGY PREDICTED BY IDOCK:   -4.02 KCAL/MOL
REMARK 922        TOTAL FREE ENERGY PREDICTED BY IDOCK:   -9.83 KCAL/MOL
REMARK 923 INTER-LIGAND FREE ENERGY PREDICTED BY IDOCK:   -8.56 KCAL/MOL
REMARK 924 INTRA-LIGAND FREE ENERGY PREDICTED BY IDOCK:   -1.26 KCAL/MOL
REMARK 927      BINDING AFFINITY PREDICTED BY RF-SCORE:    0.00 PKD
ROOT
HETATM    1  O   UNL     1      -9.902   8.390  65.777  1.00  0.00    -0.455 OA 
HETATM    2  H   UNL     1     -10.311   8.003  65.012  1.00  0.00     0.000 HD 
HETATM    3  C   UNL     1     -10.110   7.936  67.052  1.00  0.00    -0.277 A  
HETATM    4  C   UNL     1      -9.510   8.502  68.173  1.00  0.00    -0.141 A  
HETATM    5  C   UNL     1      -9.741   7.961  69.440  1.00  0.00    -0.170 A  
HETATM    6  O   UNL     1      -8.685   9.587  68.102  1.00  0.00    -0.120 OA 
HETATM    7  H   UNL     1      -8.276   9.974  68.867  1.00  0.00     0.000 HD 
HETATM    8  C   UNL     1     -10.564   6.839  69.590  1.00  0.00    -0.267 A  
HETATM    9  C   UNL     1     -10.968   6.851  67.195  1.00  0.00    -0.427 A  
HETATM   10  C   UNL     1     -11.198   6.304  68.459  1.00  0.00    -0.305 A  
ENDROOT
BRANCH   8  11
HETATM   11  C   UNL     1     -10.781   6.218  70.948  1.00  0.00    -0.314 C  
BRANCH  11  12
HETATM   12  C   UNL     1     -12.181   6.515  71.487  1.00  0.00    -0.272 C  
BRANCH  12  13
HETATM   13  N   UNL     1     -12.104   7.319  72.712  1.00  0.00    -0.519 NA 
HETATM   14  H   UNL     1     -11.442   6.932  73.385  1.00  0.00     0.000 HD 
BRANCH  13  15
HETATM   15  C   UNL     1     -11.794   8.705  72.370  1.00  0.00    -0.331 C  
BRANCH  15  16
HETATM   16  C   UNL     1     -13.037   9.417  71.847  1.00  0.00    -0.505 C  
BRANCH  16  17
HETATM   17  C   UNL     1     -12.666  10.830  71.406  1.00  0.00    -0.544 C  
BRANCH  17  18
HETATM   18  C   UNL     1     -11.728  10.801  70.212  1.00  0.00    -0.442 C  
BRANCH  18  19
HETATM   19  C   UNL     1     -12.034  11.946  69.248  1.00  0.00    -0.342 C  
BRANCH  19  20
HETATM   20  C   UNL     1     -11.121  11.830  68.036  1.00  0.00    -0.242 C  
BRANCH  20  21
HETATM   21  N   UNL     1     -11.896  11.768  66.799  1.00  0.00    -0.568 NA 
HETATM   22  H   UNL     1     -12.824  12.173  66.918  1.00  0.00     0.000 HD 
BRANCH  21  23
HETATM   23  C   UNL     1     -11.170  12.393  65.685  1.00  0.00    -0.322 C  
BRANCH  23  24
HETATM   24  C   UNL     1      -9.798  12.949  66.097  1.00  0.00    -0.270 C  
BRANCH  24  25
HETATM   25  C   UNL     1      -9.758  14.453  66.068  1.00  0.00    -0.320 A  
HETATM   26  C   UNL     1      -8.684  15.133  66.655  1.00  0.00    -0.308 A  
HETATM   27  C   UNL     1      -8.633  16.527  66.623  1.00  0.00    -0.289 A  
HETATM   28  C   UNL     1      -9.658  17.244  66.011  1.00  0.00    -0.165 A  
HETATM   29  C   UNL     1     -10.736  16.572  65.436  1.00  0.00    -0.273 A  
HETATM   30  C   UNL     1     -10.788  15.180  65.467  1.00  0.00    -0.373 A  
ENDBRANCH  24  25
ENDBRANCH  23  24
ENDBRANCH  21  23
ENDBRANCH  20  21
ENDBRANCH  19  20
ENDBRANCH  18  19
ENDBRANCH  17  18
ENDBRANCH  16  17
ENDBRANCH  15  16
ENDBRANCH  13  15
ENDBRANCH  12  13
ENDBRANCH  11  12
ENDBRANCH   8  11
TORSDOF 13
ENDMDL
MODEL      183
REMARK 921   NORMALIZED FREE ENERGY PREDICTED BY IDOCK:   -4.02 KCAL/MOL
REMARK 922        TOTAL FREE ENERGY PREDICTED BY IDOCK:   -9.82 KCAL/MOL
REMARK 923 INTER-LIGAND FREE ENERGY PREDICTED BY IDOCK:   -8.96 KCAL/MOL
REMARK 924 INTRA-LIGAND FREE ENERGY PREDICTED BY IDOCK:   -0.86 KCAL/MOL
REMARK 927      BINDING AFFINITY PREDICTED BY RF-SCORE:    0.00 PKD
ROOT
HETATM    1  O   UNL     1     -10.726   6.990  74.387  1.00  0.00    -0.482 OA 
HETATM    2  H   UNL     1     -10.027   6.720  74.970  1.00  0.00     0.000 HD 
HETATM    3  C   UNL     1     -10.732   6.724  73.045  1.00  0.00    -0.285 A  
HETATM    4  C   UNL     1     -11.757   7.119  72.190  1.00  0.00    -0.284 A  
HETATM    5  C   UNL     1     -11.712   6.779  70.836  1.00  0.00    -0.424 A  
HETATM    6  O   UNL     1     -12.835   7.842  72.613  1.00  0.00    -0.518 OA 
HETATM    7  H   UNL     1     -13.535   8.112  72.030  1.00  0.00     0.000 HD 
HETATM    8  C   UNL     1     -10.644   6.026  70.332  1.00  0.00    -0.332 A  
HETATM    9  C   UNL     1      -9.643   6.018  72.545  1.00  0.00    -0.162 A  
HETATM   10  C   UNL     1      -9.595   5.671  71.193  1.00  0.00    -0.208 A  
ENDROOT
BRANCH   8  11
HETATM   11  C   UNL     1     -10.610   5.612  68.882  1.00  0.00    -0.303 C  
BRANCH  11  12
HETATM   12  C   UNL     1     -11.073   6.742  67.961  1.00  0.00    -0.158 C  
BRANCH  12  13
HETATM   13  N   UNL     1      -9.921   7.440  67.380  1.00  0.00    -0.166 NA 
HETATM   14  H   UNL     1      -9.448   6.879  66.672  1.00  0.00     0.000 HD 
BRANCH  13  15
HETATM   15  C   UNL     1     -10.344   8.738  66.861  1.00  0.00    -0.274 C  
BRANCH  15  16
HETATM   16  C   UNL     1     -10.724   9.672  68.005  1.00  0.00    -0.284 C  
BRANCH  16  17
HETATM   17  C   UNL     1     -10.256  11.089  67.681  1.00  0.00    -0.211 C  
BRANCH  17  18
HETATM   18  C   UNL     1     -10.843  11.570  66.365  1.00  0.00    -0.334 C  
BRANCH  18  19
HETATM   19  C   UNL     1     -11.878  12.670  66.599  1.00  0.00    -0.449 C  
BRANCH  19  20
HETATM   20  C   UNL     1     -11.681  13.762  65.558  1.00  0.00    -0.346 C  
BRANCH  20  21
HETATM   21  N   UNL     1     -10.272  13.893  65.194  1.00  0.00    -0.478 NA 
HETATM   22  H   UNL     1     -10.137  13.822  64.186  1.00  0.00     0.000 HD 
BRANCH  21  23
HETATM   23  C   UNL     1      -9.698  15.135  65.731  1.00  0.00    -0.344 C  
BRANCH  23  24
HETATM   24  C   UNL     1     -10.537  16.378  65.400  1.00  0.00    -0.338 C  
BRANCH  24  25
HETATM   25  C   UNL     1     -10.389  17.460  66.435  1.00  0.00    -0.317 A  
HETATM   26  C   UNL     1     -10.061  17.123  67.754  1.00  0.00    -0.306 A  
HETATM   27  C   UNL     1      -9.911  18.121  68.718  1.00  0.00    -0.389 A  
HETATM   28  C   UNL     1     -10.095  19.456  68.367  1.00  0.00    -0.538 A  
HETATM   29  C   UNL     1     -10.433  19.797  67.058  1.00  0.00    -0.595 A  
HETATM   30  C   UNL     1     -10.583  18.801  66.094  1.00  0.00    -0.435 A  
ENDBRANCH  24  25
ENDBRANCH  23  24
ENDBRANCH  21  23
ENDBRANCH  20  21
ENDBRANCH  19  20
ENDBRANCH  18  19
ENDBRANCH  17  18
ENDBRANCH  16  17
ENDBRANCH  15  16
ENDBRANCH  13  15
ENDBRANCH  12  13
ENDBRANCH  11  12
ENDBRANCH   8  11
TORSDOF 13
ENDMDL
MODEL      184
REMARK 921   NORMALIZED FREE ENERGY PREDICTED BY IDOCK:   -4.00 KCAL/MOL
REMARK 922        TOTAL FREE ENERGY PREDICTED BY IDOCK:   -9.80 KCAL/MOL
REMARK 923 INTER-LIGAND FREE ENERGY PREDICTED BY IDOCK:   -7.52 KCAL/MOL
REMARK 924 INTRA-LIGAND FREE ENERGY PREDICTED BY IDOCK:   -2.28 KCAL/MOL
REMARK 927      BINDING AFFINITY PREDICTED BY RF-SCORE:    0.00 PKD
ROOT
HETATM    1  O   UNL     1      -8.649  18.407  66.754  1.00  0.00    -0.260 OA 
HETATM    2  H   UNL     1      -8.017  18.456  66.046  1.00  0.00     0.000 HD 
HETATM    3  C   UNL     1      -9.543  17.380  66.895  1.00  0.00    -0.277 A  
HETATM    4  C   UNL     1     -10.469  17.307  67.931  1.00  0.00    -0.382 A  
HETATM    5  C   UNL     1     -11.325  16.209  68.032  1.00  0.00    -0.234 A  
HETATM    6  O   UNL     1     -10.589  18.278  68.884  1.00  0.00    -0.386 OA 
HETATM    7  H   UNL     1     -11.221  18.229  69.592  1.00  0.00     0.000 HD 
HETATM    8  C   UNL     1     -11.250  15.167  67.100  1.00  0.00    -0.320 A  
HETATM    9  C   UNL     1      -9.492  16.374  65.936  1.00  0.00    -0.289 A  
HETATM   10  C   UNL     1     -10.344  15.271  66.033  1.00  0.00    -0.327 A  
ENDROOT
BRANCH   8  11
HETATM   11  C   UNL     1     -12.137  13.953  67.227  1.00  0.00    -0.403 C  
BRANCH  11  12
HETATM   12  C   UNL     1     -11.728  12.851  66.248  1.00  0.00    -0.399 C  
BRANCH  12  13
HETATM   13  N   UNL     1     -12.731  12.706  65.185  1.00  0.00    -0.732 NA 
HETATM   14  H   UNL     1     -13.506  13.360  65.297  1.00  0.00     0.000 HD 
BRANCH  13  15
HETATM   15  C   UNL     1     -12.086  12.834  63.881  1.00  0.00    -0.486 C  
BRANCH  15  16
HETATM   16  C   UNL     1     -10.597  12.523  63.990  1.00  0.00    -0.451 C  
BRANCH  16  17
HETATM   17  C   UNL     1     -10.241  11.397  63.022  1.00  0.00    -0.311 C  
BRANCH  17  18
HETATM   18  C   UNL     1      -9.401  10.333  63.707  1.00  0.00    -0.339 C  
BRANCH  18  19
HETATM   19  C   UNL     1      -9.895  10.079  65.130  1.00  0.00    -0.388 C  
BRANCH  19  20
HETATM   20  C   UNL     1      -8.694   9.987  66.061  1.00  0.00    -0.138 C  
BRANCH  20  21
HETATM   21  N   UNL     1      -7.940  11.238  66.070  1.00  0.00    -0.355 NA 
HETATM   22  H   UNL     1      -7.750  11.568  65.124  1.00  0.00     0.000 HD 
BRANCH  21  23
HETATM   23  C   UNL     1      -8.621  12.263  66.873  1.00  0.00    -0.182 C  
BRANCH  23  24
HETATM   24  C   UNL     1      -7.945  12.512  68.231  1.00  0.00    -0.153 C  
BRANCH  24  25
HETATM   25  C   UNL     1      -7.400  13.909  68.351  1.00  0.00    -0.115 A  
HETATM   26  C   UNL     1      -7.970  14.804  69.264  1.00  0.00    -0.103 A  
HETATM   27  C   UNL     1      -7.463  16.098  69.390  1.00  0.00    -0.181 A  
HETATM   28  C   UNL     1      -6.391  16.502  68.598  1.00  0.00    -0.139 A  
HETATM   29  C   UNL     1      -5.827  15.619  67.678  1.00  0.00    -0.146 A  
HETATM   30  C   UNL     1      -6.332  14.326  67.552  1.00  0.00    -0.028 A  
ENDBRANCH  24  25
ENDBRANCH  23  24
ENDBRANCH  21  23
ENDBRANCH  20  21
ENDBRANCH  19  20
ENDBRANCH  18  19
ENDBRANCH  17  18
ENDBRANCH  16  17
ENDBRANCH  15  16
ENDBRANCH  13  15
ENDBRANCH  12  13
ENDBRANCH  11  12
ENDBRANCH   8  11
TORSDOF 13
ENDMDL
MODEL      185
REMARK 921   NORMALIZED FREE ENERGY PREDICTED BY IDOCK:   -3.99 KCAL/MOL
REMARK 922        TOTAL FREE ENERGY PREDICTED BY IDOCK:   -9.77 KCAL/MOL
REMARK 923 INTER-LIGAND FREE ENERGY PREDICTED BY IDOCK:   -8.70 KCAL/MOL
REMARK 924 INTRA-LIGAND FREE ENERGY PREDICTED BY IDOCK:   -1.06 KCAL/MOL
REMARK 927      BINDING AFFINITY PREDICTED BY RF-SCORE:    0.00 PKD
ROOT
HETATM    1  O   UNL     1      -9.967  20.910  66.656  1.00  0.00    -0.527 OA 
HETATM    2  H   UNL     1      -9.908  21.202  65.754  1.00  0.00     0.000 HD 
HETATM    3  C   UNL     1     -10.183  19.607  67.013  1.00  0.00    -0.439 A  
HETATM    4  C   UNL     1     -10.268  19.179  68.335  1.00  0.00    -0.389 A  
HETATM    5  C   UNL     1     -10.453  17.825  68.624  1.00  0.00    -0.295 A  
HETATM    6  O   UNL     1     -10.178  20.034  69.396  1.00  0.00    -0.557 OA 
HETATM    7  H   UNL     1     -10.236  19.742  70.298  1.00  0.00     0.000 HD 
HETATM    8  C   UNL     1     -10.540  16.887  67.588  1.00  0.00    -0.325 A  
HETATM    9  C   UNL     1     -10.316  18.691  65.975  1.00  0.00    -0.436 A  
HETATM   10  C   UNL     1     -10.497  17.335  66.259  1.00  0.00    -0.268 A  
ENDROOT
BRANCH   8  11
HETATM   11  C   UNL     1     -10.690  15.417  67.890  1.00  0.00    -0.286 C  
BRANCH  11  12
HETATM   12  C   UNL     1     -10.927  14.602  66.617  1.00  0.00    -0.323 C  
BRANCH  12  13
HETATM   13  N   UNL     1     -12.323  14.157  66.541  1.00  0.00    -0.507 NA 
HETATM   14  H   UNL     1     -12.971  14.862  66.891  1.00  0.00     0.000 HD 
BRANCH  13  15
HETATM   15  C   UNL     1     -12.636  13.754  65.172  1.00  0.00    -0.433 C  
BRANCH  15  16
HETATM   16  C   UNL     1     -11.376  13.282  64.454  1.00  0.00    -0.415 C  
BRANCH  16  17
HETATM   17  C   UNL     1     -11.451  11.773  64.235  1.00  0.00    -0.386 C  
BRANCH  17  18
HETATM   18  C   UNL     1     -10.282  11.066  64.898  1.00  0.00    -0.373 C  
BRANCH  18  19
HETATM   19  C   UNL     1     -10.637  10.641  66.322  1.00  0.00    -0.229 C  
BRANCH  19  20
HETATM   20  C   UNL     1      -9.617  11.233  67.284  1.00  0.00    -0.173 C  
BRANCH  20  21
HETATM   21  N   UNL     1     -10.216  11.492  68.591  1.00  0.00    -0.209 NA 
HETATM   22  H   UNL     1     -10.896  12.251  68.548  1.00  0.00     0.000 HD 
BRANCH  21  23
HETATM   23  C   UNL     1     -10.805  10.270  69.157  1.00  0.00    -0.233 C  
BRANCH  23  24
HETATM   24  C   UNL     1     -10.309   9.965  70.579  1.00  0.00    -0.298 C  
BRANCH  24  25
HETATM   25  C   UNL     1     -10.390   8.500  70.911  1.00  0.00    -0.245 A  
HETATM   26  C   UNL     1     -11.186   7.652  70.133  1.00  0.00    -0.193 A  
HETATM   27  C   UNL     1     -11.260   6.289  70.428  1.00  0.00    -0.439 A  
HETATM   28  C   UNL     1     -10.542   5.775  71.505  1.00  0.00    -0.304 A  
HETATM   29  C   UNL     1      -9.757   6.617  72.291  1.00  0.00    -0.155 A  
HETATM   30  C   UNL     1      -9.683   7.978  71.997  1.00  0.00    -0.264 A  
ENDBRANCH  24  25
ENDBRANCH  23  24
ENDBRANCH  21  23
ENDBRANCH  20  21
ENDBRANCH  19  20
ENDBRANCH  18  19
ENDBRANCH  17  18
ENDBRANCH  16  17
ENDBRANCH  15  16
ENDBRANCH  13  15
ENDBRANCH  12  13
ENDBRANCH  11  12
ENDBRANCH   8  11
TORSDOF 13
ENDMDL
MODEL      186
REMARK 921   NORMALIZED FREE ENERGY PREDICTED BY IDOCK:   -3.97 KCAL/MOL
REMARK 922        TOTAL FREE ENERGY PREDICTED BY IDOCK:   -9.75 KCAL/MOL
REMARK 923 INTER-LIGAND FREE ENERGY PREDICTED BY IDOCK:   -8.56 KCAL/MOL
REMARK 924 INTRA-LIGAND FREE ENERGY PREDICTED BY IDOCK:   -1.19 KCAL/MOL
REMARK 927      BINDING AFFINITY PREDICTED BY RF-SCORE:    0.00 PKD
ROOT
HETATM    1  O   UNL     1     -14.187   8.944  71.199  1.00  0.00    -0.551 OA 
HETATM    2  H   UNL     1     -14.744   8.441  71.781  1.00  0.00     0.000 HD 
HETATM    3  C   UNL     1     -12.824   8.984  71.310  1.00  0.00    -0.245 A  
HETATM    4  C   UNL     1     -12.007   9.720  70.457  1.00  0.00    -0.206 A  
HETATM    5  C   UNL     1     -10.619   9.682  70.608  1.00  0.00    -0.386 A  
HETATM    6  O   UNL     1     -12.501  10.500  69.451  1.00  0.00    -0.664 OA 
HETATM    7  H   UNL     1     -11.943  11.003  68.869  1.00  0.00     0.000 HD 
HETATM    8  C   UNL     1     -10.039   8.893  71.608  1.00  0.00    -0.411 A  
HETATM    9  C   UNL     1     -12.260   8.234  72.337  1.00  0.00    -0.412 A  
HETATM   10  C   UNL     1     -10.873   8.189  72.490  1.00  0.00    -0.431 A  
ENDROOT
BRANCH   8  11
HETATM   11  C   UNL     1      -8.539   8.806  71.749  1.00  0.00    -0.198 C  
BRANCH  11  12
HETATM   12  C   UNL     1      -7.833   9.037  70.412  1.00  0.00    -0.116 C  
BRANCH  12  13
HETATM   13  N   UNL     1      -7.205  10.363  70.381  1.00  0.00    -0.445 NA 
HETATM   14  H   UNL     1      -6.257  10.349  70.757  1.00  0.00     0.000 HD 
BRANCH  13  15
HETATM   15  C   UNL     1      -7.251  10.897  69.023  1.00  0.00    -0.101 C  
BRANCH  15  16
HETATM   16  C   UNL     1      -7.379   9.764  68.009  1.00  0.00    -0.081 C  
BRANCH  16  17
HETATM   17  C   UNL     1      -7.985  10.305  66.717  1.00  0.00    -0.114 C  
BRANCH  17  18
HETATM   18  C   UNL     1      -8.369   9.173  65.779  1.00  0.00    -0.131 C  
BRANCH  18  19
HETATM   19  C   UNL     1      -7.697   9.340  64.417  1.00  0.00    -0.118 C  
BRANCH  19  20
HETATM   20  C   UNL     1      -8.770   9.572  63.362  1.00  0.00    -0.222 C  
BRANCH  20  21
HETATM   21  N   UNL     1      -9.931  10.250  63.934  1.00  0.00    -0.448 NA 
HETATM   22  H   UNL     1      -9.817  10.408  64.935  1.00  0.00     0.000 HD 
BRANCH  21  23
HETATM   23  C   UNL     1     -10.221  11.500  63.218  1.00  0.00    -0.391 C  
BRANCH  23  24
HETATM   24  C   UNL     1     -11.544  12.150  63.654  1.00  0.00    -0.575 C  
BRANCH  24  25
HETATM   25  C   UNL     1     -11.380  13.021  64.870  1.00  0.00    -0.332 A  
HETATM   26  C   UNL     1     -11.938  12.625  66.091  1.00  0.00    -0.458 A  
HETATM   27  C   UNL     1     -11.782  13.422  67.226  1.00  0.00    -0.424 A  
HETATM   28  C   UNL     1     -11.073  14.617  67.141  1.00  0.00    -0.328 A  
HETATM   29  C   UNL     1     -10.525  15.022  65.925  1.00  0.00    -0.341 A  
HETATM   30  C   UNL     1     -10.680  14.228  64.790  1.00  0.00    -0.435 A  
ENDBRANCH  24  25
ENDBRANCH  23  24
ENDBRANCH  21  23
ENDBRANCH  20  21
ENDBRANCH  19  20
ENDBRANCH  18  19
ENDBRANCH  17  18
ENDBRANCH  16  17
ENDBRANCH  15  16
ENDBRANCH  13  15
ENDBRANCH  12  13
ENDBRANCH  11  12
ENDBRANCH   8  11
TORSDOF 13
ENDMDL
MODEL      187
REMARK 921   NORMALIZED FREE ENERGY PREDICTED BY IDOCK:   -3.97 KCAL/MOL
REMARK 922        TOTAL FREE ENERGY PREDICTED BY IDOCK:   -9.73 KCAL/MOL
REMARK 923 INTER-LIGAND FREE ENERGY PREDICTED BY IDOCK:   -8.82 KCAL/MOL
REMARK 924 INTRA-LIGAND FREE ENERGY PREDICTED BY IDOCK:   -0.92 KCAL/MOL
REMARK 927      BINDING AFFINITY PREDICTED BY RF-SCORE:    0.00 PKD
ROOT
HETATM    1  O   UNL     1     -10.249   4.301  66.570  1.00  0.00    -0.338 OA 
HETATM    2  H   UNL     1      -9.782   3.582  66.162  1.00  0.00     0.000 HD 
HETATM    3  C   UNL     1      -9.897   5.614  66.412  1.00  0.00    -0.154 A  
HETATM    4  C   UNL     1     -10.582   6.668  67.009  1.00  0.00    -0.333 A  
HETATM    5  C   UNL     1     -10.187   7.987  66.771  1.00  0.00    -0.367 A  
HETATM    6  O   UNL     1     -11.651   6.480  67.838  1.00  0.00    -0.623 OA 
HETATM    7  H   UNL     1     -12.118   7.199  68.246  1.00  0.00     0.000 HD 
HETATM    8  C   UNL     1      -9.109   8.258  65.921  1.00  0.00    -0.203 A  
HETATM    9  C   UNL     1      -8.794   5.870  65.603  1.00  0.00    -0.126 A  
HETATM   10  C   UNL     1      -8.397   7.187  65.360  1.00  0.00    -0.122 A  
ENDROOT
BRANCH   8  11
HETATM   11  C   UNL     1      -8.704   9.680  65.619  1.00  0.00    -0.163 C  
BRANCH  11  12
HETATM   12  C   UNL     1      -9.903  10.529  65.192  1.00  0.00    -0.297 C  
BRANCH  12  13
HETATM   13  N   UNL     1      -9.510  11.495  64.159  1.00  0.00    -0.419 NA 
HETATM   14  H   UNL     1      -9.023  11.049  63.381  1.00  0.00     0.000 HD 
BRANCH  13  15
HETATM   15  C   UNL     1     -10.682  12.244  63.716  1.00  0.00    -0.449 C  
BRANCH  15  16
HETATM   16  C   UNL     1     -11.841  12.045  64.688  1.00  0.00    -0.342 C  
BRANCH  16  17
HETATM   17  C   UNL     1     -12.359  13.405  65.148  1.00  0.00    -0.501 C  
BRANCH  17  18
HETATM   18  C   UNL     1     -11.374  14.510  64.802  1.00  0.00    -0.397 C  
BRANCH  18  19
HETATM   19  C   UNL     1     -10.608  14.966  66.042  1.00  0.00    -0.321 C  
BRANCH  19  20
HETATM   20  C   UNL     1     -11.538  14.910  67.246  1.00  0.00    -0.324 C  
BRANCH  20  21
HETATM   21  N   UNL     1     -10.800  14.586  68.464  1.00  0.00    -0.241 NA 
HETATM   22  H   UNL     1     -10.231  13.749  68.346  1.00  0.00     0.000 HD 
BRANCH  21  23
HETATM   23  C   UNL     1      -9.994  15.729  68.917  1.00  0.00    -0.223 C  
BRANCH  23  24
HETATM   24  C   UNL     1     -10.770  17.056  68.904  1.00  0.00    -0.300 C  
BRANCH  24  25
HETATM   25  C   UNL     1      -9.996  18.164  68.242  1.00  0.00    -0.380 A  
HETATM   26  C   UNL     1      -8.602  18.210  68.364  1.00  0.00    -0.310 A  
HETATM   27  C   UNL     1      -7.875  19.228  67.745  1.00  0.00    -0.310 A  
HETATM   28  C   UNL     1      -8.541  20.205  67.009  1.00  0.00    -0.408 A  
HETATM   29  C   UNL     1      -9.930  20.171  66.895  1.00  0.00    -0.600 A  
HETATM   30  C   UNL     1     -10.657  19.155  67.512  1.00  0.00    -0.567 A  
ENDBRANCH  24  25
ENDBRANCH  23  24
ENDBRANCH  21  23
ENDBRANCH  20  21
ENDBRANCH  19  20
ENDBRANCH  18  19
ENDBRANCH  17  18
ENDBRANCH  16  17
ENDBRANCH  15  16
ENDBRANCH  13  15
ENDBRANCH  12  13
ENDBRANCH  11  12
ENDBRANCH   8  11
TORSDOF 13
ENDMDL
MODEL      188
REMARK 921   NORMALIZED FREE ENERGY PREDICTED BY IDOCK:   -3.96 KCAL/MOL
REMARK 922        TOTAL FREE ENERGY PREDICTED BY IDOCK:   -9.73 KCAL/MOL
REMARK 923 INTER-LIGAND FREE ENERGY PREDICTED BY IDOCK:   -8.04 KCAL/MOL
REMARK 924 INTRA-LIGAND FREE ENERGY PREDICTED BY IDOCK:   -1.69 KCAL/MOL
REMARK 927      BINDING AFFINITY PREDICTED BY RF-SCORE:    0.00 PKD
ROOT
HETATM    1  O   UNL     1     -12.751  14.085  63.038  1.00  0.00    -0.891 OA 
HETATM    2  H   UNL     1     -13.266  13.407  62.616  1.00  0.00     0.000 HD 
HETATM    3  C   UNL     1     -12.237  13.964  64.300  1.00  0.00    -0.408 A  
HETATM    4  C   UNL     1     -11.482  14.957  64.918  1.00  0.00    -0.407 A  
HETATM    5  C   UNL     1     -10.958  14.748  66.195  1.00  0.00    -0.332 A  
HETATM    6  O   UNL     1     -11.216  16.159  64.326  1.00  0.00    -1.023 OA 
HETATM    7  H   UNL     1     -10.701  16.837  64.747  1.00  0.00     0.000 HD 
HETATM    8  C   UNL     1     -11.176  13.535  66.858  1.00  0.00    -0.329 A  
HETATM    9  C   UNL     1     -12.500  12.773  64.969  1.00  0.00    -0.572 A  
HETATM   10  C   UNL     1     -11.976  12.558  66.245  1.00  0.00    -0.410 A  
ENDROOT
BRANCH   8  11
HETATM   11  C   UNL     1     -10.574  13.280  68.218  1.00  0.00    -0.262 C  
BRANCH  11  12
HETATM   12  C   UNL     1      -9.246  14.019  68.394  1.00  0.00    -0.196 C  
BRANCH  12  13
HETATM   13  N   UNL     1      -8.119  13.082  68.319  1.00  0.00    -0.149 NA 
HETATM   14  H   UNL     1      -7.429  13.251  69.052  1.00  0.00     0.000 HD 
BRANCH  13  15
HETATM   15  C   UNL     1      -8.619  11.710  68.338  1.00  0.00    -0.156 C  
BRANCH  15  16
HETATM   16  C   UNL     1      -7.906  10.898  69.414  1.00  0.00    -0.048 C  
BRANCH  16  17
HETATM   17  C   UNL     1      -8.699   9.625  69.699  1.00  0.00    -0.206 C  
BRANCH  17  18
HETATM   18  C   UNL     1      -7.867   8.628  70.487  1.00  0.00    -0.096 C  
BRANCH  18  19
HETATM   19  C   UNL     1      -7.585   7.377  69.658  1.00  0.00    -0.095 C  
BRANCH  19  20
HETATM   20  C   UNL     1      -8.371   7.458  68.357  1.00  0.00    -0.125 C  
BRANCH  20  21
HETATM   21  N   UNL     1      -9.421   6.444  68.315  1.00  0.00    -0.122 NA 
HETATM   22  H   UNL     1      -9.509   6.033  67.386  1.00  0.00     0.000 HD 
BRANCH  21  23
HETATM   23  C   UNL     1      -9.208   5.415  69.343  1.00  0.00    -0.117 C  
BRANCH  23  24
HETATM   24  C   UNL     1     -10.459   5.147  70.194  1.00  0.00    -0.305 C  
BRANCH  24  25
HETATM   25  C   UNL     1     -10.891   6.359  70.974  1.00  0.00    -0.314 A  
HETATM   26  C   UNL     1     -10.361   6.593  72.249  1.00  0.00    -0.219 A  
HETATM   27  C   UNL     1     -10.748   7.721  72.975  1.00  0.00    -0.446 A  
HETATM   28  C   UNL     1     -11.669   8.612  72.430  1.00  0.00    -0.393 A  
HETATM   29  C   UNL     1     -12.209   8.378  71.166  1.00  0.00    -0.248 A  
HETATM   30  C   UNL     1     -11.823   7.252  70.440  1.00  0.00    -0.174 A  
ENDBRANCH  24  25
ENDBRANCH  23  24
ENDBRANCH  21  23
ENDBRANCH  20  21
ENDBRANCH  19  20
ENDBRANCH  18  19
ENDBRANCH  17  18
ENDBRANCH  16  17
ENDBRANCH  15  16
ENDBRANCH  13  15
ENDBRANCH  12  13
ENDBRANCH  11  12
ENDBRANCH   8  11
TORSDOF 13
ENDMDL
MODEL      189
REMARK 921   NORMALIZED FREE ENERGY PREDICTED BY IDOCK:   -3.96 KCAL/MOL
REMARK 922        TOTAL FREE ENERGY PREDICTED BY IDOCK:   -9.72 KCAL/MOL
REMARK 923 INTER-LIGAND FREE ENERGY PREDICTED BY IDOCK:   -8.62 KCAL/MOL
REMARK 924 INTRA-LIGAND FREE ENERGY PREDICTED BY IDOCK:   -1.11 KCAL/MOL
REMARK 927      BINDING AFFINITY PREDICTED BY RF-SCORE:    0.00 PKD
ROOT
HETATM    1  O   UNL     1     -11.050   5.295  65.728  1.00  0.00    -0.762 OA 
HETATM    2  H   UNL     1     -11.556   6.045  65.439  1.00  0.00     0.000 HD 
HETATM    3  C   UNL     1     -10.634   5.119  67.020  1.00  0.00    -0.131 A  
HETATM    4  C   UNL     1      -9.893   4.020  67.443  1.00  0.00    -0.072 A  
HETATM    5  C   UNL     1      -9.536   3.890  68.787  1.00  0.00    -0.224 A  
HETATM    6  O   UNL     1      -9.484   3.032  66.593  1.00  0.00    -0.352 OA 
HETATM    7  H   UNL     1      -8.977   2.282  66.882  1.00  0.00     0.000 HD 
HETATM    8  C   UNL     1      -9.932   4.855  69.720  1.00  0.00    -0.314 A  
HETATM    9  C   UNL     1     -10.992   6.109  67.930  1.00  0.00    -0.399 A  
HETATM   10  C   UNL     1     -10.641   5.981  69.275  1.00  0.00    -0.366 A  
ENDROOT
BRANCH   8  11
HETATM   11  C   UNL     1      -9.594   4.699  71.182  1.00  0.00    -0.238 C  
BRANCH  11  12
HETATM   12  C   UNL     1     -10.680   5.294  72.079  1.00  0.00    -0.196 C  
BRANCH  12  13
HETATM   13  N   UNL     1     -10.082   5.983  73.229  1.00  0.00    -0.183 NA 
HETATM   14  H   UNL     1      -9.190   5.570  73.502  1.00  0.00     0.000 HD 
BRANCH  13  15
HETATM   15  C   UNL     1      -9.963   7.409  72.939  1.00  0.00    -0.232 C  
BRANCH  15  16
HETATM   16  C   UNL     1     -11.249   7.936  72.313  1.00  0.00    -0.389 C  
BRANCH  16  17
HETATM   17  C   UNL     1     -10.969   9.267  71.621  1.00  0.00    -0.433 C  
BRANCH  17  18
HETATM   18  C   UNL     1     -12.229  10.112  71.533  1.00  0.00    -0.473 C  
BRANCH  18  19
HETATM   19  C   UNL     1     -12.343  10.782  70.164  1.00  0.00    -0.401 C  
BRANCH  19  20
HETATM   20  C   UNL     1     -12.624  12.265  70.363  1.00  0.00    -0.028 C  
BRANCH  20  21
HETATM   21  N   UNL     1     -11.392  13.047  70.292  1.00  0.00    -0.397 NA 
HETATM   22  H   UNL     1     -10.608  12.483  69.966  1.00  0.00     0.000 HD 
BRANCH  21  23
HETATM   23  C   UNL     1     -11.573  14.249  69.465  1.00  0.00    -0.301 C  
BRANCH  23  24
HETATM   24  C   UNL     1     -10.508  14.391  68.367  1.00  0.00    -0.246 C  
BRANCH  24  25
HETATM   25  C   UNL     1     -11.062  14.116  66.995  1.00  0.00    -0.314 A  
HETATM   26  C   UNL     1     -11.667  12.884  66.721  1.00  0.00    -0.445 A  
HETATM   27  C   UNL     1     -12.193  12.625  65.454  1.00  0.00    -0.517 A  
HETATM   28  C   UNL     1     -12.109  13.595  64.458  1.00  0.00    -0.459 A  
HETATM   29  C   UNL     1     -11.497  14.819  64.722  1.00  0.00    -0.410 A  
HETATM   30  C   UNL     1     -10.972  15.079  65.986  1.00  0.00    -0.334 A  
ENDBRANCH  24  25
ENDBRANCH  23  24
ENDBRANCH  21  23
ENDBRANCH  20  21
ENDBRANCH  19  20
ENDBRANCH  18  19
ENDBRANCH  17  18
ENDBRANCH  16  17
ENDBRANCH  15  16
ENDBRANCH  13  15
ENDBRANCH  12  13
ENDBRANCH  11  12
ENDBRANCH   8  11
TORSDOF 13
ENDMDL
MODEL      190
REMARK 921   NORMALIZED FREE ENERGY PREDICTED BY IDOCK:   -3.96 KCAL/MOL
REMARK 922        TOTAL FREE ENERGY PREDICTED BY IDOCK:   -9.72 KCAL/MOL
REMARK 923 INTER-LIGAND FREE ENERGY PREDICTED BY IDOCK:   -8.64 KCAL/MOL
REMARK 924 INTRA-LIGAND FREE ENERGY PREDICTED BY IDOCK:   -1.08 KCAL/MOL
REMARK 927      BINDING AFFINITY PREDICTED BY RF-SCORE:    0.00 PKD
ROOT
HETATM    1  O   UNL     1      -7.432   3.487  64.258  1.00  0.00    -0.071 OA 
HETATM    2  H   UNL     1      -6.567   3.792  64.011  1.00  0.00     0.000 HD 
HETATM    3  C   UNL     1      -8.299   4.219  65.023  1.00  0.00    -0.115 A  
HETATM    4  C   UNL     1      -9.567   3.773  65.384  1.00  0.00    -0.174 A  
HETATM    5  C   UNL     1     -10.411   4.593  66.136  1.00  0.00    -0.310 A  
HETATM    6  O   UNL     1     -10.046   2.544  65.032  1.00  0.00    -0.333 OA 
HETATM    7  H   UNL     1     -10.911   2.239  65.278  1.00  0.00     0.000 HD 
HETATM    8  C   UNL     1      -9.994   5.872  66.522  1.00  0.00    -0.196 A  
HETATM    9  C   UNL     1      -7.856   5.470  65.441  1.00  0.00    -0.100 A  
HETATM   10  C   UNL     1      -8.697   6.294  66.191  1.00  0.00    -0.148 A  
ENDROOT
BRANCH   8  11
HETATM   11  C   UNL     1     -10.916   6.784  67.293  1.00  0.00    -0.433 C  
BRANCH  11  12
HETATM   12  C   UNL     1     -10.551   6.830  68.778  1.00  0.00    -0.226 C  
BRANCH  12  13
HETATM   13  N   UNL     1     -11.757   6.742  69.610  1.00  0.00    -0.642 NA 
HETATM   14  H   UNL     1     -12.484   6.173  69.174  1.00  0.00     0.000 HD 
BRANCH  13  15
HETATM   15  C   UNL     1     -11.401   6.257  70.940  1.00  0.00    -0.325 C  
BRANCH  15  16
HETATM   16  C   UNL     1     -12.003   7.157  72.015  1.00  0.00    -0.332 C  
BRANCH  16  17
HETATM   17  C   UNL     1     -12.668   8.362  71.355  1.00  0.00    -0.280 C  
BRANCH  17  18
HETATM   18  C   UNL     1     -11.771   9.586  71.424  1.00  0.00    -0.465 C  
BRANCH  18  19
HETATM   19  C   UNL     1     -12.525  10.841  70.986  1.00  0.00    -0.522 C  
BRANCH  19  20
HETATM   20  C   UNL     1     -11.937  11.337  69.673  1.00  0.00    -0.353 C  
BRANCH  20  21
HETATM   21  N   UNL     1     -10.559  10.881  69.509  1.00  0.00    -0.375 NA 
HETATM   22  H   UNL     1     -10.492   9.865  69.558  1.00  0.00     0.000 HD 
BRANCH  21  23
HETATM   23  C   UNL     1      -9.970  11.402  68.267  1.00  0.00    -0.198 C  
BRANCH  23  24
HETATM   24  C   UNL     1     -10.208  10.486  67.057  1.00  0.00    -0.275 C  
BRANCH  24  25
HETATM   25  C   UNL     1     -10.768  11.232  65.876  1.00  0.00    -0.291 A  
HETATM   26  C   UNL     1     -10.323  10.926  64.584  1.00  0.00    -0.407 A  
HETATM   27  C   UNL     1     -10.845  11.605  63.482  1.00  0.00    -0.497 A  
HETATM   28  C   UNL     1     -11.806  12.595  63.671  1.00  0.00    -0.606 A  
HETATM   29  C   UNL     1     -12.244  12.912  64.956  1.00  0.00    -0.515 A  
HETATM   30  C   UNL     1     -11.724  12.234  66.057  1.00  0.00    -0.451 A  
ENDBRANCH  24  25
ENDBRANCH  23  24
ENDBRANCH  21  23
ENDBRANCH  20  21
ENDBRANCH  19  20
ENDBRANCH  18  19
ENDBRANCH  17  18
ENDBRANCH  16  17
ENDBRANCH  15  16
ENDBRANCH  13  15
ENDBRANCH  12  13
ENDBRANCH  11  12
ENDBRANCH   8  11
TORSDOF 13
ENDMDL
MODEL      191
REMARK 921   NORMALIZED FREE ENERGY PREDICTED BY IDOCK:   -3.96 KCAL/MOL
REMARK 922        TOTAL FREE ENERGY PREDICTED BY IDOCK:   -9.72 KCAL/MOL
REMARK 923 INTER-LIGAND FREE ENERGY PREDICTED BY IDOCK:   -8.75 KCAL/MOL
REMARK 924 INTRA-LIGAND FREE ENERGY PREDICTED BY IDOCK:   -0.97 KCAL/MOL
REMARK 927      BINDING AFFINITY PREDICTED BY RF-SCORE:    0.00 PKD
ROOT
HETATM    1  O   UNL     1     -14.143  13.581  72.911  1.00  0.00    -0.585 OA 
HETATM    2  H   UNL     1     -14.332  12.861  73.500  1.00  0.00     0.000 HD 
HETATM    3  C   UNL     1     -13.388  13.449  71.778  1.00  0.00    -0.394 A  
HETATM    4  C   UNL     1     -13.111  14.505  70.914  1.00  0.00    -0.345 A  
HETATM    5  C   UNL     1     -12.364  14.285  69.755  1.00  0.00    -0.342 A  
HETATM    6  O   UNL     1     -13.542  15.780  71.143  1.00  0.00    -0.591 OA 
HETATM    7  H   UNL     1     -13.353  16.501  70.555  1.00  0.00     0.000 HD 
HETATM    8  C   UNL     1     -11.900  13.002  69.445  1.00  0.00    -0.380 A  
HETATM    9  C   UNL     1     -12.892  12.178  71.505  1.00  0.00    -0.394 A  
HETATM   10  C   UNL     1     -12.147  11.953  70.345  1.00  0.00    -0.421 A  
ENDROOT
BRANCH   8  11
HETATM   11  C   UNL     1     -11.134  12.745  68.171  1.00  0.00    -0.288 C  
BRANCH  11  12
HETATM   12  C   UNL     1     -11.742  13.496  66.986  1.00  0.00    -0.383 C  
BRANCH  12  13
HETATM   13  N   UNL     1     -11.162  13.026  65.723  1.00  0.00    -0.285 NA 
HETATM   14  H   UNL     1     -10.813  13.795  65.150  1.00  0.00     0.000 HD 
BRANCH  13  15
HETATM   15  C   UNL     1     -10.128  12.031  65.998  1.00  0.00    -0.230 C  
BRANCH  15  16
HETATM   16  C   UNL     1     -10.372  10.768  65.178  1.00  0.00    -0.341 C  
BRANCH  16  17
HETATM   17  C   UNL     1      -9.609   9.603  65.803  1.00  0.00    -0.329 C  
BRANCH  17  18
HETATM   18  C   UNL     1      -8.539   9.081  64.859  1.00  0.00    -0.206 C  
BRANCH  18  19
HETATM   19  C   UNL     1      -7.957   7.764  65.368  1.00  0.00    -0.125 C  
BRANCH  19  20
HETATM   20  C   UNL     1      -8.958   7.114  66.312  1.00  0.00    -0.155 C  
BRANCH  20  21
HETATM   21  N   UNL     1      -9.538   5.913  65.716  1.00  0.00    -0.370 NA 
HETATM   22  H   UNL     1      -8.817   5.257  65.417  1.00  0.00     0.000 HD 
BRANCH  21  23
HETATM   23  C   UNL     1     -10.502   5.279  66.628  1.00  0.00    -0.290 C  
BRANCH  23  24
HETATM   24  C   UNL     1     -11.074   6.252  67.670  1.00  0.00    -0.368 C  
BRANCH  24  25
HETATM   25  C   UNL     1     -10.795   5.807  69.081  1.00  0.00    -0.355 A  
HETATM   26  C   UNL     1     -11.521   6.361  70.142  1.00  0.00    -0.484 A  
HETATM   27  C   UNL     1     -11.277   5.946  71.453  1.00  0.00    -0.285 A  
HETATM   28  C   UNL     1     -10.303   4.983  71.704  1.00  0.00    -0.262 A  
HETATM   29  C   UNL     1      -9.569   4.437  70.652  1.00  0.00    -0.262 A  
HETATM   30  C   UNL     1      -9.812   4.850  69.343  1.00  0.00    -0.281 A  
ENDBRANCH  24  25
ENDBRANCH  23  24
ENDBRANCH  21  23
ENDBRANCH  20  21
ENDBRANCH  19  20
ENDBRANCH  18  19
ENDBRANCH  17  18
ENDBRANCH  16  17
ENDBRANCH  15  16
ENDBRANCH  13  15
ENDBRANCH  12  13
ENDBRANCH  11  12
ENDBRANCH   8  11
TORSDOF 13
ENDMDL
MODEL      192
REMARK 921   NORMALIZED FREE ENERGY PREDICTED BY IDOCK:   -3.95 KCAL/MOL
REMARK 922        TOTAL FREE ENERGY PREDICTED BY IDOCK:   -9.70 KCAL/MOL
REMARK 923 INTER-LIGAND FREE ENERGY PREDICTED BY IDOCK:   -8.05 KCAL/MOL
REMARK 924 INTRA-LIGAND FREE ENERGY PREDICTED BY IDOCK:   -1.65 KCAL/MOL
REMARK 927      BINDING AFFINITY PREDICTED BY RF-SCORE:    0.00 PKD
ROOT
HETATM    1  O   UNL     1      -6.696  15.202  68.360  1.00  0.00    -0.101 OA 
HETATM    2  H   UNL     1      -6.105  15.924  68.538  1.00  0.00     0.000 HD 
HETATM    3  C   UNL     1      -7.796  15.310  67.553  1.00  0.00    -0.176 A  
HETATM    4  C   UNL     1      -8.663  14.253  67.293  1.00  0.00    -0.218 A  
HETATM    5  C   UNL     1      -9.745  14.429  66.427  1.00  0.00    -0.320 A  
HETATM    6  O   UNL     1      -8.508  13.016  67.851  1.00  0.00    -0.161 OA 
HETATM    7  H   UNL     1      -9.100  12.294  67.673  1.00  0.00     0.000 HD 
HETATM    8  C   UNL     1      -9.958  15.664  65.806  1.00  0.00    -0.390 A  
HETATM    9  C   UNL     1      -8.026  16.556  66.979  1.00  0.00    -0.239 A  
HETATM   10  C   UNL     1      -9.105  16.736  66.110  1.00  0.00    -0.288 A  
ENDROOT
BRANCH   8  11
HETATM   11  C   UNL     1     -11.095  15.852  64.832  1.00  0.00    -0.400 C  
BRANCH  11  12
HETATM   12  C   UNL     1     -12.139  14.741  64.964  1.00  0.00    -0.291 C  
BRANCH  12  13
HETATM   13  N   UNL     1     -12.454  14.170  63.649  1.00  0.00    -1.071 NA 
HETATM   14  H   UNL     1     -12.432  14.872  62.909  1.00  0.00     0.000 HD 
BRANCH  13  15
HETATM   15  C   UNL     1     -11.559  13.050  63.373  1.00  0.00    -0.342 C  
BRANCH  15  16
HETATM   16  C   UNL     1     -12.120  11.760  63.962  1.00  0.00    -0.361 C  
BRANCH  16  17
HETATM   17  C   UNL     1     -11.469  11.495  65.317  1.00  0.00    -0.091 C  
BRANCH  17  18
HETATM   18  C   UNL     1     -10.041  11.003  65.150  1.00  0.00    -0.346 C  
BRANCH  18  19
HETATM   19  C   UNL     1      -9.905   9.554  65.613  1.00  0.00    -0.343 C  
BRANCH  19  20
HETATM   20  C   UNL     1      -8.762   9.461  66.614  1.00  0.00    -0.131 C  
BRANCH  20  21
HETATM   21  N   UNL     1      -8.694   8.129  67.210  1.00  0.00    -0.123 NA 
HETATM   22  H   UNL     1      -7.734   7.786  67.254  1.00  0.00     0.000 HD 
BRANCH  21  23
HETATM   23  C   UNL     1      -9.337   8.105  68.531  1.00  0.00    -0.138 C  
BRANCH  23  24
HETATM   24  C   UNL     1      -9.095   9.387  69.342  1.00  0.00    -0.162 C  
BRANCH  24  25
HETATM   25  C   UNL     1     -10.368   9.953  69.912  1.00  0.00    -0.298 A  
HETATM   26  C   UNL     1     -10.960   9.351  71.028  1.00  0.00    -0.409 A  
HETATM   27  C   UNL     1     -12.135   9.875  71.570  1.00  0.00    -0.496 A  
HETATM   28  C   UNL     1     -12.722  10.998  70.992  1.00  0.00    -0.485 A  
HETATM   29  C   UNL     1     -12.143  11.595  69.872  1.00  0.00    -0.373 A  
HETATM   30  C   UNL     1     -10.970  11.072  69.331  1.00  0.00    -0.301 A  
ENDBRANCH  24  25
ENDBRANCH  23  24
ENDBRANCH  21  23
ENDBRANCH  20  21
ENDBRANCH  19  20
ENDBRANCH  18  19
ENDBRANCH  17  18
ENDBRANCH  16  17
ENDBRANCH  15  16
ENDBRANCH  13  15
ENDBRANCH  12  13
ENDBRANCH  11  12
ENDBRANCH   8  11
TORSDOF 13
ENDMDL
MODEL      193
REMARK 921   NORMALIZED FREE ENERGY PREDICTED BY IDOCK:   -3.95 KCAL/MOL
REMARK 922        TOTAL FREE ENERGY PREDICTED BY IDOCK:   -9.70 KCAL/MOL
REMARK 923 INTER-LIGAND FREE ENERGY PREDICTED BY IDOCK:   -7.36 KCAL/MOL
REMARK 924 INTRA-LIGAND FREE ENERGY PREDICTED BY IDOCK:   -2.34 KCAL/MOL
REMARK 927      BINDING AFFINITY PREDICTED BY RF-SCORE:    0.00 PKD
ROOT
HETATM    1  O   UNL     1      -8.446  16.847  65.712  1.00  0.00    -0.492 OA 
HETATM    2  H   UNL     1      -8.338  17.732  65.386  1.00  0.00     0.000 HD 
HETATM    3  C   UNL     1      -9.091  16.548  66.881  1.00  0.00    -0.220 A  
HETATM    4  C   UNL     1      -9.250  15.251  67.359  1.00  0.00    -0.195 A  
HETATM    5  C   UNL     1      -9.954  15.020  68.543  1.00  0.00    -0.219 A  
HETATM    6  O   UNL     1      -8.742  14.159  66.716  1.00  0.00    -0.360 OA 
HETATM    7  H   UNL     1      -8.850  13.273  67.042  1.00  0.00     0.000 HD 
HETATM    8  C   UNL     1     -10.516  16.089  69.250  1.00  0.00    -0.257 A  
HETATM    9  C   UNL     1      -9.604  17.622  67.601  1.00  0.00    -0.268 A  
HETATM   10  C   UNL     1     -10.312  17.397  68.783  1.00  0.00    -0.357 A  
ENDROOT
BRANCH   8  11
HETATM   11  C   UNL     1     -11.319  15.847  70.504  1.00  0.00    -0.409 C  
BRANCH  11  12
HETATM   12  C   UNL     1     -12.341  14.725  70.311  1.00  0.00    -0.345 C  
BRANCH  12  13
HETATM   13  N   UNL     1     -12.134  13.662  71.302  1.00  0.00    -0.392 NA 
HETATM   14  H   UNL     1     -12.515  13.909  72.216  1.00  0.00     0.000 HD 
BRANCH  13  15
HETATM   15  C   UNL     1     -12.685  12.407  70.798  1.00  0.00    -0.123 C  
BRANCH  15  16
HETATM   16  C   UNL     1     -11.585  11.556  70.171  1.00  0.00    -0.336 C  
BRANCH  16  17
HETATM   17  C   UNL     1     -11.910  11.307  68.701  1.00  0.00    -0.369 C  
BRANCH  17  18
HETATM   18  C   UNL     1     -10.719  11.631  67.816  1.00  0.00    -0.244 C  
BRANCH  18  19
HETATM   19  C   UNL     1     -10.846  10.944  66.457  1.00  0.00    -0.234 C  
BRANCH  19  20
HETATM   20  C   UNL     1      -9.507  10.316  66.095  1.00  0.00    -0.181 C  
BRANCH  20  21
HETATM   21  N   UNL     1      -9.651   8.884  65.842  1.00  0.00    -0.383 NA 
HETATM   22  H   UNL     1      -9.152   8.600  65.000  1.00  0.00     0.000 HD 
BRANCH  21  23
HETATM   23  C   UNL     1      -9.236   8.095  67.011  1.00  0.00    -0.153 C  
BRANCH  23  24
HETATM   24  C   UNL     1     -10.409   7.713  67.927  1.00  0.00    -0.270 C  
BRANCH  24  25
HETATM   25  C   UNL     1     -10.138   8.041  69.370  1.00  0.00    -0.197 A  
HETATM   26  C   UNL     1     -11.074   7.695  70.352  1.00  0.00    -0.270 A  
HETATM   27  C   UNL     1     -10.826   7.986  71.694  1.00  0.00    -0.288 A  
HETATM   28  C   UNL     1      -9.644   8.629  72.056  1.00  0.00    -0.385 A  
HETATM   29  C   UNL     1      -8.714   8.987  71.081  1.00  0.00    -0.266 A  
HETATM   30  C   UNL     1      -8.961   8.697  69.740  1.00  0.00    -0.145 A  
ENDBRANCH  24  25
ENDBRANCH  23  24
ENDBRANCH  21  23
ENDBRANCH  20  21
ENDBRANCH  19  20
ENDBRANCH  18  19
ENDBRANCH  17  18
ENDBRANCH  16  17
ENDBRANCH  15  16
ENDBRANCH  13  15
ENDBRANCH  12  13
ENDBRANCH  11  12
ENDBRANCH   8  11
TORSDOF 13
ENDMDL
MODEL      194
REMARK 921   NORMALIZED FREE ENERGY PREDICTED BY IDOCK:   -3.94 KCAL/MOL
REMARK 922        TOTAL FREE ENERGY PREDICTED BY IDOCK:   -9.70 KCAL/MOL
REMARK 923 INTER-LIGAND FREE ENERGY PREDICTED BY IDOCK:   -7.57 KCAL/MOL
REMARK 924 INTRA-LIGAND FREE ENERGY PREDICTED BY IDOCK:   -2.13 KCAL/MOL
REMARK 927      BINDING AFFINITY PREDICTED BY RF-SCORE:    0.00 PKD
ROOT
HETATM    1  O   UNL     1      -8.683   6.032  67.061  1.00  0.00    -0.111 OA 
HETATM    2  H   UNL     1      -7.751   5.850  67.050  1.00  0.00     0.000 HD 
HETATM    3  C   UNL     1      -9.436   6.032  68.204  1.00  0.00    -0.114 A  
HETATM    4  C   UNL     1     -10.802   6.300  68.222  1.00  0.00    -0.319 A  
HETATM    5  C   UNL     1     -11.497   6.319  69.433  1.00  0.00    -0.348 A  
HETATM    6  O   UNL     1     -11.520   6.554  67.089  1.00  0.00    -0.768 OA 
HETATM    7  H   UNL     1     -12.452   6.736  67.100  1.00  0.00     0.000 HD 
HETATM    8  C   UNL     1     -10.825   6.083  70.638  1.00  0.00    -0.364 A  
HETATM    9  C   UNL     1      -8.767   5.749  69.391  1.00  0.00    -0.111 A  
HETATM   10  C   UNL     1      -9.457   5.770  70.604  1.00  0.00    -0.198 A  
ENDROOT
BRANCH   8  11
HETATM   11  C   UNL     1     -11.557   6.149  71.955  1.00  0.00    -0.364 C  
BRANCH  11  12
HETATM   12  C   UNL     1     -10.823   7.034  72.964  1.00  0.00    -0.309 C  
BRANCH  12  13
HETATM   13  N   UNL     1     -11.015   8.453  72.642  1.00  0.00    -0.322 NA 
HETATM   14  H   UNL     1     -10.325   8.791  71.971  1.00  0.00     0.000 HD 
BRANCH  13  15
HETATM   15  C   UNL     1     -12.383   8.672  72.183  1.00  0.00    -0.386 C  
BRANCH  15  16
HETATM   16  C   UNL     1     -12.466   9.938  71.336  1.00  0.00    -0.495 C  
BRANCH  16  17
HETATM   17  C   UNL     1     -11.512   9.819  70.151  1.00  0.00    -0.272 C  
BRANCH  17  18
HETATM   18  C   UNL     1     -10.940  11.175  69.773  1.00  0.00    -0.216 C  
BRANCH  18  19
HETATM   19  C   UNL     1     -12.024  12.251  69.797  1.00  0.00    -0.365 C  
BRANCH  19  20
HETATM   20  C   UNL     1     -11.624  13.376  68.853  1.00  0.00    -0.314 C  
BRANCH  20  21
HETATM   21  N   UNL     1     -10.226  13.754  69.051  1.00  0.00    -0.430 NA 
HETATM   22  H   UNL     1      -9.713  13.037  69.562  1.00  0.00     0.000 HD 
BRANCH  21  23
HETATM   23  C   UNL     1      -9.578  14.076  67.772  1.00  0.00    -0.216 C  
BRANCH  23  24
HETATM   24  C   UNL     1     -10.168  13.300  66.585  1.00  0.00    -0.265 C  
BRANCH  24  25
HETATM   25  C   UNL     1      -9.621  11.902  66.487  1.00  0.00    -0.226 A  
HETATM   26  C   UNL     1     -10.461  10.849  66.104  1.00  0.00    -0.290 A  
HETATM   27  C   UNL     1      -9.959   9.551  66.000  1.00  0.00    -0.348 A  
HETATM   28  C   UNL     1      -8.619   9.302  66.285  1.00  0.00    -0.139 A  
HETATM   29  C   UNL     1      -7.780  10.345  66.678  1.00  0.00    -0.117 A  
HETATM   30  C   UNL     1      -8.280  11.641  66.782  1.00  0.00    -0.161 A  
ENDBRANCH  24  25
ENDBRANCH  23  24
ENDBRANCH  21  23
ENDBRANCH  20  21
ENDBRANCH  19  20
ENDBRANCH  18  19
ENDBRANCH  17  18
ENDBRANCH  16  17
ENDBRANCH  15  16
ENDBRANCH  13  15
ENDBRANCH  12  13
ENDBRANCH  11  12
ENDBRANCH   8  11
TORSDOF 13
ENDMDL
MODEL      195
REMARK 921   NORMALIZED FREE ENERGY PREDICTED BY IDOCK:   -3.93 KCAL/MOL
REMARK 922        TOTAL FREE ENERGY PREDICTED BY IDOCK:   -9.66 KCAL/MOL
REMARK 923 INTER-LIGAND FREE ENERGY PREDICTED BY IDOCK:   -6.56 KCAL/MOL
REMARK 924 INTRA-LIGAND FREE ENERGY PREDICTED BY IDOCK:   -3.11 KCAL/MOL
REMARK 927      BINDING AFFINITY PREDICTED BY RF-SCORE:    0.00 PKD
ROOT
HETATM    1  O   UNL     1     -10.888   5.159  65.503  1.00  0.00    -0.570 OA 
HETATM    2  H   UNL     1     -11.362   5.821  65.014  1.00  0.00     0.000 HD 
HETATM    3  C   UNL     1     -10.692   5.219  66.856  1.00  0.00    -0.130 A  
HETATM    4  C   UNL     1     -10.000   4.249  67.574  1.00  0.00    -0.044 A  
HETATM    5  C   UNL     1      -9.872   4.359  68.960  1.00  0.00    -0.182 A  
HETATM    6  O   UNL     1      -9.422   3.163  66.981  1.00  0.00    -0.312 OA 
HETATM    7  H   UNL     1      -8.949   2.500  67.471  1.00  0.00     0.000 HD 
HETATM    8  C   UNL     1     -10.450   5.437  69.640  1.00  0.00    -0.361 A  
HETATM    9  C   UNL     1     -11.230   6.320  67.515  1.00  0.00    -0.234 A  
HETATM   10  C   UNL     1     -11.108   6.433  68.901  1.00  0.00    -0.420 A  
ENDROOT
BRANCH   8  11
HETATM   11  C   UNL     1     -10.360   5.540  71.142  1.00  0.00    -0.300 C  
BRANCH  11  12
HETATM   12  C   UNL     1     -11.434   6.470  71.709  1.00  0.00    -0.300 C  
BRANCH  12  13
HETATM   13  N   UNL     1     -10.867   7.348  72.739  1.00  0.00    -0.296 NA 
HETATM   14  H   UNL     1     -10.161   6.874  73.303  1.00  0.00     0.000 HD 
BRANCH  13  15
HETATM   15  C   UNL     1     -10.348   8.563  72.116  1.00  0.00    -0.339 C  
BRANCH  15  16
HETATM   16  C   UNL     1     -11.405   9.193  71.215  1.00  0.00    -0.406 C  
BRANCH  16  17
HETATM   17  C   UNL     1     -10.742  10.210  70.289  1.00  0.00    -0.352 C  
BRANCH  17  18
HETATM   18  C   UNL     1     -11.780  10.969  69.480  1.00  0.00    -0.400 C  
BRANCH  18  19
HETATM   19  C   UNL     1     -11.536  10.798  67.981  1.00  0.00    -0.333 C  
BRANCH  19  20
HETATM   20  C   UNL     1     -11.511  12.172  67.325  1.00  0.00    -0.345 C  
BRANCH  20  21
HETATM   21  N   UNL     1     -10.177  12.765  67.400  1.00  0.00    -0.221 NA 
HETATM   22  H   UNL     1      -9.875  12.886  68.366  1.00  0.00     0.000 HD 
BRANCH  21  23
HETATM   23  C   UNL     1      -9.205  11.984  66.623  1.00  0.00    -0.211 C  
BRANCH  23  24
HETATM   24  C   UNL     1      -7.847  11.840  67.328  1.00  0.00    -0.161 C  
BRANCH  24  25
HETATM   25  C   UNL     1      -7.762  10.586  68.155  1.00  0.00    -0.096 A  
HETATM   26  C   UNL     1      -8.238   9.375  67.637  1.00  0.00    -0.114 A  
HETATM   27  C   UNL     1      -8.153   8.205  68.393  1.00  0.00    -0.128 A  
HETATM   28  C   UNL     1      -7.600   8.245  69.671  1.00  0.00    -0.094 A  
HETATM   29  C   UNL     1      -7.136   9.450  70.196  1.00  0.00    -0.083 A  
HETATM   30  C   UNL     1      -7.219  10.619  69.442  1.00  0.00    -0.126 A  
ENDBRANCH  24  25
ENDBRANCH  23  24
ENDBRANCH  21  23
ENDBRANCH  20  21
ENDBRANCH  19  20
ENDBRANCH  18  19
ENDBRANCH  17  18
ENDBRANCH  16  17
ENDBRANCH  15  16
ENDBRANCH  13  15
ENDBRANCH  12  13
ENDBRANCH  11  12
ENDBRANCH   8  11
TORSDOF 13
ENDMDL
MODEL      196
REMARK 921   NORMALIZED FREE ENERGY PREDICTED BY IDOCK:   -3.92 KCAL/MOL
REMARK 922        TOTAL FREE ENERGY PREDICTED BY IDOCK:   -9.65 KCAL/MOL
REMARK 923 INTER-LIGAND FREE ENERGY PREDICTED BY IDOCK:   -7.73 KCAL/MOL
REMARK 924 INTRA-LIGAND FREE ENERGY PREDICTED BY IDOCK:   -1.91 KCAL/MOL
REMARK 927      BINDING AFFINITY PREDICTED BY RF-SCORE:    0.00 PKD
ROOT
HETATM    1  O   UNL     1      -8.002  12.993  68.856  1.00  0.00    -0.325 OA 
HETATM    2  H   UNL     1      -7.671  13.034  69.745  1.00  0.00     0.000 HD 
HETATM    3  C   UNL     1      -8.425  11.835  68.261  1.00  0.00    -0.161 A  
HETATM    4  C   UNL     1      -8.912  11.776  66.959  1.00  0.00    -0.186 A  
HETATM    5  C   UNL     1      -9.361  10.563  66.432  1.00  0.00    -0.197 A  
HETATM    6  O   UNL     1      -8.977  12.869  66.144  1.00  0.00    -0.438 OA 
HETATM    7  H   UNL     1      -9.309  12.829  65.254  1.00  0.00     0.000 HD 
HETATM    8  C   UNL     1      -9.339   9.402  67.213  1.00  0.00    -0.159 A  
HETATM    9  C   UNL     1      -8.354  10.678  69.031  1.00  0.00    -0.153 A  
HETATM   10  C   UNL     1      -8.805   9.464  68.510  1.00  0.00    -0.128 A  
ENDROOT
BRANCH   8  11
HETATM   11  C   UNL     1      -9.866   8.097  66.671  1.00  0.00    -0.331 C  
BRANCH  11  12
HETATM   12  C   UNL     1     -10.856   7.444  67.637  1.00  0.00    -0.149 C  
BRANCH  12  13
HETATM   13  N   UNL     1     -10.145   6.781  68.736  1.00  0.00    -0.154 NA 
HETATM   14  H   UNL     1      -9.615   7.441  69.305  1.00  0.00     0.000 HD 
BRANCH  13  15
HETATM   15  C   UNL     1     -11.089   6.002  69.532  1.00  0.00    -0.398 C  
BRANCH  15  16
HETATM   16  C   UNL     1     -11.505   6.778  70.777  1.00  0.00    -0.392 C  
BRANCH  16  17
HETATM   17  C   UNL     1     -10.300   7.533  71.332  1.00  0.00    -0.209 C  
BRANCH  17  18
HETATM   18  C   UNL     1     -10.684   8.940  71.756  1.00  0.00    -0.432 C  
BRANCH  18  19
HETATM   19  C   UNL     1     -12.202   9.085  71.854  1.00  0.00    -0.451 C  
BRANCH  19  20
HETATM   20  C   UNL     1     -12.641  10.270  71.005  1.00  0.00    -0.390 C  
BRANCH  20  21
HETATM   21  N   UNL     1     -12.209  10.110  69.618  1.00  0.00    -0.499 NA 
HETATM   22  H   UNL     1     -12.873   9.554  69.081  1.00  0.00     0.000 HD 
BRANCH  21  23
HETATM   23  C   UNL     1     -11.958  11.414  68.987  1.00  0.00    -0.320 C  
BRANCH  23  24
HETATM   24  C   UNL     1     -11.846  12.563  70.001  1.00  0.00    -0.363 C  
BRANCH  24  25
HETATM   25  C   UNL     1     -11.625  13.894  69.335  1.00  0.00    -0.350 A  
HETATM   26  C   UNL     1     -11.627  13.983  67.938  1.00  0.00    -0.377 A  
HETATM   27  C   UNL     1     -11.434  15.215  67.311  1.00  0.00    -0.284 A  
HETATM   28  C   UNL     1     -11.232  16.359  68.081  1.00  0.00    -0.273 A  
HETATM   29  C   UNL     1     -11.218  16.274  69.472  1.00  0.00    -0.308 A  
HETATM   30  C   UNL     1     -11.410  15.044  70.099  1.00  0.00    -0.303 A  
ENDBRANCH  24  25
ENDBRANCH  23  24
ENDBRANCH  21  23
ENDBRANCH  20  21
ENDBRANCH  19  20
ENDBRANCH  18  19
ENDBRANCH  17  18
ENDBRANCH  16  17
ENDBRANCH  15  16
ENDBRANCH  13  15
ENDBRANCH  12  13
ENDBRANCH  11  12
ENDBRANCH   8  11
TORSDOF 13
ENDMDL
MODEL      197
REMARK 921   NORMALIZED FREE ENERGY PREDICTED BY IDOCK:   -3.91 KCAL/MOL
REMARK 922        TOTAL FREE ENERGY PREDICTED BY IDOCK:   -9.64 KCAL/MOL
REMARK 923 INTER-LIGAND FREE ENERGY PREDICTED BY IDOCK:   -8.26 KCAL/MOL
REMARK 924 INTRA-LIGAND FREE ENERGY PREDICTED BY IDOCK:   -1.38 KCAL/MOL
REMARK 927      BINDING AFFINITY PREDICTED BY RF-SCORE:    0.00 PKD
ROOT
HETATM    1  O   UNL     1     -11.522   6.496  67.216  1.00  0.00    -0.754 OA 
HETATM    2  H   UNL     1     -12.173   6.822  67.826  1.00  0.00     0.000 HD 
HETATM    3  C   UNL     1     -10.392   7.191  66.878  1.00  0.00    -0.279 A  
HETATM    4  C   UNL     1      -9.438   6.713  65.985  1.00  0.00     0.065 A  
HETATM    5  C   UNL     1      -8.290   7.463  65.717  1.00  0.00    -0.141 A  
HETATM    6  O   UNL     1      -9.563   5.517  65.338  1.00  0.00    -0.364 OA 
HETATM    7  H   UNL     1      -8.912   5.191  64.728  1.00  0.00     0.000 HD 
HETATM    8  C   UNL     1      -8.085   8.692  66.354  1.00  0.00    -0.100 A  
HETATM    9  C   UNL     1     -10.222   8.433  67.480  1.00  0.00    -0.308 A  
HETATM   10  C   UNL     1      -9.074   9.185  67.219  1.00  0.00    -0.143 A  
ENDROOT
BRANCH   8  11
HETATM   11  C   UNL     1      -6.826   9.487  66.109  1.00  0.00    -0.090 C  
BRANCH  11  12
HETATM   12  C   UNL     1      -6.455   9.513  64.625  1.00  0.00    -0.089 C  
BRANCH  12  13
HETATM   13  N   UNL     1      -7.343  10.420  63.887  1.00  0.00    -0.318 NA 
HETATM   14  H   UNL     1      -6.906  11.325  63.711  1.00  0.00     0.000 HD 
BRANCH  13  15
HETATM   15  C   UNL     1      -7.789   9.775  62.655  1.00  0.00    -0.121 C  
BRANCH  15  16
HETATM   16  C   UNL     1      -9.234  10.153  62.348  1.00  0.00    -0.320 C  
BRANCH  16  17
HETATM   17  C   UNL     1      -9.838  10.872  63.552  1.00  0.00    -0.407 C  
BRANCH  17  18
HETATM   18  C   UNL     1     -10.766  11.991  63.110  1.00  0.00    -0.277 C  
BRANCH  18  19
HETATM   19  C   UNL     1     -12.094  11.928  63.864  1.00  0.00    -0.505 C  
BRANCH  19  20
HETATM   20  C   UNL     1     -11.978  12.752  65.138  1.00  0.00    -0.424 C  
BRANCH  20  21
HETATM   21  N   UNL     1     -11.541  11.925  66.261  1.00  0.00    -0.491 NA 
HETATM   22  H   UNL     1     -10.633  11.498  66.080  1.00  0.00     0.000 HD 
BRANCH  21  23
HETATM   23  C   UNL     1     -11.540  12.690  67.516  1.00  0.00    -0.359 C  
BRANCH  23  24
HETATM   24  C   UNL     1     -11.609  11.798  68.765  1.00  0.00    -0.367 C  
BRANCH  24  25
HETATM   25  C   UNL     1     -12.176  12.524  69.955  1.00  0.00    -0.233 A  
HETATM   26  C   UNL     1     -12.781  11.801  70.990  1.00  0.00    -0.372 A  
HETATM   27  C   UNL     1     -13.300  12.465  72.102  1.00  0.00    -0.508 A  
HETATM   28  C   UNL     1     -13.220  13.853  72.179  1.00  0.00    -0.536 A  
HETATM   29  C   UNL     1     -12.629  14.580  71.145  1.00  0.00    -0.406 A  
HETATM   30  C   UNL     1     -12.111  13.917  70.034  1.00  0.00    -0.411 A  
ENDBRANCH  24  25
ENDBRANCH  23  24
ENDBRANCH  21  23
ENDBRANCH  20  21
ENDBRANCH  19  20
ENDBRANCH  18  19
ENDBRANCH  17  18
ENDBRANCH  16  17
ENDBRANCH  15  16
ENDBRANCH  13  15
ENDBRANCH  12  13
ENDBRANCH  11  12
ENDBRANCH   8  11
TORSDOF 13
ENDMDL
MODEL      198
REMARK 921   NORMALIZED FREE ENERGY PREDICTED BY IDOCK:   -3.88 KCAL/MOL
REMARK 922        TOTAL FREE ENERGY PREDICTED BY IDOCK:   -9.58 KCAL/MOL
REMARK 923 INTER-LIGAND FREE ENERGY PREDICTED BY IDOCK:   -8.39 KCAL/MOL
REMARK 924 INTRA-LIGAND FREE ENERGY PREDICTED BY IDOCK:   -1.19 KCAL/MOL
REMARK 927      BINDING AFFINITY PREDICTED BY RF-SCORE:    0.00 PKD
ROOT
HETATM    1  O   UNL     1     -12.497  15.146  63.705  1.00  0.00    -0.985 OA 
HETATM    2  H   UNL     1     -12.417  16.081  63.854  1.00  0.00     0.000 HD 
HETATM    3  C   UNL     1     -11.804  14.208  64.420  1.00  0.00    -0.428 A  
HETATM    4  C   UNL     1     -11.921  12.838  64.202  1.00  0.00    -0.427 A  
HETATM    5  C   UNL     1     -11.210  11.937  64.998  1.00  0.00    -0.350 A  
HETATM    6  O   UNL     1     -12.716  12.310  63.225  1.00  0.00    -0.743 OA 
HETATM    7  H   UNL     1     -12.796  11.376  63.076  1.00  0.00     0.000 HD 
HETATM    8  C   UNL     1     -10.386  12.403  66.029  1.00  0.00    -0.275 A  
HETATM    9  C   UNL     1     -10.951  14.684  65.411  1.00  0.00    -0.358 A  
HETATM   10  C   UNL     1     -10.241  13.787  66.212  1.00  0.00    -0.298 A  
ENDROOT
BRANCH   8  11
HETATM   11  C   UNL     1      -9.651  11.438  66.926  1.00  0.00    -0.203 C  
BRANCH  11  12
HETATM   12  C   UNL     1      -8.422  12.086  67.565  1.00  0.00    -0.165 C  
BRANCH  12  13
HETATM   13  N   UNL     1      -8.277  11.654  68.960  1.00  0.00    -0.366 NA 
HETATM   14  H   UNL     1      -8.942  10.920  69.207  1.00  0.00     0.000 HD 
BRANCH  13  15
HETATM   15  C   UNL     1      -6.896  11.249  69.207  1.00  0.00    -0.116 C  
BRANCH  15  16
HETATM   16  C   UNL     1      -6.633   9.864  68.626  1.00  0.00    -0.050 C  
BRANCH  16  17
HETATM   17  C   UNL     1      -7.026   8.801  69.648  1.00  0.00    -0.050 C  
BRANCH  17  18
HETATM   18  C   UNL     1      -8.331   8.126  69.260  1.00  0.00    -0.130 C  
BRANCH  18  19
HETATM   19  C   UNL     1      -8.275   6.626  69.542  1.00  0.00    -0.130 C  
BRANCH  19  20
HETATM   20  C   UNL     1      -8.219   6.408  71.048  1.00  0.00    -0.122 C  
BRANCH  20  21
HETATM   21  N   UNL     1      -9.318   7.099  71.719  1.00  0.00    -0.147 NA 
HETATM   22  H   UNL     1      -9.513   8.002  71.288  1.00  0.00     0.000 HD 
BRANCH  21  23
HETATM   23  C   UNL     1     -10.521   6.255  71.772  1.00  0.00    -0.211 C  
BRANCH  23  24
HETATM   24  C   UNL     1     -11.617   6.706  70.795  1.00  0.00    -0.432 C  
BRANCH  24  25
HETATM   25  C   UNL     1     -12.110   8.097  71.092  1.00  0.00    -0.281 A  
HETATM   26  C   UNL     1     -11.518   9.196  70.458  1.00  0.00    -0.271 A  
HETATM   27  C   UNL     1     -11.977  10.489  70.719  1.00  0.00    -0.472 A  
HETATM   28  C   UNL     1     -13.022  10.684  71.618  1.00  0.00    -0.582 A  
HETATM   29  C   UNL     1     -13.607   9.594  72.261  1.00  0.00    -0.449 A  
HETATM   30  C   UNL     1     -13.150   8.303  72.001  1.00  0.00    -0.351 A  
ENDBRANCH  24  25
ENDBRANCH  23  24
ENDBRANCH  21  23
ENDBRANCH  20  21
ENDBRANCH  19  20
ENDBRANCH  18  19
ENDBRANCH  17  18
ENDBRANCH  16  17
ENDBRANCH  15  16
ENDBRANCH  13  15
ENDBRANCH  12  13
ENDBRANCH  11  12
ENDBRANCH   8  11
TORSDOF 13
ENDMDL
MODEL      199
REMARK 921   NORMALIZED FREE ENERGY PREDICTED BY IDOCK:   -3.88 KCAL/MOL
REMARK 922        TOTAL FREE ENERGY PREDICTED BY IDOCK:   -9.58 KCAL/MOL
REMARK 923 INTER-LIGAND FREE ENERGY PREDICTED BY IDOCK:   -7.77 KCAL/MOL
REMARK 924 INTRA-LIGAND FREE ENERGY PREDICTED BY IDOCK:   -1.81 KCAL/MOL
REMARK 927      BINDING AFFINITY PREDICTED BY RF-SCORE:    0.00 PKD
ROOT
HETATM    1  O   UNL     1      -5.881   9.704  66.660  1.00  0.00    -0.053 OA 
HETATM    2  H   UNL     1      -5.044   9.745  66.213  1.00  0.00     0.000 HD 
HETATM    3  C   UNL     1      -6.499  10.798  67.203  1.00  0.00    -0.074 A  
HETATM    4  C   UNL     1      -7.725  10.738  67.858  1.00  0.00    -0.100 A  
HETATM    5  C   UNL     1      -8.313  11.904  68.355  1.00  0.00    -0.157 A  
HETATM    6  O   UNL     1      -8.406   9.570  68.047  1.00  0.00    -0.117 OA 
HETATM    7  H   UNL     1      -9.243   9.529  68.495  1.00  0.00     0.000 HD 
HETATM    8  C   UNL     1      -7.681  13.141  68.185  1.00  0.00    -0.143 A  
HETATM    9  C   UNL     1      -5.839  12.015  67.071  1.00  0.00    -0.131 A  
HETATM   10  C   UNL     1      -6.424  13.184  67.563  1.00  0.00    -0.154 A  
ENDROOT
BRANCH   8  11
HETATM   11  C   UNL     1      -8.330  14.412  68.674  1.00  0.00    -0.147 C  
BRANCH  11  12
HETATM   12  C   UNL     1      -8.686  15.345  67.516  1.00  0.00    -0.175 C  
BRANCH  12  13
HETATM   13  N   UNL     1      -9.647  16.366  67.951  1.00  0.00    -0.227 NA 
HETATM   14  H   UNL     1      -9.196  17.123  68.466  1.00  0.00     0.000 HD 
BRANCH  13  15
HETATM   15  C   UNL     1     -10.399  16.855  66.799  1.00  0.00    -0.298 C  
BRANCH  15  16
HETATM   16  C   UNL     1     -10.207  15.927  65.604  1.00  0.00    -0.406 C  
BRANCH  16  17
HETATM   17  C   UNL     1     -11.410  16.045  64.671  1.00  0.00    -0.312 C  
BRANCH  17  18
HETATM   18  C   UNL     1     -11.964  14.675  64.319  1.00  0.00    -0.406 C  
BRANCH  18  19
HETATM   19  C   UNL     1     -12.752  14.087  65.488  1.00  0.00    -0.517 C  
BRANCH  19  20
HETATM   20  C   UNL     1     -12.197  12.706  65.812  1.00  0.00    -0.361 C  
BRANCH  20  21
HETATM   21  N   UNL     1     -11.302  12.758  66.965  1.00  0.00    -0.296 NA 
HETATM   22  H   UNL     1     -10.388  13.133  66.713  1.00  0.00     0.000 HD 
BRANCH  21  23
HETATM   23  C   UNL     1     -11.907  13.508  68.075  1.00  0.00    -0.365 C  
BRANCH  23  24
HETATM   24  C   UNL     1     -11.781  12.789  69.427  1.00  0.00    -0.380 C  
BRANCH  24  25
HETATM   25  C   UNL     1     -12.210  13.658  70.578  1.00  0.00    -0.438 A  
HETATM   26  C   UNL     1     -13.146  13.179  71.502  1.00  0.00    -0.404 A  
HETATM   27  C   UNL     1     -13.541  13.974  72.579  1.00  0.00    -0.670 A  
HETATM   28  C   UNL     1     -13.006  15.251  72.731  1.00  0.00    -0.535 A  
HETATM   29  C   UNL     1     -12.081  15.737  71.807  1.00  0.00    -0.541 A  
HETATM   30  C   UNL     1     -11.686  14.944  70.731  1.00  0.00    -0.364 A  
ENDBRANCH  24  25
ENDBRANCH  23  24
ENDBRANCH  21  23
ENDBRANCH  20  21
ENDBRANCH  19  20
ENDBRANCH  18  19
ENDBRANCH  17  18
ENDBRANCH  16  17
ENDBRANCH  15  16
ENDBRANCH  13  15
ENDBRANCH  12  13
ENDBRANCH  11  12
ENDBRANCH   8  11
TORSDOF 13
ENDMDL
MODEL      200
REMARK 921   NORMALIZED FREE ENERGY PREDICTED BY IDOCK:   -3.88 KCAL/MOL
REMARK 922        TOTAL FREE ENERGY PREDICTED BY IDOCK:   -9.58 KCAL/MOL
REMARK 923 INTER-LIGAND FREE ENERGY PREDICTED BY IDOCK:   -7.91 KCAL/MOL
REMARK 924 INTRA-LIGAND FREE ENERGY PREDICTED BY IDOCK:   -1.66 KCAL/MOL
REMARK 927      BINDING AFFINITY PREDICTED BY RF-SCORE:    0.00 PKD
ROOT
HETATM    1  O   UNL     1      -7.483  10.068  68.612  1.00  0.00    -0.079 OA 
HETATM    2  H   UNL     1      -7.030  10.731  69.120  1.00  0.00     0.000 HD 
HETATM    3  C   UNL     1      -8.314   9.132  69.166  1.00  0.00    -0.123 A  
HETATM    4  C   UNL     1      -8.978   8.161  68.423  1.00  0.00    -0.136 A  
HETATM    5  C   UNL     1      -9.841   7.262  69.054  1.00  0.00    -0.165 A  
HETATM    6  O   UNL     1      -8.830   8.036  67.071  1.00  0.00    -0.127 OA 
HETATM    7  H   UNL     1      -9.283   7.373  66.563  1.00  0.00     0.000 HD 
HETATM    8  C   UNL     1     -10.054   7.339  70.435  1.00  0.00    -0.196 A  
HETATM    9  C   UNL     1      -8.482   9.187  70.546  1.00  0.00    -0.236 A  
HETATM   10  C   UNL     1      -9.346   8.293  71.181  1.00  0.00    -0.205 A  
ENDROOT
BRANCH   8  11
HETATM   11  C   UNL     1     -11.021   6.404  71.119  1.00  0.00    -0.327 C  
BRANCH  11  12
HETATM   12  C   UNL     1     -12.474   6.809  70.862  1.00  0.00    -0.213 C  
BRANCH  12  13
HETATM   13  N   UNL     1     -13.126   7.216  72.112  1.00  0.00    -0.535 NA 
HETATM   14  H   UNL     1     -12.456   7.344  72.871  1.00  0.00     0.000 HD 
BRANCH  13  15
HETATM   15  C   UNL     1     -13.930   8.412  71.879  1.00  0.00    -0.421 C  
BRANCH  15  16
HETATM   16  C   UNL     1     -13.092   9.668  72.093  1.00  0.00    -0.520 C  
BRANCH  16  17
HETATM   17  C   UNL     1     -13.141  10.532  70.836  1.00  0.00    -0.390 C  
BRANCH  17  18
HETATM   18  C   UNL     1     -11.766  11.085  70.499  1.00  0.00    -0.416 C  
BRANCH  18  19
HETATM   19  C   UNL     1     -11.421  10.834  69.032  1.00  0.00    -0.368 C  
BRANCH  19  20
HETATM   20  C   UNL     1     -11.834  12.048  68.212  1.00  0.00    -0.287 C  
BRANCH  20  21
HETATM   21  N   UNL     1     -11.714  11.781  66.781  1.00  0.00    -0.571 NA 
HETATM   22  H   UNL     1     -12.491  11.217  66.438  1.00  0.00     0.000 HD 
BRANCH  21  23
HETATM   23  C   UNL     1     -11.574  13.029  66.018  1.00  0.00    -0.365 C  
BRANCH  23  24
HETATM   24  C   UNL     1     -12.110  14.258  66.769  1.00  0.00    -0.446 C  
BRANCH  24  25
HETATM   25  C   UNL     1     -11.042  15.291  67.011  1.00  0.00    -0.305 A  
HETATM   26  C   UNL     1     -10.893  15.853  68.284  1.00  0.00    -0.315 A  
HETATM   27  C   UNL     1      -9.899  16.804  68.521  1.00  0.00    -0.257 A  
HETATM   28  C   UNL     1      -9.056  17.198  67.484  1.00  0.00    -0.225 A  
HETATM   29  C   UNL     1      -9.208  16.649  66.211  1.00  0.00    -0.328 A  
HETATM   30  C   UNL     1     -10.201  15.700  65.974  1.00  0.00    -0.354 A  
ENDBRANCH  24  25
ENDBRANCH  23  24
ENDBRANCH  21  23
ENDBRANCH  20  21
ENDBRANCH  19  20
ENDBRANCH  18  19
ENDBRANCH  17  18
ENDBRANCH  16  17
ENDBRANCH  15  16
ENDBRANCH  13  15
ENDBRANCH  12  13
ENDBRANCH  11  12
ENDBRANCH   8  11
TORSDOF 13
ENDMDL
MODEL      201
REMARK 921   NORMALIZED FREE ENERGY PREDICTED BY IDOCK:   -3.88 KCAL/MOL
REMARK 922        TOTAL FREE ENERGY PREDICTED BY IDOCK:   -9.57 KCAL/MOL
REMARK 923 INTER-LIGAND FREE ENERGY PREDICTED BY IDOCK:   -7.16 KCAL/MOL
REMARK 924 INTRA-LIGAND FREE ENERGY PREDICTED BY IDOCK:   -2.41 KCAL/MOL
REMARK 927      BINDING AFFINITY PREDICTED BY RF-SCORE:    0.00 PKD
ROOT
HETATM    1  O   UNL     1     -13.196   8.936  72.620  1.00  0.00    -0.560 OA 
HETATM    2  H   UNL     1     -12.997   8.007  72.630  1.00  0.00     0.000 HD 
HETATM    3  C   UNL     1     -12.698   9.802  71.685  1.00  0.00    -0.422 A  
HETATM    4  C   UNL     1     -12.990  11.163  71.669  1.00  0.00    -0.443 A  
HETATM    5  C   UNL     1     -12.474  11.980  70.661  1.00  0.00    -0.335 A  
HETATM    6  O   UNL     1     -13.776  11.762  72.612  1.00  0.00    -0.410 OA 
HETATM    7  H   UNL     1     -13.975  12.690  72.602  1.00  0.00     0.000 HD 
HETATM    8  C   UNL     1     -11.672  11.435  69.651  1.00  0.00    -0.415 A  
HETATM    9  C   UNL     1     -11.863   9.259  70.714  1.00  0.00    -0.303 A  
HETATM   10  C   UNL     1     -11.348  10.070  69.702  1.00  0.00    -0.253 A  
ENDROOT
BRANCH   8  11
HETATM   11  C   UNL     1     -11.150  12.299  68.530  1.00  0.00    -0.290 C  
BRANCH  11  12
HETATM   12  C   UNL     1      -9.773  11.832  68.053  1.00  0.00    -0.185 C  
BRANCH  12  13
HETATM   13  N   UNL     1      -9.617  12.071  66.613  1.00  0.00    -0.211 NA 
HETATM   14  H   UNL     1      -8.758  12.578  66.399  1.00  0.00     0.000 HD 
BRANCH  13  15
HETATM   15  C   UNL     1      -9.702  10.803  65.894  1.00  0.00    -0.224 C  
BRANCH  15  16
HETATM   16  C   UNL     1      -9.340   9.642  66.814  1.00  0.00    -0.193 C  
BRANCH  16  17
HETATM   17  C   UNL     1     -10.015   8.368  66.314  1.00  0.00    -0.216 C  
BRANCH  17  18
HETATM   18  C   UNL     1     -10.639   7.594  67.463  1.00  0.00    -0.323 C  
BRANCH  18  19
HETATM   19  C   UNL     1     -10.696   6.100  67.147  1.00  0.00    -0.422 C  
BRANCH  19  20
HETATM   20  C   UNL     1      -9.297   5.513  67.280  1.00  0.00    -0.114 C  
BRANCH  20  21
HETATM   21  N   UNL     1      -9.284   4.396  68.221  1.00  0.00    -0.128 NA 
HETATM   22  H   UNL     1      -8.791   3.590  67.839  1.00  0.00     0.000 HD 
BRANCH  21  23
HETATM   23  C   UNL     1      -8.731   4.803  69.521  1.00  0.00    -0.086 C  
BRANCH  23  24
HETATM   24  C   UNL     1      -9.809   5.004  70.598  1.00  0.00    -0.282 C  
BRANCH  24  25
HETATM   25  C   UNL     1      -9.538   6.207  71.460  1.00  0.00    -0.172 A  
HETATM   26  C   UNL     1      -8.741   7.249  70.973  1.00  0.00    -0.140 A  
HETATM   27  C   UNL     1      -8.494   8.373  71.762  1.00  0.00    -0.220 A  
HETATM   28  C   UNL     1      -9.038   8.454  73.042  1.00  0.00    -0.258 A  
HETATM   29  C   UNL     1      -9.823   7.414  73.537  1.00  0.00    -0.363 A  
HETATM   30  C   UNL     1     -10.070   6.291  72.749  1.00  0.00    -0.194 A  
ENDBRANCH  24  25
ENDBRANCH  23  24
ENDBRANCH  21  23
ENDBRANCH  20  21
ENDBRANCH  19  20
ENDBRANCH  18  19
ENDBRANCH  17  18
ENDBRANCH  16  17
ENDBRANCH  15  16
ENDBRANCH  13  15
ENDBRANCH  12  13
ENDBRANCH  11  12
ENDBRANCH   8  11
TORSDOF 13
ENDMDL
MODEL      202
REMARK 921   NORMALIZED FREE ENERGY PREDICTED BY IDOCK:   -3.87 KCAL/MOL
REMARK 922        TOTAL FREE ENERGY PREDICTED BY IDOCK:   -9.57 KCAL/MOL
REMARK 923 INTER-LIGAND FREE ENERGY PREDICTED BY IDOCK:   -8.55 KCAL/MOL
REMARK 924 INTRA-LIGAND FREE ENERGY PREDICTED BY IDOCK:   -1.02 KCAL/MOL
REMARK 927      BINDING AFFINITY PREDICTED BY RF-SCORE:    0.00 PKD
ROOT
HETATM    1  O   UNL     1     -10.544   5.846  66.740  1.00  0.00    -0.259 OA 
HETATM    2  H   UNL     1     -10.425   5.961  65.805  1.00  0.00     0.000 HD 
HETATM    3  C   UNL     1     -10.599   6.888  67.626  1.00  0.00    -0.261 A  
HETATM    4  C   UNL     1     -10.774   6.719  68.997  1.00  0.00    -0.246 A  
HETATM    5  C   UNL     1     -10.858   7.833  69.835  1.00  0.00    -0.228 A  
HETATM    6  O   UNL     1     -10.873   5.491  69.584  1.00  0.00    -0.328 OA 
HETATM    7  H   UNL     1     -10.992   5.375  70.519  1.00  0.00     0.000 HD 
HETATM    8  C   UNL     1     -10.781   9.125  69.303  1.00  0.00    -0.199 A  
HETATM    9  C   UNL     1     -10.473   8.166  67.093  1.00  0.00    -0.396 A  
HETATM   10  C   UNL     1     -10.559   9.283  67.926  1.00  0.00    -0.288 A  
ENDROOT
BRANCH   8  11
HETATM   11  C   UNL     1     -10.919  10.335  70.194  1.00  0.00    -0.377 C  
BRANCH  11  12
HETATM   12  C   UNL     1     -11.837  11.390  69.573  1.00  0.00    -0.357 C  
BRANCH  12  13
HETATM   13  N   UNL     1     -11.384  12.741  69.926  1.00  0.00    -0.504 NA 
HETATM   14  H   UNL     1     -10.438  12.742  70.308  1.00  0.00     0.000 HD 
BRANCH  13  15
HETATM   15  C   UNL     1     -11.510  13.619  68.765  1.00  0.00    -0.309 C  
BRANCH  15  16
HETATM   16  C   UNL     1     -11.696  12.799  67.493  1.00  0.00    -0.422 C  
BRANCH  16  17
HETATM   17  C   UNL     1     -12.488  13.613  66.474  1.00  0.00    -0.337 C  
BRANCH  17  18
HETATM   18  C   UNL     1     -12.156  13.185  65.055  1.00  0.00    -0.458 C  
BRANCH  18  19
HETATM   19  C   UNL     1     -10.644  13.146  64.836  1.00  0.00    -0.366 C  
BRANCH  19  20
HETATM   20  C   UNL     1     -10.066  14.521  65.144  1.00  0.00    -0.327 C  
BRANCH  20  21
HETATM   21  N   UNL     1     -10.791  15.567  64.427  1.00  0.00    -0.712 NA 
HETATM   22  H   UNL     1     -11.698  15.237  64.098  1.00  0.00     0.000 HD 
BRANCH  21  23
HETATM   23  C   UNL     1     -10.922  16.780  65.248  1.00  0.00    -0.078 C  
BRANCH  23  24
HETATM   24  C   UNL     1     -10.483  16.571  66.705  1.00  0.00    -0.269 C  
BRANCH  24  25
HETATM   25  C   UNL     1      -9.548  17.650  67.181  1.00  0.00    -0.278 A  
HETATM   26  C   UNL     1      -8.464  18.035  66.383  1.00  0.00    -0.262 A  
HETATM   27  C   UNL     1      -7.599  19.042  66.812  1.00  0.00    -0.245 A  
HETATM   28  C   UNL     1      -7.812  19.661  68.042  1.00  0.00    -0.341 A  
HETATM   29  C   UNL     1      -8.883  19.273  68.845  1.00  0.00    -0.336 A  
HETATM   30  C   UNL     1      -9.748  18.268  68.418  1.00  0.00    -0.373 A  
ENDBRANCH  24  25
ENDBRANCH  23  24
ENDBRANCH  21  23
ENDBRANCH  20  21
ENDBRANCH  19  20
ENDBRANCH  18  19
ENDBRANCH  17  18
ENDBRANCH  16  17
ENDBRANCH  15  16
ENDBRANCH  13  15
ENDBRANCH  12  13
ENDBRANCH  11  12
ENDBRANCH   8  11
TORSDOF 13
ENDMDL
MODEL      203
REMARK 921   NORMALIZED FREE ENERGY PREDICTED BY IDOCK:   -3.87 KCAL/MOL
REMARK 922        TOTAL FREE ENERGY PREDICTED BY IDOCK:   -9.57 KCAL/MOL
REMARK 923 INTER-LIGAND FREE ENERGY PREDICTED BY IDOCK:   -8.31 KCAL/MOL
REMARK 924 INTRA-LIGAND FREE ENERGY PREDICTED BY IDOCK:   -1.26 KCAL/MOL
REMARK 927      BINDING AFFINITY PREDICTED BY RF-SCORE:    0.00 PKD
ROOT
HETATM    1  O   UNL     1     -12.314  14.749  63.378  1.00  0.00    -0.963 OA 
HETATM    2  H   UNL     1     -12.031  15.551  62.956  1.00  0.00     0.000 HD 
HETATM    3  C   UNL     1     -12.001  14.427  64.671  1.00  0.00    -0.464 A  
HETATM    4  C   UNL     1     -12.417  13.251  65.289  1.00  0.00    -0.489 A  
HETATM    5  C   UNL     1     -12.090  13.008  66.625  1.00  0.00    -0.386 A  
HETATM    6  O   UNL     1     -13.148  12.295  64.644  1.00  0.00    -0.770 OA 
HETATM    7  H   UNL     1     -13.432  11.493  65.066  1.00  0.00     0.000 HD 
HETATM    8  C   UNL     1     -11.356  13.949  67.355  1.00  0.00    -0.349 A  
HETATM    9  C   UNL     1     -11.230  15.347  65.373  1.00  0.00    -0.272 A  
HETATM   10  C   UNL     1     -10.904  15.110  66.710  1.00  0.00    -0.322 A  
ENDROOT
BRANCH   8  11
HETATM   11  C   UNL     1     -11.039  13.718  68.812  1.00  0.00    -0.295 C  
BRANCH  11  12
HETATM   12  C   UNL     1     -11.732  14.745  69.709  1.00  0.00    -0.310 C  
BRANCH  12  13
HETATM   13  N   UNL     1     -13.031  14.238  70.168  1.00  0.00    -0.416 NA 
HETATM   14  H   UNL     1     -13.286  13.364  69.708  1.00  0.00     0.000 HD 
BRANCH  13  15
HETATM   15  C   UNL     1     -13.022  14.112  71.623  1.00  0.00    -0.347 C  
BRANCH  15  16
HETATM   16  C   UNL     1     -12.384  12.792  72.041  1.00  0.00     0.526 C  
BRANCH  16  17
HETATM   17  C   UNL     1     -13.423  11.677  71.959  1.00  0.00    -0.304 C  
BRANCH  17  18
HETATM   18  C   UNL     1     -12.928  10.533  71.090  1.00  0.00    -0.506 C  
BRANCH  18  19
HETATM   19  C   UNL     1     -11.428  10.656  70.827  1.00  0.00    -0.307 C  
BRANCH  19  20
HETATM   20  C   UNL     1     -11.097   9.950  69.519  1.00  0.00    -0.217 C  
BRANCH  20  21
HETATM   21  N   UNL     1      -9.768   9.347  69.571  1.00  0.00    -0.173 NA 
HETATM   22  H   UNL     1      -9.798   8.407  69.966  1.00  0.00     0.000 HD 
BRANCH  21  23
HETATM   23  C   UNL     1      -9.128   9.356  68.247  1.00  0.00    -0.128 C  
BRANCH  23  24
HETATM   24  C   UNL     1     -10.070   8.904  67.120  1.00  0.00    -0.316 C  
BRANCH  24  25
HETATM   25  C   UNL     1      -9.831   7.474  66.715  1.00  0.00    -0.295 A  
HETATM   26  C   UNL     1     -10.784   6.495  67.020  1.00  0.00    -0.434 A  
HETATM   27  C   UNL     1     -10.576   5.169  66.639  1.00  0.00    -0.295 A  
HETATM   28  C   UNL     1      -9.412   4.819  65.957  1.00  0.00    -0.168 A  
HETATM   29  C   UNL     1      -8.455   5.788  65.661  1.00  0.00    -0.149 A  
HETATM   30  C   UNL     1      -8.662   7.113  66.042  1.00  0.00    -0.162 A  
ENDBRANCH  24  25
ENDBRANCH  23  24
ENDBRANCH  21  23
ENDBRANCH  20  21
ENDBRANCH  19  20
ENDBRANCH  18  19
ENDBRANCH  17  18
ENDBRANCH  16  17
ENDBRANCH  15  16
ENDBRANCH  13  15
ENDBRANCH  12  13
ENDBRANCH  11  12
ENDBRANCH   8  11
TORSDOF 13
ENDMDL
MODEL      204
REMARK 921   NORMALIZED FREE ENERGY PREDICTED BY IDOCK:   -3.86 KCAL/MOL
REMARK 922        TOTAL FREE ENERGY PREDICTED BY IDOCK:   -9.55 KCAL/MOL
REMARK 923 INTER-LIGAND FREE ENERGY PREDICTED BY IDOCK:   -8.67 KCAL/MOL
REMARK 924 INTRA-LIGAND FREE ENERGY PREDICTED BY IDOCK:   -0.87 KCAL/MOL
REMARK 927      BINDING AFFINITY PREDICTED BY RF-SCORE:    0.00 PKD
ROOT
HETATM    1  O   UNL     1     -10.231  19.452  69.383  1.00  0.00    -0.591 OA 
HETATM    2  H   UNL     1     -10.002  20.347  69.161  1.00  0.00     0.000 HD 
HETATM    3  C   UNL     1     -10.352  18.453  68.455  1.00  0.00    -0.327 A  
HETATM    4  C   UNL     1     -10.686  17.142  68.780  1.00  0.00    -0.289 A  
HETATM    5  C   UNL     1     -10.755  16.167  67.782  1.00  0.00    -0.325 A  
HETATM    6  O   UNL     1     -10.958  16.744  70.058  1.00  0.00    -0.415 OA 
HETATM    7  H   UNL     1     -11.187  15.849  70.280  1.00  0.00     0.000 HD 
HETATM    8  C   UNL     1     -10.475  16.498  66.452  1.00  0.00    -0.275 A  
HETATM    9  C   UNL     1     -10.119  18.803  67.129  1.00  0.00    -0.397 A  
HETATM   10  C   UNL     1     -10.182  17.832  66.128  1.00  0.00    -0.339 A  
ENDROOT
BRANCH   8  11
HETATM   11  C   UNL     1     -10.498  15.442  65.374  1.00  0.00    -0.426 C  
BRANCH  11  12
HETATM   12  C   UNL     1     -11.420  15.837  64.218  1.00  0.00    -0.198 C  
BRANCH  12  13
HETATM   13  N   UNL     1     -12.436  14.803  63.991  1.00  0.00    -1.000 NA 
HETATM   14  H   UNL     1     -12.220  14.224  63.179  1.00  0.00     0.000 HD 
BRANCH  13  15
HETATM   15  C   UNL     1     -12.607  14.008  65.204  1.00  0.00    -0.428 C  
BRANCH  15  16
HETATM   16  C   UNL     1     -12.030  12.610  65.012  1.00  0.00    -0.467 C  
BRANCH  16  17
HETATM   17  C   UNL     1     -11.788  11.967  66.375  1.00  0.00    -0.232 C  
BRANCH  17  18
HETATM   18  C   UNL     1     -12.075  12.948  67.499  1.00  0.00    -0.251 C  
BRANCH  18  19
HETATM   19  C   UNL     1     -11.837  12.300  68.863  1.00  0.00    -0.355 C  
BRANCH  19  20
HETATM   20  C   UNL     1     -11.247  10.913  68.654  1.00  0.00    -0.267 C  
BRANCH  20  21
HETATM   21  N   UNL     1     -10.501  10.478  69.832  1.00  0.00    -0.418 NA 
HETATM   22  H   UNL     1     -11.017  10.664  70.692  1.00  0.00     0.000 HD 
BRANCH  21  23
HETATM   23  C   UNL     1     -10.119   9.062  69.726  1.00  0.00    -0.200 C  
BRANCH  23  24
HETATM   24  C   UNL     1     -10.191   8.525  68.288  1.00  0.00    -0.244 C  
BRANCH  24  25
HETATM   25  C   UNL     1     -10.075   7.026  68.231  1.00  0.00    -0.185 A  
HETATM   26  C   UNL     1      -9.700   6.312  69.376  1.00  0.00    -0.162 A  
HETATM   27  C   UNL     1      -9.600   4.920  69.335  1.00  0.00    -0.239 A  
HETATM   28  C   UNL     1      -9.868   4.242  68.148  1.00  0.00    -0.107 A  
HETATM   29  C   UNL     1     -10.230   4.949  67.002  1.00  0.00    -0.233 A  
HETATM   30  C   UNL     1     -10.330   6.338  67.042  1.00  0.00    -0.300 A  
ENDBRANCH  24  25
ENDBRANCH  23  24
ENDBRANCH  21  23
ENDBRANCH  20  21
ENDBRANCH  19  20
ENDBRANCH  18  19
ENDBRANCH  17  18
ENDBRANCH  16  17
ENDBRANCH  15  16
ENDBRANCH  13  15
ENDBRANCH  12  13
ENDBRANCH  11  12
ENDBRANCH   8  11
TORSDOF 13
ENDMDL
MODEL      205
REMARK 921   NORMALIZED FREE ENERGY PREDICTED BY IDOCK:   -3.85 KCAL/MOL
REMARK 922        TOTAL FREE ENERGY PREDICTED BY IDOCK:   -9.53 KCAL/MOL
REMARK 923 INTER-LIGAND FREE ENERGY PREDICTED BY IDOCK:   -8.34 KCAL/MOL
REMARK 924 INTRA-LIGAND FREE ENERGY PREDICTED BY IDOCK:   -1.19 KCAL/MOL
REMARK 927      BINDING AFFINITY PREDICTED BY RF-SCORE:    0.00 PKD
ROOT
HETATM    1  O   UNL     1      -7.462  20.347  67.303  1.00  0.00    -0.288 OA 
HETATM    2  H   UNL     1      -6.582  20.315  67.660  1.00  0.00     0.000 HD 
HETATM    3  C   UNL     1      -8.426  19.420  67.592  1.00  0.00    -0.304 A  
HETATM    4  C   UNL     1      -9.715  19.466  67.070  1.00  0.00    -0.334 A  
HETATM    5  C   UNL     1     -10.658  18.505  67.441  1.00  0.00    -0.463 A  
HETATM    6  O   UNL     1     -10.121  20.427  66.189  1.00  0.00    -0.548 OA 
HETATM    7  H   UNL     1     -11.001  20.459  65.832  1.00  0.00     0.000 HD 
HETATM    8  C   UNL     1     -10.318  17.497  68.351  1.00  0.00    -0.378 A  
HETATM    9  C   UNL     1      -8.063  18.395  68.460  1.00  0.00    -0.340 A  
HETATM   10  C   UNL     1      -9.003  17.433  68.837  1.00  0.00    -0.157 A  
ENDROOT
BRANCH   8  11
HETATM   11  C   UNL     1     -11.343  16.482  68.795  1.00  0.00    -0.221 C  
BRANCH  11  12
HETATM   12  C   UNL     1     -11.298  16.263  70.309  1.00  0.00    -0.287 C  
BRANCH  12  13
HETATM   13  N   UNL     1     -12.643  15.994  70.832  1.00  0.00    -0.542 NA 
HETATM   14  H   UNL     1     -13.344  15.964  70.091  1.00  0.00     0.000 HD 
BRANCH  13  15
HETATM   15  C   UNL     1     -12.626  14.767  71.623  1.00  0.00    -0.328 C  
BRANCH  15  16
HETATM   16  C   UNL     1     -12.381  13.558  70.728  1.00  0.00    -0.440 C  
BRANCH  16  17
HETATM   17  C   UNL     1     -13.130  12.351  71.287  1.00  0.00    -0.218 C  
BRANCH  17  18
HETATM   18  C   UNL     1     -12.211  11.148  71.413  1.00  0.00    -0.237 C  
BRANCH  18  19
HETATM   19  C   UNL     1     -12.417  10.179  70.249  1.00  0.00    -0.174 C  
BRANCH  19  20
HETATM   20  C   UNL     1     -11.953  10.847  68.963  1.00  0.00    -0.251 C  
BRANCH  20  21
HETATM   21  N   UNL     1     -11.508   9.855  67.987  1.00  0.00    -0.581 NA 
HETATM   22  H   UNL     1     -12.030   9.928  67.114  1.00  0.00     0.000 HD 
BRANCH  21  23
HETATM   23  C   UNL     1     -10.059   9.944  67.761  1.00  0.00    -0.180 C  
BRANCH  23  24
HETATM   24  C   UNL     1      -9.698  10.372  66.330  1.00  0.00    -0.250 C  
BRANCH  24  25
HETATM   25  C   UNL     1      -9.996  11.825  66.075  1.00  0.00    -0.258 A  
HETATM   26  C   UNL     1      -9.236  12.814  66.710  1.00  0.00    -0.225 A  
HETATM   27  C   UNL     1      -9.499  14.164  66.471  1.00  0.00    -0.303 A  
HETATM   28  C   UNL     1     -10.525  14.526  65.602  1.00  0.00    -0.351 A  
HETATM   29  C   UNL     1     -11.292  13.545  64.975  1.00  0.00    -0.334 A  
HETATM   30  C   UNL     1     -11.031  12.197  65.213  1.00  0.00    -0.349 A  
ENDBRANCH  24  25
ENDBRANCH  23  24
ENDBRANCH  21  23
ENDBRANCH  20  21
ENDBRANCH  19  20
ENDBRANCH  18  19
ENDBRANCH  17  18
ENDBRANCH  16  17
ENDBRANCH  15  16
ENDBRANCH  13  15
ENDBRANCH  12  13
ENDBRANCH  11  12
ENDBRANCH   8  11
TORSDOF 13
ENDMDL
MODEL      206
REMARK 921   NORMALIZED FREE ENERGY PREDICTED BY IDOCK:   -3.85 KCAL/MOL
REMARK 922        TOTAL FREE ENERGY PREDICTED BY IDOCK:   -9.53 KCAL/MOL
REMARK 923 INTER-LIGAND FREE ENERGY PREDICTED BY IDOCK:   -8.12 KCAL/MOL
REMARK 924 INTRA-LIGAND FREE ENERGY PREDICTED BY IDOCK:   -1.41 KCAL/MOL
REMARK 927      BINDING AFFINITY PREDICTED BY RF-SCORE:    0.00 PKD
ROOT
HETATM    1  O   UNL     1     -12.225  13.373  70.936  1.00  0.00    -0.380 OA 
HETATM    2  H   UNL     1     -12.743  13.973  71.459  1.00  0.00     0.000 HD 
HETATM    3  C   UNL     1     -12.290  12.012  71.065  1.00  0.00    -0.238 A  
HETATM    4  C   UNL     1     -11.532  11.132  70.299  1.00  0.00    -0.237 A  
HETATM    5  C   UNL     1     -11.680   9.753  70.461  1.00  0.00    -0.343 A  
HETATM    6  O   UNL     1     -10.625  11.555  69.369  1.00  0.00    -0.411 OA 
HETATM    7  H   UNL     1     -10.106  10.955  68.846  1.00  0.00     0.000 HD 
HETATM    8  C   UNL     1     -12.601   9.245  71.384  1.00  0.00    -0.411 A  
HETATM    9  C   UNL     1     -13.174  11.519  72.019  1.00  0.00    -0.443 A  
HETATM   10  C   UNL     1     -13.329  10.140  72.183  1.00  0.00    -0.431 A  
ENDROOT
BRANCH   8  11
HETATM   11  C   UNL     1     -12.803   7.757  71.532  1.00  0.00    -0.357 C  
BRANCH  11  12
HETATM   12  C   UNL     1     -11.761   7.137  72.464  1.00  0.00    -0.180 C  
BRANCH  12  13
HETATM   13  N   UNL     1     -10.578   6.713  71.707  1.00  0.00    -0.213 NA 
HETATM   14  H   UNL     1      -9.917   6.193  72.286  1.00  0.00     0.000 HD 
BRANCH  13  15
HETATM   15  C   UNL     1     -10.994   5.955  70.530  1.00  0.00    -0.292 C  
BRANCH  15  16
HETATM   16  C   UNL     1     -10.335   6.516  69.274  1.00  0.00    -0.237 C  
BRANCH  16  17
HETATM   17  C   UNL     1     -10.970   5.882  68.040  1.00  0.00    -0.252 C  
BRANCH  17  18
HETATM   18  C   UNL     1     -10.641   6.675  66.787  1.00  0.00    -0.315 C  
BRANCH  18  19
HETATM   19  C   UNL     1     -10.408   8.148  67.120  1.00  0.00    -0.391 C  
BRANCH  19  20
HETATM   20  C   UNL     1      -9.170   8.632  66.378  1.00  0.00    -0.193 C  
BRANCH  20  21
HETATM   21  N   UNL     1      -8.700   9.906  66.917  1.00  0.00    -0.128 NA 
HETATM   22  H   UNL     1      -7.812   9.801  67.406  1.00  0.00     0.000 HD 
BRANCH  21  23
HETATM   23  C   UNL     1      -8.621  10.930  65.865  1.00  0.00    -0.176 C  
BRANCH  23  24
HETATM   24  C   UNL     1      -9.879  10.988  64.986  1.00  0.00    -0.321 C  
BRANCH  24  25
HETATM   25  C   UNL     1     -10.751  12.171  65.310  1.00  0.00    -0.328 A  
HETATM   26  C   UNL     1     -10.714  13.308  64.495  1.00  0.00    -0.428 A  
HETATM   27  C   UNL     1     -11.526  14.406  64.783  1.00  0.00    -0.402 A  
HETATM   28  C   UNL     1     -12.371  14.371  65.889  1.00  0.00    -0.342 A  
HETATM   29  C   UNL     1     -12.403  13.245  66.711  1.00  0.00    -0.239 A  
HETATM   30  C   UNL     1     -11.593  12.148  66.425  1.00  0.00    -0.429 A  
ENDBRANCH  24  25
ENDBRANCH  23  24
ENDBRANCH  21  23
ENDBRANCH  20  21
ENDBRANCH  19  20
ENDBRANCH  18  19
ENDBRANCH  17  18
ENDBRANCH  16  17
ENDBRANCH  15  16
ENDBRANCH  13  15
ENDBRANCH  12  13
ENDBRANCH  11  12
ENDBRANCH   8  11
TORSDOF 13
ENDMDL
MODEL      207
REMARK 921   NORMALIZED FREE ENERGY PREDICTED BY IDOCK:   -3.85 KCAL/MOL
REMARK 922        TOTAL FREE ENERGY PREDICTED BY IDOCK:   -9.53 KCAL/MOL
REMARK 923 INTER-LIGAND FREE ENERGY PREDICTED BY IDOCK:   -8.95 KCAL/MOL
REMARK 924 INTRA-LIGAND FREE ENERGY PREDICTED BY IDOCK:   -0.57 KCAL/MOL
REMARK 927      BINDING AFFINITY PREDICTED BY RF-SCORE:    0.00 PKD
ROOT
HETATM    1  O   UNL     1      -6.143  20.388  68.706  1.00  0.00    -0.295 OA 
HETATM    2  H   UNL     1      -5.867  21.289  68.585  1.00  0.00     0.000 HD 
HETATM    3  C   UNL     1      -7.228  19.841  68.075  1.00  0.00    -0.286 A  
HETATM    4  C   UNL     1      -7.632  18.521  68.252  1.00  0.00    -0.287 A  
HETATM    5  C   UNL     1      -8.728  18.023  67.544  1.00  0.00    -0.248 A  
HETATM    6  O   UNL     1      -6.997  17.661  69.101  1.00  0.00    -0.257 OA 
HETATM    7  H   UNL     1      -7.273  16.760  69.222  1.00  0.00     0.000 HD 
HETATM    8  C   UNL     1      -9.420  18.841  66.644  1.00  0.00    -0.346 A  
HETATM    9  C   UNL     1      -7.937  20.678  67.219  1.00  0.00    -0.327 A  
HETATM   10  C   UNL     1      -9.032  20.183  66.507  1.00  0.00    -0.392 A  
ENDROOT
BRANCH   8  11
HETATM   11  C   UNL     1     -10.575  18.299  65.839  1.00  0.00    -0.274 C  
BRANCH  11  12
HETATM   12  C   UNL     1     -10.591  16.769  65.836  1.00  0.00    -0.248 C  
BRANCH  12  13
HETATM   13  N   UNL     1     -10.915  16.258  64.499  1.00  0.00    -0.980 NA 
HETATM   14  H   UNL     1     -10.096  16.224  63.892  1.00  0.00     0.000 HD 
BRANCH  13  15
HETATM   15  C   UNL     1     -11.569  14.958  64.616  1.00  0.00    -0.395 C  
BRANCH  15  16
HETATM   16  C   UNL     1     -11.988  14.699  66.059  1.00  0.00    -0.248 C  
BRANCH  16  17
HETATM   17  C   UNL     1     -12.011  13.195  66.319  1.00  0.00    -0.473 C  
BRANCH  17  18
HETATM   18  C   UNL     1     -10.783  12.756  67.097  1.00  0.00    -0.264 C  
BRANCH  18  19
HETATM   19  C   UNL     1     -11.146  12.404  68.539  1.00  0.00    -0.296 C  
BRANCH  19  20
HETATM   20  C   UNL     1     -10.569  11.035  68.873  1.00  0.00    -0.207 C  
BRANCH  20  21
HETATM   21  N   UNL     1     -11.561  10.198  69.544  1.00  0.00    -0.432 NA 
HETATM   22  H   UNL     1     -11.791   9.373  68.991  1.00  0.00     0.000 HD 
BRANCH  21  23
HETATM   23  C   UNL     1     -11.119   9.835  70.899  1.00  0.00    -0.357 C  
BRANCH  23  24
HETATM   24  C   UNL     1     -12.125   8.940  71.640  1.00  0.00    -0.415 C  
BRANCH  24  25
HETATM   25  C   UNL     1     -11.468   7.740  72.266  1.00  0.00    -0.384 A  
HETATM   26  C   UNL     1     -10.289   7.896  73.004  1.00  0.00    -0.401 A  
HETATM   27  C   UNL     1      -9.679   6.790  73.598  1.00  0.00    -0.247 A  
HETATM   28  C   UNL     1     -10.243   5.525  73.449  1.00  0.00    -0.222 A  
HETATM   29  C   UNL     1     -11.411   5.362  72.705  1.00  0.00    -0.327 A  
HETATM   30  C   UNL     1     -12.021   6.466  72.112  1.00  0.00    -0.346 A  
ENDBRANCH  24  25
ENDBRANCH  23  24
ENDBRANCH  21  23
ENDBRANCH  20  21
ENDBRANCH  19  20
ENDBRANCH  18  19
ENDBRANCH  17  18
ENDBRANCH  16  17
ENDBRANCH  15  16
ENDBRANCH  13  15
ENDBRANCH  12  13
ENDBRANCH  11  12
ENDBRANCH   8  11
TORSDOF 13
ENDMDL
MODEL      208
REMARK 921   NORMALIZED FREE ENERGY PREDICTED BY IDOCK:   -3.85 KCAL/MOL
REMARK 922        TOTAL FREE ENERGY PREDICTED BY IDOCK:   -9.53 KCAL/MOL
REMARK 923 INTER-LIGAND FREE ENERGY PREDICTED BY IDOCK:   -8.65 KCAL/MOL
REMARK 924 INTRA-LIGAND FREE ENERGY PREDICTED BY IDOCK:   -0.88 KCAL/MOL
REMARK 927      BINDING AFFINITY PREDICTED BY RF-SCORE:    0.00 PKD
ROOT
HETATM    1  O   UNL     1     -12.618  14.210  63.235  1.00  0.00    -1.080 OA 
HETATM    2  H   UNL     1     -12.580  14.887  62.571  1.00  0.00     0.000 HD 
HETATM    3  C   UNL     1     -12.077  14.348  64.484  1.00  0.00    -0.481 A  
HETATM    4  C   UNL     1     -12.133  13.355  65.458  1.00  0.00    -0.428 A  
HETATM    5  C   UNL     1     -11.591  13.583  66.725  1.00  0.00    -0.397 A  
HETATM    6  O   UNL     1     -12.707  12.136  65.238  1.00  0.00    -0.430 OA 
HETATM    7  H   UNL     1     -12.745  11.458  65.902  1.00  0.00     0.000 HD 
HETATM    8  C   UNL     1     -10.999  14.815  67.029  1.00  0.00    -0.324 A  
HETATM    9  C   UNL     1     -11.449  15.558  64.760  1.00  0.00    -0.314 A  
HETATM   10  C   UNL     1     -10.908  15.792  66.026  1.00  0.00    -0.256 A  
ENDROOT
BRANCH   8  11
HETATM   11  C   UNL     1     -10.454  15.088  68.409  1.00  0.00    -0.238 C  
BRANCH  11  12
HETATM   12  C   UNL     1     -11.332  16.079  69.176  1.00  0.00    -0.352 C  
BRANCH  12  13
HETATM   13  N   UNL     1     -12.609  15.458  69.546  1.00  0.00    -0.614 NA 
HETATM   14  H   UNL     1     -12.703  14.516  69.166  1.00  0.00     0.000 HD 
BRANCH  13  15
HETATM   15  C   UNL     1     -12.764  15.485  70.998  1.00  0.00    -0.467 C  
BRANCH  15  16
HETATM   16  C   UNL     1     -12.184  14.219  71.620  1.00  0.00    -0.351 C  
BRANCH  16  17
HETATM   17  C   UNL     1     -13.262  13.139  71.675  1.00  0.00    -0.435 C  
BRANCH  17  18
HETATM   18  C   UNL     1     -12.669  11.763  71.426  1.00  0.00    -0.413 C  
BRANCH  18  19
HETATM   19  C   UNL     1     -13.716  10.671  71.638  1.00  0.00     0.057 C  
BRANCH  19  20
HETATM   20  C   UNL     1     -13.010   9.376  72.015  1.00  0.00    -0.423 C  
BRANCH  20  21
HETATM   21  N   UNL     1     -12.305   8.810  70.867  1.00  0.00    -0.486 NA 
HETATM   22  H   UNL     1     -11.999   9.536  70.220  1.00  0.00     0.000 HD 
BRANCH  21  23
HETATM   23  C   UNL     1     -11.184   7.963  71.298  1.00  0.00    -0.255 C  
BRANCH  23  24
HETATM   24  C   UNL     1      -9.935   8.768  71.686  1.00  0.00    -0.381 C  
BRANCH  24  25
HETATM   25  C   UNL     1      -8.660   8.067  71.301  1.00  0.00    -0.145 A  
HETATM   26  C   UNL     1      -8.710   6.778  70.757  1.00  0.00    -0.146 A  
HETATM   27  C   UNL     1      -7.534   6.124  70.387  1.00  0.00    -0.090 A  
HETATM   28  C   UNL     1      -6.305   6.755  70.567  1.00  0.00    -0.039 A  
HETATM   29  C   UNL     1      -6.248   8.034  71.119  1.00  0.00    -0.034 A  
HETATM   30  C   UNL     1      -7.423   8.688  71.489  1.00  0.00    -0.124 A  
ENDBRANCH  24  25
ENDBRANCH  23  24
ENDBRANCH  21  23
ENDBRANCH  20  21
ENDBRANCH  19  20
ENDBRANCH  18  19
ENDBRANCH  17  18
ENDBRANCH  16  17
ENDBRANCH  15  16
ENDBRANCH  13  15
ENDBRANCH  12  13
ENDBRANCH  11  12
ENDBRANCH   8  11
TORSDOF 13
ENDMDL
MODEL      209
REMARK 921   NORMALIZED FREE ENERGY PREDICTED BY IDOCK:   -3.84 KCAL/MOL
REMARK 922        TOTAL FREE ENERGY PREDICTED BY IDOCK:   -9.52 KCAL/MOL
REMARK 923 INTER-LIGAND FREE ENERGY PREDICTED BY IDOCK:   -8.32 KCAL/MOL
REMARK 924 INTRA-LIGAND FREE ENERGY PREDICTED BY IDOCK:   -1.21 KCAL/MOL
REMARK 927      BINDING AFFINITY PREDICTED BY RF-SCORE:    0.00 PKD
ROOT
HETATM    1  O   UNL     1      -9.734  17.201  66.559  1.00  0.00    -0.262 OA 
HETATM    2  H   UNL     1      -9.213  17.289  67.349  1.00  0.00     0.000 HD 
HETATM    3  C   UNL     1     -10.217  16.003  66.106  1.00  0.00    -0.324 A  
HETATM    4  C   UNL     1     -10.980  15.873  64.949  1.00  0.00    -0.411 A  
HETATM    5  C   UNL     1     -11.471  14.622  64.570  1.00  0.00    -0.340 A  
HETATM    6  O   UNL     1     -11.285  16.931  64.142  1.00  0.00    -1.386 OA 
HETATM    7  H   UNL     1     -11.805  16.843  63.352  1.00  0.00     0.000 HD 
HETATM    8  C   UNL     1     -11.213  13.493  65.356  1.00  0.00    -0.301 A  
HETATM    9  C   UNL     1      -9.913  14.880  66.869  1.00  0.00    -0.245 A  
HETATM   10  C   UNL     1     -10.405  13.628  66.496  1.00  0.00    -0.282 A  
ENDROOT
BRANCH   8  11
HETATM   11  C   UNL     1     -11.779  12.146  64.981  1.00  0.00    -0.371 C  
BRANCH  11  12
HETATM   12  C   UNL     1     -11.231  11.658  63.639  1.00  0.00    -0.411 C  
BRANCH  12  13
HETATM   13  N   UNL     1      -9.764  11.635  63.657  1.00  0.00    -0.447 NA 
HETATM   14  H   UNL     1      -9.383  12.080  64.492  1.00  0.00     0.000 HD 
BRANCH  13  15
HETATM   15  C   UNL     1      -9.293  10.261  63.502  1.00  0.00    -0.301 C  
BRANCH  15  16
HETATM   16  C   UNL     1      -9.243   9.559  64.855  1.00  0.00    -0.284 C  
BRANCH  16  17
HETATM   17  C   UNL     1      -8.679  10.514  65.903  1.00  0.00    -0.178 C  
BRANCH  17  18
HETATM   18  C   UNL     1      -9.238  10.204  67.282  1.00  0.00    -0.154 C  
BRANCH  18  19
HETATM   19  C   UNL     1      -8.157   9.619  68.190  1.00  0.00    -0.105 C  
BRANCH  19  20
HETATM   20  C   UNL     1      -7.641  10.715  69.112  1.00  0.00    -0.131 C  
BRANCH  20  21
HETATM   21  N   UNL     1      -7.533  10.235  70.488  1.00  0.00    -0.442 NA 
HETATM   22  H   UNL     1      -7.870  10.929  71.154  1.00  0.00     0.000 HD 
BRANCH  21  23
HETATM   23  C   UNL     1      -8.220   8.946  70.656  1.00  0.00    -0.162 C  
BRANCH  23  24
HETATM   24  C   UNL     1      -8.243   8.462  72.114  1.00  0.00    -0.207 C  
BRANCH  24  25
HETATM   25  C   UNL     1      -9.317   7.436  72.359  1.00  0.00    -0.179 A  
HETATM   26  C   UNL     1      -9.528   6.944  73.652  1.00  0.00    -0.218 A  
HETATM   27  C   UNL     1     -10.528   6.000  73.890  1.00  0.00    -0.286 A  
HETATM   28  C   UNL     1     -11.315   5.544  72.835  1.00  0.00    -0.348 A  
HETATM   29  C   UNL     1     -11.101   6.022  71.544  1.00  0.00    -0.336 A  
HETATM   30  C   UNL     1     -10.102   6.964  71.304  1.00  0.00    -0.203 A  
ENDBRANCH  24  25
ENDBRANCH  23  24
ENDBRANCH  21  23
ENDBRANCH  20  21
ENDBRANCH  19  20
ENDBRANCH  18  19
ENDBRANCH  17  18
ENDBRANCH  16  17
ENDBRANCH  15  16
ENDBRANCH  13  15
ENDBRANCH  12  13
ENDBRANCH  11  12
ENDBRANCH   8  11
TORSDOF 13
ENDMDL
MODEL      210
REMARK 921   NORMALIZED FREE ENERGY PREDICTED BY IDOCK:   -3.84 KCAL/MOL
REMARK 922        TOTAL FREE ENERGY PREDICTED BY IDOCK:   -9.52 KCAL/MOL
REMARK 923 INTER-LIGAND FREE ENERGY PREDICTED BY IDOCK:   -7.35 KCAL/MOL
REMARK 924 INTRA-LIGAND FREE ENERGY PREDICTED BY IDOCK:   -2.17 KCAL/MOL
REMARK 927      BINDING AFFINITY PREDICTED BY RF-SCORE:    0.00 PKD
ROOT
HETATM    1  O   UNL     1     -13.367   7.526  72.307  1.00  0.00    -0.507 OA 
HETATM    2  H   UNL     1     -14.146   7.538  71.763  1.00  0.00     0.000 HD 
HETATM    3  C   UNL     1     -12.112   7.790  71.830  1.00  0.00    -0.298 A  
HETATM    4  C   UNL     1     -10.971   7.774  72.627  1.00  0.00    -0.364 A  
HETATM    5  C   UNL     1      -9.727   8.091  72.077  1.00  0.00    -0.264 A  
HETATM    6  O   UNL     1     -11.001   7.458  73.955  1.00  0.00    -0.536 OA 
HETATM    7  H   UNL     1     -10.223   7.447  74.499  1.00  0.00     0.000 HD 
HETATM    8  C   UNL     1      -9.619   8.440  70.726  1.00  0.00    -0.203 A  
HETATM    9  C   UNL     1     -12.010   8.088  70.475  1.00  0.00     0.051 A  
HETATM   10  C   UNL     1     -10.769   8.409  69.922  1.00  0.00    -0.227 A  
ENDROOT
BRANCH   8  11
HETATM   11  C   UNL     1      -8.288   8.831  70.134  1.00  0.00    -0.131 C  
BRANCH  11  12
HETATM   12  C   UNL     1      -7.409   7.608  69.866  1.00  0.00    -0.081 C  
BRANCH  12  13
HETATM   13  N   UNL     1      -7.711   7.032  68.550  1.00  0.00    -0.117 NA 
HETATM   14  H   UNL     1      -8.649   6.631  68.513  1.00  0.00     0.000 HD 
BRANCH  13  15
HETATM   15  C   UNL     1      -7.501   8.038  67.514  1.00  0.00    -0.097 C  
BRANCH  15  16
HETATM   16  C   UNL     1      -8.628   7.991  66.488  1.00  0.00    -0.148 C  
BRANCH  16  17
HETATM   17  C   UNL     1      -9.483   9.250  66.612  1.00  0.00    -0.246 C  
BRANCH  17  18
HETATM   18  C   UNL     1      -8.630  10.502  66.496  1.00  0.00    -0.140 C  
BRANCH  18  19
HETATM   19  C   UNL     1      -9.202  11.456  65.449  1.00  0.00    -0.167 C  
BRANCH  19  20
HETATM   20  C   UNL     1     -10.722  11.392  65.499  1.00  0.00    -0.253 C  
BRANCH  20  21
HETATM   21  N   UNL     1     -11.277  12.590  66.124  1.00  0.00    -0.305 NA 
HETATM   22  H   UNL     1     -11.934  13.065  65.507  1.00  0.00     0.000 HD 
BRANCH  21  23
HETATM   23  C   UNL     1     -11.886  12.277  67.425  1.00  0.00    -0.257 C  
BRANCH  23  24
HETATM   24  C   UNL     1     -11.076  12.816  68.614  1.00  0.00    -0.304 C  
BRANCH  24  25
HETATM   25  C   UNL     1     -11.892  12.887  69.877  1.00  0.00    -0.373 A  
HETATM   26  C   UNL     1     -12.187  11.714  70.582  1.00  0.00    -0.461 A  
HETATM   27  C   UNL     1     -12.934  11.771  71.760  1.00  0.00    -0.466 A  
HETATM   28  C   UNL     1     -13.393  12.999  72.230  1.00  0.00    -0.606 A  
HETATM   29  C   UNL     1     -13.112  14.169  71.525  1.00  0.00    -0.424 A  
HETATM   30  C   UNL     1     -12.366  14.113  70.349  1.00  0.00    -0.428 A  
ENDBRANCH  24  25
ENDBRANCH  23  24
ENDBRANCH  21  23
ENDBRANCH  20  21
ENDBRANCH  19  20
ENDBRANCH  18  19
ENDBRANCH  17  18
ENDBRANCH  16  17
ENDBRANCH  15  16
ENDBRANCH  13  15
ENDBRANCH  12  13
ENDBRANCH  11  12
ENDBRANCH   8  11
TORSDOF 13
ENDMDL
MODEL      211
REMARK 921   NORMALIZED FREE ENERGY PREDICTED BY IDOCK:   -3.84 KCAL/MOL
REMARK 922        TOTAL FREE ENERGY PREDICTED BY IDOCK:   -9.52 KCAL/MOL
REMARK 923 INTER-LIGAND FREE ENERGY PREDICTED BY IDOCK:   -8.26 KCAL/MOL
REMARK 924 INTRA-LIGAND FREE ENERGY PREDICTED BY IDOCK:   -1.26 KCAL/MOL
REMARK 927      BINDING AFFINITY PREDICTED BY RF-SCORE:    0.00 PKD
ROOT
HETATM    1  O   UNL     1      -7.785   9.510  70.026  1.00  0.00    -0.105 OA 
HETATM    2  H   UNL     1      -7.165   9.900  70.631  1.00  0.00     0.000 HD 
HETATM    3  C   UNL     1      -8.849   8.747  70.424  1.00  0.00    -0.168 A  
HETATM    4  C   UNL     1      -9.757   8.176  69.538  1.00  0.00    -0.170 A  
HETATM    5  C   UNL     1     -10.842   7.441  70.021  1.00  0.00    -0.266 A  
HETATM    6  O   UNL     1      -9.644   8.299  68.182  1.00  0.00    -0.146 OA 
HETATM    7  H   UNL     1     -10.263   7.909  67.577  1.00  0.00     0.000 HD 
HETATM    8  C   UNL     1     -11.032   7.284  71.398  1.00  0.00    -0.256 A  
HETATM    9  C   UNL     1      -9.001   8.558  71.794  1.00  0.00    -0.288 A  
HETATM   10  C   UNL     1     -10.086   7.827  72.282  1.00  0.00    -0.277 A  
ENDROOT
BRANCH   8  11
HETATM   11  C   UNL     1     -12.226   6.533  71.932  1.00  0.00    -0.373 C  
BRANCH  11  12
HETATM   12  C   UNL     1     -13.541   7.195  71.514  1.00  0.00    -0.319 C  
BRANCH  12  13
HETATM   13  N   UNL     1     -13.961   8.186  72.512  1.00  0.00    -0.583 NA 
HETATM   14  H   UNL     1     -13.314   8.236  73.299  1.00  0.00     0.000 HD 
BRANCH  13  15
HETATM   15  C   UNL     1     -14.146   9.483  71.867  1.00  0.00    -0.080 C  
BRANCH  15  16
HETATM   16  C   UNL     1     -12.816  10.222  71.765  1.00  0.00    -0.565 C  
BRANCH  16  17
HETATM   17  C   UNL     1     -12.879  11.225  70.616  1.00  0.00    -0.226 C  
BRANCH  17  18
HETATM   18  C   UNL     1     -11.562  11.272  69.859  1.00  0.00    -0.413 C  
BRANCH  18  19
HETATM   19  C   UNL     1     -11.678  12.154  68.617  1.00  0.00    -0.382 C  
BRANCH  19  20
HETATM   20  C   UNL     1     -10.456  13.059  68.539  1.00  0.00    -0.249 C  
BRANCH  20  21
HETATM   21  N   UNL     1     -10.694  14.323  69.231  1.00  0.00    -0.357 NA 
HETATM   22  H   UNL     1     -10.487  14.250  70.227  1.00  0.00     0.000 HD 
BRANCH  21  23
HETATM   23  C   UNL     1      -9.947  15.422  68.602  1.00  0.00    -0.210 C  
BRANCH  23  24
HETATM   24  C   UNL     1     -10.852  16.565  68.117  1.00  0.00    -0.345 C  
BRANCH  24  25
HETATM   25  C   UNL     1     -10.092  17.847  67.909  1.00  0.00    -0.350 A  
HETATM   26  C   UNL     1     -10.753  18.975  67.409  1.00  0.00    -0.559 A  
HETATM   27  C   UNL     1     -10.058  20.172  67.223  1.00  0.00    -0.572 A  
HETATM   28  C   UNL     1      -8.701  20.239  67.529  1.00  0.00    -0.401 A  
HETATM   29  C   UNL     1      -8.035  19.114  68.016  1.00  0.00    -0.331 A  
HETATM   30  C   UNL     1      -8.728  17.920  68.202  1.00  0.00    -0.268 A  
ENDBRANCH  24  25
ENDBRANCH  23  24
ENDBRANCH  21  23
ENDBRANCH  20  21
ENDBRANCH  19  20
ENDBRANCH  18  19
ENDBRANCH  17  18
ENDBRANCH  16  17
ENDBRANCH  15  16
ENDBRANCH  13  15
ENDBRANCH  12  13
ENDBRANCH  11  12
ENDBRANCH   8  11
TORSDOF 13
ENDMDL
MODEL      212
REMARK 921   NORMALIZED FREE ENERGY PREDICTED BY IDOCK:   -3.84 KCAL/MOL
REMARK 922        TOTAL FREE ENERGY PREDICTED BY IDOCK:   -9.51 KCAL/MOL
REMARK 923 INTER-LIGAND FREE ENERGY PREDICTED BY IDOCK:   -7.44 KCAL/MOL
REMARK 924 INTRA-LIGAND FREE ENERGY PREDICTED BY IDOCK:   -2.07 KCAL/MOL
REMARK 927      BINDING AFFINITY PREDICTED BY RF-SCORE:    0.00 PKD
ROOT
HETATM    1  O   UNL     1      -6.303  19.777  70.049  1.00  0.00    -0.323 OA 
HETATM    2  H   UNL     1      -6.632  20.647  70.240  1.00  0.00     0.000 HD 
HETATM    3  C   UNL     1      -6.910  18.917  69.175  1.00  0.00    -0.296 A  
HETATM    4  C   UNL     1      -6.427  17.643  68.893  1.00  0.00    -0.215 A  
HETATM    5  C   UNL     1      -7.081  16.835  67.961  1.00  0.00    -0.159 A  
HETATM    6  O   UNL     1      -5.316  17.124  69.494  1.00  0.00    -0.153 OA 
HETATM    7  H   UNL     1      -4.986  16.254  69.302  1.00  0.00     0.000 HD 
HETATM    8  C   UNL     1      -8.218  17.304  67.293  1.00  0.00    -0.213 A  
HETATM    9  C   UNL     1      -8.067  19.376  68.553  1.00  0.00    -0.396 A  
HETATM   10  C   UNL     1      -8.722  18.573  67.617  1.00  0.00    -0.280 A  
ENDROOT
BRANCH   8  11
HETATM   11  C   UNL     1      -8.903  16.458  66.248  1.00  0.00    -0.367 C  
BRANCH  11  12
HETATM   12  C   UNL     1     -10.316  16.963  65.952  1.00  0.00    -0.315 C  
BRANCH  12  13
HETATM   13  N   UNL     1     -11.013  16.047  65.041  1.00  0.00    -0.466 NA 
HETATM   14  H   UNL     1     -11.126  16.445  64.109  1.00  0.00     0.000 HD 
BRANCH  13  15
HETATM   15  C   UNL     1     -10.318  14.763  65.011  1.00  0.00    -0.389 C  
BRANCH  15  16
HETATM   16  C   UNL     1     -11.319  13.617  64.904  1.00  0.00    -0.353 C  
BRANCH  16  17
HETATM   17  C   UNL     1     -11.665  13.113  66.302  1.00  0.00    -0.424 C  
BRANCH  17  18
HETATM   18  C   UNL     1     -10.591  13.500  67.305  1.00  0.00    -0.263 C  
BRANCH  18  19
HETATM   19  C   UNL     1     -10.613  12.568  68.515  1.00  0.00    -0.262 C  
BRANCH  19  20
HETATM   20  C   UNL     1     -12.034  12.065  68.726  1.00  0.00    -0.244 C  
BRANCH  20  21
HETATM   21  N   UNL     1     -12.049  10.628  68.988  1.00  0.00    -0.714 NA 
HETATM   22  H   UNL     1     -12.408  10.105  68.189  1.00  0.00     0.000 HD 
BRANCH  21  23
HETATM   23  C   UNL     1     -10.720  10.149  69.395  1.00  0.00    -0.238 C  
BRANCH  23  24
HETATM   24  C   UNL     1     -10.165   9.054  68.471  1.00  0.00    -0.224 C  
BRANCH  24  25
HETATM   25  C   UNL     1      -9.599   9.615  67.195  1.00  0.00    -0.210 A  
HETATM   26  C   UNL     1     -10.355   9.570  66.017  1.00  0.00    -0.130 A  
HETATM   27  C   UNL     1      -9.842  10.098  64.832  1.00  0.00    -0.390 A  
HETATM   28  C   UNL     1      -8.570  10.666  64.820  1.00  0.00    -0.136 A  
HETATM   29  C   UNL     1      -7.808  10.702  65.987  1.00  0.00    -0.156 A  
HETATM   30  C   UNL     1      -8.319  10.175  67.171  1.00  0.00    -0.125 A  
ENDBRANCH  24  25
ENDBRANCH  23  24
ENDBRANCH  21  23
ENDBRANCH  20  21
ENDBRANCH  19  20
ENDBRANCH  18  19
ENDBRANCH  17  18
ENDBRANCH  16  17
ENDBRANCH  15  16
ENDBRANCH  13  15
ENDBRANCH  12  13
ENDBRANCH  11  12
ENDBRANCH   8  11
TORSDOF 13
ENDMDL
MODEL      213
REMARK 921   NORMALIZED FREE ENERGY PREDICTED BY IDOCK:   -3.83 KCAL/MOL
REMARK 922        TOTAL FREE ENERGY PREDICTED BY IDOCK:   -9.49 KCAL/MOL
REMARK 923 INTER-LIGAND FREE ENERGY PREDICTED BY IDOCK:   -7.97 KCAL/MOL
REMARK 924 INTRA-LIGAND FREE ENERGY PREDICTED BY IDOCK:   -1.51 KCAL/MOL
REMARK 927      BINDING AFFINITY PREDICTED BY RF-SCORE:    0.00 PKD
ROOT
HETATM    1  O   UNL     1      -9.532  17.566  65.684  1.00  0.00    -0.498 OA 
HETATM    2  H   UNL     1      -8.924  18.007  66.266  1.00  0.00     0.000 HD 
HETATM    3  C   UNL     1      -9.883  16.251  65.819  1.00  0.00    -0.299 A  
HETATM    4  C   UNL     1     -10.774  15.604  64.967  1.00  0.00    -0.436 A  
HETATM    5  C   UNL     1     -11.114  14.268  65.189  1.00  0.00    -0.354 A  
HETATM    6  O   UNL     1     -11.352  16.222  63.895  1.00  0.00    -1.415 OA 
HETATM    7  H   UNL     1     -11.959  15.781  63.313  1.00  0.00     0.000 HD 
HETATM    8  C   UNL     1     -10.574  13.574  66.277  1.00  0.00    -0.288 A  
HETATM    9  C   UNL     1      -9.303  15.556  66.875  1.00  0.00    -0.252 A  
HETATM   10  C   UNL     1      -9.643  14.221  67.104  1.00  0.00    -0.245 A  
ENDROOT
BRANCH   8  11
HETATM   11  C   UNL     1     -10.972  12.145  66.555  1.00  0.00    -0.325 C  
BRANCH  11  12
HETATM   12  C   UNL     1     -11.728  12.018  67.879  1.00  0.00    -0.323 C  
BRANCH  12  13
HETATM   13  N   UNL     1     -10.813  11.639  68.963  1.00  0.00    -0.252 NA 
HETATM   14  H   UNL     1     -10.802  12.329  69.714  1.00  0.00     0.000 HD 
BRANCH  13  15
HETATM   15  C   UNL     1     -11.152  10.304  69.446  1.00  0.00    -0.252 C  
BRANCH  15  16
HETATM   16  C   UNL     1     -10.010   9.734  70.282  1.00  0.00    -0.309 C  
BRANCH  16  17
HETATM   17  C   UNL     1      -8.697   9.887  69.519  1.00  0.00    -0.200 C  
BRANCH  17  18
HETATM   18  C   UNL     1      -8.498   8.745  68.538  1.00  0.00    -0.130 C  
BRANCH  18  19
HETATM   19  C   UNL     1      -7.736   7.592  69.189  1.00  0.00    -0.113 C  
BRANCH  19  20
HETATM   20  C   UNL     1      -7.758   6.394  68.249  1.00  0.00    -0.104 C  
BRANCH  20  21
HETATM   21  N   UNL     1      -8.859   6.495  67.295  1.00  0.00    -0.112 NA 
HETATM   22  H   UNL     1      -8.519   6.545  66.335  1.00  0.00     0.000 HD 
BRANCH  21  23
HETATM   23  C   UNL     1      -9.819   5.397  67.473  1.00  0.00    -0.150 C  
BRANCH  23  24
HETATM   24  C   UNL     1     -11.143   5.852  68.107  1.00  0.00    -0.121 C  
BRANCH  24  25
HETATM   25  C   UNL     1     -11.105   5.801  69.610  1.00  0.00    -0.306 A  
HETATM   26  C   UNL     1     -11.786   6.769  70.358  1.00  0.00    -0.418 A  
HETATM   27  C   UNL     1     -11.764   6.723  71.753  1.00  0.00    -0.353 A  
HETATM   28  C   UNL     1     -11.057   5.714  72.402  1.00  0.00    -0.324 A  
HETATM   29  C   UNL     1     -10.367   4.755  71.662  1.00  0.00    -0.215 A  
HETATM   30  C   UNL     1     -10.388   4.799  70.269  1.00  0.00    -0.180 A  
ENDBRANCH  24  25
ENDBRANCH  23  24
ENDBRANCH  21  23
ENDBRANCH  20  21
ENDBRANCH  19  20
ENDBRANCH  18  19
ENDBRANCH  17  18
ENDBRANCH  16  17
ENDBRANCH  15  16
ENDBRANCH  13  15
ENDBRANCH  12  13
ENDBRANCH  11  12
ENDBRANCH   8  11
TORSDOF 13
ENDMDL
MODEL      214
REMARK 921   NORMALIZED FREE ENERGY PREDICTED BY IDOCK:   -3.82 KCAL/MOL
REMARK 922        TOTAL FREE ENERGY PREDICTED BY IDOCK:   -9.47 KCAL/MOL
REMARK 923 INTER-LIGAND FREE ENERGY PREDICTED BY IDOCK:   -8.51 KCAL/MOL
REMARK 924 INTRA-LIGAND FREE ENERGY PREDICTED BY IDOCK:   -0.97 KCAL/MOL
REMARK 927      BINDING AFFINITY PREDICTED BY RF-SCORE:    0.00 PKD
ROOT
HETATM    1  O   UNL     1     -11.832  16.513  72.582  1.00  0.00    -0.541 OA 
HETATM    2  H   UNL     1     -11.403  17.361  72.601  1.00  0.00     0.000 HD 
HETATM    3  C   UNL     1     -11.963  15.762  71.445  1.00  0.00    -0.441 A  
HETATM    4  C   UNL     1     -12.591  14.520  71.416  1.00  0.00    -0.341 A  
HETATM    5  C   UNL     1     -12.654  13.794  70.225  1.00  0.00    -0.288 A  
HETATM    6  O   UNL     1     -13.164  13.955  72.520  1.00  0.00    -0.462 OA 
HETATM    7  H   UNL     1     -13.592  13.108  72.500  1.00  0.00     0.000 HD 
HETATM    8  C   UNL     1     -12.076  14.302  69.056  1.00  0.00    -0.320 A  
HETATM    9  C   UNL     1     -11.427  16.298  70.279  1.00  0.00    -0.244 A  
HETATM   10  C   UNL     1     -11.485  15.574  69.086  1.00  0.00    -0.356 A  
ENDROOT
BRANCH   8  11
HETATM   11  C   UNL     1     -12.096  13.503  67.776  1.00  0.00    -0.316 C  
BRANCH  11  12
HETATM   12  C   UNL     1     -12.146  14.412  66.546  1.00  0.00    -0.372 C  
BRANCH  12  13
HETATM   13  N   UNL     1     -12.944  13.795  65.480  1.00  0.00    -0.672 NA 
HETATM   14  H   UNL     1     -13.822  14.291  65.321  1.00  0.00     0.000 HD 
BRANCH  13  15
HETATM   15  C   UNL     1     -12.142  13.692  64.264  1.00  0.00    -0.434 C  
BRANCH  15  16
HETATM   16  C   UNL     1     -12.204  12.276  63.702  1.00  0.00    -0.665 C  
BRANCH  16  17
HETATM   17  C   UNL     1     -10.822  11.635  63.786  1.00  0.00    -0.493 C  
BRANCH  17  18
HETATM   18  C   UNL     1     -10.567  11.065  65.171  1.00  0.00    -0.295 C  
BRANCH  18  19
HETATM   19  C   UNL     1      -9.228  10.330  65.221  1.00  0.00    -0.244 C  
BRANCH  19  20
HETATM   20  C   UNL     1      -9.090   9.647  66.574  1.00  0.00    -0.154 C  
BRANCH  20  21
HETATM   21  N   UNL     1      -9.799  10.392  67.612  1.00  0.00    -0.167 NA 
HETATM   22  H   UNL     1     -10.792  10.483  67.396  1.00  0.00     0.000 HD 
BRANCH  21  23
HETATM   23  C   UNL     1      -9.586   9.791  68.936  1.00  0.00    -0.167 C  
BRANCH  23  24
HETATM   24  C   UNL     1     -10.648   8.742  69.299  1.00  0.00    -0.210 C  
BRANCH  24  25
HETATM   25  C   UNL     1     -10.039   7.469  69.822  1.00  0.00    -0.194 A  
HETATM   26  C   UNL     1      -8.804   7.506  70.480  1.00  0.00    -0.147 A  
HETATM   27  C   UNL     1      -8.237   6.331  70.977  1.00  0.00    -0.123 A  
HETATM   28  C   UNL     1      -8.900   5.118  70.811  1.00  0.00    -0.154 A  
HETATM   29  C   UNL     1     -10.125   5.074  70.146  1.00  0.00    -0.338 A  
HETATM   30  C   UNL     1     -10.692   6.246  69.649  1.00  0.00    -0.367 A  
ENDBRANCH  24  25
ENDBRANCH  23  24
ENDBRANCH  21  23
ENDBRANCH  20  21
ENDBRANCH  19  20
ENDBRANCH  18  19
ENDBRANCH  17  18
ENDBRANCH  16  17
ENDBRANCH  15  16
ENDBRANCH  13  15
ENDBRANCH  12  13
ENDBRANCH  11  12
ENDBRANCH   8  11
TORSDOF 13
ENDMDL
MODEL      215
REMARK 921   NORMALIZED FREE ENERGY PREDICTED BY IDOCK:   -3.81 KCAL/MOL
REMARK 922        TOTAL FREE ENERGY PREDICTED BY IDOCK:   -9.45 KCAL/MOL
REMARK 923 INTER-LIGAND FREE ENERGY PREDICTED BY IDOCK:   -7.25 KCAL/MOL
REMARK 924 INTRA-LIGAND FREE ENERGY PREDICTED BY IDOCK:   -2.20 KCAL/MOL
REMARK 927      BINDING AFFINITY PREDICTED BY RF-SCORE:    0.00 PKD
ROOT
HETATM    1  O   UNL     1     -10.434  18.257  68.730  1.00  0.00    -0.403 OA 
HETATM    2  H   UNL     1     -10.440  18.697  69.572  1.00  0.00     0.000 HD 
HETATM    3  C   UNL     1     -10.731  16.931  68.571  1.00  0.00    -0.359 A  
HETATM    4  C   UNL     1     -10.723  16.286  67.338  1.00  0.00    -0.287 A  
HETATM    5  C   UNL     1     -11.075  14.937  67.249  1.00  0.00    -0.336 A  
HETATM    6  O   UNL     1     -10.382  16.917  66.176  1.00  0.00    -0.325 OA 
HETATM    7  H   UNL     1     -10.376  16.477  65.334  1.00  0.00     0.000 HD 
HETATM    8  C   UNL     1     -11.451  14.228  68.396  1.00  0.00    -0.331 A  
HETATM    9  C   UNL     1     -11.056  16.224  69.724  1.00  0.00    -0.337 A  
HETATM   10  C   UNL     1     -11.412  14.876  69.640  1.00  0.00    -0.325 A  
ENDROOT
BRANCH   8  11
HETATM   11  C   UNL     1     -11.879  12.784  68.304  1.00  0.00    -0.357 C  
BRANCH  11  12
HETATM   12  C   UNL     1     -11.910  12.117  69.680  1.00  0.00    -0.322 C  
BRANCH  12  13
HETATM   13  N   UNL     1     -10.845  11.113  69.792  1.00  0.00    -0.459 NA 
HETATM   14  H   UNL     1     -10.895  10.597  70.671  1.00  0.00     0.000 HD 
BRANCH  13  15
HETATM   15  C   UNL     1     -10.881  10.228  68.631  1.00  0.00    -0.234 C  
BRANCH  15  16
HETATM   16  C   UNL     1      -9.676   9.294  68.635  1.00  0.00    -0.158 C  
BRANCH  16  17
HETATM   17  C   UNL     1      -8.769   9.639  69.814  1.00  0.00    -0.221 C  
BRANCH  17  18
HETATM   18  C   UNL     1      -7.959   8.430  70.251  1.00  0.00    -0.102 C  
BRANCH  18  19
HETATM   19  C   UNL     1      -7.639   7.528  69.060  1.00  0.00    -0.108 C  
BRANCH  19  20
HETATM   20  C   UNL     1      -7.035   6.228  69.574  1.00  0.00    -0.071 C  
BRANCH  20  21
HETATM   21  N   UNL     1      -7.925   5.099  69.319  1.00  0.00    -0.080 NA 
HETATM   22  H   UNL     1      -7.484   4.401  68.721  1.00  0.00     0.000 HD 
BRANCH  21  23
HETATM   23  C   UNL     1      -8.407   4.508  70.576  1.00  0.00    -0.078 C  
BRANCH  23  24
HETATM   24  C   UNL     1      -9.938   4.527  70.702  1.00  0.00    -0.273 C  
BRANCH  24  25
HETATM   25  C   UNL     1     -10.450   5.826  71.264  1.00  0.00    -0.295 A  
HETATM   26  C   UNL     1     -11.440   6.540  70.578  1.00  0.00    -0.448 A  
HETATM   27  C   UNL     1     -11.928   7.740  71.097  1.00  0.00    -0.312 A  
HETATM   28  C   UNL     1     -11.422   8.232  72.298  1.00  0.00    -0.452 A  
HETATM   29  C   UNL     1     -10.427   7.531  72.979  1.00  0.00    -0.396 A  
HETATM   30  C   UNL     1      -9.939   6.332  72.462  1.00  0.00    -0.184 A  
ENDBRANCH  24  25
ENDBRANCH  23  24
ENDBRANCH  21  23
ENDBRANCH  20  21
ENDBRANCH  19  20
ENDBRANCH  18  19
ENDBRANCH  17  18
ENDBRANCH  16  17
ENDBRANCH  15  16
ENDBRANCH  13  15
ENDBRANCH  12  13
ENDBRANCH  11  12
ENDBRANCH   8  11
TORSDOF 13
ENDMDL
MODEL      216
REMARK 921   NORMALIZED FREE ENERGY PREDICTED BY IDOCK:   -3.80 KCAL/MOL
REMARK 922        TOTAL FREE ENERGY PREDICTED BY IDOCK:   -9.44 KCAL/MOL
REMARK 923 INTER-LIGAND FREE ENERGY PREDICTED BY IDOCK:   -8.37 KCAL/MOL
REMARK 924 INTRA-LIGAND FREE ENERGY PREDICTED BY IDOCK:   -1.07 KCAL/MOL
REMARK 927      BINDING AFFINITY PREDICTED BY RF-SCORE:    0.00 PKD
ROOT
HETATM    1  O   UNL     1     -11.316   4.757  65.771  1.00  0.00    -0.818 OA 
HETATM    2  H   UNL     1     -12.013   5.168  65.272  1.00  0.00     0.000 HD 
HETATM    3  C   UNL     1     -10.634   5.391  66.774  1.00  0.00    -0.271 A  
HETATM    4  C   UNL     1      -9.615   4.789  67.506  1.00  0.00    -0.158 A  
HETATM    5  C   UNL     1      -8.989   5.486  68.542  1.00  0.00    -0.114 A  
HETATM    6  O   UNL     1      -9.180   3.518  67.261  1.00  0.00    -0.164 OA 
HETATM    7  H   UNL     1      -8.484   3.108  67.760  1.00  0.00     0.000 HD 
HETATM    8  C   UNL     1      -9.391   6.788  68.861  1.00  0.00    -0.129 A  
HETATM    9  C   UNL     1     -11.010   6.701  67.051  1.00  0.00    -0.463 A  
HETATM   10  C   UNL     1     -10.389   7.401  68.088  1.00  0.00    -0.235 A  
ENDROOT
BRANCH   8  11
HETATM   11  C   UNL     1      -8.755   7.533  70.009  1.00  0.00    -0.140 C  
BRANCH  11  12
HETATM   12  C   UNL     1      -8.397   8.968  69.621  1.00  0.00    -0.125 C  
BRANCH  12  13
HETATM   13  N   UNL     1      -7.343   8.980  68.599  1.00  0.00    -0.076 NA 
HETATM   14  H   UNL     1      -6.974   8.046  68.417  1.00  0.00     0.000 HD 
BRANCH  13  15
HETATM   15  C   UNL     1      -7.842   9.621  67.387  1.00  0.00    -0.095 C  
BRANCH  15  16
HETATM   16  C   UNL     1      -8.827  10.732  67.737  1.00  0.00    -0.130 C  
BRANCH  16  17
HETATM   17  C   UNL     1      -9.941  10.771  66.695  1.00  0.00    -0.251 C  
BRANCH  17  18
HETATM   18  C   UNL     1     -10.300  12.202  66.333  1.00  0.00    -0.246 C  
BRANCH  18  19
HETATM   19  C   UNL     1     -11.762  12.499  66.663  1.00  0.00    -0.453 C  
BRANCH  19  20
HETATM   20  C   UNL     1     -11.860  13.896  67.259  1.00  0.00    -0.407 C  
BRANCH  20  21
HETATM   21  N   UNL     1     -10.541  14.401  67.632  1.00  0.00    -0.258 NA 
HETATM   22  H   UNL     1     -10.165  15.028  66.922  1.00  0.00     0.000 HD 
BRANCH  21  23
HETATM   23  C   UNL     1     -10.571  15.039  68.956  1.00  0.00    -0.245 C  
BRANCH  23  24
HETATM   24  C   UNL     1     -11.967  15.549  69.347  1.00  0.00    -0.358 C  
BRANCH  24  25
HETATM   25  C   UNL     1     -12.275  15.313  70.801  1.00  0.00    -0.411 A  
HETATM   26  C   UNL     1     -13.037  14.201  71.180  1.00  0.00    -0.398 A  
HETATM   27  C   UNL     1     -13.319  13.968  72.527  1.00  0.00    -0.639 A  
HETATM   28  C   UNL     1     -12.845  14.850  73.496  1.00  0.00    -0.594 A  
HETATM   29  C   UNL     1     -12.096  15.965  73.122  1.00  0.00    -0.611 A  
HETATM   30  C   UNL     1     -11.814  16.199  71.778  1.00  0.00    -0.581 A  
ENDBRANCH  24  25
ENDBRANCH  23  24
ENDBRANCH  21  23
ENDBRANCH  20  21
ENDBRANCH  19  20
ENDBRANCH  18  19
ENDBRANCH  17  18
ENDBRANCH  16  17
ENDBRANCH  15  16
ENDBRANCH  13  15
ENDBRANCH  12  13
ENDBRANCH  11  12
ENDBRANCH   8  11
TORSDOF 13
ENDMDL
MODEL      217
REMARK 921   NORMALIZED FREE ENERGY PREDICTED BY IDOCK:   -3.80 KCAL/MOL
REMARK 922        TOTAL FREE ENERGY PREDICTED BY IDOCK:   -9.44 KCAL/MOL
REMARK 923 INTER-LIGAND FREE ENERGY PREDICTED BY IDOCK:   -8.07 KCAL/MOL
REMARK 924 INTRA-LIGAND FREE ENERGY PREDICTED BY IDOCK:   -1.37 KCAL/MOL
REMARK 927      BINDING AFFINITY PREDICTED BY RF-SCORE:    0.00 PKD
ROOT
HETATM    1  O   UNL     1      -5.789  13.536  68.358  1.00  0.00    -0.077 OA 
HETATM    2  H   UNL     1      -5.075  13.823  68.915  1.00  0.00     0.000 HD 
HETATM    3  C   UNL     1      -7.009  14.156  68.317  1.00  0.00    -0.106 A  
HETATM    4  C   UNL     1      -8.055  13.736  67.501  1.00  0.00    -0.185 A  
HETATM    5  C   UNL     1      -9.260  14.443  67.486  1.00  0.00    -0.200 A  
HETATM    6  O   UNL     1      -7.967  12.641  66.691  1.00  0.00    -0.402 OA 
HETATM    7  H   UNL     1      -8.681  12.354  66.134  1.00  0.00     0.000 HD 
HETATM    8  C   UNL     1      -9.419  15.585  68.279  1.00  0.00    -0.200 A  
HETATM    9  C   UNL     1      -7.173  15.262  69.146  1.00  0.00    -0.169 A  
HETATM   10  C   UNL     1      -8.374  15.973  69.131  1.00  0.00    -0.244 A  
ENDROOT
BRANCH   8  11
HETATM   11  C   UNL     1     -10.699  16.383  68.233  1.00  0.00    -0.337 C  
BRANCH  11  12
HETATM   12  C   UNL     1     -11.862  15.621  68.870  1.00  0.00    -0.352 C  
BRANCH  12  13
HETATM   13  N   UNL     1     -11.809  15.726  70.333  1.00  0.00    -0.356 NA 
HETATM   14  H   UNL     1     -12.114  16.641  70.664  1.00  0.00     0.000 HD 
BRANCH  13  15
HETATM   15  C   UNL     1     -12.580  14.639  70.931  1.00  0.00    -0.342 C  
BRANCH  15  16
HETATM   16  C   UNL     1     -12.106  13.292  70.398  1.00  0.00    -0.401 C  
BRANCH  16  17
HETATM   17  C   UNL     1     -12.739  12.170  71.216  1.00  0.00    -0.363 C  
BRANCH  17  18
HETATM   18  C   UNL     1     -12.533  10.822  70.546  1.00  0.00    -0.447 C  
BRANCH  18  19
HETATM   19  C   UNL     1     -13.331   9.731  71.258  1.00  0.00    -0.413 C  
BRANCH  19  20
HETATM   20  C   UNL     1     -12.446   9.078  72.311  1.00  0.00    -0.357 C  
BRANCH  20  21
HETATM   21  N   UNL     1     -12.828   7.684  72.525  1.00  0.00    -0.492 NA 
HETATM   22  H   UNL     1     -13.801   7.602  72.817  1.00  0.00     0.000 HD 
BRANCH  21  23
HETATM   23  C   UNL     1     -12.549   6.868  71.334  1.00  0.00    -0.353 C  
BRANCH  23  24
HETATM   24  C   UNL     1     -11.054   6.805  70.984  1.00  0.00    -0.317 C  
BRANCH  24  25
HETATM   25  C   UNL     1     -10.788   7.173  69.549  1.00  0.00    -0.244 A  
HETATM   26  C   UNL     1     -11.073   6.257  68.530  1.00  0.00    -0.397 A  
HETATM   27  C   UNL     1     -10.839   6.593  67.196  1.00  0.00    -0.471 A  
HETATM   28  C   UNL     1     -10.314   7.843  66.879  1.00  0.00    -0.400 A  
HETATM   29  C   UNL     1     -10.017   8.756  67.891  1.00  0.00    -0.231 A  
HETATM   30  C   UNL     1     -10.250   8.421  69.223  1.00  0.00    -0.211 A  
ENDBRANCH  24  25
ENDBRANCH  23  24
ENDBRANCH  21  23
ENDBRANCH  20  21
ENDBRANCH  19  20
ENDBRANCH  18  19
ENDBRANCH  17  18
ENDBRANCH  16  17
ENDBRANCH  15  16
ENDBRANCH  13  15
ENDBRANCH  12  13
ENDBRANCH  11  12
ENDBRANCH   8  11
TORSDOF 13
ENDMDL
MODEL      218
REMARK 921   NORMALIZED FREE ENERGY PREDICTED BY IDOCK:   -3.80 KCAL/MOL
REMARK 922        TOTAL FREE ENERGY PREDICTED BY IDOCK:   -9.43 KCAL/MOL
REMARK 923 INTER-LIGAND FREE ENERGY PREDICTED BY IDOCK:   -8.57 KCAL/MOL
REMARK 924 INTRA-LIGAND FREE ENERGY PREDICTED BY IDOCK:   -0.87 KCAL/MOL
REMARK 927      BINDING AFFINITY PREDICTED BY RF-SCORE:    0.00 PKD
ROOT
HETATM    1  O   UNL     1     -10.508   4.169  72.157  1.00  0.00    -0.141 OA 
HETATM    2  H   UNL     1      -9.880   3.456  72.138  1.00  0.00     0.000 HD 
HETATM    3  C   UNL     1     -10.374   5.310  71.413  1.00  0.00    -0.221 A  
HETATM    4  C   UNL     1     -11.294   6.354  71.440  1.00  0.00    -0.301 A  
HETATM    5  C   UNL     1     -11.110   7.472  70.623  1.00  0.00    -0.280 A  
HETATM    6  O   UNL     1     -12.398   6.346  72.243  1.00  0.00    -0.510 OA 
HETATM    7  H   UNL     1     -13.026   7.059  72.262  1.00  0.00     0.000 HD 
HETATM    8  C   UNL     1     -10.009   7.545  69.762  1.00  0.00    -0.186 A  
HETATM    9  C   UNL     1      -9.251   5.393  70.596  1.00  0.00    -0.183 A  
HETATM   10  C   UNL     1      -9.065   6.506  69.775  1.00  0.00    -0.142 A  
ENDROOT
BRANCH   8  11
HETATM   11  C   UNL     1      -9.827   8.725  68.840  1.00  0.00    -0.183 C  
BRANCH  11  12
HETATM   12  C   UNL     1     -10.661   9.926  69.291  1.00  0.00    -0.224 C  
BRANCH  12  13
HETATM   13  N   UNL     1     -11.775  10.159  68.365  1.00  0.00    -0.667 NA 
HETATM   14  H   UNL     1     -12.676  10.173  68.843  1.00  0.00     0.000 HD 
BRANCH  13  15
HETATM   15  C   UNL     1     -11.535  11.384  67.607  1.00  0.00    -0.273 C  
BRANCH  15  16
HETATM   16  C   UNL     1     -11.699  12.607  68.503  1.00  0.00    -0.372 C  
BRANCH  16  17
HETATM   17  C   UNL     1     -11.469  13.873  67.682  1.00  0.00    -0.354 C  
BRANCH  17  18
HETATM   18  C   UNL     1     -12.267  13.838  66.390  1.00  0.00    -0.480 C  
BRANCH  18  19
HETATM   19  C   UNL     1     -11.358  14.061  65.181  1.00  0.00    -0.328 C  
BRANCH  19  20
HETATM   20  C   UNL     1     -12.127  14.837  64.122  1.00  0.00    -0.299 C  
BRANCH  20  21
HETATM   21  N   UNL     1     -11.576  16.179  63.951  1.00  0.00    -1.469 NA 
HETATM   22  H   UNL     1     -12.308  16.889  63.953  1.00  0.00     0.000 HD 
BRANCH  21  23
HETATM   23  C   UNL     1     -10.546  16.462  64.962  1.00  0.00    -0.193 C  
BRANCH  23  24
HETATM   24  C   UNL     1     -10.844  17.723  65.788  1.00  0.00     0.037 C  
BRANCH  24  25
HETATM   25  C   UNL     1      -9.835  17.940  66.884  1.00  0.00    -0.321 A  
HETATM   26  C   UNL     1      -8.859  16.968  67.134  1.00  0.00    -0.232 A  
HETATM   27  C   UNL     1      -7.913  17.166  68.142  1.00  0.00    -0.216 A  
HETATM   28  C   UNL     1      -7.946  18.332  68.903  1.00  0.00    -0.198 A  
HETATM   29  C   UNL     1      -8.924  19.297  68.666  1.00  0.00    -0.419 A  
HETATM   30  C   UNL     1      -9.869  19.101  67.660  1.00  0.00    -0.412 A  
ENDBRANCH  24  25
ENDBRANCH  23  24
ENDBRANCH  21  23
ENDBRANCH  20  21
ENDBRANCH  19  20
ENDBRANCH  18  19
ENDBRANCH  17  18
ENDBRANCH  16  17
ENDBRANCH  15  16
ENDBRANCH  13  15
ENDBRANCH  12  13
ENDBRANCH  11  12
ENDBRANCH   8  11
TORSDOF 13
ENDMDL
MODEL      219
REMARK 921   NORMALIZED FREE ENERGY PREDICTED BY IDOCK:   -3.80 KCAL/MOL
REMARK 922        TOTAL FREE ENERGY PREDICTED BY IDOCK:   -9.43 KCAL/MOL
REMARK 923 INTER-LIGAND FREE ENERGY PREDICTED BY IDOCK:   -7.01 KCAL/MOL
REMARK 924 INTRA-LIGAND FREE ENERGY PREDICTED BY IDOCK:   -2.42 KCAL/MOL
REMARK 927      BINDING AFFINITY PREDICTED BY RF-SCORE:    0.00 PKD
ROOT
HETATM    1  O   UNL     1     -11.380   4.785  65.563  1.00  0.00    -0.940 OA 
HETATM    2  H   UNL     1     -12.178   5.174  65.225  1.00  0.00     0.000 HD 
HETATM    3  C   UNL     1     -10.631   5.349  66.560  1.00  0.00    -0.289 A  
HETATM    4  C   UNL     1      -9.462   4.779  67.056  1.00  0.00    -0.152 A  
HETATM    5  C   UNL     1      -8.770   5.395  68.101  1.00  0.00    -0.105 A  
HETATM    6  O   UNL     1      -8.940   3.617  66.565  1.00  0.00    -0.129 OA 
HETATM    7  H   UNL     1      -8.142   3.228  66.903  1.00  0.00     0.000 HD 
HETATM    8  C   UNL     1      -9.253   6.581  68.666  1.00  0.00    -0.127 A  
HETATM    9  C   UNL     1     -11.094   6.553  67.081  1.00  0.00    -0.434 A  
HETATM   10  C   UNL     1     -10.408   7.171  68.128  1.00  0.00    -0.234 A  
ENDROOT
BRANCH   8  11
HETATM   11  C   UNL     1      -8.540   7.229  69.827  1.00  0.00    -0.141 C  
BRANCH  11  12
HETATM   12  C   UNL     1      -8.150   8.674  69.514  1.00  0.00    -0.110 C  
BRANCH  12  13
HETATM   13  N   UNL     1      -7.193   8.722  68.403  1.00  0.00    -0.080 NA 
HETATM   14  H   UNL     1      -7.172   7.849  67.875  1.00  0.00     0.000 HD 
BRANCH  13  15
HETATM   15  C   UNL     1      -7.485   9.872  67.552  1.00  0.00    -0.091 C  
BRANCH  15  16
HETATM   16  C   UNL     1      -8.114  10.995  68.370  1.00  0.00    -0.134 C  
BRANCH  16  17
HETATM   17  C   UNL     1      -8.720  12.032  67.429  1.00  0.00    -0.170 C  
BRANCH  17  18
HETATM   18  C   UNL     1      -9.398  13.146  68.208  1.00  0.00    -0.201 C  
BRANCH  18  19
HETATM   19  C   UNL     1     -10.834  13.352  67.728  1.00  0.00    -0.267 C  
BRANCH  19  20
HETATM   20  C   UNL     1     -11.682  12.175  68.190  1.00  0.00    -0.341 C  
BRANCH  20  21
HETATM   21  N   UNL     1     -11.487  11.914  69.614  1.00  0.00    -0.420 NA 
HETATM   22  H   UNL     1     -12.174  12.407  70.183  1.00  0.00     0.000 HD 
BRANCH  21  23
HETATM   23  C   UNL     1     -11.487  10.471  69.895  1.00  0.00    -0.310 C  
BRANCH  23  24
HETATM   24  C   UNL     1     -11.927  10.137  71.328  1.00  0.00    -0.473 C  
BRANCH  24  25
HETATM   25  C   UNL     1     -11.607   8.717  71.708  1.00  0.00    -0.403 A  
HETATM   26  C   UNL     1     -12.322   7.662  71.130  1.00  0.00    -0.293 A  
HETATM   27  C   UNL     1     -12.024   6.341  71.469  1.00  0.00    -0.245 A  
HETATM   28  C   UNL     1     -11.015   6.073  72.390  1.00  0.00    -0.303 A  
HETATM   29  C   UNL     1     -10.307   7.121  72.978  1.00  0.00    -0.310 A  
HETATM   30  C   UNL     1     -10.604   8.440  72.641  1.00  0.00    -0.312 A  
ENDBRANCH  24  25
ENDBRANCH  23  24
ENDBRANCH  21  23
ENDBRANCH  20  21
ENDBRANCH  19  20
ENDBRANCH  18  19
ENDBRANCH  17  18
ENDBRANCH  16  17
ENDBRANCH  15  16
ENDBRANCH  13  15
ENDBRANCH  12  13
ENDBRANCH  11  12
ENDBRANCH   8  11
TORSDOF 13
ENDMDL
MODEL      220
REMARK 921   NORMALIZED FREE ENERGY PREDICTED BY IDOCK:   -3.79 KCAL/MOL
REMARK 922        TOTAL FREE ENERGY PREDICTED BY IDOCK:   -9.43 KCAL/MOL
REMARK 923 INTER-LIGAND FREE ENERGY PREDICTED BY IDOCK:   -7.56 KCAL/MOL
REMARK 924 INTRA-LIGAND FREE ENERGY PREDICTED BY IDOCK:   -1.87 KCAL/MOL
REMARK 927      BINDING AFFINITY PREDICTED BY RF-SCORE:    0.00 PKD
ROOT
HETATM    1  O   UNL     1     -12.064  13.900  68.224  1.00  0.00    -0.417 OA 
HETATM    2  H   UNL     1     -12.373  13.836  69.120  1.00  0.00     0.000 HD 
HETATM    3  C   UNL     1     -11.522  15.040  67.695  1.00  0.00    -0.333 A  
HETATM    4  C   UNL     1     -11.068  15.135  66.383  1.00  0.00    -0.312 A  
HETATM    5  C   UNL     1     -10.492  16.321  65.923  1.00  0.00    -0.359 A  
HETATM    6  O   UNL     1     -11.156  14.102  65.494  1.00  0.00    -0.297 OA 
HETATM    7  H   UNL     1     -10.847  14.166  64.598  1.00  0.00     0.000 HD 
HETATM    8  C   UNL     1     -10.353  17.418  66.781  1.00  0.00    -0.305 A  
HETATM    9  C   UNL     1     -11.434  16.140  68.543  1.00  0.00    -0.324 A  
HETATM   10  C   UNL     1     -10.855  17.327  68.089  1.00  0.00    -0.294 A  
ENDROOT
BRANCH   8  11
HETATM   11  C   UNL     1      -9.688  18.687  66.310  1.00  0.00    -0.324 C  
BRANCH  11  12
HETATM   12  C   UNL     1      -8.212  18.732  66.709  1.00  0.00    -0.278 C  
BRANCH  12  13
HETATM   13  N   UNL     1      -8.048  19.404  68.004  1.00  0.00    -0.301 NA 
HETATM   14  H   UNL     1      -8.939  19.711  68.394  1.00  0.00     0.000 HD 
BRANCH  13  15
HETATM   15  C   UNL     1      -7.318  18.531  68.920  1.00  0.00    -0.266 C  
BRANCH  15  16
HETATM   16  C   UNL     1      -6.695  17.364  68.161  1.00  0.00    -0.178 C  
BRANCH  16  17
HETATM   17  C   UNL     1      -7.178  16.049  68.766  1.00  0.00    -0.157 C  
BRANCH  17  18
HETATM   18  C   UNL     1      -7.513  15.039  67.682  1.00  0.00    -0.202 C  
BRANCH  18  19
HETATM   19  C   UNL     1      -7.429  13.612  68.220  1.00  0.00    -0.124 C  
BRANCH  19  20
HETATM   20  C   UNL     1      -8.673  12.848  67.790  1.00  0.00    -0.188 C  
BRANCH  20  21
HETATM   21  N   UNL     1      -9.305  12.190  68.931  1.00  0.00    -0.393 NA 
HETATM   22  H   UNL     1     -10.223  12.586  69.131  1.00  0.00     0.000 HD 
BRANCH  21  23
HETATM   23  C   UNL     1      -9.376  10.735  68.733  1.00  0.00    -0.182 C  
BRANCH  23  24
HETATM   24  C   UNL     1     -10.812  10.190  68.774  1.00  0.00    -0.259 C  
BRANCH  24  25
HETATM   25  C   UNL     1     -11.137   9.536  70.090  1.00  0.00    -0.294 A  
HETATM   26  C   UNL     1     -12.174  10.041  70.883  1.00  0.00    -0.441 A  
HETATM   27  C   UNL     1     -12.489   9.434  72.099  1.00  0.00    -0.396 A  
HETATM   28  C   UNL     1     -11.764   8.325  72.528  1.00  0.00    -0.451 A  
HETATM   29  C   UNL     1     -10.722   7.824  71.748  1.00  0.00    -0.265 A  
HETATM   30  C   UNL     1     -10.407   8.430  70.533  1.00  0.00    -0.220 A  
ENDBRANCH  24  25
ENDBRANCH  23  24
ENDBRANCH  21  23
ENDBRANCH  20  21
ENDBRANCH  19  20
ENDBRANCH  18  19
ENDBRANCH  17  18
ENDBRANCH  16  17
ENDBRANCH  15  16
ENDBRANCH  13  15
ENDBRANCH  12  13
ENDBRANCH  11  12
ENDBRANCH   8  11
TORSDOF 13
ENDMDL
MODEL      221
REMARK 921   NORMALIZED FREE ENERGY PREDICTED BY IDOCK:   -3.79 KCAL/MOL
REMARK 922        TOTAL FREE ENERGY PREDICTED BY IDOCK:   -9.42 KCAL/MOL
REMARK 923 INTER-LIGAND FREE ENERGY PREDICTED BY IDOCK:   -7.53 KCAL/MOL
REMARK 924 INTRA-LIGAND FREE ENERGY PREDICTED BY IDOCK:   -1.89 KCAL/MOL
REMARK 927      BINDING AFFINITY PREDICTED BY RF-SCORE:    0.00 PKD
ROOT
HETATM    1  O   UNL     1     -10.365  17.057  65.529  1.00  0.00    -0.585 OA 
HETATM    2  H   UNL     1      -9.660  17.311  66.112  1.00  0.00     0.000 HD 
HETATM    3  C   UNL     1     -10.586  15.765  65.133  1.00  0.00    -0.411 A  
HETATM    4  C   UNL     1     -11.620  15.393  64.278  1.00  0.00    -0.191 A  
HETATM    5  C   UNL     1     -11.807  14.049  63.948  1.00  0.00    -0.263 A  
HETATM    6  O   UNL     1     -12.487  16.294  63.730  1.00  0.00    -0.890 OA 
HETATM    7  H   UNL     1     -13.192  16.040  63.146  1.00  0.00     0.000 HD 
HETATM    8  C   UNL     1     -10.967  13.066  64.484  1.00  0.00    -0.381 A  
HETATM    9  C   UNL     1      -9.716  14.803  65.634  1.00  0.00    -0.313 A  
HETATM   10  C   UNL     1      -9.901  13.457  65.310  1.00  0.00    -0.106 A  
ENDROOT
BRANCH   8  11
HETATM   11  C   UNL     1     -11.190  11.607  64.173  1.00  0.00    -0.421 C  
BRANCH  11  12
HETATM   12  C   UNL     1     -10.018  11.011  63.392  1.00  0.00    -0.380 C  
BRANCH  12  13
HETATM   13  N   UNL     1      -8.870  10.781  64.278  1.00  0.00    -0.298 NA 
HETATM   14  H   UNL     1      -8.647  11.603  64.838  1.00  0.00     0.000 HD 
BRANCH  13  15
HETATM   15  C   UNL     1      -9.116   9.602  65.103  1.00  0.00    -0.228 C  
BRANCH  15  16
HETATM   16  C   UNL     1      -8.842   9.912  66.571  1.00  0.00    -0.154 C  
BRANCH  16  17
HETATM   17  C   UNL     1     -10.034   9.468  67.415  1.00  0.00    -0.241 C  
BRANCH  17  18
HETATM   18  C   UNL     1     -10.460  10.564  68.377  1.00  0.00    -0.212 C  
BRANCH  18  19
HETATM   19  C   UNL     1     -11.731  11.256  67.889  1.00  0.00    -0.289 C  
BRANCH  19  20
HETATM   20  C   UNL     1     -11.710  12.708  68.347  1.00  0.00    -0.333 C  
BRANCH  20  21
HETATM   21  N   UNL     1     -10.384  13.086  68.830  1.00  0.00    -0.403 NA 
HETATM   22  H   UNL     1      -9.763  13.338  68.061  1.00  0.00     0.000 HD 
BRANCH  21  23
HETATM   23  C   UNL     1     -10.469  14.160  69.830  1.00  0.00     0.313 C  
BRANCH  23  24
HETATM   24  C   UNL     1     -10.720  15.543  69.209  1.00  0.00    -0.245 C  
BRANCH  24  25
HETATM   25  C   UNL     1      -9.442  16.293  68.948  1.00  0.00    -0.252 A  
HETATM   26  C   UNL     1      -8.218  15.613  68.968  1.00  0.00    -0.233 A  
HETATM   27  C   UNL     1      -7.029  16.298  68.716  1.00  0.00    -0.159 A  
HETATM   28  C   UNL     1      -7.060  17.665  68.450  1.00  0.00    -0.236 A  
HETATM   29  C   UNL     1      -8.275  18.349  68.440  1.00  0.00    -0.331 A  
HETATM   30  C   UNL     1      -9.463  17.666  68.691  1.00  0.00    -0.284 A  
ENDBRANCH  24  25
ENDBRANCH  23  24
ENDBRANCH  21  23
ENDBRANCH  20  21
ENDBRANCH  19  20
ENDBRANCH  18  19
ENDBRANCH  17  18
ENDBRANCH  16  17
ENDBRANCH  15  16
ENDBRANCH  13  15
ENDBRANCH  12  13
ENDBRANCH  11  12
ENDBRANCH   8  11
TORSDOF 13
ENDMDL
MODEL      222
REMARK 921   NORMALIZED FREE ENERGY PREDICTED BY IDOCK:   -3.79 KCAL/MOL
REMARK 922        TOTAL FREE ENERGY PREDICTED BY IDOCK:   -9.42 KCAL/MOL
REMARK 923 INTER-LIGAND FREE ENERGY PREDICTED BY IDOCK:   -6.92 KCAL/MOL
REMARK 924 INTRA-LIGAND FREE ENERGY PREDICTED BY IDOCK:   -2.50 KCAL/MOL
REMARK 927      BINDING AFFINITY PREDICTED BY RF-SCORE:    0.00 PKD
ROOT
HETATM    1  O   UNL     1      -9.924   4.410  66.453  1.00  0.00    -0.214 OA 
HETATM    2  H   UNL     1     -10.625   4.257  65.830  1.00  0.00     0.000 HD 
HETATM    3  C   UNL     1      -9.742   5.601  67.104  1.00  0.00    -0.139 A  
HETATM    4  C   UNL     1      -8.716   5.825  68.017  1.00  0.00    -0.103 A  
HETATM    5  C   UNL     1      -8.616   7.055  68.671  1.00  0.00    -0.120 A  
HETATM    6  O   UNL     1      -7.776   4.882  68.320  1.00  0.00    -0.081 OA 
HETATM    7  H   UNL     1      -7.076   5.035  68.943  1.00  0.00     0.000 HD 
HETATM    8  C   UNL     1      -9.552   8.066  68.423  1.00  0.00    -0.157 A  
HETATM    9  C   UNL     1     -10.650   6.614  66.814  1.00  0.00    -0.315 A  
HETATM   10  C   UNL     1     -10.556   7.844  67.467  1.00  0.00    -0.312 A  
ENDROOT
BRANCH   8  11
HETATM   11  C   UNL     1      -9.481   9.381  69.159  1.00  0.00    -0.163 C  
BRANCH  11  12
HETATM   12  C   UNL     1     -10.558  10.355  68.678  1.00  0.00    -0.209 C  
BRANCH  12  13
HETATM   13  N   UNL     1     -10.292  11.708  69.180  1.00  0.00    -0.412 NA 
HETATM   14  H   UNL     1      -9.402  12.075  68.843  1.00  0.00     0.000 HD 
BRANCH  13  15
HETATM   15  C   UNL     1     -11.412  12.584  68.846  1.00  0.00    -0.307 C  
BRANCH  15  16
HETATM   16  C   UNL     1     -11.673  12.567  67.344  1.00  0.00    -0.432 C  
BRANCH  16  17
HETATM   17  C   UNL     1     -11.851  13.997  66.842  1.00  0.00    -0.458 C  
BRANCH  17  18
HETATM   18  C   UNL     1     -12.366  14.015  65.413  1.00  0.00    -0.495 C  
BRANCH  18  19
HETATM   19  C   UNL     1     -12.642  12.597  64.915  1.00  0.00    -0.525 C  
BRANCH  19  20
HETATM   20  C   UNL     1     -12.175  12.482  63.470  1.00  0.00    -0.558 C  
BRANCH  20  21
HETATM   21  N   UNL     1     -10.742  12.205  63.403  1.00  0.00    -0.573 NA 
HETATM   22  H   UNL     1     -10.191  13.004  63.716  1.00  0.00     0.000 HD 
BRANCH  21  23
HETATM   23  C   UNL     1     -10.401  10.986  64.149  1.00  0.00    -0.369 C  
BRANCH  23  24
HETATM   24  C   UNL     1      -9.384  10.097  63.417  1.00  0.00    -0.334 C  
BRANCH  24  25
HETATM   25  C   UNL     1      -8.388   9.473  64.358  1.00  0.00    -0.174 A  
HETATM   26  C   UNL     1      -8.148   8.095  64.306  1.00  0.00    -0.127 A  
HETATM   27  C   UNL     1      -7.219   7.510  65.167  1.00  0.00    -0.066 A  
HETATM   28  C   UNL     1      -6.533   8.300  66.086  1.00  0.00    -0.050 A  
HETATM   29  C   UNL     1      -6.777   9.672  66.150  1.00  0.00    -0.083 A  
HETATM   30  C   UNL     1      -7.705  10.257  65.291  1.00  0.00    -0.144 A  
ENDBRANCH  24  25
ENDBRANCH  23  24
ENDBRANCH  21  23
ENDBRANCH  20  21
ENDBRANCH  19  20
ENDBRANCH  18  19
ENDBRANCH  17  18
ENDBRANCH  16  17
ENDBRANCH  15  16
ENDBRANCH  13  15
ENDBRANCH  12  13
ENDBRANCH  11  12
ENDBRANCH   8  11
TORSDOF 13
ENDMDL
MODEL      223
REMARK 921   NORMALIZED FREE ENERGY PREDICTED BY IDOCK:   -3.79 KCAL/MOL
REMARK 922        TOTAL FREE ENERGY PREDICTED BY IDOCK:   -9.42 KCAL/MOL
REMARK 923 INTER-LIGAND FREE ENERGY PREDICTED BY IDOCK:   -8.58 KCAL/MOL
REMARK 924 INTRA-LIGAND FREE ENERGY PREDICTED BY IDOCK:   -0.84 KCAL/MOL
REMARK 927      BINDING AFFINITY PREDICTED BY RF-SCORE:    0.00 PKD
ROOT
HETATM    1  O   UNL     1      -8.588   3.759  64.145  1.00  0.00    -0.090 OA 
HETATM    2  H   UNL     1      -8.477   3.259  63.345  1.00  0.00     0.000 HD 
HETATM    3  C   UNL     1      -8.380   5.110  64.222  1.00  0.00    -0.137 A  
HETATM    4  C   UNL     1      -8.543   5.844  65.394  1.00  0.00    -0.137 A  
HETATM    5  C   UNL     1      -8.349   7.227  65.388  1.00  0.00    -0.127 A  
HETATM    6  O   UNL     1      -8.893   5.270  66.583  1.00  0.00    -0.113 OA 
HETATM    7  H   UNL     1      -9.004   5.771  67.382  1.00  0.00     0.000 HD 
HETATM    8  C   UNL     1      -8.004   7.887  64.203  1.00  0.00    -0.125 A  
HETATM    9  C   UNL     1      -7.990   5.749  63.050  1.00  0.00    -0.104 A  
HETATM   10  C   UNL     1      -7.798   7.132  63.038  1.00  0.00    -0.118 A  
ENDROOT
BRANCH   8  11
HETATM   11  C   UNL     1      -7.840   9.386  64.175  1.00  0.00    -0.124 C  
BRANCH  11  12
HETATM   12  C   UNL     1      -8.425  10.041  65.428  1.00  0.00    -0.151 C  
BRANCH  12  13
HETATM   13  N   UNL     1      -9.196  11.238  65.073  1.00  0.00    -0.347 NA 
HETATM   14  H   UNL     1      -8.645  11.903  64.530  1.00  0.00     0.000 HD 
BRANCH  13  15
HETATM   15  C   UNL     1     -10.422  10.846  64.384  1.00  0.00    -0.333 C  
BRANCH  15  16
HETATM   16  C   UNL     1     -10.903  11.969  63.471  1.00  0.00    -0.509 C  
BRANCH  16  17
HETATM   17  C   UNL     1     -12.415  12.125  63.611  1.00  0.00    -0.658 C  
BRANCH  17  18
HETATM   18  C   UNL     1     -12.779  12.734  64.954  1.00  0.00    -0.479 C  
BRANCH  18  19
HETATM   19  C   UNL     1     -11.834  13.882  65.307  1.00  0.00    -0.365 C  
BRANCH  19  20
HETATM   20  C   UNL     1     -11.818  14.060  66.819  1.00  0.00    -0.424 C  
BRANCH  20  21
HETATM   21  N   UNL     1     -11.999  12.780  67.500  1.00  0.00    -0.381 NA 
HETATM   22  H   UNL     1     -11.494  12.030  67.029  1.00  0.00     0.000 HD 
BRANCH  21  23
HETATM   23  C   UNL     1     -11.626  12.876  68.918  1.00  0.00    -0.315 C  
BRANCH  23  24
HETATM   24  C   UNL     1     -11.328  14.315  69.367  1.00  0.00    -0.325 C  
BRANCH  24  25
HETATM   25  C   UNL     1     -11.937  14.635  70.705  1.00  0.00    -0.380 A  
HETATM   26  C   UNL     1     -11.653  15.857  71.326  1.00  0.00    -0.509 A  
HETATM   27  C   UNL     1     -12.222  16.166  72.563  1.00  0.00    -0.609 A  
HETATM   28  C   UNL     1     -13.070  15.251  73.183  1.00  0.00    -0.627 A  
HETATM   29  C   UNL     1     -13.347  14.027  72.574  1.00  0.00    -0.639 A  
HETATM   30  C   UNL     1     -12.779  13.718  71.340  1.00  0.00    -0.450 A  
ENDBRANCH  24  25
ENDBRANCH  23  24
ENDBRANCH  21  23
ENDBRANCH  20  21
ENDBRANCH  19  20
ENDBRANCH  18  19
ENDBRANCH  17  18
ENDBRANCH  16  17
ENDBRANCH  15  16
ENDBRANCH  13  15
ENDBRANCH  12  13
ENDBRANCH  11  12
ENDBRANCH   8  11
TORSDOF 13
ENDMDL
MODEL      224
REMARK 921   NORMALIZED FREE ENERGY PREDICTED BY IDOCK:   -3.78 KCAL/MOL
REMARK 922        TOTAL FREE ENERGY PREDICTED BY IDOCK:   -9.41 KCAL/MOL
REMARK 923 INTER-LIGAND FREE ENERGY PREDICTED BY IDOCK:   -7.48 KCAL/MOL
REMARK 924 INTRA-LIGAND FREE ENERGY PREDICTED BY IDOCK:   -1.93 KCAL/MOL
REMARK 927      BINDING AFFINITY PREDICTED BY RF-SCORE:    0.00 PKD
ROOT
HETATM    1  O   UNL     1      -7.942  16.812  66.991  1.00  0.00    -0.168 OA 
HETATM    2  H   UNL     1      -8.131  17.555  66.430  1.00  0.00     0.000 HD 
HETATM    3  C   UNL     1      -8.909  16.079  67.622  1.00  0.00    -0.185 A  
HETATM    4  C   UNL     1      -8.632  14.990  68.443  1.00  0.00    -0.162 A  
HETATM    5  C   UNL     1      -9.675  14.265  69.024  1.00  0.00    -0.040 A  
HETATM    6  O   UNL     1      -7.360  14.576  68.717  1.00  0.00    -0.116 OA 
HETATM    7  H   UNL     1      -7.170  13.833  69.278  1.00  0.00     0.000 HD 
HETATM    8  C   UNL     1     -11.006  14.621  68.777  1.00  0.00    -0.268 A  
HETATM    9  C   UNL     1     -10.227  16.471  67.408  1.00  0.00    -0.287 A  
HETATM   10  C   UNL     1     -11.273  15.748  67.984  1.00  0.00    -0.338 A  
ENDROOT
BRANCH   8  11
HETATM   11  C   UNL     1     -12.140  13.816  69.361  1.00  0.00    -0.377 C  
BRANCH  11  12
HETATM   12  C   UNL     1     -11.667  12.447  69.851  1.00  0.00    -0.266 C  
BRANCH  12  13
HETATM   13  N   UNL     1     -12.558  11.936  70.899  1.00  0.00    -0.318 NA 
HETATM   14  H   UNL     1     -13.542  12.022  70.643  1.00  0.00     0.000 HD 
BRANCH  13  15
HETATM   15  C   UNL     1     -12.192  10.561  71.227  1.00  0.00    -0.368 C  
BRANCH  15  16
HETATM   16  C   UNL     1     -11.275   9.982  70.155  1.00  0.00    -0.367 C  
BRANCH  16  17
HETATM   17  C   UNL     1     -10.536   8.771  70.718  1.00  0.00    -0.269 C  
BRANCH  17  18
HETATM   18  C   UNL     1     -11.161   7.475  70.230  1.00  0.00    -0.263 C  
BRANCH  18  19
HETATM   19  C   UNL     1     -10.204   6.721  69.308  1.00  0.00    -0.197 C  
BRANCH  19  20
HETATM   20  C   UNL     1     -10.528   7.074  67.864  1.00  0.00    -0.214 C  
BRANCH  20  21
HETATM   21  N   UNL     1      -9.398   7.739  67.219  1.00  0.00    -0.140 NA 
HETATM   22  H   UNL     1      -8.751   7.066  66.809  1.00  0.00     0.000 HD 
BRANCH  21  23
HETATM   23  C   UNL     1      -9.855   8.723  66.228  1.00  0.00    -0.272 C  
BRANCH  23  24
HETATM   24  C   UNL     1      -9.968  10.145  66.800  1.00  0.00    -0.266 C  
BRANCH  24  25
HETATM   25  C   UNL     1     -10.525  11.121  65.799  1.00  0.00    -0.305 A  
HETATM   26  C   UNL     1     -10.166  11.017  64.450  1.00  0.00    -0.409 A  
HETATM   27  C   UNL     1     -10.686  11.911  63.513  1.00  0.00    -0.504 A  
HETATM   28  C   UNL     1     -11.560  12.915  63.924  1.00  0.00    -0.515 A  
HETATM   29  C   UNL     1     -11.911  13.030  65.268  1.00  0.00    -0.446 A  
HETATM   30  C   UNL     1     -11.393  12.138  66.205  1.00  0.00    -0.414 A  
ENDBRANCH  24  25
ENDBRANCH  23  24
ENDBRANCH  21  23
ENDBRANCH  20  21
ENDBRANCH  19  20
ENDBRANCH  18  19
ENDBRANCH  17  18
ENDBRANCH  16  17
ENDBRANCH  15  16
ENDBRANCH  13  15
ENDBRANCH  12  13
ENDBRANCH  11  12
ENDBRANCH   8  11
TORSDOF 13
ENDMDL
MODEL      225
REMARK 921   NORMALIZED FREE ENERGY PREDICTED BY IDOCK:   -3.77 KCAL/MOL
REMARK 922        TOTAL FREE ENERGY PREDICTED BY IDOCK:   -9.40 KCAL/MOL
REMARK 923 INTER-LIGAND FREE ENERGY PREDICTED BY IDOCK:   -8.34 KCAL/MOL
REMARK 924 INTRA-LIGAND FREE ENERGY PREDICTED BY IDOCK:   -1.06 KCAL/MOL
REMARK 927      BINDING AFFINITY PREDICTED BY RF-SCORE:    0.00 PKD
ROOT
HETATM    1  O   UNL     1      -8.545   8.527  63.619  1.00  0.00    -0.399 OA 
HETATM    2  H   UNL     1      -8.250   9.082  62.907  1.00  0.00     0.000 HD 
HETATM    3  C   UNL     1      -8.792   8.992  64.882  1.00  0.00    -0.148 A  
HETATM    4  C   UNL     1      -9.225   8.181  65.927  1.00  0.00    -0.097 A  
HETATM    5  C   UNL     1      -9.493   8.734  67.181  1.00  0.00    -0.208 A  
HETATM    6  O   UNL     1      -9.409   6.835  65.789  1.00  0.00    -0.383 OA 
HETATM    7  H   UNL     1      -9.705   6.280  66.502  1.00  0.00     0.000 HD 
HETATM    8  C   UNL     1      -9.342  10.109  67.393  1.00  0.00    -0.167 A  
HETATM    9  C   UNL     1      -8.592  10.353  65.095  1.00  0.00    -0.189 A  
HETATM   10  C   UNL     1      -8.862  10.911  66.346  1.00  0.00    -0.178 A  
ENDROOT
BRANCH   8  11
HETATM   11  C   UNL     1      -9.675  10.724  68.730  1.00  0.00    -0.197 C  
BRANCH  11  12
HETATM   12  C   UNL     1     -11.095  10.370  69.175  1.00  0.00    -0.246 C  
BRANCH  12  13
HETATM   13  N   UNL     1     -12.084  10.963  68.268  1.00  0.00    -0.810 NA 
HETATM   14  H   UNL     1     -13.041  10.740  68.543  1.00  0.00     0.000 HD 
BRANCH  13  15
HETATM   15  C   UNL     1     -11.861  12.403  68.172  1.00  0.00    -0.315 C  
BRANCH  15  16
HETATM   16  C   UNL     1     -11.994  12.869  66.726  1.00  0.00    -0.418 C  
BRANCH  16  17
HETATM   17  C   UNL     1     -11.927  14.393  66.674  1.00  0.00    -0.414 C  
BRANCH  17  18
HETATM   18  C   UNL     1     -11.245  14.952  67.911  1.00  0.00    -0.324 C  
BRANCH  18  19
HETATM   19  C   UNL     1     -10.051  15.825  67.529  1.00  0.00    -0.245 C  
BRANCH  19  20
HETATM   20  C   UNL     1     -10.529  17.257  67.332  1.00  0.00    -0.338 C  
BRANCH  20  21
HETATM   21  N   UNL     1     -10.232  17.728  65.982  1.00  0.00    -0.530 NA 
HETATM   22  H   UNL     1     -11.062  17.719  65.390  1.00  0.00     0.000 HD 
BRANCH  21  23
HETATM   23  C   UNL     1      -9.601  19.055  66.009  1.00  0.00    -0.142 C  
BRANCH  23  24
HETATM   24  C   UNL     1      -9.538  19.663  67.419  1.00  0.00    -0.455 C  
BRANCH  24  25
HETATM   25  C   UNL     1      -8.128  19.958  67.852  1.00  0.00    -0.321 A  
HETATM   26  C   UNL     1      -7.621  19.376  69.020  1.00  0.00    -0.369 A  
HETATM   27  C   UNL     1      -6.311  19.635  69.424  1.00  0.00    -0.365 A  
HETATM   28  C   UNL     1      -5.507  20.481  68.664  1.00  0.00    -0.320 A  
HETATM   29  C   UNL     1      -6.010  21.073  67.506  1.00  0.00    -0.374 A  
HETATM   30  C   UNL     1      -7.318  20.815  67.102  1.00  0.00    -0.385 A  
ENDBRANCH  24  25
ENDBRANCH  23  24
ENDBRANCH  21  23
ENDBRANCH  20  21
ENDBRANCH  19  20
ENDBRANCH  18  19
ENDBRANCH  17  18
ENDBRANCH  16  17
ENDBRANCH  15  16
ENDBRANCH  13  15
ENDBRANCH  12  13
ENDBRANCH  11  12
ENDBRANCH   8  11
TORSDOF 13
ENDMDL
MODEL      226
REMARK 921   NORMALIZED FREE ENERGY PREDICTED BY IDOCK:   -3.77 KCAL/MOL
REMARK 922        TOTAL FREE ENERGY PREDICTED BY IDOCK:   -9.38 KCAL/MOL
REMARK 923 INTER-LIGAND FREE ENERGY PREDICTED BY IDOCK:   -7.20 KCAL/MOL
REMARK 924 INTRA-LIGAND FREE ENERGY PREDICTED BY IDOCK:   -2.18 KCAL/MOL
REMARK 927      BINDING AFFINITY PREDICTED BY RF-SCORE:    0.00 PKD
ROOT
HETATM    1  O   UNL     1     -10.398  10.187  70.588  1.00  0.00    -0.392 OA 
HETATM    2  H   UNL     1     -11.275  10.023  70.913  1.00  0.00     0.000 HD 
HETATM    3  C   UNL     1     -10.102  10.332  69.260  1.00  0.00    -0.227 A  
HETATM    4  C   UNL     1      -8.817  10.572  68.783  1.00  0.00    -0.158 A  
HETATM    5  C   UNL     1      -8.597  10.748  67.415  1.00  0.00    -0.126 A  
HETATM    6  O   UNL     1      -7.727  10.649  69.602  1.00  0.00    -0.277 OA 
HETATM    7  H   UNL     1      -6.849  10.812  69.277  1.00  0.00     0.000 HD 
HETATM    8  C   UNL     1      -9.668  10.698  66.515  1.00  0.00    -0.236 A  
HETATM    9  C   UNL     1     -11.167  10.233  68.370  1.00  0.00    -0.284 A  
HETATM   10  C   UNL     1     -10.953  10.411  67.002  1.00  0.00    -0.222 A  
ENDROOT
BRANCH   8  11
HETATM   11  C   UNL     1      -9.449  10.934  65.041  1.00  0.00    -0.274 C  
BRANCH  11  12
HETATM   12  C   UNL     1     -10.411  11.989  64.491  1.00  0.00    -0.296 C  
BRANCH  12  13
HETATM   13  N   UNL     1      -9.913  13.340  64.774  1.00  0.00    -0.594 NA 
HETATM   14  H   UNL     1      -9.568  13.807  63.934  1.00  0.00     0.000 HD 
BRANCH  13  15
HETATM   15  C   UNL     1     -10.951  14.115  65.447  1.00  0.00    -0.327 C  
BRANCH  15  16
HETATM   16  C   UNL     1     -10.886  15.578  65.022  1.00  0.00    -0.468 C  
BRANCH  16  17
HETATM   17  C   UNL     1     -10.905  16.469  66.261  1.00  0.00    -0.037 C  
BRANCH  17  18
HETATM   18  C   UNL     1     -10.126  17.751  66.024  1.00  0.00    -0.254 C  
BRANCH  18  19
HETATM   19  C   UNL     1     -10.045  18.585  67.302  1.00  0.00    -0.376 C  
BRANCH  19  20
HETATM   20  C   UNL     1      -8.587  18.929  67.576  1.00  0.00    -0.275 C  
BRANCH  20  21
HETATM   21  N   UNL     1      -8.053  18.117  68.666  1.00  0.00    -0.307 NA 
HETATM   22  H   UNL     1      -8.624  18.196  69.507  1.00  0.00     0.000 HD 
BRANCH  21  23
HETATM   23  C   UNL     1      -7.889  16.716  68.254  1.00  0.00    -0.182 C  
BRANCH  23  24
HETATM   24  C   UNL     1      -8.176  15.717  69.386  1.00  0.00    -0.211 C  
BRANCH  24  25
HETATM   25  C   UNL     1      -9.620  15.293  69.421  1.00  0.00    -0.245 A  
HETATM   26  C   UNL     1     -10.014  14.109  68.788  1.00  0.00    -0.184 A  
HETATM   27  C   UNL     1     -11.349  13.702  68.825  1.00  0.00    -0.326 A  
HETATM   28  C   UNL     1     -12.292  14.483  69.489  1.00  0.00    -0.247 A  
HETATM   29  C   UNL     1     -11.907  15.669  70.112  1.00  0.00    -0.381 A  
HETATM   30  C   UNL     1     -10.574  16.076  70.075  1.00  0.00    -0.297 A  
ENDBRANCH  24  25
ENDBRANCH  23  24
ENDBRANCH  21  23
ENDBRANCH  20  21
ENDBRANCH  19  20
ENDBRANCH  18  19
ENDBRANCH  17  18
ENDBRANCH  16  17
ENDBRANCH  15  16
ENDBRANCH  13  15
ENDBRANCH  12  13
ENDBRANCH  11  12
ENDBRANCH   8  11
TORSDOF 13
ENDMDL
MODEL      227
REMARK 921   NORMALIZED FREE ENERGY PREDICTED BY IDOCK:   -3.77 KCAL/MOL
REMARK 922        TOTAL FREE ENERGY PREDICTED BY IDOCK:   -9.38 KCAL/MOL
REMARK 923 INTER-LIGAND FREE ENERGY PREDICTED BY IDOCK:   -8.30 KCAL/MOL
REMARK 924 INTRA-LIGAND FREE ENERGY PREDICTED BY IDOCK:   -1.08 KCAL/MOL
REMARK 927      BINDING AFFINITY PREDICTED BY RF-SCORE:    0.00 PKD
ROOT
HETATM    1  O   UNL     1     -10.561   6.930  73.927  1.00  0.00    -0.444 OA 
HETATM    2  H   UNL     1     -10.913   6.254  74.494  1.00  0.00     0.000 HD 
HETATM    3  C   UNL     1     -10.175   6.704  72.634  1.00  0.00    -0.186 A  
HETATM    4  C   UNL     1      -9.660   7.694  71.803  1.00  0.00    -0.149 A  
HETATM    5  C   UNL     1      -9.323   7.397  70.481  1.00  0.00    -0.157 A  
HETATM    6  O   UNL     1      -9.460   8.979  72.221  1.00  0.00    -0.315 OA 
HETATM    7  H   UNL     1      -9.107   9.655  71.655  1.00  0.00     0.000 HD 
HETATM    8  C   UNL     1      -9.514   6.105  69.977  1.00  0.00    -0.172 A  
HETATM    9  C   UNL     1     -10.325   5.405  72.158  1.00  0.00    -0.265 A  
HETATM   10  C   UNL     1      -9.993   5.103  70.836  1.00  0.00    -0.280 A  
ENDROOT
BRANCH   8  11
HETATM   11  C   UNL     1      -9.199   5.784  68.537  1.00  0.00    -0.126 C  
BRANCH  11  12
HETATM   12  C   UNL     1     -10.464   5.453  67.744  1.00  0.00    -0.140 C  
BRANCH  12  13
HETATM   13  N   UNL     1     -11.167   6.681  67.355  1.00  0.00    -0.702 NA 
HETATM   14  H   UNL     1     -11.651   7.113  68.143  1.00  0.00     0.000 HD 
BRANCH  13  15
HETATM   15  C   UNL     1     -10.232   7.600  66.712  1.00  0.00    -0.263 C  
BRANCH  15  16
HETATM   16  C   UNL     1     -10.608   9.045  67.018  1.00  0.00    -0.270 C  
BRANCH  16  17
HETATM   17  C   UNL     1      -9.363   9.924  66.932  1.00  0.00    -0.184 C  
BRANCH  17  18
HETATM   18  C   UNL     1      -9.280  10.870  68.118  1.00  0.00    -0.158 C  
BRANCH  18  19
HETATM   19  C   UNL     1      -8.179  11.910  67.911  1.00  0.00    -0.150 C  
BRANCH  19  20
HETATM   20  C   UNL     1      -8.723  13.284  68.276  1.00  0.00    -0.168 C  
BRANCH  20  21
HETATM   21  N   UNL     1     -10.066  13.183  68.842  1.00  0.00    -0.434 NA 
HETATM   22  H   UNL     1     -10.074  12.623  69.694  1.00  0.00     0.000 HD 
BRANCH  21  23
HETATM   23  C   UNL     1     -10.650  14.513  69.064  1.00  0.00    -0.247 C  
BRANCH  23  24
HETATM   24  C   UNL     1     -12.146  14.464  69.413  1.00  0.00    -0.338 C  
BRANCH  24  25
HETATM   25  C   UNL     1     -12.425  14.957  70.807  1.00  0.00    -0.401 A  
HETATM   26  C   UNL     1     -11.553  15.871  71.411  1.00  0.00    -0.529 A  
HETATM   27  C   UNL     1     -11.810  16.341  72.700  1.00  0.00    -0.596 A  
HETATM   28  C   UNL     1     -12.934  15.893  73.389  1.00  0.00    -0.693 A  
HETATM   29  C   UNL     1     -13.799  14.974  72.797  1.00  0.00    -0.472 A  
HETATM   30  C   UNL     1     -13.544  14.504  71.510  1.00  0.00    -0.465 A  
ENDBRANCH  24  25
ENDBRANCH  23  24
ENDBRANCH  21  23
ENDBRANCH  20  21
ENDBRANCH  19  20
ENDBRANCH  18  19
ENDBRANCH  17  18
ENDBRANCH  16  17
ENDBRANCH  15  16
ENDBRANCH  13  15
ENDBRANCH  12  13
ENDBRANCH  11  12
ENDBRANCH   8  11
TORSDOF 13
ENDMDL
MODEL      228
REMARK 921   NORMALIZED FREE ENERGY PREDICTED BY IDOCK:   -3.77 KCAL/MOL
REMARK 922        TOTAL FREE ENERGY PREDICTED BY IDOCK:   -9.38 KCAL/MOL
REMARK 923 INTER-LIGAND FREE ENERGY PREDICTED BY IDOCK:   -8.67 KCAL/MOL
REMARK 924 INTRA-LIGAND FREE ENERGY PREDICTED BY IDOCK:   -0.71 KCAL/MOL
REMARK 927      BINDING AFFINITY PREDICTED BY RF-SCORE:    0.00 PKD
ROOT
HETATM    1  O   UNL     1     -10.104   3.415  72.405  1.00  0.00    -0.157 OA 
HETATM    2  H   UNL     1      -9.873   2.666  71.869  1.00  0.00     0.000 HD 
HETATM    3  C   UNL     1     -10.265   4.679  71.903  1.00  0.00    -0.184 A  
HETATM    4  C   UNL     1     -10.605   5.777  72.688  1.00  0.00    -0.223 A  
HETATM    5  C   UNL     1     -10.789   7.030  72.099  1.00  0.00    -0.255 A  
HETATM    6  O   UNL     1     -10.775   5.695  74.040  1.00  0.00    -0.318 OA 
HETATM    7  H   UNL     1     -11.006   6.444  74.576  1.00  0.00     0.000 HD 
HETATM    8  C   UNL     1     -10.647   7.188  70.716  1.00  0.00    -0.240 A  
HETATM    9  C   UNL     1     -10.074   4.834  70.534  1.00  0.00    -0.291 A  
HETATM   10  C   UNL     1     -10.261   6.084  69.940  1.00  0.00    -0.265 A  
ENDROOT
BRANCH   8  11
HETATM   11  C   UNL     1     -10.891   8.527  70.064  1.00  0.00    -0.225 C  
BRANCH  11  12
HETATM   12  C   UNL     1     -11.669   9.469  70.984  1.00  0.00    -0.343 C  
BRANCH  12  13
HETATM   13  N   UNL     1     -12.520  10.371  70.200  1.00  0.00    -0.506 NA 
HETATM   14  H   UNL     1     -13.475  10.022  70.115  1.00  0.00     0.000 HD 
BRANCH  13  15
HETATM   15  C   UNL     1     -12.473  11.713  70.775  1.00  0.00    -0.330 C  
BRANCH  15  16
HETATM   16  C   UNL     1     -13.442  11.825  71.947  1.00  0.00    -0.278 C  
BRANCH  16  17
HETATM   17  C   UNL     1     -13.545  13.284  72.384  1.00  0.00    -0.694 C  
BRANCH  17  18
HETATM   18  C   UNL     1     -14.057  14.158  71.253  1.00  0.00    -0.145 C  
BRANCH  18  19
HETATM   19  C   UNL     1     -13.228  15.436  71.132  1.00  0.00    -0.583 C  
BRANCH  19  20
HETATM   20  C   UNL     1     -11.854  15.193  71.741  1.00  0.00    -0.405 C  
BRANCH  20  21
HETATM   21  N   UNL     1     -10.822  15.153  70.708  1.00  0.00    -0.530 NA 
HETATM   22  H   UNL     1     -10.964  14.373  70.066  1.00  0.00     0.000 HD 
BRANCH  21  23
HETATM   23  C   UNL     1     -10.738  16.434  69.992  1.00  0.00    -0.258 C  
BRANCH  23  24
HETATM   24  C   UNL     1     -10.462  16.268  68.490  1.00  0.00    -0.278 C  
BRANCH  24  25
HETATM   25  C   UNL     1     -10.122  17.573  67.822  1.00  0.00    -0.330 A  
HETATM   26  C   UNL     1      -9.078  18.361  68.322  1.00  0.00    -0.330 A  
HETATM   27  C   UNL     1      -8.749  19.567  67.703  1.00  0.00    -0.361 A  
HETATM   28  C   UNL     1      -9.468  19.992  66.588  1.00  0.00    -0.524 A  
HETATM   29  C   UNL     1     -10.516  19.217  66.093  1.00  0.00    -0.577 A  
HETATM   30  C   UNL     1     -10.845  18.012  66.710  1.00  0.00    -0.043 A  
ENDBRANCH  24  25
ENDBRANCH  23  24
ENDBRANCH  21  23
ENDBRANCH  20  21
ENDBRANCH  19  20
ENDBRANCH  18  19
ENDBRANCH  17  18
ENDBRANCH  16  17
ENDBRANCH  15  16
ENDBRANCH  13  15
ENDBRANCH  12  13
ENDBRANCH  11  12
ENDBRANCH   8  11
TORSDOF 13
ENDMDL
MODEL      229
REMARK 921   NORMALIZED FREE ENERGY PREDICTED BY IDOCK:   -3.76 KCAL/MOL
REMARK 922        TOTAL FREE ENERGY PREDICTED BY IDOCK:   -9.37 KCAL/MOL
REMARK 923 INTER-LIGAND FREE ENERGY PREDICTED BY IDOCK:   -8.10 KCAL/MOL
REMARK 924 INTRA-LIGAND FREE ENERGY PREDICTED BY IDOCK:   -1.27 KCAL/MOL
REMARK 927      BINDING AFFINITY PREDICTED BY RF-SCORE:    0.00 PKD
ROOT
HETATM    1  O   UNL     1      -6.096  12.875  70.964  1.00  0.00    -0.547 OA 
HETATM    2  H   UNL     1      -5.429  12.647  71.601  1.00  0.00     0.000 HD 
HETATM    3  C   UNL     1      -6.260  14.139  70.465  1.00  0.00    -0.138 A  
HETATM    4  C   UNL     1      -7.236  14.473  69.531  1.00  0.00    -0.095 A  
HETATM    5  C   UNL     1      -7.319  15.778  69.039  1.00  0.00    -0.177 A  
HETATM    6  O   UNL     1      -8.144  13.571  69.056  1.00  0.00    -0.337 OA 
HETATM    7  H   UNL     1      -8.811  13.799  68.419  1.00  0.00     0.000 HD 
HETATM    8  C   UNL     1      -6.413  16.754  69.469  1.00  0.00    -0.225 A  
HETATM    9  C   UNL     1      -5.385  15.112  70.935  1.00  0.00    -0.131 A  
HETATM   10  C   UNL     1      -5.461  16.417  70.443  1.00  0.00    -0.174 A  
ENDROOT
BRANCH   8  11
HETATM   11  C   UNL     1      -6.462  18.153  68.907  1.00  0.00    -0.230 C  
BRANCH  11  12
HETATM   12  C   UNL     1      -7.901  18.609  68.654  1.00  0.00    -0.321 C  
BRANCH  12  13
HETATM   13  N   UNL     1      -8.069  19.041  67.262  1.00  0.00    -0.260 NA 
HETATM   14  H   UNL     1      -7.213  19.445  66.879  1.00  0.00     0.000 HD 
BRANCH  13  15
HETATM   15  C   UNL     1      -8.560  17.926  66.457  1.00  0.00    -0.255 C  
BRANCH  15  16
HETATM   16  C   UNL     1     -10.079  17.984  66.336  1.00  0.00    -0.384 C  
BRANCH  16  17
HETATM   17  C   UNL     1     -10.712  17.373  67.584  1.00  0.00    -0.310 C  
BRANCH  17  18
HETATM   18  C   UNL     1     -10.601  15.858  67.566  1.00  0.00    -0.315 C  
BRANCH  18  19
HETATM   19  C   UNL     1     -10.976  15.299  66.194  1.00  0.00    -0.307 C  
BRANCH  19  20
HETATM   20  C   UNL     1     -11.614  13.929  66.376  1.00  0.00    -0.367 C  
BRANCH  20  21
HETATM   21  N   UNL     1     -10.852  13.117  67.322  1.00  0.00    -0.254 NA 
HETATM   22  H   UNL     1     -10.328  13.697  67.977  1.00  0.00     0.000 HD 
BRANCH  21  23
HETATM   23  C   UNL     1     -11.722  12.161  68.022  1.00  0.00    -0.344 C  
BRANCH  23  24
HETATM   24  C   UNL     1     -11.852  12.454  69.525  1.00  0.00    -0.368 C  
BRANCH  24  25
HETATM   25  C   UNL     1     -11.861  11.198  70.353  1.00  0.00    -0.462 A  
HETATM   26  C   UNL     1     -10.778  10.313  70.290  1.00  0.00    -0.310 A  
HETATM   27  C   UNL     1     -10.773   9.151  71.063  1.00  0.00    -0.363 A  
HETATM   28  C   UNL     1     -11.853   8.869  71.896  1.00  0.00    -0.440 A  
HETATM   29  C   UNL     1     -12.940   9.741  71.954  1.00  0.00    -0.535 A  
HETATM   30  C   UNL     1     -12.946  10.901  71.182  1.00  0.00    -0.449 A  
ENDBRANCH  24  25
ENDBRANCH  23  24
ENDBRANCH  21  23
ENDBRANCH  20  21
ENDBRANCH  19  20
ENDBRANCH  18  19
ENDBRANCH  17  18
ENDBRANCH  16  17
ENDBRANCH  15  16
ENDBRANCH  13  15
ENDBRANCH  12  13
ENDBRANCH  11  12
ENDBRANCH   8  11
TORSDOF 13
ENDMDL
MODEL      230
REMARK 921   NORMALIZED FREE ENERGY PREDICTED BY IDOCK:   -3.75 KCAL/MOL
REMARK 922        TOTAL FREE ENERGY PREDICTED BY IDOCK:   -9.35 KCAL/MOL
REMARK 923 INTER-LIGAND FREE ENERGY PREDICTED BY IDOCK:   -8.62 KCAL/MOL
REMARK 924 INTRA-LIGAND FREE ENERGY PREDICTED BY IDOCK:   -0.74 KCAL/MOL
REMARK 927      BINDING AFFINITY PREDICTED BY RF-SCORE:    0.00 PKD
ROOT
HETATM    1  O   UNL     1      -7.366  19.746  65.909  1.00  0.00    -0.293 OA 
HETATM    2  H   UNL     1      -6.471  19.469  65.750  1.00  0.00     0.000 HD 
HETATM    3  C   UNL     1      -8.355  18.894  66.323  1.00  0.00    -0.260 A  
HETATM    4  C   UNL     1      -9.666  19.299  66.556  1.00  0.00    -0.367 A  
HETATM    5  C   UNL     1     -10.612  18.379  67.014  1.00  0.00    -0.400 A  
HETATM    6  O   UNL     1     -10.090  20.581  66.359  1.00  0.00    -0.535 OA 
HETATM    7  H   UNL     1     -10.985  20.857  66.518  1.00  0.00     0.000 HD 
HETATM    8  C   UNL     1     -10.248  17.050  67.254  1.00  0.00    -0.310 A  
HETATM    9  C   UNL     1      -7.992  17.564  66.512  1.00  0.00    -0.309 A  
HETATM   10  C   UNL     1      -8.934  16.642  66.973  1.00  0.00    -0.227 A  
ENDROOT
BRANCH   8  11
HETATM   11  C   UNL     1     -11.251  16.060  67.794  1.00  0.00    -0.231 C  
BRANCH  11  12
HETATM   12  C   UNL     1     -11.166  14.718  67.066  1.00  0.00    -0.345 C  
BRANCH  12  13
HETATM   13  N   UNL     1     -12.503  14.259  66.670  1.00  0.00    -0.543 NA 
HETATM   14  H   UNL     1     -13.236  14.901  66.975  1.00  0.00     0.000 HD 
BRANCH  13  15
HETATM   15  C   UNL     1     -12.537  14.031  65.228  1.00  0.00    -0.470 C  
BRANCH  15  16
HETATM   16  C   UNL     1     -11.135  14.141  64.638  1.00  0.00    -0.378 C  
BRANCH  16  17
HETATM   17  C   UNL     1     -10.738  12.802  64.020  1.00  0.00    -0.457 C  
BRANCH  17  18
HETATM   18  C   UNL     1      -9.913  11.976  64.992  1.00  0.00    -0.259 C  
BRANCH  18  19
HETATM   19  C   UNL     1     -10.199  10.485  64.819  1.00  0.00    -0.373 C  
BRANCH  19  20
HETATM   20  C   UNL     1      -9.773   9.751  66.083  1.00  0.00    -0.246 C  
BRANCH  20  21
HETATM   21  N   UNL     1      -9.864   8.304  65.905  1.00  0.00    -0.440 NA 
HETATM   22  H   UNL     1      -8.947   7.887  65.749  1.00  0.00     0.000 HD 
BRANCH  21  23
HETATM   23  C   UNL     1     -10.559   7.672  67.036  1.00  0.00    -0.336 C  
BRANCH  23  24
HETATM   24  C   UNL     1      -9.808   6.458  67.603  1.00  0.00    -0.138 C  
BRANCH  24  25
HETATM   25  C   UNL     1     -10.198   6.157  69.025  1.00  0.00    -0.237 A  
HETATM   26  C   UNL     1     -11.070   7.015  69.705  1.00  0.00    -0.278 A  
HETATM   27  C   UNL     1     -11.446   6.738  71.020  1.00  0.00    -0.372 A  
HETATM   28  C   UNL     1     -10.945   5.606  71.660  1.00  0.00    -0.277 A  
HETATM   29  C   UNL     1     -10.067   4.755  70.991  1.00  0.00    -0.269 A  
HETATM   30  C   UNL     1      -9.691   5.030  69.677  1.00  0.00    -0.266 A  
ENDBRANCH  24  25
ENDBRANCH  23  24
ENDBRANCH  21  23
ENDBRANCH  20  21
ENDBRANCH  19  20
ENDBRANCH  18  19
ENDBRANCH  17  18
ENDBRANCH  16  17
ENDBRANCH  15  16
ENDBRANCH  13  15
ENDBRANCH  12  13
ENDBRANCH  11  12
ENDBRANCH   8  11
TORSDOF 13
ENDMDL
MODEL      231
REMARK 921   NORMALIZED FREE ENERGY PREDICTED BY IDOCK:   -3.75 KCAL/MOL
REMARK 922        TOTAL FREE ENERGY PREDICTED BY IDOCK:   -9.35 KCAL/MOL
REMARK 923 INTER-LIGAND FREE ENERGY PREDICTED BY IDOCK:   -7.13 KCAL/MOL
REMARK 924 INTRA-LIGAND FREE ENERGY PREDICTED BY IDOCK:   -2.22 KCAL/MOL
REMARK 927      BINDING AFFINITY PREDICTED BY RF-SCORE:    0.00 PKD
ROOT
HETATM    1  O   UNL     1      -9.842  18.651  67.553  1.00  0.00    -0.303 OA 
HETATM    2  H   UNL     1      -9.757  19.290  68.250  1.00  0.00     0.000 HD 
HETATM    3  C   UNL     1     -10.277  17.369  67.755  1.00  0.00    -0.345 A  
HETATM    4  C   UNL     1     -10.402  16.432  66.733  1.00  0.00    -0.293 A  
HETATM    5  C   UNL     1     -10.889  15.153  67.010  1.00  0.00    -0.314 A  
HETATM    6  O   UNL     1     -10.066  16.702  65.438  1.00  0.00    -0.578 OA 
HETATM    7  H   UNL     1     -10.150  16.063  64.740  1.00  0.00     0.000 HD 
HETATM    8  C   UNL     1     -11.268  14.808  68.312  1.00  0.00    -0.299 A  
HETATM    9  C   UNL     1     -10.606  17.022  69.061  1.00  0.00    -0.314 A  
HETATM   10  C   UNL     1     -11.097  15.745  69.343  1.00  0.00    -0.314 A  
ENDROOT
BRANCH   8  11
HETATM   11  C   UNL     1     -11.842  13.445  68.613  1.00  0.00    -0.397 C  
BRANCH  11  12
HETATM   12  C   UNL     1     -12.121  13.268  70.107  1.00  0.00    -0.333 C  
BRANCH  12  13
HETATM   13  N   UNL     1     -11.807  11.899  70.533  1.00  0.00    -0.510 NA 
HETATM   14  H   UNL     1     -12.253  11.661  71.419  1.00  0.00     0.000 HD 
BRANCH  13  15
HETATM   15  C   UNL     1     -12.159  10.961  69.470  1.00  0.00    -0.309 C  
BRANCH  15  16
HETATM   16  C   UNL     1     -10.921  10.211  68.990  1.00  0.00    -0.265 C  
BRANCH  16  17
HETATM   17  C   UNL     1     -10.095   9.769  70.195  1.00  0.00    -0.317 C  
BRANCH  17  18
HETATM   18  C   UNL     1      -8.609   9.945  69.933  1.00  0.00    -0.216 C  
BRANCH  18  19
HETATM   19  C   UNL     1      -8.367  10.980  68.835  1.00  0.00    -0.123 C  
BRANCH  19  20
HETATM   20  C   UNL     1      -7.358  10.420  67.843  1.00  0.00    -0.086 C  
BRANCH  20  21
HETATM   21  N   UNL     1      -7.974  10.195  66.538  1.00  0.00    -0.116 NA 
HETATM   22  H   UNL     1      -7.785  10.965  65.896  1.00  0.00     0.000 HD 
BRANCH  21  23
HETATM   23  C   UNL     1      -7.561   8.904  65.971  1.00  0.00    -0.094 C  
BRANCH  23  24
HETATM   24  C   UNL     1      -8.740   7.953  65.716  1.00  0.00    -0.163 C  
BRANCH  24  25
HETATM   25  C   UNL     1      -9.203   7.267  66.974  1.00  0.00    -0.170 A  
HETATM   26  C   UNL     1     -10.567   7.023  67.173  1.00  0.00    -0.412 A  
HETATM   27  C   UNL     1     -11.005   6.378  68.330  1.00  0.00    -0.390 A  
HETATM   28  C   UNL     1     -10.080   5.982  69.294  1.00  0.00    -0.235 A  
HETATM   29  C   UNL     1      -8.721   6.233  69.106  1.00  0.00    -0.123 A  
HETATM   30  C   UNL     1      -8.284   6.877  67.950  1.00  0.00    -0.114 A  
ENDBRANCH  24  25
ENDBRANCH  23  24
ENDBRANCH  21  23
ENDBRANCH  20  21
ENDBRANCH  19  20
ENDBRANCH  18  19
ENDBRANCH  17  18
ENDBRANCH  16  17
ENDBRANCH  15  16
ENDBRANCH  13  15
ENDBRANCH  12  13
ENDBRANCH  11  12
ENDBRANCH   8  11
TORSDOF 13
ENDMDL
MODEL      232
REMARK 921   NORMALIZED FREE ENERGY PREDICTED BY IDOCK:   -3.74 KCAL/MOL
REMARK 922        TOTAL FREE ENERGY PREDICTED BY IDOCK:   -9.34 KCAL/MOL
REMARK 923 INTER-LIGAND FREE ENERGY PREDICTED BY IDOCK:   -7.63 KCAL/MOL
REMARK 924 INTRA-LIGAND FREE ENERGY PREDICTED BY IDOCK:   -1.71 KCAL/MOL
REMARK 927      BINDING AFFINITY PREDICTED BY RF-SCORE:    0.00 PKD
ROOT
HETATM    1  O   UNL     1     -10.725  13.744  66.731  1.00  0.00    -0.275 OA 
HETATM    2  H   UNL     1     -10.390  14.581  66.430  1.00  0.00     0.000 HD 
HETATM    3  C   UNL     1      -9.923  12.732  67.184  1.00  0.00    -0.218 A  
HETATM    4  C   UNL     1     -10.414  11.506  67.626  1.00  0.00    -0.189 A  
HETATM    5  C   UNL     1      -9.537  10.533  68.110  1.00  0.00    -0.163 A  
HETATM    6  O   UNL     1     -11.743  11.194  67.614  1.00  0.00    -0.573 OA 
HETATM    7  H   UNL     1     -12.078  10.358  67.915  1.00  0.00     0.000 HD 
HETATM    8  C   UNL     1      -8.161  10.787  68.167  1.00  0.00    -0.119 A  
HETATM    9  C   UNL     1      -8.554  12.977  67.192  1.00  0.00    -0.195 A  
HETATM   10  C   UNL     1      -7.673  12.008  67.678  1.00  0.00    -0.144 A  
ENDROOT
BRANCH   8  11
HETATM   11  C   UNL     1      -7.211   9.761  68.733  1.00  0.00    -0.072 C  
BRANCH  11  12
HETATM   12  C   UNL     1      -6.677  10.183  70.103  1.00  0.00    -0.138 C  
BRANCH  12  13
HETATM   13  N   UNL     1      -6.296   9.007  70.894  1.00  0.00    -0.053 NA 
HETATM   14  H   UNL     1      -5.984   9.259  71.832  1.00  0.00     0.000 HD 
BRANCH  13  15
HETATM   15  C   UNL     1      -7.402   8.053  70.920  1.00  0.00    -0.058 C  
BRANCH  15  16
HETATM   16  C   UNL     1      -7.569   7.466  72.317  1.00  0.00    -0.092 C  
BRANCH  16  17
HETATM   17  C   UNL     1      -8.832   8.034  72.960  1.00  0.00    -0.302 C  
BRANCH  17  18
HETATM   18  C   UNL     1      -9.723   8.695  71.922  1.00  0.00    -0.383 C  
BRANCH  18  19
HETATM   19  C   UNL     1     -11.010   7.896  71.720  1.00  0.00    -0.290 C  
BRANCH  19  20
HETATM   20  C   UNL     1     -11.782   8.492  70.551  1.00  0.00    -0.072 C  
BRANCH  20  21
HETATM   21  N   UNL     1     -13.158   8.797  70.932  1.00  0.00    -0.487 NA 
HETATM   22  H   UNL     1     -13.537   8.093  71.564  1.00  0.00     0.000 HD 
BRANCH  21  23
HETATM   23  C   UNL     1     -13.264  10.148  71.502  1.00  0.00    -0.399 C  
BRANCH  23  24
HETATM   24  C   UNL     1     -12.226  11.126  70.930  1.00  0.00    -0.468 C  
BRANCH  24  25
HETATM   25  C   UNL     1     -12.603  12.563  71.167  1.00  0.00    -0.349 A  
HETATM   26  C   UNL     1     -12.162  13.555  70.283  1.00  0.00    -0.417 A  
HETATM   27  C   UNL     1     -12.516  14.889  70.489  1.00  0.00    -0.419 A  
HETATM   28  C   UNL     1     -13.306  15.235  71.583  1.00  0.00    -0.553 A  
HETATM   29  C   UNL     1     -13.738  14.253  72.473  1.00  0.00    -0.608 A  
HETATM   30  C   UNL     1     -13.386  12.920  72.268  1.00  0.00    -0.597 A  
ENDBRANCH  24  25
ENDBRANCH  23  24
ENDBRANCH  21  23
ENDBRANCH  20  21
ENDBRANCH  19  20
ENDBRANCH  18  19
ENDBRANCH  17  18
ENDBRANCH  16  17
ENDBRANCH  15  16
ENDBRANCH  13  15
ENDBRANCH  12  13
ENDBRANCH  11  12
ENDBRANCH   8  11
TORSDOF 13
ENDMDL
MODEL      233
REMARK 921   NORMALIZED FREE ENERGY PREDICTED BY IDOCK:   -3.74 KCAL/MOL
REMARK 922        TOTAL FREE ENERGY PREDICTED BY IDOCK:   -9.34 KCAL/MOL
REMARK 923 INTER-LIGAND FREE ENERGY PREDICTED BY IDOCK:   -8.01 KCAL/MOL
REMARK 924 INTRA-LIGAND FREE ENERGY PREDICTED BY IDOCK:   -1.32 KCAL/MOL
REMARK 927      BINDING AFFINITY PREDICTED BY RF-SCORE:    0.00 PKD
ROOT
HETATM    1  O   UNL     1     -11.576   6.743  67.339  1.00  0.00    -0.704 OA 
HETATM    2  H   UNL     1     -12.295   7.112  67.838  1.00  0.00     0.000 HD 
HETATM    3  C   UNL     1     -10.466   7.457  66.977  1.00  0.00    -0.333 A  
HETATM    4  C   UNL     1      -9.412   6.916  66.246  1.00  0.00    -0.070 A  
HETATM    5  C   UNL     1      -8.293   7.696  65.946  1.00  0.00    -0.140 A  
HETATM    6  O   UNL     1      -9.411   5.628  65.793  1.00  0.00    -0.296 OA 
HETATM    7  H   UNL     1      -8.693   5.259  65.293  1.00  0.00     0.000 HD 
HETATM    8  C   UNL     1      -8.216   9.021  66.389  1.00  0.00    -0.111 A  
HETATM    9  C   UNL     1     -10.421   8.787  67.382  1.00  0.00    -0.349 A  
HETATM   10  C   UNL     1      -9.303   9.570  67.088  1.00  0.00    -0.174 A  
ENDROOT
BRANCH   8  11
HETATM   11  C   UNL     1      -6.992   9.858  66.113  1.00  0.00    -0.102 C  
BRANCH  11  12
HETATM   12  C   UNL     1      -6.682   9.927  64.616  1.00  0.00    -0.123 C  
BRANCH  12  13
HETATM   13  N   UNL     1      -7.621  10.826  63.935  1.00  0.00    -0.338 NA 
HETATM   14  H   UNL     1      -7.158  11.659  63.569  1.00  0.00     0.000 HD 
BRANCH  13  15
HETATM   15  C   UNL     1      -8.338  10.092  62.896  1.00  0.00    -0.167 C  
BRANCH  15  16
HETATM   16  C   UNL     1      -9.820  10.449  62.917  1.00  0.00    -0.156 C  
BRANCH  16  17
HETATM   17  C   UNL     1     -10.038  11.662  63.819  1.00  0.00    -0.416 C  
BRANCH  17  18
HETATM   18  C   UNL     1     -11.340  12.368  63.478  1.00  0.00    -0.553 C  
BRANCH  18  19
HETATM   19  C   UNL     1     -12.294  12.360  64.672  1.00  0.00    -0.518 C  
BRANCH  19  20
HETATM   20  C   UNL     1     -12.243  13.720  65.354  1.00  0.00    -0.440 C  
BRANCH  20  21
HETATM   21  N   UNL     1     -11.234  13.740  66.410  1.00  0.00    -0.311 NA 
HETATM   22  H   UNL     1     -10.730  12.855  66.464  1.00  0.00     0.000 HD 
BRANCH  21  23
HETATM   23  C   UNL     1     -10.316  14.876  66.245  1.00  0.00    -0.294 C  
BRANCH  23  24
HETATM   24  C   UNL     1     -10.766  16.130  67.011  1.00  0.00    -0.254 C  
BRANCH  24  25
HETATM   25  C   UNL     1      -9.921  17.332  66.685  1.00  0.00    -0.296 A  
HETATM   26  C   UNL     1     -10.524  18.586  66.527  1.00  0.00    -0.435 A  
HETATM   27  C   UNL     1      -9.747  19.708  66.236  1.00  0.00    -0.511 A  
HETATM   28  C   UNL     1      -8.368  19.578  66.097  1.00  0.00    -0.333 A  
HETATM   29  C   UNL     1      -7.763  18.330  66.241  1.00  0.00    -0.283 A  
HETATM   30  C   UNL     1      -8.538  17.208  66.532  1.00  0.00    -0.306 A  
ENDBRANCH  24  25
ENDBRANCH  23  24
ENDBRANCH  21  23
ENDBRANCH  20  21
ENDBRANCH  19  20
ENDBRANCH  18  19
ENDBRANCH  17  18
ENDBRANCH  16  17
ENDBRANCH  15  16
ENDBRANCH  13  15
ENDBRANCH  12  13
ENDBRANCH  11  12
ENDBRANCH   8  11
TORSDOF 13
ENDMDL
MODEL      234
REMARK 921   NORMALIZED FREE ENERGY PREDICTED BY IDOCK:   -3.73 KCAL/MOL
REMARK 922        TOTAL FREE ENERGY PREDICTED BY IDOCK:   -9.32 KCAL/MOL
REMARK 923 INTER-LIGAND FREE ENERGY PREDICTED BY IDOCK:   -8.07 KCAL/MOL
REMARK 924 INTRA-LIGAND FREE ENERGY PREDICTED BY IDOCK:   -1.25 KCAL/MOL
REMARK 927      BINDING AFFINITY PREDICTED BY RF-SCORE:    0.00 PKD
ROOT
HETATM    1  O   UNL     1     -14.209   9.104  72.957  1.00  0.00    -1.082 OA 
HETATM    2  H   UNL     1     -14.489   8.285  73.349  1.00  0.00     0.000 HD 
HETATM    3  C   UNL     1     -13.092   9.221  72.175  1.00  0.00    -0.443 A  
HETATM    4  C   UNL     1     -12.682  10.420  71.600  1.00  0.00    -0.455 A  
HETATM    5  C   UNL     1     -11.551  10.455  70.781  1.00  0.00    -0.450 A  
HETATM    6  O   UNL     1     -13.343  11.598  71.796  1.00  0.00    -0.399 OA 
HETATM    7  H   UNL     1     -13.063  12.417  71.405  1.00  0.00     0.000 HD 
HETATM    8  C   UNL     1     -10.830   9.284  70.522  1.00  0.00    -0.318 A  
HETATM    9  C   UNL     1     -12.356   8.060  71.963  1.00  0.00    -0.366 A  
HETATM   10  C   UNL     1     -11.226   8.089  71.142  1.00  0.00    -0.287 A  
ENDROOT
BRANCH   8  11
HETATM   11  C   UNL     1      -9.636   9.301  69.600  1.00  0.00    -0.192 C  
BRANCH  11  12
HETATM   12  C   UNL     1      -8.570   8.295  70.039  1.00  0.00    -0.128 C  
BRANCH  12  13
HETATM   13  N   UNL     1      -7.375   8.408  69.195  1.00  0.00    -0.078 NA 
HETATM   14  H   UNL     1      -7.598   8.341  68.202  1.00  0.00     0.000 HD 
BRANCH  13  15
HETATM   15  C   UNL     1      -6.660   9.640  69.517  1.00  0.00    -0.049 C  
BRANCH  15  16
HETATM   16  C   UNL     1      -5.627   9.954  68.441  1.00  0.00    -0.042 C  
BRANCH  16  17
HETATM   17  C   UNL     1      -6.340  10.331  67.146  1.00  0.00    -0.067 C  
BRANCH  17  18
HETATM   18  C   UNL     1      -7.433  11.355  67.402  1.00  0.00    -0.120 C  
BRANCH  18  19
HETATM   19  C   UNL     1      -6.850  12.765  67.492  1.00  0.00    -0.153 C  
BRANCH  19  20
HETATM   20  C   UNL     1      -7.992  13.770  67.528  1.00  0.00    -0.181 C  
BRANCH  20  21
HETATM   21  N   UNL     1      -8.901  13.492  68.637  1.00  0.00    -0.364 NA 
HETATM   22  H   UNL     1      -8.954  14.278  69.285  1.00  0.00     0.000 HD 
BRANCH  21  23
HETATM   23  C   UNL     1     -10.232  13.103  68.149  1.00  0.00    -0.239 C  
BRANCH  23  24
HETATM   24  C   UNL     1     -10.767  14.036  67.052  1.00  0.00    -0.284 C  
BRANCH  24  25
HETATM   25  C   UNL     1     -11.214  13.282  65.828  1.00  0.00    -0.313 A  
HETATM   26  C   UNL     1     -10.311  12.456  65.149  1.00  0.00    -0.313 A  
HETATM   27  C   UNL     1     -10.720  11.745  64.020  1.00  0.00    -0.434 A  
HETATM   28  C   UNL     1     -12.031  11.864  63.565  1.00  0.00    -0.567 A  
HETATM   29  C   UNL     1     -12.932  12.694  64.231  1.00  0.00    -0.204 A  
HETATM   30  C   UNL     1     -12.524  13.405  65.358  1.00  0.00    -0.543 A  
ENDBRANCH  24  25
ENDBRANCH  23  24
ENDBRANCH  21  23
ENDBRANCH  20  21
ENDBRANCH  19  20
ENDBRANCH  18  19
ENDBRANCH  17  18
ENDBRANCH  16  17
ENDBRANCH  15  16
ENDBRANCH  13  15
ENDBRANCH  12  13
ENDBRANCH  11  12
ENDBRANCH   8  11
TORSDOF 13
ENDMDL
MODEL      235
REMARK 921   NORMALIZED FREE ENERGY PREDICTED BY IDOCK:   -3.72 KCAL/MOL
REMARK 922        TOTAL FREE ENERGY PREDICTED BY IDOCK:   -9.31 KCAL/MOL
REMARK 923 INTER-LIGAND FREE ENERGY PREDICTED BY IDOCK:   -7.66 KCAL/MOL
REMARK 924 INTRA-LIGAND FREE ENERGY PREDICTED BY IDOCK:   -1.65 KCAL/MOL
REMARK 927      BINDING AFFINITY PREDICTED BY RF-SCORE:    0.00 PKD
ROOT
HETATM    1  O   UNL     1      -8.632  16.602  65.931  1.00  0.00    -0.473 OA 
HETATM    2  H   UNL     1      -8.782  17.466  65.566  1.00  0.00     0.000 HD 
HETATM    3  C   UNL     1      -9.351  16.092  66.977  1.00  0.00    -0.218 A  
HETATM    4  C   UNL     1      -9.132  14.826  67.512  1.00  0.00    -0.189 A  
HETATM    5  C   UNL     1      -9.932  14.357  68.557  1.00  0.00    -0.237 A  
HETATM    6  O   UNL     1      -8.151  13.991  67.059  1.00  0.00    -0.347 OA 
HETATM    7  H   UNL     1      -8.001  13.127  67.424  1.00  0.00     0.000 HD 
HETATM    8  C   UNL     1     -10.967  15.150  69.064  1.00  0.00    -0.245 A  
HETATM    9  C   UNL     1     -10.346  16.908  67.506  1.00  0.00    -0.318 A  
HETATM   10  C   UNL     1     -11.151  16.443  68.548  1.00  0.00    -0.357 A  
ENDROOT
BRANCH   8  11
HETATM   11  C   UNL     1     -11.868  14.635  70.159  1.00  0.00    -0.365 C  
BRANCH  11  12
HETATM   12  C   UNL     1     -12.395  13.234  69.843  1.00  0.00    -0.163 C  
BRANCH  12  13
HETATM   13  N   UNL     1     -11.949  12.273  70.859  1.00  0.00    -0.377 NA 
HETATM   14  H   UNL     1     -12.484  12.352  71.724  1.00  0.00     0.000 HD 
BRANCH  13  15
HETATM   15  C   UNL     1     -11.990  10.922  70.307  1.00  0.00    -0.361 C  
BRANCH  15  16
HETATM   16  C   UNL     1     -10.644  10.555  69.693  1.00  0.00    -0.281 C  
BRANCH  16  17
HETATM   17  C   UNL     1     -10.849  10.105  68.249  1.00  0.00    -0.297 C  
BRANCH  17  18
HETATM   18  C   UNL     1      -9.704   9.221  67.784  1.00  0.00    -0.182 C  
BRANCH  18  19
HETATM   19  C   UNL     1     -10.198   8.159  66.803  1.00  0.00    -0.372 C  
BRANCH  19  20
HETATM   20  C   UNL     1     -10.232   6.812  67.511  1.00  0.00    -0.190 C  
BRANCH  20  21
HETATM   21  N   UNL     1     -11.465   6.655  68.280  1.00  0.00    -0.525 NA 
HETATM   22  H   UNL     1     -12.139   6.067  67.791  1.00  0.00     0.000 HD 
BRANCH  21  23
HETATM   23  C   UNL     1     -11.186   6.149  69.632  1.00  0.00    -0.418 C  
BRANCH  23  24
HETATM   24  C   UNL     1     -11.617   7.124  70.739  1.00  0.00    -0.358 C  
BRANCH  24  25
HETATM   25  C   UNL     1     -10.537   7.337  71.765  1.00  0.00    -0.229 A  
HETATM   26  C   UNL     1      -9.248   7.700  71.355  1.00  0.00    -0.152 A  
HETATM   27  C   UNL     1      -8.243   7.911  72.301  1.00  0.00    -0.167 A  
HETATM   28  C   UNL     1      -8.523   7.751  73.656  1.00  0.00    -0.275 A  
HETATM   29  C   UNL     1      -9.801   7.378  74.068  1.00  0.00    -0.190 A  
HETATM   30  C   UNL     1     -10.805   7.168  73.125  1.00  0.00    -0.373 A  
ENDBRANCH  24  25
ENDBRANCH  23  24
ENDBRANCH  21  23
ENDBRANCH  20  21
ENDBRANCH  19  20
ENDBRANCH  18  19
ENDBRANCH  17  18
ENDBRANCH  16  17
ENDBRANCH  15  16
ENDBRANCH  13  15
ENDBRANCH  12  13
ENDBRANCH  11  12
ENDBRANCH   8  11
TORSDOF 13
ENDMDL
MODEL      236
REMARK 921   NORMALIZED FREE ENERGY PREDICTED BY IDOCK:   -3.72 KCAL/MOL
REMARK 922        TOTAL FREE ENERGY PREDICTED BY IDOCK:   -9.29 KCAL/MOL
REMARK 923 INTER-LIGAND FREE ENERGY PREDICTED BY IDOCK:   -7.55 KCAL/MOL
REMARK 924 INTRA-LIGAND FREE ENERGY PREDICTED BY IDOCK:   -1.74 KCAL/MOL
REMARK 927      BINDING AFFINITY PREDICTED BY RF-SCORE:    0.00 PKD
ROOT
HETATM    1  O   UNL     1     -11.171  16.701  64.053  1.00  0.00    -1.449 OA 
HETATM    2  H   UNL     1     -10.747  17.517  64.291  1.00  0.00     0.000 HD 
HETATM    3  C   UNL     1     -10.820  15.488  64.580  1.00  0.00    -0.254 A  
HETATM    4  C   UNL     1     -11.441  14.292  64.232  1.00  0.00    -0.242 A  
HETATM    5  C   UNL     1     -11.054  13.097  64.841  1.00  0.00    -0.335 A  
HETATM    6  O   UNL     1     -12.439  14.221  63.303  1.00  0.00    -1.133 OA 
HETATM    7  H   UNL     1     -12.863  13.405  63.065  1.00  0.00     0.000 HD 
HETATM    8  C   UNL     1     -10.048  13.093  65.815  1.00  0.00    -0.290 A  
HETATM    9  C   UNL     1      -9.786  15.489  65.512  1.00  0.00    -0.348 A  
HETATM   10  C   UNL     1      -9.398  14.297  66.126  1.00  0.00    -0.191 A  
ENDROOT
BRANCH   8  11
HETATM   11  C   UNL     1      -9.655  11.815  66.514  1.00  0.00    -0.225 C  
BRANCH  11  12
HETATM   12  C   UNL     1      -9.705  11.966  68.035  1.00  0.00    -0.191 C  
BRANCH  12  13
HETATM   13  N   UNL     1      -8.359  11.848  68.610  1.00  0.00    -0.307 NA 
HETATM   14  H   UNL     1      -8.380  11.489  69.565  1.00  0.00     0.000 HD 
BRANCH  13  15
HETATM   15  C   UNL     1      -7.521  11.035  67.734  1.00  0.00    -0.094 C  
BRANCH  15  16
HETATM   16  C   UNL     1      -7.469   9.594  68.232  1.00  0.00    -0.077 C  
BRANCH  16  17
HETATM   17  C   UNL     1      -7.111   8.668  67.072  1.00  0.00    -0.075 C  
BRANCH  17  18
HETATM   18  C   UNL     1      -8.245   8.590  66.065  1.00  0.00    -0.118 C  
BRANCH  18  19
HETATM   19  C   UNL     1      -8.945   7.233  66.136  1.00  0.00    -0.179 C  
BRANCH  19  20
HETATM   20  C   UNL     1      -7.891   6.137  66.195  1.00  0.00    -0.105 C  
BRANCH  20  21
HETATM   21  N   UNL     1      -8.146   5.224  67.307  1.00  0.00    -0.101 NA 
HETATM   22  H   UNL     1      -7.284   4.971  67.789  1.00  0.00     0.000 HD 
BRANCH  21  23
HETATM   23  C   UNL     1      -9.140   5.782  68.235  1.00  0.00    -0.117 C  
BRANCH  23  24
HETATM   24  C   UNL     1      -8.542   6.172  69.595  1.00  0.00    -0.128 C  
BRANCH  24  25
HETATM   25  C   UNL     1      -9.361   7.219  70.301  1.00  0.00    -0.158 A  
HETATM   26  C   UNL     1     -10.149   8.106  69.558  1.00  0.00    -0.193 A  
HETATM   27  C   UNL     1     -10.920   9.073  70.205  1.00  0.00    -0.256 A  
HETATM   28  C   UNL     1     -10.899   9.159  71.595  1.00  0.00    -0.442 A  
HETATM   29  C   UNL     1     -10.107   8.286  72.339  1.00  0.00    -0.383 A  
HETATM   30  C   UNL     1      -9.337   7.320  71.694  1.00  0.00    -0.160 A  
ENDBRANCH  24  25
ENDBRANCH  23  24
ENDBRANCH  21  23
ENDBRANCH  20  21
ENDBRANCH  19  20
ENDBRANCH  18  19
ENDBRANCH  17  18
ENDBRANCH  16  17
ENDBRANCH  15  16
ENDBRANCH  13  15
ENDBRANCH  12  13
ENDBRANCH  11  12
ENDBRANCH   8  11
TORSDOF 13
ENDMDL
MODEL      237
REMARK 921   NORMALIZED FREE ENERGY PREDICTED BY IDOCK:   -3.71 KCAL/MOL
REMARK 922        TOTAL FREE ENERGY PREDICTED BY IDOCK:   -9.28 KCAL/MOL
REMARK 923 INTER-LIGAND FREE ENERGY PREDICTED BY IDOCK:   -8.34 KCAL/MOL
REMARK 924 INTRA-LIGAND FREE ENERGY PREDICTED BY IDOCK:   -0.94 KCAL/MOL
REMARK 927      BINDING AFFINITY PREDICTED BY RF-SCORE:    0.00 PKD
ROOT
HETATM    1  O   UNL     1     -10.459  19.683  68.790  1.00  0.00    -0.540 OA 
HETATM    2  H   UNL     1     -10.540  20.566  68.448  1.00  0.00     0.000 HD 
HETATM    3  C   UNL     1     -10.456  18.567  67.999  1.00  0.00    -0.360 A  
HETATM    4  C   UNL     1     -10.336  17.274  68.500  1.00  0.00    -0.371 A  
HETATM    5  C   UNL     1     -10.303  16.184  67.627  1.00  0.00    -0.288 A  
HETATM    6  O   UNL     1     -10.245  17.003  69.835  1.00  0.00     0.009 OA 
HETATM    7  H   UNL     1     -10.163  16.121  70.177  1.00  0.00     0.000 HD 
HETATM    8  C   UNL     1     -10.377  16.384  66.244  1.00  0.00    -0.337 A  
HETATM    9  C   UNL     1     -10.579  18.774  66.629  1.00  0.00    -0.446 A  
HETATM   10  C   UNL     1     -10.543  17.688  65.752  1.00  0.00    -0.177 A  
ENDROOT
BRANCH   8  11
HETATM   11  C   UNL     1     -10.294  15.217  65.290  1.00  0.00    -0.430 C  
BRANCH  11  12
HETATM   12  C   UNL     1     -11.661  14.564  65.078  1.00  0.00    -0.382 C  
BRANCH  12  13
HETATM   13  N   UNL     1     -12.137  13.946  66.321  1.00  0.00    -0.429 NA 
HETATM   14  H   UNL     1     -13.050  14.304  66.603  1.00  0.00     0.000 HD 
BRANCH  13  15
HETATM   15  C   UNL     1     -12.135  12.493  66.179  1.00  0.00    -0.286 C  
BRANCH  15  16
HETATM   16  C   UNL     1     -10.902  11.893  66.845  1.00  0.00    -0.305 C  
BRANCH  16  17
HETATM   17  C   UNL     1     -10.585  10.543  66.206  1.00  0.00    -0.203 C  
BRANCH  17  18
HETATM   18  C   UNL     1     -10.536   9.442  67.251  1.00  0.00    -0.332 C  
BRANCH  18  19
HETATM   19  C   UNL     1      -9.523   8.366  66.863  1.00  0.00    -0.239 C  
BRANCH  19  20
HETATM   20  C   UNL     1     -10.251   7.037  66.707  1.00  0.00    -0.211 C  
BRANCH  20  21
HETATM   21  N   UNL     1     -11.408   6.966  67.596  1.00  0.00    -0.604 NA 
HETATM   22  H   UNL     1     -12.275   6.844  67.073  1.00  0.00     0.000 HD 
BRANCH  21  23
HETATM   23  C   UNL     1     -11.235   5.915  68.610  1.00  0.00     0.044 C  
BRANCH  23  24
HETATM   24  C   UNL     1     -10.470   6.397  69.852  1.00  0.00    -0.265 C  
BRANCH  24  25
HETATM   25  C   UNL     1     -11.247   7.414  70.643  1.00  0.00    -0.292 A  
HETATM   26  C   UNL     1     -12.410   7.030  71.320  1.00  0.00    -0.426 A  
HETATM   27  C   UNL     1     -13.131   7.965  72.065  1.00  0.00    -0.257 A  
HETATM   28  C   UNL     1     -12.693   9.286  72.129  1.00  0.00    -0.465 A  
HETATM   29  C   UNL     1     -11.542   9.676  71.447  1.00  0.00    -0.472 A  
HETATM   30  C   UNL     1     -10.821   8.744  70.702  1.00  0.00    -0.273 A  
ENDBRANCH  24  25
ENDBRANCH  23  24
ENDBRANCH  21  23
ENDBRANCH  20  21
ENDBRANCH  19  20
ENDBRANCH  18  19
ENDBRANCH  17  18
ENDBRANCH  16  17
ENDBRANCH  15  16
ENDBRANCH  13  15
ENDBRANCH  12  13
ENDBRANCH  11  12
ENDBRANCH   8  11
TORSDOF 13
ENDMDL
MODEL      238
REMARK 921   NORMALIZED FREE ENERGY PREDICTED BY IDOCK:   -3.70 KCAL/MOL
REMARK 922        TOTAL FREE ENERGY PREDICTED BY IDOCK:   -9.27 KCAL/MOL
REMARK 923 INTER-LIGAND FREE ENERGY PREDICTED BY IDOCK:   -7.32 KCAL/MOL
REMARK 924 INTRA-LIGAND FREE ENERGY PREDICTED BY IDOCK:   -1.95 KCAL/MOL
REMARK 927      BINDING AFFINITY PREDICTED BY RF-SCORE:    0.00 PKD
ROOT
HETATM    1  O   UNL     1      -7.498  20.428  67.667  1.00  0.00    -0.298 OA 
HETATM    2  H   UNL     1      -6.742  20.464  68.241  1.00  0.00     0.000 HD 
HETATM    3  C   UNL     1      -8.400  19.399  67.671  1.00  0.00    -0.299 A  
HETATM    4  C   UNL     1      -9.507  19.347  66.830  1.00  0.00    -0.333 A  
HETATM    5  C   UNL     1     -10.406  18.282  66.918  1.00  0.00    -0.404 A  
HETATM    6  O   UNL     1      -9.772  20.308  65.897  1.00  0.00    -0.623 OA 
HETATM    7  H   UNL     1     -10.528  20.273  65.322  1.00  0.00     0.000 HD 
HETATM    8  C   UNL     1     -10.208  17.267  67.861  1.00  0.00    -0.332 A  
HETATM    9  C   UNL     1      -8.167  18.372  68.580  1.00  0.00    -0.338 A  
HETATM   10  C   UNL     1      -9.065  17.306  68.674  1.00  0.00    -0.260 A  
ENDROOT
BRANCH   8  11
HETATM   11  C   UNL     1     -11.199  16.137  67.998  1.00  0.00    -0.291 C  
BRANCH  11  12
HETATM   12  C   UNL     1     -11.330  15.675  69.450  1.00  0.00    -0.330 C  
BRANCH  12  13
HETATM   13  N   UNL     1     -12.537  14.858  69.626  1.00  0.00    -0.590 NA 
HETATM   14  H   UNL     1     -13.028  14.705  68.745  1.00  0.00     0.000 HD 
BRANCH  13  15
HETATM   15  C   UNL     1     -12.189  13.605  70.288  1.00  0.00    -0.353 C  
BRANCH  15  16
HETATM   16  C   UNL     1     -11.894  12.520  69.257  1.00  0.00    -0.360 C  
BRANCH  16  17
HETATM   17  C   UNL     1     -11.707  11.182  69.967  1.00  0.00    -0.438 C  
BRANCH  17  18
HETATM   18  C   UNL     1     -10.355  10.573  69.637  1.00  0.00    -0.231 C  
BRANCH  18  19
HETATM   19  C   UNL     1     -10.520   9.228  68.929  1.00  0.00    -0.235 C  
BRANCH  19  20
HETATM   20  C   UNL     1     -10.632   9.470  67.430  1.00  0.00    -0.271 C  
BRANCH  20  21
HETATM   21  N   UNL     1      -9.595   8.742  66.703  1.00  0.00    -0.199 NA 
HETATM   22  H   UNL     1      -9.959   8.330  65.844  1.00  0.00     0.000 HD 
BRANCH  21  23
HETATM   23  C   UNL     1      -8.429   9.597  66.441  1.00  0.00    -0.123 C  
BRANCH  23  24
HETATM   24  C   UNL     1      -8.812  11.035  66.057  1.00  0.00    -0.199 C  
BRANCH  24  25
HETATM   25  C   UNL     1      -8.087  12.060  66.887  1.00  0.00    -0.127 A  
HETATM   26  C   UNL     1      -6.693  12.007  67.000  1.00  0.00    -0.099 A  
HETATM   27  C   UNL     1      -6.011  12.960  67.758  1.00  0.00    -0.141 A  
HETATM   28  C   UNL     1      -6.724  13.963  68.411  1.00  0.00    -0.099 A  
HETATM   29  C   UNL     1      -8.113  14.014  68.312  1.00  0.00    -0.148 A  
HETATM   30  C   UNL     1      -8.795  13.063  67.555  1.00  0.00    -0.195 A  
ENDBRANCH  24  25
ENDBRANCH  23  24
ENDBRANCH  21  23
ENDBRANCH  20  21
ENDBRANCH  19  20
ENDBRANCH  18  19
ENDBRANCH  17  18
ENDBRANCH  16  17
ENDBRANCH  15  16
ENDBRANCH  13  15
ENDBRANCH  12  13
ENDBRANCH  11  12
ENDBRANCH   8  11
TORSDOF 13
ENDMDL
MODEL      239
REMARK 921   NORMALIZED FREE ENERGY PREDICTED BY IDOCK:   -3.70 KCAL/MOL
REMARK 922        TOTAL FREE ENERGY PREDICTED BY IDOCK:   -9.27 KCAL/MOL
REMARK 923 INTER-LIGAND FREE ENERGY PREDICTED BY IDOCK:   -7.20 KCAL/MOL
REMARK 924 INTRA-LIGAND FREE ENERGY PREDICTED BY IDOCK:   -2.07 KCAL/MOL
REMARK 927      BINDING AFFINITY PREDICTED BY RF-SCORE:    0.00 PKD
ROOT
HETATM    1  O   UNL     1      -9.511  12.903  65.964  1.00  0.00    -0.400 OA 
HETATM    2  H   UNL     1      -8.763  13.283  65.518  1.00  0.00     0.000 HD 
HETATM    3  C   UNL     1      -9.671  11.557  66.153  1.00  0.00    -0.223 A  
HETATM    4  C   UNL     1     -10.766  10.999  66.806  1.00  0.00    -0.266 A  
HETATM    5  C   UNL     1     -10.843   9.618  66.994  1.00  0.00    -0.148 A  
HETATM    6  O   UNL     1     -11.800  11.750  67.288  1.00  0.00    -0.596 OA 
HETATM    7  H   UNL     1     -12.548  11.370  67.734  1.00  0.00     0.000 HD 
HETATM    8  C   UNL     1      -9.814   8.785  66.540  1.00  0.00    -0.349 A  
HETATM    9  C   UNL     1      -8.666  10.734  65.655  1.00  0.00    -0.198 A  
HETATM   10  C   UNL     1      -8.736   9.352  65.843  1.00  0.00    -0.177 A  
ENDROOT
BRANCH   8  11
HETATM   11  C   UNL     1      -9.863   7.296  66.781  1.00  0.00    -0.281 C  
BRANCH  11  12
HETATM   12  C   UNL     1     -10.805   6.943  67.934  1.00  0.00    -0.218 C  
BRANCH  12  13
HETATM   13  N   UNL     1     -10.288   5.795  68.690  1.00  0.00    -0.200 NA 
HETATM   14  H   UNL     1      -9.269   5.797  68.742  1.00  0.00     0.000 HD 
BRANCH  13  15
HETATM   15  C   UNL     1     -10.908   5.760  70.011  1.00  0.00    -0.333 C  
BRANCH  15  16
HETATM   16  C   UNL     1     -10.049   4.956  70.982  1.00  0.00    -0.288 C  
BRANCH  16  17
HETATM   17  C   UNL     1      -8.743   4.561  70.297  1.00  0.00    -0.116 C  
BRANCH  17  18
HETATM   18  C   UNL     1      -7.580   4.600  71.274  1.00  0.00    -0.080 C  
BRANCH  18  19
HETATM   19  C   UNL     1      -7.392   6.006  71.842  1.00  0.00    -0.094 C  
BRANCH  19  20
HETATM   20  C   UNL     1      -6.488   6.799  70.909  1.00  0.00    -0.052 C  
BRANCH  20  21
HETATM   21  N   UNL     1      -6.892   8.202  70.855  1.00  0.00    -0.041 NA 
HETATM   22  H   UNL     1      -6.791   8.585  69.915  1.00  0.00     0.000 HD 
BRANCH  21  23
HETATM   23  C   UNL     1      -8.258   8.382  71.368  1.00  0.00    -0.139 C  
BRANCH  23  24
HETATM   24  C   UNL     1      -9.103   9.335  70.510  1.00  0.00    -0.307 C  
BRANCH  24  25
HETATM   25  C   UNL     1     -10.517   9.453  71.010  1.00  0.00    -0.392 A  
HETATM   26  C   UNL     1     -10.994   8.554  71.972  1.00  0.00    -0.410 A  
HETATM   27  C   UNL     1     -12.301   8.662  72.449  1.00  0.00    -0.426 A  
HETATM   28  C   UNL     1     -13.135   9.664  71.960  1.00  0.00    -0.537 A  
HETATM   29  C   UNL     1     -12.670  10.555  70.994  1.00  0.00    -0.504 A  
HETATM   30  C   UNL     1     -11.365  10.448  70.517  1.00  0.00    -0.424 A  
ENDBRANCH  24  25
ENDBRANCH  23  24
ENDBRANCH  21  23
ENDBRANCH  20  21
ENDBRANCH  19  20
ENDBRANCH  18  19
ENDBRANCH  17  18
ENDBRANCH  16  17
ENDBRANCH  15  16
ENDBRANCH  13  15
ENDBRANCH  12  13
ENDBRANCH  11  12
ENDBRANCH   8  11
TORSDOF 13
ENDMDL
MODEL      240
REMARK 921   NORMALIZED FREE ENERGY PREDICTED BY IDOCK:   -3.69 KCAL/MOL
REMARK 922        TOTAL FREE ENERGY PREDICTED BY IDOCK:   -9.24 KCAL/MOL
REMARK 923 INTER-LIGAND FREE ENERGY PREDICTED BY IDOCK:   -7.79 KCAL/MOL
REMARK 924 INTRA-LIGAND FREE ENERGY PREDICTED BY IDOCK:   -1.45 KCAL/MOL
REMARK 927      BINDING AFFINITY PREDICTED BY RF-SCORE:    0.00 PKD
ROOT
HETATM    1  O   UNL     1     -10.409   4.646  67.276  1.00  0.00    -0.122 OA 
HETATM    2  H   UNL     1     -10.296   4.418  66.361  1.00  0.00     0.000 HD 
HETATM    3  C   UNL     1     -10.393   5.934  67.738  1.00  0.00    -0.210 A  
HETATM    4  C   UNL     1     -10.558   6.269  69.079  1.00  0.00    -0.267 A  
HETATM    5  C   UNL     1     -10.568   7.609  69.472  1.00  0.00    -0.227 A  
HETATM    6  O   UNL     1     -10.716   5.333  70.061  1.00  0.00    -0.287 OA 
HETATM    7  H   UNL     1     -10.828   5.561  70.976  1.00  0.00     0.000 HD 
HETATM    8  C   UNL     1     -10.426   8.625  68.520  1.00  0.00    -0.209 A  
HETATM    9  C   UNL     1     -10.203   6.934  66.790  1.00  0.00    -0.276 A  
HETATM   10  C   UNL     1     -10.216   8.276  67.177  1.00  0.00    -0.365 A  
ENDROOT
BRANCH   8  11
HETATM   11  C   UNL     1     -10.484  10.077  68.926  1.00  0.00    -0.229 C  
BRANCH  11  12
HETATM   12  C   UNL     1     -10.900  10.973  67.759  1.00  0.00    -0.249 C  
BRANCH  12  13
HETATM   13  N   UNL     1      -9.860  11.968  67.474  1.00  0.00    -0.184 NA 
HETATM   14  H   UNL     1      -9.100  11.935  68.155  1.00  0.00     0.000 HD 
BRANCH  13  15
HETATM   15  C   UNL     1      -9.380  11.799  66.106  1.00  0.00    -0.225 C  
BRANCH  15  16
HETATM   16  C   UNL     1     -10.499  11.282  65.208  1.00  0.00    -0.341 C  
BRANCH  16  17
HETATM   17  C   UNL     1     -11.169  12.459  64.503  1.00  0.00    -0.371 C  
BRANCH  17  18
HETATM   18  C   UNL     1     -10.306  13.707  64.582  1.00  0.00    -0.407 C  
BRANCH  18  19
HETATM   19  C   UNL     1     -11.083  14.870  65.197  1.00  0.00    -0.399 C  
BRANCH  19  20
HETATM   20  C   UNL     1     -12.043  14.324  66.244  1.00  0.00    -0.413 C  
BRANCH  20  21
HETATM   21  N   UNL     1     -11.515  14.517  67.592  1.00  0.00    -0.337 NA 
HETATM   22  H   UNL     1     -10.505  14.377  67.623  1.00  0.00     0.000 HD 
BRANCH  21  23
HETATM   23  C   UNL     1     -11.895  15.832  68.128  1.00  0.00    -0.044 C  
BRANCH  23  24
HETATM   24  C   UNL     1     -10.729  16.566  68.808  1.00  0.00    -0.339 C  
BRANCH  24  25
HETATM   25  C   UNL     1     -10.136  17.634  67.929  1.00  0.00    -0.345 A  
HETATM   26  C   UNL     1      -8.942  17.386  67.240  1.00  0.00    -0.241 A  
HETATM   27  C   UNL     1      -8.391  18.367  66.414  1.00  0.00    -0.272 A  
HETATM   28  C   UNL     1      -9.028  19.598  66.281  1.00  0.00    -0.420 A  
HETATM   29  C   UNL     1     -10.210  19.854  66.975  1.00  0.00    -0.588 A  
HETATM   30  C   UNL     1     -10.762  18.876  67.799  1.00  0.00    -0.426 A  
ENDBRANCH  24  25
ENDBRANCH  23  24
ENDBRANCH  21  23
ENDBRANCH  20  21
ENDBRANCH  19  20
ENDBRANCH  18  19
ENDBRANCH  17  18
ENDBRANCH  16  17
ENDBRANCH  15  16
ENDBRANCH  13  15
ENDBRANCH  12  13
ENDBRANCH  11  12
ENDBRANCH   8  11
TORSDOF 13
ENDMDL
MODEL      241
REMARK 921   NORMALIZED FREE ENERGY PREDICTED BY IDOCK:   -3.67 KCAL/MOL
REMARK 922        TOTAL FREE ENERGY PREDICTED BY IDOCK:   -9.21 KCAL/MOL
REMARK 923 INTER-LIGAND FREE ENERGY PREDICTED BY IDOCK:   -7.20 KCAL/MOL
REMARK 924 INTRA-LIGAND FREE ENERGY PREDICTED BY IDOCK:   -2.01 KCAL/MOL
REMARK 927      BINDING AFFINITY PREDICTED BY RF-SCORE:    0.00 PKD
ROOT
HETATM    1  O   UNL     1     -12.761   6.603  71.093  1.00  0.00    -0.273 OA 
HETATM    2  H   UNL     1     -13.076   5.873  70.573  1.00  0.00     0.000 HD 
HETATM    3  C   UNL     1     -11.639   7.322  70.778  1.00  0.00    -0.302 A  
HETATM    4  C   UNL     1     -11.177   8.392  71.538  1.00  0.00    -0.267 A  
HETATM    5  C   UNL     1     -10.045   9.103  71.134  1.00  0.00    -0.384 A  
HETATM    6  O   UNL     1     -11.787   8.798  72.691  1.00  0.00    -0.284 OA 
HETATM    7  H   UNL     1     -11.471   9.528  73.210  1.00  0.00     0.000 HD 
HETATM    8  C   UNL     1      -9.376   8.754  69.955  1.00  0.00    -0.175 A  
HETATM    9  C   UNL     1     -10.954   6.936  69.630  1.00  0.00    -0.298 A  
HETATM   10  C   UNL     1      -9.824   7.646  69.220  1.00  0.00    -0.168 A  
ENDROOT
BRANCH   8  11
HETATM   11  C   UNL     1      -8.181   9.546  69.483  1.00  0.00    -0.134 C  
BRANCH  11  12
HETATM   12  C   UNL     1      -8.586  10.646  68.501  1.00  0.00    -0.137 C  
BRANCH  12  13
HETATM   13  N   UNL     1      -8.302  11.971  69.063  1.00  0.00    -0.347 NA 
HETATM   14  H   UNL     1      -8.150  11.936  70.071  1.00  0.00     0.000 HD 
BRANCH  13  15
HETATM   15  C   UNL     1      -7.175  12.573  68.356  1.00  0.00    -0.111 C  
BRANCH  15  16
HETATM   16  C   UNL     1      -7.243  14.095  68.442  1.00  0.00    -0.109 C  
BRANCH  16  17
HETATM   17  C   UNL     1      -8.695  14.529  68.624  1.00  0.00    -0.172 C  
BRANCH  17  18
HETATM   18  C   UNL     1      -8.978  15.818  67.872  1.00  0.00    -0.180 C  
BRANCH  18  19
HETATM   19  C   UNL     1      -9.267  15.538  66.398  1.00  0.00    -0.339 C  
BRANCH  19  20
HETATM   20  C   UNL     1      -9.913  14.165  66.274  1.00  0.00    -0.303 C  
BRANCH  20  21
HETATM   21  N   UNL     1     -11.310  14.278  65.861  1.00  0.00    -0.322 NA 
HETATM   22  H   UNL     1     -11.488  13.765  64.998  1.00  0.00     0.000 HD 
BRANCH  21  23
HETATM   23  C   UNL     1     -12.218  13.857  66.937  1.00  0.00    -0.377 C  
BRANCH  23  24
HETATM   24  C   UNL     1     -11.645  12.721  67.798  1.00  0.00    -0.405 C  
BRANCH  24  25
HETATM   25  C   UNL     1     -12.118  12.791  69.225  1.00  0.00    -0.224 A  
HETATM   26  C   UNL     1     -12.261  14.034  69.852  1.00  0.00    -0.399 A  
HETATM   27  C   UNL     1     -12.710  14.109  71.172  1.00  0.00    -0.431 A  
HETATM   28  C   UNL     1     -13.009  12.941  71.868  1.00  0.00    -0.405 A  
HETATM   29  C   UNL     1     -12.857  11.699  71.253  1.00  0.00    -0.430 A  
HETATM   30  C   UNL     1     -12.409  11.623  69.935  1.00  0.00    -0.226 A  
ENDBRANCH  24  25
ENDBRANCH  23  24
ENDBRANCH  21  23
ENDBRANCH  20  21
ENDBRANCH  19  20
ENDBRANCH  18  19
ENDBRANCH  17  18
ENDBRANCH  16  17
ENDBRANCH  15  16
ENDBRANCH  13  15
ENDBRANCH  12  13
ENDBRANCH  11  12
ENDBRANCH   8  11
TORSDOF 13
ENDMDL
MODEL      242
REMARK 921   NORMALIZED FREE ENERGY PREDICTED BY IDOCK:   -3.66 KCAL/MOL
REMARK 922        TOTAL FREE ENERGY PREDICTED BY IDOCK:   -9.20 KCAL/MOL
REMARK 923 INTER-LIGAND FREE ENERGY PREDICTED BY IDOCK:   -8.21 KCAL/MOL
REMARK 924 INTRA-LIGAND FREE ENERGY PREDICTED BY IDOCK:   -0.99 KCAL/MOL
REMARK 927      BINDING AFFINITY PREDICTED BY RF-SCORE:    0.00 PKD
ROOT
HETATM    1  O   UNL     1      -7.059  19.534  68.066  1.00  0.00    -0.248 OA 
HETATM    2  H   UNL     1      -6.223  19.282  68.441  1.00  0.00     0.000 HD 
HETATM    3  C   UNL     1      -8.162  18.724  68.073  1.00  0.00    -0.291 A  
HETATM    4  C   UNL     1      -9.386  19.092  67.524  1.00  0.00    -0.303 A  
HETATM    5  C   UNL     1     -10.480  18.227  67.603  1.00  0.00    -0.431 A  
HETATM    6  O   UNL     1      -9.584  20.288  66.895  1.00  0.00    -0.397 OA 
HETATM    7  H   UNL     1     -10.420  20.539  66.519  1.00  0.00     0.000 HD 
HETATM    8  C   UNL     1     -10.356  16.990  68.246  1.00  0.00    -0.347 A  
HETATM    9  C   UNL     1      -8.015  17.477  68.673  1.00  0.00    -0.268 A  
HETATM   10  C   UNL     1      -9.106  16.610  68.757  1.00  0.00    -0.256 A  
ENDROOT
BRANCH   8  11
HETATM   11  C   UNL     1     -11.544  16.068  68.379  1.00  0.00    -0.279 C  
BRANCH  11  12
HETATM   12  C   UNL     1     -11.376  15.099  69.551  1.00  0.00    -0.285 C  
BRANCH  12  13
HETATM   13  N   UNL     1     -12.678  14.572  69.975  1.00  0.00    -0.535 NA 
HETATM   14  H   UNL     1     -13.297  14.393  69.184  1.00  0.00     0.000 HD 
BRANCH  13  15
HETATM   15  C   UNL     1     -12.481  13.382  70.799  1.00  0.00    -0.341 C  
BRANCH  15  16
HETATM   16  C   UNL     1     -11.856  12.261  69.975  1.00  0.00    -0.372 C  
BRANCH  16  17
HETATM   17  C   UNL     1     -12.454  10.923  70.401  1.00  0.00    -0.411 C  
BRANCH  17  18
HETATM   18  C   UNL     1     -13.080  11.019  71.782  1.00  0.00    -0.554 C  
BRANCH  18  19
HETATM   19  C   UNL     1     -13.632   9.665  72.227  1.00  0.00    -0.449 C  
BRANCH  19  20
HETATM   20  C   UNL     1     -13.187   8.600  71.234  1.00  0.00    -0.148 C  
BRANCH  20  21
HETATM   21  N   UNL     1     -13.329   7.262  71.803  1.00  0.00    -0.491 NA 
HETATM   22  H   UNL     1     -14.126   6.768  71.403  1.00  0.00     0.000 HD 
BRANCH  21  23
HETATM   23  C   UNL     1     -12.087   6.490  71.659  1.00  0.00    -0.328 C  
BRANCH  23  24
HETATM   24  C   UNL     1     -11.002   7.235  70.866  1.00  0.00    -0.275 C  
BRANCH  24  25
HETATM   25  C   UNL     1      -9.753   7.458  71.676  1.00  0.00    -0.169 A  
HETATM   26  C   UNL     1      -8.498   7.247  71.093  1.00  0.00    -0.116 A  
HETATM   27  C   UNL     1      -7.334   7.462  71.833  1.00  0.00    -0.079 A  
HETATM   28  C   UNL     1      -7.424   7.881  73.158  1.00  0.00    -0.150 A  
HETATM   29  C   UNL     1      -8.672   8.081  73.747  1.00  0.00    -0.329 A  
HETATM   30  C   UNL     1      -9.835   7.867  73.009  1.00  0.00    -0.355 A  
ENDBRANCH  24  25
ENDBRANCH  23  24
ENDBRANCH  21  23
ENDBRANCH  20  21
ENDBRANCH  19  20
ENDBRANCH  18  19
ENDBRANCH  17  18
ENDBRANCH  16  17
ENDBRANCH  15  16
ENDBRANCH  13  15
ENDBRANCH  12  13
ENDBRANCH  11  12
ENDBRANCH   8  11
TORSDOF 13
ENDMDL
MODEL      243
REMARK 921   NORMALIZED FREE ENERGY PREDICTED BY IDOCK:   -3.65 KCAL/MOL
REMARK 922        TOTAL FREE ENERGY PREDICTED BY IDOCK:   -9.18 KCAL/MOL
REMARK 923 INTER-LIGAND FREE ENERGY PREDICTED BY IDOCK:   -7.59 KCAL/MOL
REMARK 924 INTRA-LIGAND FREE ENERGY PREDICTED BY IDOCK:   -1.59 KCAL/MOL
REMARK 927      BINDING AFFINITY PREDICTED BY RF-SCORE:    0.00 PKD
ROOT
HETATM    1  O   UNL     1      -9.296  11.913  68.896  1.00  0.00    -0.398 OA 
HETATM    2  H   UNL     1      -8.475  12.174  69.297  1.00  0.00     0.000 HD 
HETATM    3  C   UNL     1      -9.670  10.608  68.725  1.00  0.00    -0.189 A  
HETATM    4  C   UNL     1     -10.872  10.226  68.137  1.00  0.00    -0.265 A  
HETATM    5  C   UNL     1     -11.203   8.873  68.031  1.00  0.00     0.435 A  
HETATM    6  O   UNL     1     -11.774  11.126  67.646  1.00  0.00    -0.573 OA 
HETATM    7  H   UNL     1     -12.594  10.866  67.244  1.00  0.00     0.000 HD 
HETATM    8  C   UNL     1     -10.335   7.893  68.526  1.00  0.00    -0.229 A  
HETATM    9  C   UNL     1      -8.778   9.641  69.177  1.00  0.00    -0.151 A  
HETATM   10  C   UNL     1      -9.106   8.287  69.076  1.00  0.00    -0.147 A  
ENDROOT
BRANCH   8  11
HETATM   11  C   UNL     1     -10.705   6.432  68.459  1.00  0.00    -0.347 C  
BRANCH  11  12
HETATM   12  C   UNL     1     -10.625   5.767  69.835  1.00  0.00    -0.318 C  
BRANCH  12  13
HETATM   13  N   UNL     1     -11.597   6.368  70.756  1.00  0.00    -0.356 NA 
HETATM   14  H   UNL     1     -12.186   5.665  71.205  1.00  0.00     0.000 HD 
BRANCH  13  15
HETATM   15  C   UNL     1     -10.900   7.204  71.729  1.00  0.00    -0.225 C  
BRANCH  15  16
HETATM   16  C   UNL     1     -11.899   8.007  72.555  1.00  0.00    -0.419 C  
BRANCH  16  17
HETATM   17  C   UNL     1     -12.929   8.647  71.628  1.00  0.00    -0.377 C  
BRANCH  17  18
HETATM   18  C   UNL     1     -12.420   9.966  71.074  1.00  0.00    -0.441 C  
BRANCH  18  19
HETATM   19  C   UNL     1     -12.685  11.108  72.053  1.00  0.00    -0.144 C  
BRANCH  19  20
HETATM   20  C   UNL     1     -13.013  12.369  71.265  1.00  0.00    -0.203 C  
BRANCH  20  21
HETATM   21  N   UNL     1     -11.877  12.786  70.447  1.00  0.00    -0.550 NA 
HETATM   22  H   UNL     1     -11.537  12.025  69.861  1.00  0.00     0.000 HD 
BRANCH  21  23
HETATM   23  C   UNL     1     -12.205  13.977  69.650  1.00  0.00    -0.332 C  
BRANCH  23  24
HETATM   24  C   UNL     1     -10.970  14.813  69.280  1.00  0.00    -0.275 C  
BRANCH  24  25
HETATM   25  C   UNL     1     -10.789  14.935  67.791  1.00  0.00    -0.286 A  
HETATM   26  C   UNL     1     -11.703  14.323  66.925  1.00  0.00    -0.430 A  
HETATM   27  C   UNL     1     -11.549  14.441  65.542  1.00  0.00    -0.347 A  
HETATM   28  C   UNL     1     -10.477  15.165  65.024  1.00  0.00    -0.418 A  
HETATM   29  C   UNL     1      -9.558  15.766  65.882  1.00  0.00    -0.382 A  
HETATM   30  C   UNL     1      -9.711  15.650  67.263  1.00  0.00    -0.219 A  
ENDBRANCH  24  25
ENDBRANCH  23  24
ENDBRANCH  21  23
ENDBRANCH  20  21
ENDBRANCH  19  20
ENDBRANCH  18  19
ENDBRANCH  17  18
ENDBRANCH  16  17
ENDBRANCH  15  16
ENDBRANCH  13  15
ENDBRANCH  12  13
ENDBRANCH  11  12
ENDBRANCH   8  11
TORSDOF 13
ENDMDL
MODEL      244
REMARK 921   NORMALIZED FREE ENERGY PREDICTED BY IDOCK:   -3.65 KCAL/MOL
REMARK 922        TOTAL FREE ENERGY PREDICTED BY IDOCK:   -9.17 KCAL/MOL
REMARK 923 INTER-LIGAND FREE ENERGY PREDICTED BY IDOCK:   -8.54 KCAL/MOL
REMARK 924 INTRA-LIGAND FREE ENERGY PREDICTED BY IDOCK:   -0.64 KCAL/MOL
REMARK 927      BINDING AFFINITY PREDICTED BY RF-SCORE:    0.00 PKD
ROOT
HETATM    1  O   UNL     1      -6.701  19.000  67.896  1.00  0.00    -0.215 OA 
HETATM    2  H   UNL     1      -5.937  18.780  68.416  1.00  0.00     0.000 HD 
HETATM    3  C   UNL     1      -7.870  18.290  67.940  1.00  0.00    -0.249 A  
HETATM    4  C   UNL     1      -8.990  18.612  67.178  1.00  0.00    -0.281 A  
HETATM    5  C   UNL     1     -10.162  17.863  67.303  1.00  0.00    -0.360 A  
HETATM    6  O   UNL     1      -9.007  19.649  66.290  1.00  0.00    -0.362 OA 
HETATM    7  H   UNL     1      -9.770  19.868  65.769  1.00  0.00     0.000 HD 
HETATM    8  C   UNL     1     -10.225  16.795  68.205  1.00  0.00    -0.301 A  
HETATM    9  C   UNL     1      -7.906  17.201  68.803  1.00  0.00    -0.258 A  
HETATM   10  C   UNL     1      -9.077  16.451  68.935  1.00  0.00    -0.256 A  
ENDROOT
BRANCH   8  11
HETATM   11  C   UNL     1     -11.501  16.010  68.383  1.00  0.00    -0.331 C  
BRANCH  11  12
HETATM   12  C   UNL     1     -11.751  15.667  69.853  1.00  0.00    -0.362 C  
BRANCH  12  13
HETATM   13  N   UNL     1     -13.013  14.934  70.005  1.00  0.00    -0.603 NA 
HETATM   14  H   UNL     1     -13.481  14.784  69.111  1.00  0.00     0.000 HD 
BRANCH  13  15
HETATM   15  C   UNL     1     -12.771  13.682  70.716  1.00  0.00    -0.268 C  
BRANCH  15  16
HETATM   16  C   UNL     1     -11.858  12.773  69.900  1.00  0.00    -0.371 C  
BRANCH  16  17
HETATM   17  C   UNL     1     -12.026  11.330  70.369  1.00  0.00    -0.471 C  
BRANCH  17  18
HETATM   18  C   UNL     1     -12.920  11.255  71.596  1.00  0.00    -0.537 C  
BRANCH  18  19
HETATM   19  C   UNL     1     -12.998   9.824  72.127  1.00  0.00    -0.483 C  
BRANCH  19  20
HETATM   20  C   UNL     1     -12.121   8.928  71.264  1.00  0.00    -0.306 C  
BRANCH  20  21
HETATM   21  N   UNL     1     -12.847   7.732  70.843  1.00  0.00    -0.538 NA 
HETATM   22  H   UNL     1     -12.688   7.524  69.858  1.00  0.00     0.000 HD 
BRANCH  21  23
HETATM   23  C   UNL     1     -12.518   6.583  71.699  1.00  0.00    -0.216 C  
BRANCH  23  24
HETATM   24  C   UNL     1     -11.063   6.595  72.191  1.00  0.00    -0.288 C  
BRANCH  24  25
HETATM   25  C   UNL     1     -10.585   5.227  72.596  1.00  0.00    -0.278 A  
HETATM   26  C   UNL     1      -9.840   4.454  71.697  1.00  0.00    -0.255 A  
HETATM   27  C   UNL     1      -9.383   3.189  72.069  1.00  0.00    -0.188 A  
HETATM   28  C   UNL     1      -9.676   2.691  73.336  1.00  0.00    -0.144 A  
HETATM   29  C   UNL     1     -10.428   3.452  74.231  1.00  0.00    -0.258 A  
HETATM   30  C   UNL     1     -10.884   4.716  73.861  1.00  0.00    -0.359 A  
ENDBRANCH  24  25
ENDBRANCH  23  24
ENDBRANCH  21  23
ENDBRANCH  20  21
ENDBRANCH  19  20
ENDBRANCH  18  19
ENDBRANCH  17  18
ENDBRANCH  16  17
ENDBRANCH  15  16
ENDBRANCH  13  15
ENDBRANCH  12  13
ENDBRANCH  11  12
ENDBRANCH   8  11
TORSDOF 13
ENDMDL
MODEL      245
REMARK 921   NORMALIZED FREE ENERGY PREDICTED BY IDOCK:   -3.63 KCAL/MOL
REMARK 922        TOTAL FREE ENERGY PREDICTED BY IDOCK:   -9.15 KCAL/MOL
REMARK 923 INTER-LIGAND FREE ENERGY PREDICTED BY IDOCK:   -7.81 KCAL/MOL
REMARK 924 INTRA-LIGAND FREE ENERGY PREDICTED BY IDOCK:   -1.33 KCAL/MOL
REMARK 927      BINDING AFFINITY PREDICTED BY RF-SCORE:    0.00 PKD
ROOT
HETATM    1  O   UNL     1     -13.305   6.513  72.216  1.00  0.00    -0.527 OA 
HETATM    2  H   UNL     1     -14.071   6.285  71.702  1.00  0.00     0.000 HD 
HETATM    3  C   UNL     1     -12.070   6.731  71.669  1.00  0.00    -0.359 A  
HETATM    4  C   UNL     1     -10.947   7.065  72.420  1.00  0.00    -0.248 A  
HETATM    5  C   UNL     1      -9.726   7.309  71.788  1.00  0.00    -0.167 A  
HETATM    6  O   UNL     1     -10.974   7.172  73.781  1.00  0.00    -0.525 OA 
HETATM    7  H   UNL     1     -10.208   7.400  74.295  1.00  0.00     0.000 HD 
HETATM    8  C   UNL     1      -9.625   7.234  70.394  1.00  0.00    -0.165 A  
HETATM    9  C   UNL     1     -11.970   6.605  70.287  1.00  0.00    -0.302 A  
HETATM   10  C   UNL     1     -10.752   6.852  69.649  1.00  0.00    -0.276 A  
ENDROOT
BRANCH   8  11
HETATM   11  C   UNL     1      -8.323   7.543  69.697  1.00  0.00    -0.131 C  
BRANCH  11  12
HETATM   12  C   UNL     1      -7.697   6.287  69.088  1.00  0.00    -0.100 C  
BRANCH  12  13
HETATM   13  N   UNL     1      -8.033   6.181  67.664  1.00  0.00    -0.105 NA 
HETATM   14  H   UNL     1      -8.837   5.574  67.502  1.00  0.00     0.000 HD 
BRANCH  13  15
HETATM   15  C   UNL     1      -8.229   7.516  67.105  1.00  0.00    -0.114 C  
BRANCH  15  16
HETATM   16  C   UNL     1      -9.479   7.550  66.232  1.00  0.00    -0.161 C  
BRANCH  16  17
HETATM   17  C   UNL     1     -10.211   8.873  66.443  1.00  0.00    -0.273 C  
BRANCH  17  18
HETATM   18  C   UNL     1      -9.415   9.798  67.348  1.00  0.00    -0.178 C  
BRANCH  18  19
HETATM   19  C   UNL     1     -10.324  10.843  67.994  1.00  0.00    -0.212 C  
BRANCH  19  20
HETATM   20  C   UNL     1     -10.566  10.456  69.446  1.00  0.00    -0.239 C  
BRANCH  20  21
HETATM   21  N   UNL     1     -11.922  10.803  69.863  1.00  0.00    -0.321 NA 
HETATM   22  H   UNL     1     -12.211  10.269  70.682  1.00  0.00     0.000 HD 
BRANCH  21  23
HETATM   23  C   UNL     1     -12.056  12.250  70.085  1.00  0.00    -0.287 C  
BRANCH  23  24
HETATM   24  C   UNL     1     -13.010  12.596  71.239  1.00  0.00    -0.306 C  
BRANCH  24  25
HETATM   25  C   UNL     1     -12.743  13.963  71.811  1.00  0.00    -0.393 A  
HETATM   26  C   UNL     1     -13.123  14.254  73.126  1.00  0.00    -0.411 A  
HETATM   27  C   UNL     1     -12.870  15.515  73.668  1.00  0.00    -0.697 A  
HETATM   28  C   UNL     1     -12.243  16.488  72.893  1.00  0.00    -0.409 A  
HETATM   29  C   UNL     1     -11.873  16.207  71.579  1.00  0.00    -0.528 A  
HETATM   30  C   UNL     1     -12.125  14.948  71.037  1.00  0.00    -0.380 A  
ENDBRANCH  24  25
ENDBRANCH  23  24
ENDBRANCH  21  23
ENDBRANCH  20  21
ENDBRANCH  19  20
ENDBRANCH  18  19
ENDBRANCH  17  18
ENDBRANCH  16  17
ENDBRANCH  15  16
ENDBRANCH  13  15
ENDBRANCH  12  13
ENDBRANCH  11  12
ENDBRANCH   8  11
TORSDOF 13
ENDMDL
MODEL      246
REMARK 921   NORMALIZED FREE ENERGY PREDICTED BY IDOCK:   -3.63 KCAL/MOL
REMARK 922        TOTAL FREE ENERGY PREDICTED BY IDOCK:   -9.14 KCAL/MOL
REMARK 923 INTER-LIGAND FREE ENERGY PREDICTED BY IDOCK:   -7.44 KCAL/MOL
REMARK 924 INTRA-LIGAND FREE ENERGY PREDICTED BY IDOCK:   -1.71 KCAL/MOL
REMARK 927      BINDING AFFINITY PREDICTED BY RF-SCORE:    0.00 PKD
ROOT
HETATM    1  O   UNL     1      -9.453  12.683  65.180  1.00  0.00    -0.457 OA 
HETATM    2  H   UNL     1     -10.112  13.319  65.432  1.00  0.00     0.000 HD 
HETATM    3  C   UNL     1      -9.412  11.407  65.670  1.00  0.00    -0.230 A  
HETATM    4  C   UNL     1      -8.446  10.475  65.300  1.00  0.00    -0.171 A  
HETATM    5  C   UNL     1      -8.490   9.177  65.815  1.00  0.00    -0.152 A  
HETATM    6  O   UNL     1      -7.431  10.766  64.435  1.00  0.00    -0.347 OA 
HETATM    7  H   UNL     1      -6.771  10.131  64.183  1.00  0.00     0.000 HD 
HETATM    8  C   UNL     1      -9.511   8.800  66.695  1.00  0.00    -0.263 A  
HETATM    9  C   UNL     1     -10.403  11.057  66.581  1.00  0.00    -0.288 A  
HETATM   10  C   UNL     1     -10.453   9.760  67.096  1.00  0.00    -0.316 A  
ENDROOT
BRANCH   8  11
HETATM   11  C   UNL     1      -9.595   7.387  67.218  1.00  0.00    -0.191 C  
BRANCH  11  12
HETATM   12  C   UNL     1     -11.014   6.828  67.104  1.00  0.00    -0.388 C  
BRANCH  12  13
HETATM   13  N   UNL     1     -10.989   5.464  66.561  1.00  0.00    -0.603 NA 
HETATM   14  H   UNL     1     -11.732   5.309  65.879  1.00  0.00     0.000 HD 
BRANCH  13  15
HETATM   15  C   UNL     1      -9.667   5.179  66.011  1.00  0.00    -0.165 C  
BRANCH  15  16
HETATM   16  C   UNL     1      -9.160   3.831  66.513  1.00  0.00    -0.162 C  
BRANCH  16  17
HETATM   17  C   UNL     1      -8.131   4.054  67.617  1.00  0.00    -0.090 C  
BRANCH  17  18
HETATM   18  C   UNL     1      -8.486   3.260  68.863  1.00  0.00    -0.096 C  
BRANCH  18  19
HETATM   19  C   UNL     1      -9.737   3.827  69.534  1.00  0.00    -0.152 C  
BRANCH  19  20
HETATM   20  C   UNL     1      -9.439   4.071  71.007  1.00  0.00    -0.163 C  
BRANCH  20  21
HETATM   21  N   UNL     1      -9.291   5.498  71.282  1.00  0.00    -0.146 NA 
HETATM   22  H   UNL     1      -8.445   5.876  70.856  1.00  0.00     0.000 HD 
BRANCH  21  23
HETATM   23  C   UNL     1     -10.487   6.246  70.868  1.00  0.00    -0.223 C  
BRANCH  23  24
HETATM   24  C   UNL     1     -11.164   6.989  72.030  1.00  0.00    -0.288 C  
BRANCH  24  25
HETATM   25  C   UNL     1     -11.554   8.394  71.660  1.00  0.00    -0.348 A  
HETATM   26  C   UNL     1     -10.708   9.163  70.853  1.00  0.00    -0.343 A  
HETATM   27  C   UNL     1     -11.067  10.464  70.495  1.00  0.00    -0.343 A  
HETATM   28  C   UNL     1     -12.270  10.999  70.950  1.00  0.00    -0.471 A  
HETATM   29  C   UNL     1     -13.111  10.242  71.764  1.00  0.00    -0.570 A  
HETATM   30  C   UNL     1     -12.753   8.943  72.121  1.00  0.00    -0.470 A  
ENDBRANCH  24  25
ENDBRANCH  23  24
ENDBRANCH  21  23
ENDBRANCH  20  21
ENDBRANCH  19  20
ENDBRANCH  18  19
ENDBRANCH  17  18
ENDBRANCH  16  17
ENDBRANCH  15  16
ENDBRANCH  13  15
ENDBRANCH  12  13
ENDBRANCH  11  12
ENDBRANCH   8  11
TORSDOF 13
ENDMDL
MODEL      247
REMARK 921   NORMALIZED FREE ENERGY PREDICTED BY IDOCK:   -3.62 KCAL/MOL
REMARK 922        TOTAL FREE ENERGY PREDICTED BY IDOCK:   -9.12 KCAL/MOL
REMARK 923 INTER-LIGAND FREE ENERGY PREDICTED BY IDOCK:   -7.73 KCAL/MOL
REMARK 924 INTRA-LIGAND FREE ENERGY PREDICTED BY IDOCK:   -1.39 KCAL/MOL
REMARK 927      BINDING AFFINITY PREDICTED BY RF-SCORE:    0.00 PKD
ROOT
HETATM    1  O   UNL     1     -10.572   8.668  69.886  1.00  0.00    -0.219 OA 
HETATM    2  H   UNL     1     -10.055   8.141  70.484  1.00  0.00     0.000 HD 
HETATM    3  C   UNL     1     -10.068   9.222  68.742  1.00  0.00    -0.195 A  
HETATM    4  C   UNL     1     -10.826   9.993  67.865  1.00  0.00    -0.271 A  
HETATM    5  C   UNL     1     -10.251  10.496  66.696  1.00  0.00    -0.289 A  
HETATM    6  O   UNL     1     -12.138  10.294  68.091  1.00  0.00    -0.534 OA 
HETATM    7  H   UNL     1     -12.656  10.820  67.493  1.00  0.00     0.000 HD 
HETATM    8  C   UNL     1      -8.914  10.217  66.389  1.00  0.00    -0.163 A  
HETATM    9  C   UNL     1      -8.725   8.979  68.471  1.00  0.00    -0.133 A  
HETATM   10  C   UNL     1      -8.146   9.476  67.302  1.00  0.00    -0.110 A  
ENDROOT
BRANCH   8  11
HETATM   11  C   UNL     1      -8.297  10.714  65.105  1.00  0.00    -0.117 C  
BRANCH  11  12
HETATM   12  C   UNL     1      -9.297  10.677  63.948  1.00  0.00    -0.267 C  
BRANCH  12  13
HETATM   13  N   UNL     1      -9.839  12.017  63.692  1.00  0.00    -0.553 NA 
HETATM   14  H   UNL     1      -9.171  12.615  63.204  1.00  0.00     0.000 HD 
BRANCH  13  15
HETATM   15  C   UNL     1     -11.105  11.904  62.972  1.00  0.00    -0.001 C  
BRANCH  15  16
HETATM   16  C   UNL     1     -12.092  12.958  63.462  1.00  0.00    -0.633 C  
BRANCH  16  17
HETATM   17  C   UNL     1     -12.411  12.711  64.934  1.00  0.00    -0.564 C  
BRANCH  17  18
HETATM   18  C   UNL     1     -12.206  13.972  65.756  1.00  0.00    -0.475 C  
BRANCH  18  19
HETATM   19  C   UNL     1     -11.958  15.179  64.853  1.00  0.00    -0.185 C  
BRANCH  19  20
HETATM   20  C   UNL     1     -10.561  15.720  65.123  1.00  0.00    -0.411 C  
BRANCH  20  21
HETATM   21  N   UNL     1      -9.695  14.682  65.676  1.00  0.00    -0.493 NA 
HETATM   22  H   UNL     1      -9.313  14.082  64.944  1.00  0.00     0.000 HD 
BRANCH  21  23
HETATM   23  C   UNL     1      -8.631  15.264  66.507  1.00  0.00    -0.229 C  
BRANCH  23  24
HETATM   24  C   UNL     1      -9.149  15.829  67.838  1.00  0.00    -0.186 C  
BRANCH  24  25
HETATM   25  C   UNL     1      -8.308  16.971  68.341  1.00  0.00    -0.241 A  
HETATM   26  C   UNL     1      -7.103  16.711  69.004  1.00  0.00    -0.216 A  
HETATM   27  C   UNL     1      -6.311  17.764  69.463  1.00  0.00    -0.217 A  
HETATM   28  C   UNL     1      -6.726  19.079  69.267  1.00  0.00    -0.330 A  
HETATM   29  C   UNL     1      -7.931  19.344  68.617  1.00  0.00    -0.403 A  
HETATM   30  C   UNL     1      -8.722  18.293  68.158  1.00  0.00    -0.293 A  
ENDBRANCH  24  25
ENDBRANCH  23  24
ENDBRANCH  21  23
ENDBRANCH  20  21
ENDBRANCH  19  20
ENDBRANCH  18  19
ENDBRANCH  17  18
ENDBRANCH  16  17
ENDBRANCH  15  16
ENDBRANCH  13  15
ENDBRANCH  12  13
ENDBRANCH  11  12
ENDBRANCH   8  11
TORSDOF 13
ENDMDL
MODEL      248
REMARK 921   NORMALIZED FREE ENERGY PREDICTED BY IDOCK:   -3.61 KCAL/MOL
REMARK 922        TOTAL FREE ENERGY PREDICTED BY IDOCK:   -9.11 KCAL/MOL
REMARK 923 INTER-LIGAND FREE ENERGY PREDICTED BY IDOCK:   -8.26 KCAL/MOL
REMARK 924 INTRA-LIGAND FREE ENERGY PREDICTED BY IDOCK:   -0.86 KCAL/MOL
REMARK 927      BINDING AFFINITY PREDICTED BY RF-SCORE:    0.00 PKD
ROOT
HETATM    1  O   UNL     1      -8.865  18.957  68.341  1.00  0.00    -0.321 OA 
HETATM    2  H   UNL     1      -9.317  19.337  69.086  1.00  0.00     0.000 HD 
HETATM    3  C   UNL     1      -9.284  17.819  67.708  1.00  0.00    -0.256 A  
HETATM    4  C   UNL     1      -8.624  17.262  66.617  1.00  0.00    -0.257 A  
HETATM    5  C   UNL     1      -9.132  16.118  65.998  1.00  0.00    -0.354 A  
HETATM    6  O   UNL     1      -7.474  17.788  66.102  1.00  0.00    -0.284 OA 
HETATM    7  H   UNL     1      -7.022  17.408  65.357  1.00  0.00     0.000 HD 
HETATM    8  C   UNL     1     -10.315  15.531  66.461  1.00  0.00    -0.293 A  
HETATM    9  C   UNL     1     -10.434  17.216  68.206  1.00  0.00    -0.373 A  
HETATM   10  C   UNL     1     -10.948  16.074  67.589  1.00  0.00    -0.284 A  
ENDROOT
BRANCH   8  11
HETATM   11  C   UNL     1     -10.898  14.323  65.769  1.00  0.00    -0.303 C  
BRANCH  11  12
HETATM   12  C   UNL     1     -12.146  13.809  66.490  1.00  0.00    -0.443 C  
BRANCH  12  13
HETATM   13  N   UNL     1     -11.965  12.414  66.906  1.00  0.00    -0.575 NA 
HETATM   14  H   UNL     1     -11.776  11.798  66.114  1.00  0.00     0.000 HD 
BRANCH  13  15
HETATM   15  C   UNL     1     -10.921  12.337  67.924  1.00  0.00    -0.224 C  
BRANCH  15  16
HETATM   16  C   UNL     1     -11.531  12.061  69.294  1.00  0.00    -0.361 C  
BRANCH  16  17
HETATM   17  C   UNL     1     -12.110  10.649  69.318  1.00  0.00    -0.206 C  
BRANCH  17  18
HETATM   18  C   UNL     1     -12.891  10.401  70.597  1.00  0.00    -0.393 C  
BRANCH  18  19
HETATM   19  C   UNL     1     -11.994   9.795  71.675  1.00  0.00    -0.454 C  
BRANCH  19  20
HETATM   20  C   UNL     1     -11.382   8.507  71.143  1.00  0.00    -0.270 C  
BRANCH  20  21
HETATM   21  N   UNL     1     -11.809   7.357  71.935  1.00  0.00    -0.287 NA 
HETATM   22  H   UNL     1     -12.799   7.411  72.171  1.00  0.00     0.000 HD 
BRANCH  21  23
HETATM   23  C   UNL     1     -11.482   6.094  71.257  1.00  0.00    -0.247 C  
BRANCH  23  24
HETATM   24  C   UNL     1     -10.101   6.113  70.583  1.00  0.00    -0.240 C  
BRANCH  24  25
HETATM   25  C   UNL     1     -10.161   5.671  69.145  1.00  0.00    -0.305 A  
HETATM   26  C   UNL     1      -9.537   4.480  68.756  1.00  0.00    -0.227 A  
HETATM   27  C   UNL     1      -9.597   4.057  67.427  1.00  0.00    -0.222 A  
HETATM   28  C   UNL     1     -10.274   4.828  66.485  1.00  0.00    -0.294 A  
HETATM   29  C   UNL     1     -10.887   6.021  66.865  1.00  0.00    -0.396 A  
HETATM   30  C   UNL     1     -10.829   6.444  68.192  1.00  0.00    -0.386 A  
ENDBRANCH  24  25
ENDBRANCH  23  24
ENDBRANCH  21  23
ENDBRANCH  20  21
ENDBRANCH  19  20
ENDBRANCH  18  19
ENDBRANCH  17  18
ENDBRANCH  16  17
ENDBRANCH  15  16
ENDBRANCH  13  15
ENDBRANCH  12  13
ENDBRANCH  11  12
ENDBRANCH   8  11
TORSDOF 13
ENDMDL
MODEL      249
REMARK 921   NORMALIZED FREE ENERGY PREDICTED BY IDOCK:   -3.61 KCAL/MOL
REMARK 922        TOTAL FREE ENERGY PREDICTED BY IDOCK:   -9.11 KCAL/MOL
REMARK 923 INTER-LIGAND FREE ENERGY PREDICTED BY IDOCK:   -7.63 KCAL/MOL
REMARK 924 INTRA-LIGAND FREE ENERGY PREDICTED BY IDOCK:   -1.47 KCAL/MOL
REMARK 927      BINDING AFFINITY PREDICTED BY RF-SCORE:    0.00 PKD
ROOT
HETATM    1  O   UNL     1     -10.086  10.543  70.119  1.00  0.00    -0.426 OA 
HETATM    2  H   UNL     1      -9.348  10.443  70.708  1.00  0.00     0.000 HD 
HETATM    3  C   UNL     1      -9.956  10.669  68.762  1.00  0.00    -0.193 A  
HETATM    4  C   UNL     1     -11.038  10.814  67.899  1.00  0.00    -0.308 A  
HETATM    5  C   UNL     1     -10.829  10.899  66.521  1.00  0.00    -0.234 A  
HETATM    6  O   UNL     1     -12.329  10.879  68.337  1.00  0.00    -0.803 OA 
HETATM    7  H   UNL     1     -13.068  10.979  67.748  1.00  0.00     0.000 HD 
HETATM    8  C   UNL     1      -9.533  10.825  65.996  1.00  0.00    -0.230 A  
HETATM    9  C   UNL     1      -8.660  10.642  68.256  1.00  0.00    -0.128 A  
HETATM   10  C   UNL     1      -8.447  10.724  66.879  1.00  0.00    -0.131 A  
ENDROOT
BRANCH   8  11
HETATM   11  C   UNL     1      -9.301  10.867  64.506  1.00  0.00    -0.256 C  
BRANCH  11  12
HETATM   12  C   UNL     1     -10.455  11.554  63.774  1.00  0.00    -0.405 C  
BRANCH  12  13
HETATM   13  N   UNL     1     -10.293  13.013  63.807  1.00  0.00    -0.648 NA 
HETATM   14  H   UNL     1      -9.935  13.379  62.925  1.00  0.00     0.000 HD 
BRANCH  13  15
HETATM   15  C   UNL     1     -11.556  13.638  64.191  1.00  0.00    -0.352 C  
BRANCH  15  16
HETATM   16  C   UNL     1     -11.304  15.001  64.827  1.00  0.00    -0.409 C  
BRANCH  16  17
HETATM   17  C   UNL     1     -11.390  14.877  66.346  1.00  0.00    -0.308 C  
BRANCH  17  18
HETATM   18  C   UNL     1     -10.355  15.757  67.025  1.00  0.00    -0.292 C  
BRANCH  18  19
HETATM   19  C   UNL     1     -11.022  16.751  67.974  1.00  0.00    -0.296 C  
BRANCH  19  20
HETATM   20  C   UNL     1     -10.472  18.143  67.697  1.00  0.00    -0.416 C  
BRANCH  20  21
HETATM   21  N   UNL     1      -9.660  18.154  66.482  1.00  0.00    -0.310 NA 
HETATM   22  H   UNL     1      -9.967  18.878  65.833  1.00  0.00     0.000 HD 
BRANCH  21  23
HETATM   23  C   UNL     1      -8.231  18.283  66.799  1.00  0.00    -0.253 C  
BRANCH  23  24
HETATM   24  C   UNL     1      -7.404  17.067  66.354  1.00  0.00    -0.328 C  
BRANCH  24  25
HETATM   25  C   UNL     1      -6.930  16.240  67.518  1.00  0.00    -0.184 A  
HETATM   26  C   UNL     1      -6.485  16.870  68.686  1.00  0.00    -0.169 A  
HETATM   27  C   UNL     1      -6.054  16.111  69.775  1.00  0.00    -0.181 A  
HETATM   28  C   UNL     1      -6.062  14.720  69.695  1.00  0.00    -0.121 A  
HETATM   29  C   UNL     1      -6.493  14.087  68.530  1.00  0.00    -0.093 A  
HETATM   30  C   UNL     1      -6.924  14.845  67.442  1.00  0.00    -0.162 A  
ENDBRANCH  24  25
ENDBRANCH  23  24
ENDBRANCH  21  23
ENDBRANCH  20  21
ENDBRANCH  19  20
ENDBRANCH  18  19
ENDBRANCH  17  18
ENDBRANCH  16  17
ENDBRANCH  15  16
ENDBRANCH  13  15
ENDBRANCH  12  13
ENDBRANCH  11  12
ENDBRANCH   8  11
TORSDOF 13
ENDMDL
MODEL      250
REMARK 921   NORMALIZED FREE ENERGY PREDICTED BY IDOCK:   -3.61 KCAL/MOL
REMARK 922        TOTAL FREE ENERGY PREDICTED BY IDOCK:   -9.10 KCAL/MOL
REMARK 923 INTER-LIGAND FREE ENERGY PREDICTED BY IDOCK:   -6.80 KCAL/MOL
REMARK 924 INTRA-LIGAND FREE ENERGY PREDICTED BY IDOCK:   -2.31 KCAL/MOL
REMARK 927      BINDING AFFINITY PREDICTED BY RF-SCORE:    0.00 PKD
ROOT
HETATM    1  O   UNL     1      -9.151   2.761  73.227  1.00  0.00    -0.084 OA 
HETATM    2  H   UNL     1      -9.499   2.181  73.895  1.00  0.00     0.000 HD 
HETATM    3  C   UNL     1      -9.824   3.855  72.755  1.00  0.00    -0.145 A  
HETATM    4  C   UNL     1      -9.315   4.704  71.777  1.00  0.00    -0.142 A  
HETATM    5  C   UNL     1     -10.044   5.824  71.371  1.00  0.00    -0.249 A  
HETATM    6  O   UNL     1      -8.106   4.499  71.176  1.00  0.00    -0.082 OA 
HETATM    7  H   UNL     1      -7.758   5.078  70.509  1.00  0.00     0.000 HD 
HETATM    8  C   UNL     1     -11.285   6.108  71.953  1.00  0.00    -0.336 A  
HETATM    9  C   UNL     1     -11.078   4.100  73.305  1.00  0.00    -0.318 A  
HETATM   10  C   UNL     1     -11.809   5.220  72.905  1.00  0.00    -0.159 A  
ENDROOT
BRANCH   8  11
HETATM   11  C   UNL     1     -12.059   7.341  71.557  1.00  0.00    -0.365 C  
BRANCH  11  12
HETATM   12  C   UNL     1     -11.344   8.620  71.994  1.00  0.00    -0.362 C  
BRANCH  12  13
HETATM   13  N   UNL     1     -12.010   9.802  71.435  1.00  0.00    -0.385 NA 
HETATM   14  H   UNL     1     -11.913  10.620  72.038  1.00  0.00     0.000 HD 
BRANCH  13  15
HETATM   15  C   UNL     1     -11.513  10.052  70.084  1.00  0.00    -0.277 C  
BRANCH  15  16
HETATM   16  C   UNL     1      -9.993   9.925  70.043  1.00  0.00    -0.302 C  
BRANCH  16  17
HETATM   17  C   UNL     1      -9.580   9.183  68.775  1.00  0.00    -0.161 C  
BRANCH  17  18
HETATM   18  C   UNL     1     -10.782   8.903  67.889  1.00  0.00    -0.185 C  
BRANCH  18  19
HETATM   19  C   UNL     1     -10.525   7.699  66.984  1.00  0.00    -0.419 C  
BRANCH  19  20
HETATM   20  C   UNL     1      -9.067   7.712  66.548  1.00  0.00    -0.167 C  
BRANCH  20  21
HETATM   21  N   UNL     1      -8.953   7.898  65.103  1.00  0.00    -0.376 NA 
HETATM   22  H   UNL     1      -9.853   7.781  64.638  1.00  0.00     0.000 HD 
BRANCH  21  23
HETATM   23  C   UNL     1      -8.342   9.195  64.781  1.00  0.00    -0.169 C  
BRANCH  23  24
HETATM   24  C   UNL     1      -9.327  10.179  64.131  1.00  0.00    -0.340 C  
BRANCH  24  25
HETATM   25  C   UNL     1      -9.878  11.173  65.118  1.00  0.00    -0.307 A  
HETATM   26  C   UNL     1     -11.201  11.615  64.997  1.00  0.00    -0.275 A  
HETATM   27  C   UNL     1     -11.723  12.528  65.914  1.00  0.00    -0.480 A  
HETATM   28  C   UNL     1     -10.922  13.005  66.949  1.00  0.00    -0.289 A  
HETATM   29  C   UNL     1      -9.601  12.577  67.067  1.00  0.00    -0.216 A  
HETATM   30  C   UNL     1      -9.078  11.665  66.152  1.00  0.00    -0.209 A  
ENDBRANCH  24  25
ENDBRANCH  23  24
ENDBRANCH  21  23
ENDBRANCH  20  21
ENDBRANCH  19  20
ENDBRANCH  18  19
ENDBRANCH  17  18
ENDBRANCH  16  17
ENDBRANCH  15  16
ENDBRANCH  13  15
ENDBRANCH  12  13
ENDBRANCH  11  12
ENDBRANCH   8  11
TORSDOF 13
ENDMDL
MODEL      251
REMARK 921   NORMALIZED FREE ENERGY PREDICTED BY IDOCK:   -3.59 KCAL/MOL
REMARK 922        TOTAL FREE ENERGY PREDICTED BY IDOCK:   -9.07 KCAL/MOL
REMARK 923 INTER-LIGAND FREE ENERGY PREDICTED BY IDOCK:   -7.11 KCAL/MOL
REMARK 924 INTRA-LIGAND FREE ENERGY PREDICTED BY IDOCK:   -1.96 KCAL/MOL
REMARK 927      BINDING AFFINITY PREDICTED BY RF-SCORE:    0.00 PKD
ROOT
HETATM    1  O   UNL     1      -9.738  17.683  65.460  1.00  0.00    -0.415 OA 
HETATM    2  H   UNL     1      -9.092  18.158  65.970  1.00  0.00     0.000 HD 
HETATM    3  C   UNL     1     -10.057  16.371  65.682  1.00  0.00    -0.286 A  
HETATM    4  C   UNL     1     -11.004  15.676  64.936  1.00  0.00    -0.431 A  
HETATM    5  C   UNL     1     -11.305  14.348  65.245  1.00  0.00    -0.346 A  
HETATM    6  O   UNL     1     -11.677  16.237  63.888  1.00  0.00    -1.441 OA 
HETATM    7  H   UNL     1     -12.323  15.763  63.378  1.00  0.00     0.000 HD 
HETATM    8  C   UNL     1     -10.666  13.710  66.315  1.00  0.00    -0.285 A  
HETATM    9  C   UNL     1      -9.382  15.733  66.717  1.00  0.00    -0.264 A  
HETATM   10  C   UNL     1      -9.681  14.406  67.033  1.00  0.00    -0.256 A  
ENDROOT
BRANCH   8  11
HETATM   11  C   UNL     1     -11.018  12.291  66.688  1.00  0.00    -0.321 C  
BRANCH  11  12
HETATM   12  C   UNL     1     -11.532  12.197  68.126  1.00  0.00    -0.317 C  
BRANCH  12  13
HETATM   13  N   UNL     1     -10.434  11.882  69.048  1.00  0.00    -0.389 NA 
HETATM   14  H   UNL     1     -10.572  12.303  69.967  1.00  0.00     0.000 HD 
BRANCH  13  15
HETATM   15  C   UNL     1     -10.258  10.435  69.125  1.00  0.00    -0.222 C  
BRANCH  15  16
HETATM   16  C   UNL     1      -8.856  10.094  69.620  1.00  0.00    -0.184 C  
BRANCH  16  17
HETATM   17  C   UNL     1      -7.891  11.206  69.220  1.00  0.00    -0.007 C  
BRANCH  17  18
HETATM   18  C   UNL     1      -7.285  10.938  67.852  1.00  0.00    -0.086 C  
BRANCH  18  19
HETATM   19  C   UNL     1      -5.890  10.329  67.984  1.00  0.00    -0.041 C  
BRANCH  19  20
HETATM   20  C   UNL     1      -5.373   9.977  66.596  1.00  0.00    -0.044 C  
BRANCH  20  21
HETATM   21  N   UNL     1      -5.942  10.863  65.583  1.00  0.00    -0.308 NA 
HETATM   22  H   UNL     1      -5.289  11.601  65.321  1.00  0.00     0.000 HD 
BRANCH  21  23
HETATM   23  C   UNL     1      -6.401  10.105  64.411  1.00  0.00    -0.127 C  
BRANCH  23  24
HETATM   24  C   UNL     1      -7.931   9.989  64.330  1.00  0.00    -0.152 C  
BRANCH  24  25
HETATM   25  C   UNL     1      -8.465   8.868  65.180  1.00  0.00    -0.190 A  
HETATM   26  C   UNL     1      -9.704   9.006  65.817  1.00  0.00    -0.254 A  
HETATM   27  C   UNL     1     -10.212   7.967  66.599  1.00  0.00    -0.315 A  
HETATM   28  C   UNL     1      -9.480   6.792  66.749  1.00  0.00    -0.199 A  
HETATM   29  C   UNL     1      -8.240   6.654  66.126  1.00  0.00    -0.124 A  
HETATM   30  C   UNL     1      -7.732   7.690  65.346  1.00  0.00    -0.104 A  
ENDBRANCH  24  25
ENDBRANCH  23  24
ENDBRANCH  21  23
ENDBRANCH  20  21
ENDBRANCH  19  20
ENDBRANCH  18  19
ENDBRANCH  17  18
ENDBRANCH  16  17
ENDBRANCH  15  16
ENDBRANCH  13  15
ENDBRANCH  12  13
ENDBRANCH  11  12
ENDBRANCH   8  11
TORSDOF 13
ENDMDL
MODEL      252
REMARK 921   NORMALIZED FREE ENERGY PREDICTED BY IDOCK:   -3.59 KCAL/MOL
REMARK 922        TOTAL FREE ENERGY PREDICTED BY IDOCK:   -9.07 KCAL/MOL
REMARK 923 INTER-LIGAND FREE ENERGY PREDICTED BY IDOCK:   -8.14 KCAL/MOL
REMARK 924 INTRA-LIGAND FREE ENERGY PREDICTED BY IDOCK:   -0.92 KCAL/MOL
REMARK 927      BINDING AFFINITY PREDICTED BY RF-SCORE:    0.00 PKD
ROOT
HETATM    1  O   UNL     1      -9.907  18.652  68.792  1.00  0.00    -0.368 OA 
HETATM    2  H   UNL     1     -10.228  18.645  69.686  1.00  0.00     0.000 HD 
HETATM    3  C   UNL     1     -10.135  17.639  67.901  1.00  0.00    -0.345 A  
HETATM    4  C   UNL     1      -9.665  17.650  66.591  1.00  0.00    -0.301 A  
HETATM    5  C   UNL     1      -9.969  16.595  65.728  1.00  0.00    -0.271 A  
HETATM    6  O   UNL     1      -8.901  18.664  66.089  1.00  0.00    -0.452 OA 
HETATM    7  H   UNL     1      -8.580  18.671  65.195  1.00  0.00     0.000 HD 
HETATM    8  C   UNL     1     -10.760  15.527  66.168  1.00  0.00    -0.315 A  
HETATM    9  C   UNL     1     -10.881  16.560  68.364  1.00  0.00    -0.348 A  
HETATM   10  C   UNL     1     -11.191  15.505  67.503  1.00  0.00    -0.272 A  
ENDROOT
BRANCH   8  11
HETATM   11  C   UNL     1     -11.135  14.407  65.229  1.00  0.00    -0.344 C  
BRANCH  11  12
HETATM   12  C   UNL     1     -12.388  13.669  65.704  1.00  0.00    -0.478 C  
BRANCH  12  13
HETATM   13  N   UNL     1     -12.177  12.217  65.669  1.00  0.00    -0.597 NA 
HETATM   14  H   UNL     1     -12.325  11.830  64.737  1.00  0.00     0.000 HD 
BRANCH  13  15
HETATM   15  C   UNL     1     -10.850  11.902  66.192  1.00  0.00    -0.292 C  
BRANCH  15  16
HETATM   16  C   UNL     1     -10.838  12.001  67.713  1.00  0.00    -0.256 C  
BRANCH  16  17
HETATM   17  C   UNL     1     -11.784  10.956  68.299  1.00  0.00    -0.259 C  
BRANCH  17  18
HETATM   18  C   UNL     1     -11.566  10.798  69.794  1.00  0.00    -0.393 C  
BRANCH  18  19
HETATM   19  C   UNL     1     -10.284  10.018  70.079  1.00  0.00    -0.306 C  
BRANCH  19  20
HETATM   20  C   UNL     1     -10.448   8.594  69.565  1.00  0.00    -0.220 C  
BRANCH  20  21
HETATM   21  N   UNL     1     -11.399   7.847  70.385  1.00  0.00    -0.390 NA 
HETATM   22  H   UNL     1     -12.299   8.322  70.441  1.00  0.00     0.000 HD 
BRANCH  21  23
HETATM   23  C   UNL     1     -11.545   6.466  69.902  1.00  0.00    -0.353 C  
BRANCH  23  24
HETATM   24  C   UNL     1     -10.356   5.569  70.275  1.00  0.00    -0.349 C  
BRANCH  24  25
HETATM   25  C   UNL     1     -10.104   5.541  71.759  1.00  0.00    -0.247 A  
HETATM   26  C   UNL     1      -8.879   5.991  72.266  1.00  0.00    -0.138 A  
HETATM   27  C   UNL     1      -8.640   5.979  73.641  1.00  0.00    -0.125 A  
HETATM   28  C   UNL     1      -9.623   5.511  74.510  1.00  0.00    -0.176 A  
HETATM   29  C   UNL     1     -10.841   5.051  74.009  1.00  0.00    -0.281 A  
HETATM   30  C   UNL     1     -11.080   5.063  72.636  1.00  0.00    -0.265 A  
ENDBRANCH  24  25
ENDBRANCH  23  24
ENDBRANCH  21  23
ENDBRANCH  20  21
ENDBRANCH  19  20
ENDBRANCH  18  19
ENDBRANCH  17  18
ENDBRANCH  16  17
ENDBRANCH  15  16
ENDBRANCH  13  15
ENDBRANCH  12  13
ENDBRANCH  11  12
ENDBRANCH   8  11
TORSDOF 13
ENDMDL
MODEL      253
REMARK 921   NORMALIZED FREE ENERGY PREDICTED BY IDOCK:   -3.58 KCAL/MOL
REMARK 922        TOTAL FREE ENERGY PREDICTED BY IDOCK:   -9.05 KCAL/MOL
REMARK 923 INTER-LIGAND FREE ENERGY PREDICTED BY IDOCK:   -8.23 KCAL/MOL
REMARK 924 INTRA-LIGAND FREE ENERGY PREDICTED BY IDOCK:   -0.83 KCAL/MOL
REMARK 927      BINDING AFFINITY PREDICTED BY RF-SCORE:    0.00 PKD
ROOT
HETATM    1  O   UNL     1     -10.658  16.930  65.403  1.00  0.00    -0.579 OA 
HETATM    2  H   UNL     1     -10.263  17.731  65.079  1.00  0.00     0.000 HD 
HETATM    3  C   UNL     1      -9.953  15.951  66.050  1.00  0.00    -0.334 A  
HETATM    4  C   UNL     1     -10.531  14.778  66.526  1.00  0.00    -0.291 A  
HETATM    5  C   UNL     1      -9.755  13.840  67.210  1.00  0.00    -0.242 A  
HETATM    6  O   UNL     1     -11.854  14.484  66.356  1.00  0.00    -0.383 OA 
HETATM    7  H   UNL     1     -12.249  13.683  66.680  1.00  0.00     0.000 HD 
HETATM    8  C   UNL     1      -8.394  14.079  67.435  1.00  0.00    -0.207 A  
HETATM    9  C   UNL     1      -8.592  16.177  66.226  1.00  0.00    -0.373 A  
HETATM   10  C   UNL     1      -7.812  15.244  66.913  1.00  0.00    -0.152 A  
ENDROOT
BRANCH   8  11
HETATM   11  C   UNL     1      -7.557  13.096  68.215  1.00  0.00    -0.139 C  
BRANCH  11  12
HETATM   12  C   UNL     1      -7.575  11.707  67.575  1.00  0.00    -0.128 C  
BRANCH  12  13
HETATM   13  N   UNL     1      -6.927  11.737  66.258  1.00  0.00    -0.343 NA 
HETATM   14  H   UNL     1      -5.913  11.823  66.331  1.00  0.00     0.000 HD 
BRANCH  13  15
HETATM   15  C   UNL     1      -7.326  10.562  65.488  1.00  0.00    -0.106 C  
BRANCH  15  16
HETATM   16  C   UNL     1      -8.174   9.627  66.342  1.00  0.00    -0.119 C  
BRANCH  16  17
HETATM   17  C   UNL     1      -9.537   9.432  65.683  1.00  0.00    -0.345 C  
BRANCH  17  18
HETATM   18  C   UNL     1     -10.610  10.234  66.401  1.00  0.00    -0.177 C  
BRANCH  18  19
HETATM   19  C   UNL     1     -10.894   9.651  67.784  1.00  0.00    -0.278 C  
BRANCH  19  20
HETATM   20  C   UNL     1      -9.947  10.289  68.792  1.00  0.00    -0.179 C  
BRANCH  20  21
HETATM   21  N   UNL     1     -10.652  10.640  70.023  1.00  0.00    -0.463 NA 
HETATM   22  H   UNL     1     -10.117  11.303  70.584  1.00  0.00     0.000 HD 
BRANCH  21  23
HETATM   23  C   UNL     1     -12.004  11.141  69.737  1.00  0.00    -0.357 C  
BRANCH  23  24
HETATM   24  C   UNL     1     -12.027  12.630  69.360  1.00  0.00    -0.318 C  
BRANCH  24  25
HETATM   25  C   UNL     1     -12.249  13.519  70.554  1.00  0.00    -0.433 A  
HETATM   26  C   UNL     1     -13.269  13.219  71.466  1.00  0.00    -0.383 A  
HETATM   27  C   UNL     1     -13.475  14.032  72.582  1.00  0.00    -0.650 A  
HETATM   28  C   UNL     1     -12.667  15.148  72.784  1.00  0.00    -0.494 A  
HETATM   29  C   UNL     1     -11.658  15.458  71.873  1.00  0.00    -0.521 A  
HETATM   30  C   UNL     1     -11.451  14.647  70.758  1.00  0.00    -0.232 A  
ENDBRANCH  24  25
ENDBRANCH  23  24
ENDBRANCH  21  23
ENDBRANCH  20  21
ENDBRANCH  19  20
ENDBRANCH  18  19
ENDBRANCH  17  18
ENDBRANCH  16  17
ENDBRANCH  15  16
ENDBRANCH  13  15
ENDBRANCH  12  13
ENDBRANCH  11  12
ENDBRANCH   8  11
TORSDOF 13
ENDMDL
MODEL      254
REMARK 921   NORMALIZED FREE ENERGY PREDICTED BY IDOCK:   -3.58 KCAL/MOL
REMARK 922        TOTAL FREE ENERGY PREDICTED BY IDOCK:   -9.05 KCAL/MOL
REMARK 923 INTER-LIGAND FREE ENERGY PREDICTED BY IDOCK:   -7.15 KCAL/MOL
REMARK 924 INTRA-LIGAND FREE ENERGY PREDICTED BY IDOCK:   -1.90 KCAL/MOL
REMARK 927      BINDING AFFINITY PREDICTED BY RF-SCORE:    0.00 PKD
ROOT
HETATM    1  O   UNL     1     -11.282   5.869  66.379  1.00  0.00    -0.749 OA 
HETATM    2  H   UNL     1     -11.611   6.151  65.533  1.00  0.00     0.000 HD 
HETATM    3  C   UNL     1     -10.712   6.720  67.286  1.00  0.00    -0.353 A  
HETATM    4  C   UNL     1     -10.230   6.307  68.525  1.00  0.00    -0.176 A  
HETATM    5  C   UNL     1      -9.694   7.240  69.416  1.00  0.00    -0.161 A  
HETATM    6  O   UNL     1     -10.254   5.003  68.931  1.00  0.00    -0.178 OA 
HETATM    7  H   UNL     1      -9.925   4.722  69.776  1.00  0.00     0.000 HD 
HETATM    8  C   UNL     1      -9.650   8.597  69.075  1.00  0.00    -0.163 A  
HETATM    9  C   UNL     1     -10.629   8.058  66.918  1.00  0.00    -0.324 A  
HETATM   10  C   UNL     1     -10.097   8.996  67.806  1.00  0.00    -0.260 A  
ENDROOT
BRANCH   8  11
HETATM   11  C   UNL     1      -9.117   9.619  70.049  1.00  0.00    -0.269 C  
BRANCH  11  12
HETATM   12  C   UNL     1      -8.442  10.787  69.327  1.00  0.00    -0.047 C  
BRANCH  12  13
HETATM   13  N   UNL     1      -7.155  10.368  68.759  1.00  0.00    -0.070 NA 
HETATM   14  H   UNL     1      -7.263   9.620  68.074  1.00  0.00     0.000 HD 
BRANCH  13  15
HETATM   15  C   UNL     1      -6.464  11.528  68.203  1.00  0.00    -0.053 C  
BRANCH  15  16
HETATM   16  C   UNL     1      -6.652  12.744  69.104  1.00  0.00    -0.101 C  
BRANCH  16  17
HETATM   17  C   UNL     1      -6.893  13.982  68.244  1.00  0.00    -0.108 C  
BRANCH  17  18
HETATM   18  C   UNL     1      -8.110  14.753  68.725  1.00  0.00    -0.158 C  
BRANCH  18  19
HETATM   19  C   UNL     1      -8.804  15.459  67.561  1.00  0.00    -0.190 C  
BRANCH  19  20
HETATM   20  C   UNL     1      -9.700  14.460  66.841  1.00  0.00    -0.262 C  
BRANCH  20  21
HETATM   21  N   UNL     1     -11.078  14.940  66.781  1.00  0.00    -0.331 NA 
HETATM   22  H   UNL     1     -11.288  15.365  65.879  1.00  0.00     0.000 HD 
BRANCH  21  23
HETATM   23  C   UNL     1     -12.028  13.867  67.108  1.00  0.00    -0.420 C  
BRANCH  23  24
HETATM   24  C   UNL     1     -11.403  12.746  67.953  1.00  0.00    -0.339 C  
BRANCH  24  25
HETATM   25  C   UNL     1     -12.003  12.666  69.330  1.00  0.00    -0.318 A  
HETATM   26  C   UNL     1     -12.214  11.417  69.927  1.00  0.00    -0.346 A  
HETATM   27  C   UNL     1     -12.760  11.334  71.209  1.00  0.00    -0.510 A  
HETATM   28  C   UNL     1     -13.102  12.498  71.893  1.00  0.00    -0.473 A  
HETATM   29  C   UNL     1     -12.905  13.744  71.299  1.00  0.00    -0.434 A  
HETATM   30  C   UNL     1     -12.360  13.828  70.019  1.00  0.00    -0.364 A  
ENDBRANCH  24  25
ENDBRANCH  23  24
ENDBRANCH  21  23
ENDBRANCH  20  21
ENDBRANCH  19  20
ENDBRANCH  18  19
ENDBRANCH  17  18
ENDBRANCH  16  17
ENDBRANCH  15  16
ENDBRANCH  13  15
ENDBRANCH  12  13
ENDBRANCH  11  12
ENDBRANCH   8  11
TORSDOF 13
ENDMDL
MODEL      255
REMARK 921   NORMALIZED FREE ENERGY PREDICTED BY IDOCK:   -3.57 KCAL/MOL
REMARK 922        TOTAL FREE ENERGY PREDICTED BY IDOCK:   -9.05 KCAL/MOL
REMARK 923 INTER-LIGAND FREE ENERGY PREDICTED BY IDOCK:   -8.02 KCAL/MOL
REMARK 924 INTRA-LIGAND FREE ENERGY PREDICTED BY IDOCK:   -1.03 KCAL/MOL
REMARK 927      BINDING AFFINITY PREDICTED BY RF-SCORE:    0.00 PKD
ROOT
HETATM    1  O   UNL     1     -13.368  15.824  73.958  1.00  0.00    -0.726 OA 
HETATM    2  H   UNL     1     -13.066  16.602  74.411  1.00  0.00     0.000 HD 
HETATM    3  C   UNL     1     -12.972  15.488  72.692  1.00  0.00    -0.445 A  
HETATM    4  C   UNL     1     -13.415  14.348  72.027  1.00  0.00    -0.402 A  
HETATM    5  C   UNL     1     -12.937  14.051  70.749  1.00  0.00    -0.298 A  
HETATM    6  O   UNL     1     -14.316  13.479  72.572  1.00  0.00    -0.713 OA 
HETATM    7  H   UNL     1     -14.619  12.701  72.119  1.00  0.00     0.000 HD 
HETATM    8  C   UNL     1     -12.000  14.887  70.133  1.00  0.00    -0.368 A  
HETATM    9  C   UNL     1     -12.077  16.353  72.069  1.00  0.00    -0.362 A  
HETATM   10  C   UNL     1     -11.594  16.058  70.793  1.00  0.00    -0.431 A  
ENDROOT
BRANCH   8  11
HETATM   11  C   UNL     1     -11.440  14.550  68.773  1.00  0.00    -0.322 C  
BRANCH  11  12
HETATM   12  C   UNL     1     -10.899  13.120  68.726  1.00  0.00    -0.246 C  
BRANCH  12  13
HETATM   13  N   UNL     1      -9.435  13.118  68.830  1.00  0.00    -0.406 NA 
HETATM   14  H   UNL     1      -9.118  13.211  69.795  1.00  0.00     0.000 HD 
BRANCH  13  15
HETATM   15  C   UNL     1      -8.898  11.922  68.187  1.00  0.00    -0.178 C  
BRANCH  15  16
HETATM   16  C   UNL     1      -7.459  11.678  68.629  1.00  0.00    -0.117 C  
BRANCH  16  17
HETATM   17  C   UNL     1      -6.623  11.254  67.424  1.00  0.00    -0.081 C  
BRANCH  17  18
HETATM   18  C   UNL     1      -7.493  10.631  66.346  1.00  0.00    -0.138 C  
BRANCH  18  19
HETATM   19  C   UNL     1      -7.797   9.169  66.667  1.00  0.00    -0.100 C  
BRANCH  19  20
HETATM   20  C   UNL     1      -8.966   8.708  65.808  1.00  0.00    -0.197 C  
BRANCH  20  21
HETATM   21  N   UNL     1      -9.261   7.295  66.037  1.00  0.00    -0.361 NA 
HETATM   22  H   UNL     1      -8.767   6.697  65.375  1.00  0.00     0.000 HD 
BRANCH  21  23
HETATM   23  C   UNL     1      -8.976   6.912  67.428  1.00  0.00    -0.116 C  
BRANCH  23  24
HETATM   24  C   UNL     1     -10.230   6.475  68.200  1.00  0.00    -0.194 C  
BRANCH  24  25
HETATM   25  C   UNL     1     -10.590   7.438  69.299  1.00  0.00    -0.220 A  
HETATM   26  C   UNL     1     -11.089   6.954  70.515  1.00  0.00    -0.332 A  
HETATM   27  C   UNL     1     -11.415   7.840  71.543  1.00  0.00    -0.298 A  
HETATM   28  C   UNL     1     -11.249   9.210  71.355  1.00  0.00    -0.419 A  
HETATM   29  C   UNL     1     -10.765   9.698  70.142  1.00  0.00    -0.321 A  
HETATM   30  C   UNL     1     -10.439   8.815  69.115  1.00  0.00    -0.230 A  
ENDBRANCH  24  25
ENDBRANCH  23  24
ENDBRANCH  21  23
ENDBRANCH  20  21
ENDBRANCH  19  20
ENDBRANCH  18  19
ENDBRANCH  17  18
ENDBRANCH  16  17
ENDBRANCH  15  16
ENDBRANCH  13  15
ENDBRANCH  12  13
ENDBRANCH  11  12
ENDBRANCH   8  11
TORSDOF 13
ENDMDL
MODEL      256
REMARK 921   NORMALIZED FREE ENERGY PREDICTED BY IDOCK:   -3.57 KCAL/MOL
REMARK 922        TOTAL FREE ENERGY PREDICTED BY IDOCK:   -9.03 KCAL/MOL
REMARK 923 INTER-LIGAND FREE ENERGY PREDICTED BY IDOCK:   -7.45 KCAL/MOL
REMARK 924 INTRA-LIGAND FREE ENERGY PREDICTED BY IDOCK:   -1.58 KCAL/MOL
REMARK 927      BINDING AFFINITY PREDICTED BY RF-SCORE:    0.00 PKD
ROOT
HETATM    1  O   UNL     1      -7.237  20.175  68.063  1.00  0.00    -0.285 OA 
HETATM    2  H   UNL     1      -6.406  19.984  68.481  1.00  0.00     0.000 HD 
HETATM    3  C   UNL     1      -8.263  19.273  67.979  1.00  0.00    -0.311 A  
HETATM    4  C   UNL     1      -9.481  19.553  67.366  1.00  0.00    -0.321 A  
HETATM    5  C   UNL     1     -10.496  18.594  67.352  1.00  0.00    -0.467 A  
HETATM    6  O   UNL     1      -9.747  20.748  66.762  1.00  0.00    -0.649 OA 
HETATM    7  H   UNL     1     -10.578  20.940  66.344  1.00  0.00     0.000 HD 
HETATM    8  C   UNL     1     -10.302  17.351  67.964  1.00  0.00    -0.362 A  
HETATM    9  C   UNL     1      -8.042  18.023  68.549  1.00  0.00    -0.306 A  
HETATM   10  C   UNL     1      -9.055  17.062  68.540  1.00  0.00    -0.259 A  
ENDROOT
BRANCH   8  11
HETATM   11  C   UNL     1     -11.409  16.326  67.997  1.00  0.00    -0.205 C  
BRANCH  11  12
HETATM   12  C   UNL     1     -11.174  15.276  69.085  1.00  0.00    -0.278 C  
BRANCH  12  13
HETATM   13  N   UNL     1     -12.382  14.472  69.297  1.00  0.00    -0.561 NA 
HETATM   14  H   UNL     1     -12.898  14.316  68.430  1.00  0.00     0.000 HD 
BRANCH  13  15
HETATM   15  C   UNL     1     -12.028  13.219  69.959  1.00  0.00    -0.329 C  
BRANCH  15  16
HETATM   16  C   UNL     1     -11.747  12.132  68.927  1.00  0.00    -0.381 C  
BRANCH  16  17
HETATM   17  C   UNL     1     -11.806  10.764  69.602  1.00  0.00    -0.392 C  
BRANCH  17  18
HETATM   18  C   UNL     1     -10.440  10.353  70.125  1.00  0.00    -0.185 C  
BRANCH  18  19
HETATM   19  C   UNL     1     -10.554   9.154  71.065  1.00  0.00    -0.362 C  
BRANCH  19  20
HETATM   20  C   UNL     1     -11.198   7.997  70.314  1.00  0.00    -0.190 C  
BRANCH  20  21
HETATM   21  N   UNL     1     -10.258   6.889  70.153  1.00  0.00    -0.190 NA 
HETATM   22  H   UNL     1     -10.679   5.999  70.419  1.00  0.00     0.000 HD 
BRANCH  21  23
HETATM   23  C   UNL     1      -9.720   6.845  68.786  1.00  0.00    -0.137 C  
BRANCH  23  24
HETATM   24  C   UNL     1     -10.604   7.580  67.766  1.00  0.00    -0.274 C  
BRANCH  24  25
HETATM   25  C   UNL     1      -9.867   8.689  67.065  1.00  0.00    -0.284 A  
HETATM   26  C   UNL     1     -10.570   9.589  66.255  1.00  0.00    -0.018 A  
HETATM   27  C   UNL     1      -9.896  10.628  65.610  1.00  0.00    -0.307 A  
HETATM   28  C   UNL     1      -8.519  10.763  65.768  1.00  0.00    -0.174 A  
HETATM   29  C   UNL     1      -7.813   9.863  66.564  1.00  0.00    -0.110 A  
HETATM   30  C   UNL     1      -8.484   8.825  67.209  1.00  0.00    -0.111 A  
ENDBRANCH  24  25
ENDBRANCH  23  24
ENDBRANCH  21  23
ENDBRANCH  20  21
ENDBRANCH  19  20
ENDBRANCH  18  19
ENDBRANCH  17  18
ENDBRANCH  16  17
ENDBRANCH  15  16
ENDBRANCH  13  15
ENDBRANCH  12  13
ENDBRANCH  11  12
ENDBRANCH   8  11
TORSDOF 13
ENDMDL
MODEL      257
REMARK 921   NORMALIZED FREE ENERGY PREDICTED BY IDOCK:   -3.57 KCAL/MOL
REMARK 922        TOTAL FREE ENERGY PREDICTED BY IDOCK:   -9.03 KCAL/MOL
REMARK 923 INTER-LIGAND FREE ENERGY PREDICTED BY IDOCK:   -8.35 KCAL/MOL
REMARK 924 INTRA-LIGAND FREE ENERGY PREDICTED BY IDOCK:   -0.68 KCAL/MOL
REMARK 927      BINDING AFFINITY PREDICTED BY RF-SCORE:    0.00 PKD
ROOT
HETATM    1  O   UNL     1      -9.248   5.043  71.774  1.00  0.00    -0.138 OA 
HETATM    2  H   UNL     1      -9.139   4.440  71.048  1.00  0.00     0.000 HD 
HETATM    3  C   UNL     1     -10.192   6.034  71.795  1.00  0.00    -0.202 A  
HETATM    4  C   UNL     1     -10.353   6.916  72.859  1.00  0.00    -0.226 A  
HETATM    5  C   UNL     1     -11.363   7.879  72.825  1.00  0.00    -0.453 A  
HETATM    6  O   UNL     1      -9.555   6.891  73.967  1.00  0.00    -0.217 OA 
HETATM    7  H   UNL     1      -9.665   7.493  74.694  1.00  0.00     0.000 HD 
HETATM    8  C   UNL     1     -12.230   7.956  71.729  1.00  0.00    -0.344 A  
HETATM    9  C   UNL     1     -11.016   6.132  70.679  1.00  0.00    -0.376 A  
HETATM   10  C   UNL     1     -12.030   7.091  70.642  1.00  0.00    -0.361 A  
ENDROOT
BRANCH   8  11
HETATM   11  C   UNL     1     -13.355   8.961  71.704  1.00  0.00    -0.414 C  
BRANCH  11  12
HETATM   12  C   UNL     1     -12.865  10.345  71.276  1.00  0.00    -0.433 C  
BRANCH  12  13
HETATM   13  N   UNL     1     -12.761  10.428  69.814  1.00  0.00    -0.591 NA 
HETATM   14  H   UNL     1     -13.676  10.478  69.366  1.00  0.00     0.000 HD 
BRANCH  13  15
HETATM   15  C   UNL     1     -11.905  11.553  69.446  1.00  0.00    -0.350 C  
BRANCH  15  16
HETATM   16  C   UNL     1     -11.505  11.461  67.978  1.00  0.00    -0.377 C  
BRANCH  16  17
HETATM   17  C   UNL     1     -10.776  12.738  67.568  1.00  0.00    -0.247 C  
BRANCH  17  18
HETATM   18  C   UNL     1     -11.498  13.969  68.089  1.00  0.00    -0.341 C  
BRANCH  18  19
HETATM   19  C   UNL     1     -11.604  15.040  67.004  1.00  0.00    -0.248 C  
BRANCH  19  20
HETATM   20  C   UNL     1     -10.535  14.783  65.951  1.00  0.00    -0.312 C  
BRANCH  20  21
HETATM   21  N   UNL     1      -9.922  16.034  65.511  1.00  0.00    -0.459 NA 
HETATM   22  H   UNL     1     -10.389  16.410  64.686  1.00  0.00     0.000 HD 
BRANCH  21  23
HETATM   23  C   UNL     1      -9.876  17.016  66.603  1.00  0.00    -0.290 C  
BRANCH  23  24
HETATM   24  C   UNL     1      -8.515  17.063  67.314  1.00  0.00    -0.210 C  
BRANCH  24  25
HETATM   25  C   UNL     1      -7.783  18.354  67.063  1.00  0.00    -0.234 A  
HETATM   26  C   UNL     1      -6.846  18.434  66.026  1.00  0.00    -0.308 A  
HETATM   27  C   UNL     1      -6.171  19.631  65.780  1.00  0.00    -0.219 A  
HETATM   28  C   UNL     1      -6.426  20.746  66.574  1.00  0.00    -0.332 A  
HETATM   29  C   UNL     1      -7.349  20.668  67.616  1.00  0.00    -0.330 A  
HETATM   30  C   UNL     1      -8.024  19.474  67.863  1.00  0.00    -0.336 A  
ENDBRANCH  24  25
ENDBRANCH  23  24
ENDBRANCH  21  23
ENDBRANCH  20  21
ENDBRANCH  19  20
ENDBRANCH  18  19
ENDBRANCH  17  18
ENDBRANCH  16  17
ENDBRANCH  15  16
ENDBRANCH  13  15
ENDBRANCH  12  13
ENDBRANCH  11  12
ENDBRANCH   8  11
TORSDOF 13
ENDMDL
MODEL      258
REMARK 921   NORMALIZED FREE ENERGY PREDICTED BY IDOCK:   -3.56 KCAL/MOL
REMARK 922        TOTAL FREE ENERGY PREDICTED BY IDOCK:   -9.01 KCAL/MOL
REMARK 923 INTER-LIGAND FREE ENERGY PREDICTED BY IDOCK:   -7.91 KCAL/MOL
REMARK 924 INTRA-LIGAND FREE ENERGY PREDICTED BY IDOCK:   -1.10 KCAL/MOL
REMARK 927      BINDING AFFINITY PREDICTED BY RF-SCORE:    0.00 PKD
ROOT
HETATM    1  O   UNL     1      -6.282  13.983  70.716  1.00  0.00    -0.350 OA 
HETATM    2  H   UNL     1      -5.819  14.526  71.343  1.00  0.00     0.000 HD 
HETATM    3  C   UNL     1      -6.897  14.480  69.599  1.00  0.00    -0.142 A  
HETATM    4  C   UNL     1      -7.575  13.684  68.680  1.00  0.00    -0.115 A  
HETATM    5  C   UNL     1      -8.147  14.258  67.542  1.00  0.00    -0.200 A  
HETATM    6  O   UNL     1      -7.717  12.335  68.833  1.00  0.00    -0.281 OA 
HETATM    7  H   UNL     1      -8.180  11.792  68.206  1.00  0.00     0.000 HD 
HETATM    8  C   UNL     1      -8.030  15.633  67.310  1.00  0.00    -0.227 A  
HETATM    9  C   UNL     1      -6.816  15.854  69.403  1.00  0.00    -0.200 A  
HETATM   10  C   UNL     1      -7.382  16.432  68.265  1.00  0.00    -0.158 A  
ENDROOT
BRANCH   8  11
HETATM   11  C   UNL     1      -8.601  16.256  66.060  1.00  0.00    -0.246 C  
BRANCH  11  12
HETATM   12  C   UNL     1     -10.106  16.496  66.187  1.00  0.00    -0.348 C  
BRANCH  12  13
HETATM   13  N   UNL     1     -10.813  15.983  65.008  1.00  0.00    -0.550 NA 
HETATM   14  H   UNL     1     -10.654  16.562  64.182  1.00  0.00     0.000 HD 
BRANCH  13  15
HETATM   15  C   UNL     1     -10.444  14.589  64.783  1.00  0.00    -0.337 C  
BRANCH  15  16
HETATM   16  C   UNL     1     -11.630  13.671  65.061  1.00  0.00    -0.345 C  
BRANCH  16  17
HETATM   17  C   UNL     1     -11.733  13.415  66.562  1.00  0.00    -0.415 C  
BRANCH  17  18
HETATM   18  C   UNL     1     -10.727  12.368  67.008  1.00  0.00    -0.268 C  
BRANCH  18  19
HETATM   19  C   UNL     1     -11.423  11.212  67.725  1.00  0.00    -0.349 C  
BRANCH  19  20
HETATM   20  C   UNL     1     -10.684  10.921  69.024  1.00  0.00    -0.224 C  
BRANCH  20  21
HETATM   21  N   UNL     1      -9.711   9.846  68.844  1.00  0.00    -0.168 NA 
HETATM   22  H   UNL     1      -8.755  10.201  68.851  1.00  0.00     0.000 HD 
BRANCH  21  23
HETATM   23  C   UNL     1      -9.901   8.785  69.843  1.00  0.00    -0.184 C  
BRANCH  23  24
HETATM   24  C   UNL     1     -10.364   9.318  71.207  1.00  0.00    -0.397 C  
BRANCH  24  25
HETATM   25  C   UNL     1     -11.761   8.876  71.550  1.00  0.00    -0.394 A  
HETATM   26  C   UNL     1     -12.132   7.537  71.377  1.00  0.00    -0.354 A  
HETATM   27  C   UNL     1     -13.422   7.117  71.702  1.00  0.00    -0.397 A  
HETATM   28  C   UNL     1     -14.346   8.035  72.194  1.00  0.00    -0.442 A  
HETATM   29  C   UNL     1     -13.986   9.373  72.358  1.00  0.00    -0.354 A  
HETATM   30  C   UNL     1     -12.698   9.794  72.033  1.00  0.00    -0.463 A  
ENDBRANCH  24  25
ENDBRANCH  23  24
ENDBRANCH  21  23
ENDBRANCH  20  21
ENDBRANCH  19  20
ENDBRANCH  18  19
ENDBRANCH  17  18
ENDBRANCH  16  17
ENDBRANCH  15  16
ENDBRANCH  13  15
ENDBRANCH  12  13
ENDBRANCH  11  12
ENDBRANCH   8  11
TORSDOF 13
ENDMDL
MODEL      259
REMARK 921   NORMALIZED FREE ENERGY PREDICTED BY IDOCK:   -3.55 KCAL/MOL
REMARK 922        TOTAL FREE ENERGY PREDICTED BY IDOCK:   -9.01 KCAL/MOL
REMARK 923 INTER-LIGAND FREE ENERGY PREDICTED BY IDOCK:   -7.33 KCAL/MOL
REMARK 924 INTRA-LIGAND FREE ENERGY PREDICTED BY IDOCK:   -1.68 KCAL/MOL
REMARK 927      BINDING AFFINITY PREDICTED BY RF-SCORE:    0.00 PKD
ROOT
HETATM    1  O   UNL     1      -8.580  12.234  68.712  1.00  0.00    -0.354 OA 
HETATM    2  H   UNL     1      -7.882  12.661  69.193  1.00  0.00     0.000 HD 
HETATM    3  C   UNL     1      -8.445  11.008  68.119  1.00  0.00    -0.135 A  
HETATM    4  C   UNL     1      -9.469  10.382  67.413  1.00  0.00    -0.149 A  
HETATM    5  C   UNL     1      -9.269   9.112  66.866  1.00  0.00    -0.183 A  
HETATM    6  O   UNL     1     -10.693  10.955  67.222  1.00  0.00    -0.235 OA 
HETATM    7  H   UNL     1     -11.392  10.528  66.740  1.00  0.00     0.000 HD 
HETATM    8  C   UNL     1      -8.045   8.455  67.035  1.00  0.00    -0.104 A  
HETATM    9  C   UNL     1      -7.209  10.385  68.251  1.00  0.00    -0.083 A  
HETATM   10  C   UNL     1      -7.005   9.114  67.709  1.00  0.00    -0.078 A  
ENDROOT
BRANCH   8  11
HETATM   11  C   UNL     1      -7.835   7.064  66.490  1.00  0.00    -0.106 C  
BRANCH  11  12
HETATM   12  C   UNL     1      -7.433   6.082  67.591  1.00  0.00    -0.078 C  
BRANCH  12  13
HETATM   13  N   UNL     1      -8.568   5.808  68.480  1.00  0.00    -0.109 NA 
HETATM   14  H   UNL     1      -8.863   4.833  68.438  1.00  0.00     0.000 HD 
BRANCH  13  15
HETATM   15  C   UNL     1      -8.238   6.225  69.840  1.00  0.00    -0.121 C  
BRANCH  15  16
HETATM   16  C   UNL     1      -9.411   5.963  70.778  1.00  0.00    -0.192 C  
BRANCH  16  17
HETATM   17  C   UNL     1     -10.681   6.568  70.186  1.00  0.00    -0.305 C  
BRANCH  17  18
HETATM   18  C   UNL     1     -10.616   8.086  70.192  1.00  0.00    -0.237 C  
BRANCH  18  19
HETATM   19  C   UNL     1     -11.050   8.646  71.546  1.00  0.00    -0.358 C  
BRANCH  19  20
HETATM   20  C   UNL     1     -11.837   9.929  71.320  1.00  0.00    -0.395 C  
BRANCH  20  21
HETATM   21  N   UNL     1     -11.113  10.840  70.437  1.00  0.00    -0.462 NA 
HETATM   22  H   UNL     1     -10.741  10.355  69.621  1.00  0.00     0.000 HD 
BRANCH  21  23
HETATM   23  C   UNL     1     -11.952  11.984  70.049  1.00  0.00    -0.324 C  
BRANCH  23  24
HETATM   24  C   UNL     1     -12.965  12.382  71.134  1.00  0.00    -0.232 C  
BRANCH  24  25
HETATM   25  C   UNL     1     -12.704  13.759  71.682  1.00  0.00    -0.409 A  
HETATM   26  C   UNL     1     -11.796  14.606  71.035  1.00  0.00    -0.379 A  
HETATM   27  C   UNL     1     -11.556  15.889  71.530  1.00  0.00    -0.537 A  
HETATM   28  C   UNL     1     -12.218  16.324  72.675  1.00  0.00    -0.581 A  
HETATM   29  C   UNL     1     -13.114  15.480  73.330  1.00  0.00    -0.651 A  
HETATM   30  C   UNL     1     -13.355  14.199  72.837  1.00  0.00    -0.532 A  
ENDBRANCH  24  25
ENDBRANCH  23  24
ENDBRANCH  21  23
ENDBRANCH  20  21
ENDBRANCH  19  20
ENDBRANCH  18  19
ENDBRANCH  17  18
ENDBRANCH  16  17
ENDBRANCH  15  16
ENDBRANCH  13  15
ENDBRANCH  12  13
ENDBRANCH  11  12
ENDBRANCH   8  11
TORSDOF 13
ENDMDL
MODEL      260
REMARK 921   NORMALIZED FREE ENERGY PREDICTED BY IDOCK:   -3.55 KCAL/MOL
REMARK 922        TOTAL FREE ENERGY PREDICTED BY IDOCK:   -9.01 KCAL/MOL
REMARK 923 INTER-LIGAND FREE ENERGY PREDICTED BY IDOCK:   -8.23 KCAL/MOL
REMARK 924 INTRA-LIGAND FREE ENERGY PREDICTED BY IDOCK:   -0.78 KCAL/MOL
REMARK 927      BINDING AFFINITY PREDICTED BY RF-SCORE:    0.00 PKD
ROOT
HETATM    1  O   UNL     1      -7.272   7.457  68.880  1.00  0.00    -0.084 OA 
HETATM    2  H   UNL     1      -6.635   7.198  69.536  1.00  0.00     0.000 HD 
HETATM    3  C   UNL     1      -8.411   8.158  69.172  1.00  0.00    -0.131 A  
HETATM    4  C   UNL     1      -9.344   8.538  68.212  1.00  0.00    -0.137 A  
HETATM    5  C   UNL     1     -10.465   9.286  68.580  1.00  0.00    -0.240 A  
HETATM    6  O   UNL     1      -9.221   8.212  66.892  1.00  0.00    -0.144 OA 
HETATM    7  H   UNL     1      -9.857   8.470  66.236  1.00  0.00     0.000 HD 
HETATM    8  C   UNL     1     -10.651   9.670  69.913  1.00  0.00    -0.281 A  
HETATM    9  C   UNL     1      -8.610   8.493  70.507  1.00  0.00    -0.155 A  
HETATM   10  C   UNL     1      -9.727   9.244  70.880  1.00  0.00    -0.346 A  
ENDROOT
BRANCH   8  11
HETATM   11  C   UNL     1     -11.832  10.519  70.313  1.00  0.00    -0.418 C  
BRANCH  11  12
HETATM   12  C   UNL     1     -12.612   9.891  71.469  1.00  0.00    -0.416 C  
BRANCH  12  13
HETATM   13  N   UNL     1     -13.377  10.913  72.192  1.00  0.00    -0.580 NA 
HETATM   14  H   UNL     1     -13.179  10.905  73.193  1.00  0.00     0.000 HD 
BRANCH  13  15
HETATM   15  C   UNL     1     -13.135  12.223  71.593  1.00  0.00    -0.306 C  
BRANCH  15  16
HETATM   16  C   UNL     1     -13.906  13.304  72.344  1.00  0.00    -0.630 C  
BRANCH  16  17
HETATM   17  C   UNL     1     -13.833  14.614  71.564  1.00  0.00    -0.508 C  
BRANCH  17  18
HETATM   18  C   UNL     1     -12.840  15.572  72.198  1.00  0.00    -0.492 C  
BRANCH  18  19
HETATM   19  C   UNL     1     -11.740  15.953  71.208  1.00  0.00    -0.504 C  
BRANCH  19  20
HETATM   20  C   UNL     1     -12.215  15.634  69.797  1.00  0.00    -0.270 C  
BRANCH  20  21
HETATM   21  N   UNL     1     -11.249  16.096  68.802  1.00  0.00    -0.352 NA 
HETATM   22  H   UNL     1     -11.713  16.445  67.964  1.00  0.00     0.000 HD 
BRANCH  21  23
HETATM   23  C   UNL     1     -10.337  17.097  69.373  1.00  0.00    -0.195 C  
BRANCH  23  24
HETATM   24  C   UNL     1      -9.840  18.118  68.338  1.00  0.00    -0.380 C  
BRANCH  24  25
HETATM   25  C   UNL     1      -8.372  18.414  68.486  1.00  0.00    -0.344 A  
HETATM   26  C   UNL     1      -7.919  19.738  68.434  1.00  0.00    -0.315 A  
HETATM   27  C   UNL     1      -6.561  20.023  68.581  1.00  0.00    -0.341 A  
HETATM   28  C   UNL     1      -5.652  18.985  68.774  1.00  0.00    -0.207 A  
HETATM   29  C   UNL     1      -6.096  17.663  68.815  1.00  0.00    -0.189 A  
HETATM   30  C   UNL     1      -7.453  17.378  68.668  1.00  0.00    -0.263 A  
ENDBRANCH  24  25
ENDBRANCH  23  24
ENDBRANCH  21  23
ENDBRANCH  20  21
ENDBRANCH  19  20
ENDBRANCH  18  19
ENDBRANCH  17  18
ENDBRANCH  16  17
ENDBRANCH  15  16
ENDBRANCH  13  15
ENDBRANCH  12  13
ENDBRANCH  11  12
ENDBRANCH   8  11
TORSDOF 13
ENDMDL
MODEL      261
REMARK 921   NORMALIZED FREE ENERGY PREDICTED BY IDOCK:   -3.55 KCAL/MOL
REMARK 922        TOTAL FREE ENERGY PREDICTED BY IDOCK:   -9.00 KCAL/MOL
REMARK 923 INTER-LIGAND FREE ENERGY PREDICTED BY IDOCK:   -7.17 KCAL/MOL
REMARK 924 INTRA-LIGAND FREE ENERGY PREDICTED BY IDOCK:   -1.84 KCAL/MOL
REMARK 927      BINDING AFFINITY PREDICTED BY RF-SCORE:    0.00 PKD
ROOT
HETATM    1  O   UNL     1     -12.196  14.810  68.765  1.00  0.00    -0.549 OA 
HETATM    2  H   UNL     1     -12.431  14.764  69.684  1.00  0.00     0.000 HD 
HETATM    3  C   UNL     1     -11.399  15.791  68.239  1.00  0.00    -0.354 A  
HETATM    4  C   UNL     1     -11.055  15.858  66.893  1.00  0.00    -0.082 A  
HETATM    5  C   UNL     1     -10.205  16.868  66.435  1.00  0.00    -0.326 A  
HETATM    6  O   UNL     1     -11.513  14.965  65.967  1.00  0.00    -0.343 OA 
HETATM    7  H   UNL     1     -11.279  15.010  65.048  1.00  0.00     0.000 HD 
HETATM    8  C   UNL     1      -9.684  17.810  67.328  1.00  0.00    -0.285 A  
HETATM    9  C   UNL     1     -10.925  16.751  69.127  1.00  0.00    -0.223 A  
HETATM   10  C   UNL     1     -10.073  17.760  68.676  1.00  0.00    -0.384 A  
ENDROOT
BRANCH   8  11
HETATM   11  C   UNL     1      -8.727  18.876  66.853  1.00  0.00    -0.308 C  
BRANCH  11  12
HETATM   12  C   UNL     1      -7.286  18.560  67.256  1.00  0.00    -0.209 C  
BRANCH  12  13
HETATM   13  N   UNL     1      -7.157  18.508  68.717  1.00  0.00    -0.285 NA 
HETATM   14  H   UNL     1      -8.057  18.372  69.178  1.00  0.00     0.000 HD 
BRANCH  13  15
HETATM   15  C   UNL     1      -6.188  17.481  69.088  1.00  0.00    -0.226 C  
BRANCH  15  16
HETATM   16  C   UNL     1      -6.124  16.396  68.018  1.00  0.00    -0.128 C  
BRANCH  16  17
HETATM   17  C   UNL     1      -6.883  15.162  68.500  1.00  0.00    -0.108 C  
BRANCH  17  18
HETATM   18  C   UNL     1      -7.670  14.528  67.366  1.00  0.00    -0.215 C  
BRANCH  18  19
HETATM   19  C   UNL     1      -7.979  13.062  67.668  1.00  0.00    -0.169 C  
BRANCH  19  20
HETATM   20  C   UNL     1      -9.129  12.996  68.664  1.00  0.00     0.049 C  
BRANCH  20  21
HETATM   21  N   UNL     1      -9.579  11.619  68.854  1.00  0.00    -0.404 NA 
HETATM   22  H   UNL     1      -9.782  11.423  69.834  1.00  0.00     0.000 HD 
BRANCH  21  23
HETATM   23  C   UNL     1     -10.729  11.312  67.991  1.00  0.00    -0.203 C  
BRANCH  23  24
HETATM   24  C   UNL     1     -10.503  10.080  67.102  1.00  0.00    -0.305 C  
BRANCH  24  25
HETATM   25  C   UNL     1     -10.155  10.453  65.686  1.00  0.00    -0.337 A  
HETATM   26  C   UNL     1      -9.334   9.612  64.926  1.00  0.00    -0.306 A  
HETATM   27  C   UNL     1      -9.015   9.945  63.608  1.00  0.00    -0.278 A  
HETATM   28  C   UNL     1      -9.511  11.121  63.051  1.00  0.00    -0.386 A  
HETATM   29  C   UNL     1     -10.320  11.968  63.808  1.00  0.00    -0.457 A  
HETATM   30  C   UNL     1     -10.639  11.637  65.124  1.00  0.00    -0.343 A  
ENDBRANCH  24  25
ENDBRANCH  23  24
ENDBRANCH  21  23
ENDBRANCH  20  21
ENDBRANCH  19  20
ENDBRANCH  18  19
ENDBRANCH  17  18
ENDBRANCH  16  17
ENDBRANCH  15  16
ENDBRANCH  13  15
ENDBRANCH  12  13
ENDBRANCH  11  12
ENDBRANCH   8  11
TORSDOF 13
ENDMDL
MODEL      262
REMARK 921   NORMALIZED FREE ENERGY PREDICTED BY IDOCK:   -3.54 KCAL/MOL
REMARK 922        TOTAL FREE ENERGY PREDICTED BY IDOCK:   -8.99 KCAL/MOL
REMARK 923 INTER-LIGAND FREE ENERGY PREDICTED BY IDOCK:   -7.05 KCAL/MOL
REMARK 924 INTRA-LIGAND FREE ENERGY PREDICTED BY IDOCK:   -1.94 KCAL/MOL
REMARK 927      BINDING AFFINITY PREDICTED BY RF-SCORE:    0.00 PKD
ROOT
HETATM    1  O   UNL     1      -7.806  12.357  69.076  1.00  0.00    -0.328 OA 
HETATM    2  H   UNL     1      -7.777  12.526  70.011  1.00  0.00     0.000 HD 
HETATM    3  C   UNL     1      -7.431  11.167  68.514  1.00  0.00    -0.112 A  
HETATM    4  C   UNL     1      -7.474  10.919  67.146  1.00  0.00    -0.109 A  
HETATM    5  C   UNL     1      -7.110   9.665  66.648  1.00  0.00    -0.086 A  
HETATM    6  O   UNL     1      -7.864  11.859  66.236  1.00  0.00    -0.378 OA 
HETATM    7  H   UNL     1      -7.893  11.690  65.301  1.00  0.00     0.000 HD 
HETATM    8  C   UNL     1      -6.713   8.646  67.521  1.00  0.00    -0.066 A  
HETATM    9  C   UNL     1      -6.992  10.177  69.388  1.00  0.00    -0.076 A  
HETATM   10  C   UNL     1      -6.631   8.921  68.895  1.00  0.00    -0.052 A  
ENDROOT
BRANCH   8  11
HETATM   11  C   UNL     1      -6.365   7.275  66.999  1.00  0.00    -0.051 C  
BRANCH  11  12
HETATM   12  C   UNL     1      -7.460   6.255  67.317  1.00  0.00    -0.084 C  
BRANCH  12  13
HETATM   13  N   UNL     1      -8.122   5.807  66.086  1.00  0.00    -0.106 NA 
HETATM   14  H   UNL     1      -7.783   4.895  65.778  1.00  0.00     0.000 HD 
BRANCH  13  15
HETATM   15  C   UNL     1      -9.570   5.820  66.275  1.00  0.00    -0.134 C  
BRANCH  15  16
HETATM   16  C   UNL     1      -9.944   6.690  67.471  1.00  0.00    -0.171 C  
BRANCH  16  17
HETATM   17  C   UNL     1     -10.493   8.026  66.976  1.00  0.00    -0.410 C  
BRANCH  17  18
HETATM   18  C   UNL     1     -10.527   9.051  68.097  1.00  0.00    -0.257 C  
BRANCH  18  19
HETATM   19  C   UNL     1     -10.685   8.369  69.455  1.00  0.00    -0.181 C  
BRANCH  19  20
HETATM   20  C   UNL     1     -10.322   9.363  70.550  1.00  0.00    -0.281 C  
BRANCH  20  21
HETATM   21  N   UNL     1     -11.429   9.536  71.488  1.00  0.00    -0.391 NA 
HETATM   22  H   UNL     1     -11.116   9.955  72.364  1.00  0.00     0.000 HD 
BRANCH  21  23
HETATM   23  C   UNL     1     -12.523  10.307  70.881  1.00  0.00    -0.370 C  
BRANCH  23  24
HETATM   24  C   UNL     1     -13.269  11.192  71.892  1.00  0.00    -0.488 C  
BRANCH  24  25
HETATM   25  C   UNL     1     -13.160  12.655  71.559  1.00  0.00    -0.373 A  
HETATM   26  C   UNL     1     -12.263  13.081  70.573  1.00  0.00    -0.392 A  
HETATM   27  C   UNL     1     -12.163  14.436  70.251  1.00  0.00    -0.397 A  
HETATM   28  C   UNL     1     -12.955  15.367  70.919  1.00  0.00    -0.539 A  
HETATM   29  C   UNL     1     -13.841  14.949  71.911  1.00  0.00    -0.557 A  
HETATM   30  C   UNL     1     -13.942  13.597  72.233  1.00  0.00    -0.661 A  
ENDBRANCH  24  25
ENDBRANCH  23  24
ENDBRANCH  21  23
ENDBRANCH  20  21
ENDBRANCH  19  20
ENDBRANCH  18  19
ENDBRANCH  17  18
ENDBRANCH  16  17
ENDBRANCH  15  16
ENDBRANCH  13  15
ENDBRANCH  12  13
ENDBRANCH  11  12
ENDBRANCH   8  11
TORSDOF 13
ENDMDL
MODEL      263
REMARK 921   NORMALIZED FREE ENERGY PREDICTED BY IDOCK:   -3.53 KCAL/MOL
REMARK 922        TOTAL FREE ENERGY PREDICTED BY IDOCK:   -8.97 KCAL/MOL
REMARK 923 INTER-LIGAND FREE ENERGY PREDICTED BY IDOCK:   -6.09 KCAL/MOL
REMARK 924 INTRA-LIGAND FREE ENERGY PREDICTED BY IDOCK:   -2.88 KCAL/MOL
REMARK 927      BINDING AFFINITY PREDICTED BY RF-SCORE:    0.00 PKD
ROOT
HETATM    1  O   UNL     1      -8.473  12.789  68.754  1.00  0.00    -0.352 OA 
HETATM    2  H   UNL     1      -7.590  13.043  68.514  1.00  0.00     0.000 HD 
HETATM    3  C   UNL     1      -9.066  11.631  68.326  1.00  0.00    -0.187 A  
HETATM    4  C   UNL     1     -10.360  11.258  68.678  1.00  0.00    -0.201 A  
HETATM    5  C   UNL     1     -10.885  10.043  68.234  1.00  0.00    -0.286 A  
HETATM    6  O   UNL     1     -11.167  12.037  69.457  1.00  0.00    -0.386 OA 
HETATM    7  H   UNL     1     -12.051  11.783  69.697  1.00  0.00     0.000 HD 
HETATM    8  C   UNL     1     -10.111   9.185  67.444  1.00  0.00    -0.289 A  
HETATM    9  C   UNL     1      -8.304  10.809  67.503  1.00  0.00    -0.115 A  
HETATM   10  C   UNL     1      -8.823   9.591  67.059  1.00  0.00    -0.139 A  
ENDROOT
BRANCH   8  11
HETATM   11  C   UNL     1     -10.650   7.848  67.000  1.00  0.00    -0.381 C  
BRANCH  11  12
HETATM   12  C   UNL     1      -9.580   6.758  67.065  1.00  0.00    -0.152 C  
BRANCH  12  13
HETATM   13  N   UNL     1      -9.680   5.865  65.904  1.00  0.00    -0.370 NA 
HETATM   14  H   UNL     1      -8.974   6.073  65.198  1.00  0.00     0.000 HD 
BRANCH  13  15
HETATM   15  C   UNL     1      -9.623   4.475  66.348  1.00  0.00    -0.189 C  
BRANCH  15  16
HETATM   16  C   UNL     1     -10.027   4.366  67.815  1.00  0.00    -0.098 C  
BRANCH  16  17
HETATM   17  C   UNL     1      -9.098   3.386  68.526  1.00  0.00    -0.206 C  
BRANCH  17  18
HETATM   18  C   UNL     1      -9.320   3.416  70.029  1.00  0.00    -0.242 C  
BRANCH  18  19
HETATM   19  C   UNL     1      -8.119   4.030  70.747  1.00  0.00    -0.063 C  
BRANCH  19  20
HETATM   20  C   UNL     1      -7.140   4.559  69.707  1.00  0.00    -0.050 C  
BRANCH  20  21
HETATM   21  N   UNL     1      -7.066   6.017  69.751  1.00  0.00    -0.070 NA 
HETATM   22  H   UNL     1      -7.413   6.436  68.889  1.00  0.00     0.000 HD 
BRANCH  21  23
HETATM   23  C   UNL     1      -7.765   6.549  70.930  1.00  0.00    -0.101 C  
BRANCH  23  24
HETATM   24  C   UNL     1      -8.429   7.911  70.673  1.00  0.00    -0.125 C  
BRANCH  24  25
HETATM   25  C   UNL     1      -9.904   7.892  70.971  1.00  0.00    -0.189 A  
HETATM   26  C   UNL     1     -10.491   8.967  71.649  1.00  0.00    -0.426 A  
HETATM   27  C   UNL     1     -11.861   8.964  71.919  1.00  0.00    -0.440 A  
HETATM   28  C   UNL     1     -12.643   7.883  71.519  1.00  0.00    -0.343 A  
HETATM   29  C   UNL     1     -12.061   6.805  70.854  1.00  0.00    -0.421 A  
HETATM   30  C   UNL     1     -10.694   6.807  70.583  1.00  0.00    -0.273 A  
ENDBRANCH  24  25
ENDBRANCH  23  24
ENDBRANCH  21  23
ENDBRANCH  20  21
ENDBRANCH  19  20
ENDBRANCH  18  19
ENDBRANCH  17  18
ENDBRANCH  16  17
ENDBRANCH  15  16
ENDBRANCH  13  15
ENDBRANCH  12  13
ENDBRANCH  11  12
ENDBRANCH   8  11
TORSDOF 13
ENDMDL
MODEL      264
REMARK 921   NORMALIZED FREE ENERGY PREDICTED BY IDOCK:   -3.52 KCAL/MOL
REMARK 922        TOTAL FREE ENERGY PREDICTED BY IDOCK:   -8.95 KCAL/MOL
REMARK 923 INTER-LIGAND FREE ENERGY PREDICTED BY IDOCK:   -7.07 KCAL/MOL
REMARK 924 INTRA-LIGAND FREE ENERGY PREDICTED BY IDOCK:   -1.88 KCAL/MOL
REMARK 927      BINDING AFFINITY PREDICTED BY RF-SCORE:    0.00 PKD
ROOT
HETATM    1  O   UNL     1     -13.730  15.640  72.032  1.00  0.00    -0.476 OA 
HETATM    2  H   UNL     1     -14.209  15.725  72.848  1.00  0.00     0.000 HD 
HETATM    3  C   UNL     1     -13.247  14.449  71.563  1.00  0.00    -0.346 A  
HETATM    4  C   UNL     1     -12.544  14.324  70.368  1.00  0.00    -0.343 A  
HETATM    5  C   UNL     1     -12.114  13.068  69.935  1.00  0.00    -0.347 A  
HETATM    6  O   UNL     1     -12.245  15.392  69.572  1.00  0.00    -0.484 OA 
HETATM    7  H   UNL     1     -11.765  15.307  68.757  1.00  0.00     0.000 HD 
HETATM    8  C   UNL     1     -12.397  11.925  70.691  1.00  0.00    -0.405 A  
HETATM    9  C   UNL     1     -13.492  13.325  72.346  1.00  0.00    -0.670 A  
HETATM   10  C   UNL     1     -13.067  12.067  71.916  1.00  0.00    -0.475 A  
ENDROOT
BRANCH   8  11
HETATM   11  C   UNL     1     -11.980  10.558  70.208  1.00  0.00    -0.411 C  
BRANCH  11  12
HETATM   12  C   UNL     1     -10.650  10.123  70.826  1.00  0.00    -0.003 C  
BRANCH  12  13
HETATM   13  N   UNL     1      -9.816   9.439  69.831  1.00  0.00    -0.196 NA 
HETATM   14  H   UNL     1     -10.331   9.231  68.975  1.00  0.00     0.000 HD 
BRANCH  13  15
HETATM   15  C   UNL     1      -8.614  10.227  69.573  1.00  0.00    -0.138 C  
BRANCH  15  16
HETATM   16  C   UNL     1      -7.377   9.496  70.083  1.00  0.00    -0.124 C  
BRANCH  16  17
HETATM   17  C   UNL     1      -7.427   8.038  69.634  1.00  0.00    -0.091 C  
BRANCH  17  18
HETATM   18  C   UNL     1      -6.506   7.799  68.450  1.00  0.00    -0.053 C  
BRANCH  18  19
HETATM   19  C   UNL     1      -7.292   7.784  67.140  1.00  0.00    -0.091 C  
BRANCH  19  20
HETATM   20  C   UNL     1      -8.353   6.695  67.214  1.00  0.00    -0.120 C  
BRANCH  20  21
HETATM   21  N   UNL     1      -9.673   7.224  66.877  1.00  0.00    -0.182 NA 
HETATM   22  H   UNL     1      -9.821   7.247  65.868  1.00  0.00     0.000 HD 
BRANCH  21  23
HETATM   23  C   UNL     1     -10.736   6.476  67.563  1.00  0.00    -0.321 C  
BRANCH  23  24
HETATM   24  C   UNL     1     -10.219   5.645  68.747  1.00  0.00    -0.269 C  
BRANCH  24  25
HETATM   25  C   UNL     1     -10.868   6.036  70.047  1.00  0.00    -0.429 A  
HETATM   26  C   UNL     1     -12.098   6.705  70.039  1.00  0.00    -0.030 A  
HETATM   27  C   UNL     1     -12.712   7.062  71.241  1.00  0.00    -0.400 A  
HETATM   28  C   UNL     1     -12.094   6.757  72.451  1.00  0.00    -0.120 A  
HETATM   29  C   UNL     1     -10.864   6.101  72.465  1.00  0.00    -0.275 A  
HETATM   30  C   UNL     1     -10.250   5.744  71.266  1.00  0.00    -0.270 A  
ENDBRANCH  24  25
ENDBRANCH  23  24
ENDBRANCH  21  23
ENDBRANCH  20  21
ENDBRANCH  19  20
ENDBRANCH  18  19
ENDBRANCH  17  18
ENDBRANCH  16  17
ENDBRANCH  15  16
ENDBRANCH  13  15
ENDBRANCH  12  13
ENDBRANCH  11  12
ENDBRANCH   8  11
TORSDOF 13
ENDMDL
MODEL      265
REMARK 921   NORMALIZED FREE ENERGY PREDICTED BY IDOCK:   -3.51 KCAL/MOL
REMARK 922        TOTAL FREE ENERGY PREDICTED BY IDOCK:   -8.93 KCAL/MOL
REMARK 923 INTER-LIGAND FREE ENERGY PREDICTED BY IDOCK:   -8.06 KCAL/MOL
REMARK 924 INTRA-LIGAND FREE ENERGY PREDICTED BY IDOCK:   -0.88 KCAL/MOL
REMARK 927      BINDING AFFINITY PREDICTED BY RF-SCORE:    0.00 PKD
ROOT
HETATM    1  O   UNL     1      -8.012   7.043  70.026  1.00  0.00    -0.111 OA 
HETATM    2  H   UNL     1      -7.217   7.395  70.410  1.00  0.00     0.000 HD 
HETATM    3  C   UNL     1      -9.243   7.147  70.614  1.00  0.00    -0.158 A  
HETATM    4  C   UNL     1     -10.407   6.631  70.052  1.00  0.00    -0.199 A  
HETATM    5  C   UNL     1     -11.635   6.809  70.693  1.00  0.00    -0.422 A  
HETATM    6  O   UNL     1     -10.416   5.942  68.873  1.00  0.00    -0.205 OA 
HETATM    7  H   UNL     1     -11.210   5.590  68.489  1.00  0.00     0.000 HD 
HETATM    8  C   UNL     1     -11.706   7.518  71.898  1.00  0.00    -0.320 A  
HETATM    9  C   UNL     1      -9.295   7.811  71.835  1.00  0.00    -0.195 A  
HETATM   10  C   UNL     1     -10.521   7.995  72.479  1.00  0.00    -0.383 A  
ENDROOT
BRANCH   8  11
HETATM   11  C   UNL     1     -13.033   7.757  72.574  1.00  0.00     0.153 C  
BRANCH  11  12
HETATM   12  C   UNL     1     -13.839   8.847  71.865  1.00  0.00    -0.440 C  
BRANCH  12  13
HETATM   13  N   UNL     1     -13.234  10.165  72.087  1.00  0.00    -0.535 NA 
HETATM   14  H   UNL     1     -12.308  10.096  72.511  1.00  0.00     0.000 HD 
BRANCH  13  15
HETATM   15  C   UNL     1     -13.210  10.912  70.832  1.00  0.00    -0.006 C  
BRANCH  15  16
HETATM   16  C   UNL     1     -11.782  11.035  70.311  1.00  0.00    -0.445 C  
BRANCH  16  17
HETATM   17  C   UNL     1     -11.725  12.115  69.234  1.00  0.00    -0.386 C  
BRANCH  17  18
HETATM   18  C   UNL     1     -10.753  11.735  68.130  1.00  0.00    -0.247 C  
BRANCH  18  19
HETATM   19  C   UNL     1     -11.389  11.924  66.754  1.00  0.00    -0.393 C  
BRANCH  19  20
HETATM   20  C   UNL     1     -11.431  13.411  66.429  1.00  0.00    -0.329 C  
BRANCH  20  21
HETATM   21  N   UNL     1     -10.082  13.961  66.314  1.00  0.00    -0.292 NA 
HETATM   22  H   UNL     1      -9.514  13.424  65.660  1.00  0.00     0.000 HD 
BRANCH  21  23
HETATM   23  C   UNL     1     -10.119  15.386  65.955  1.00  0.00    -0.324 C  
BRANCH  23  24
HETATM   24  C   UNL     1      -8.873  16.156  66.422  1.00  0.00    -0.355 C  
BRANCH  24  25
HETATM   25  C   UNL     1      -9.185  17.583  66.781  1.00  0.00    -0.277 A  
HETATM   26  C   UNL     1     -10.467  17.926  67.227  1.00  0.00    -0.373 A  
HETATM   27  C   UNL     1     -10.762  19.246  67.572  1.00  0.00    -0.571 A  
HETATM   28  C   UNL     1      -9.778  20.225  67.467  1.00  0.00    -0.575 A  
HETATM   29  C   UNL     1      -8.503  19.892  67.012  1.00  0.00    -0.380 A  
HETATM   30  C   UNL     1      -8.207  18.574  66.667  1.00  0.00    -0.288 A  
ENDBRANCH  24  25
ENDBRANCH  23  24
ENDBRANCH  21  23
ENDBRANCH  20  21
ENDBRANCH  19  20
ENDBRANCH  18  19
ENDBRANCH  17  18
ENDBRANCH  16  17
ENDBRANCH  15  16
ENDBRANCH  13  15
ENDBRANCH  12  13
ENDBRANCH  11  12
ENDBRANCH   8  11
TORSDOF 13
ENDMDL
MODEL      266
REMARK 921   NORMALIZED FREE ENERGY PREDICTED BY IDOCK:   -3.50 KCAL/MOL
REMARK 922        TOTAL FREE ENERGY PREDICTED BY IDOCK:   -8.92 KCAL/MOL
REMARK 923 INTER-LIGAND FREE ENERGY PREDICTED BY IDOCK:   -8.14 KCAL/MOL
REMARK 924 INTRA-LIGAND FREE ENERGY PREDICTED BY IDOCK:   -0.79 KCAL/MOL
REMARK 927      BINDING AFFINITY PREDICTED BY RF-SCORE:    0.00 PKD
ROOT
HETATM    1  O   UNL     1     -11.642   4.457  64.986  1.00  0.00    -1.067 OA 
HETATM    2  H   UNL     1     -12.328   5.111  64.931  1.00  0.00     0.000 HD 
HETATM    3  C   UNL     1     -10.598   4.533  65.868  1.00  0.00    -0.152 A  
HETATM    4  C   UNL     1      -9.592   3.575  65.949  1.00  0.00    -0.098 A  
HETATM    5  C   UNL     1      -8.578   3.700  66.901  1.00  0.00    -0.112 A  
HETATM    6  O   UNL     1      -9.540   2.487  65.126  1.00  0.00    -0.325 OA 
HETATM    7  H   UNL     1      -8.853   1.833  65.180  1.00  0.00     0.000 HD 
HETATM    8  C   UNL     1      -8.574   4.782  67.790  1.00  0.00    -0.103 A  
HETATM    9  C   UNL     1     -10.577   5.637  66.715  1.00  0.00    -0.372 A  
HETATM   10  C   UNL     1      -9.568   5.765  67.671  1.00  0.00    -0.119 A  
ENDROOT
BRANCH   8  11
HETATM   11  C   UNL     1      -7.511   4.901  68.854  1.00  0.00    -0.065 C  
BRANCH  11  12
HETATM   12  C   UNL     1      -7.797   6.061  69.809  1.00  0.00    -0.101 C  
BRANCH  12  13
HETATM   13  N   UNL     1      -8.324   5.563  71.085  1.00  0.00    -0.123 NA 
HETATM   14  H   UNL     1      -7.599   5.124  71.655  1.00  0.00     0.000 HD 
BRANCH  13  15
HETATM   15  C   UNL     1      -9.001   6.645  71.793  1.00  0.00    -0.140 C  
BRANCH  15  16
HETATM   16  C   UNL     1     -10.308   7.003  71.095  1.00  0.00    -0.222 C  
BRANCH  16  17
HETATM   17  C   UNL     1     -11.429   7.093  72.128  1.00  0.00    -0.306 C  
BRANCH  17  18
HETATM   18  C   UNL     1     -12.123   8.442  72.065  1.00  0.00    -0.417 C  
BRANCH  18  19
HETATM   19  C   UNL     1     -11.313   9.435  71.232  1.00  0.00    -0.436 C  
BRANCH  19  20
HETATM   20  C   UNL     1     -12.237  10.101  70.222  1.00  0.00    -0.173 C  
BRANCH  20  21
HETATM   21  N   UNL     1     -12.460  11.504  70.560  1.00  0.00    -0.305 NA 
HETATM   22  H   UNL     1     -12.369  11.667  71.563  1.00  0.00     0.000 HD 
BRANCH  21  23
HETATM   23  C   UNL     1     -11.573  12.385  69.786  1.00  0.00    -0.232 C  
BRANCH  23  24
HETATM   24  C   UNL     1     -12.182  13.770  69.520  1.00  0.00    -0.344 C  
BRANCH  24  25
HETATM   25  C   UNL     1     -12.604  14.462  70.788  1.00  0.00    -0.426 A  
HETATM   26  C   UNL     1     -11.640  15.051  71.614  1.00  0.00    -0.416 A  
HETATM   27  C   UNL     1     -12.023  15.705  72.787  1.00  0.00    -0.590 A  
HETATM   28  C   UNL     1     -13.369  15.765  73.138  1.00  0.00    -0.685 A  
HETATM   29  C   UNL     1     -14.333  15.169  72.324  1.00  0.00    -0.559 A  
HETATM   30  C   UNL     1     -13.951  14.516  71.154  1.00  0.00    -0.248 A  
ENDBRANCH  24  25
ENDBRANCH  23  24
ENDBRANCH  21  23
ENDBRANCH  20  21
ENDBRANCH  19  20
ENDBRANCH  18  19
ENDBRANCH  17  18
ENDBRANCH  16  17
ENDBRANCH  15  16
ENDBRANCH  13  15
ENDBRANCH  12  13
ENDBRANCH  11  12
ENDBRANCH   8  11
TORSDOF 13
ENDMDL
MODEL      267
REMARK 921   NORMALIZED FREE ENERGY PREDICTED BY IDOCK:   -3.49 KCAL/MOL
REMARK 922        TOTAL FREE ENERGY PREDICTED BY IDOCK:   -8.90 KCAL/MOL
REMARK 923 INTER-LIGAND FREE ENERGY PREDICTED BY IDOCK:   -8.08 KCAL/MOL
REMARK 924 INTRA-LIGAND FREE ENERGY PREDICTED BY IDOCK:   -0.82 KCAL/MOL
REMARK 927      BINDING AFFINITY PREDICTED BY RF-SCORE:    0.00 PKD
ROOT
HETATM    1  O   UNL     1      -7.922  18.804  66.063  1.00  0.00    -0.422 OA 
HETATM    2  H   UNL     1      -7.076  18.598  65.683  1.00  0.00     0.000 HD 
HETATM    3  C   UNL     1      -8.835  17.852  66.428  1.00  0.00    -0.228 A  
HETATM    4  C   UNL     1     -10.074  18.153  66.986  1.00  0.00    -0.351 A  
HETATM    5  C   UNL     1     -10.940  17.126  67.368  1.00  0.00    -0.057 A  
HETATM    6  O   UNL     1     -10.502  19.434  67.188  1.00  0.00    -0.405 OA 
HETATM    7  H   UNL     1     -11.348  19.640  67.568  1.00  0.00     0.000 HD 
HETATM    8  C   UNL     1     -10.563  15.788  67.206  1.00  0.00    -0.313 A  
HETATM    9  C   UNL     1      -8.470  16.526  66.218  1.00  0.00    -0.363 A  
HETATM   10  C   UNL     1      -9.331  15.496  66.601  1.00  0.00    -0.291 A  
ENDROOT
BRANCH   8  11
HETATM   11  C   UNL     1     -11.470  14.671  67.660  1.00  0.00    -0.364 C  
BRANCH  11  12
HETATM   12  C   UNL     1     -11.172  13.366  66.919  1.00  0.00    -0.308 C  
BRANCH  12  13
HETATM   13  N   UNL     1     -12.302  12.989  66.062  1.00  0.00    -0.490 NA 
HETATM   14  H   UNL     1     -12.975  13.749  65.956  1.00  0.00     0.000 HD 
BRANCH  13  15
HETATM   15  C   UNL     1     -11.803  12.512  64.774  1.00  0.00    -0.383 C  
BRANCH  15  16
HETATM   16  C   UNL     1     -10.308  12.223  64.855  1.00  0.00    -0.319 C  
BRANCH  16  17
HETATM   17  C   UNL     1     -10.080  10.714  64.813  1.00  0.00    -0.412 C  
BRANCH  17  18
HETATM   18  C   UNL     1      -9.555  10.203  66.144  1.00  0.00    -0.256 C  
BRANCH  18  19
HETATM   19  C   UNL     1     -10.527   9.201  66.765  1.00  0.00    -0.266 C  
BRANCH  19  20
HETATM   20  C   UNL     1     -10.147   8.983  68.223  1.00  0.00    -0.192 C  
BRANCH  20  21
HETATM   21  N   UNL     1     -11.142   9.570  69.117  1.00  0.00    -0.425 NA 
HETATM   22  H   UNL     1     -11.997   9.815  68.618  1.00  0.00     0.000 HD 
BRANCH  21  23
HETATM   23  C   UNL     1     -11.418   8.685  70.258  1.00  0.00    -0.076 C  
BRANCH  23  24
HETATM   24  C   UNL     1     -10.816   9.197  71.576  1.00  0.00    -0.436 C  
BRANCH  24  25
HETATM   25  C   UNL     1     -10.416   8.075  72.496  1.00  0.00    -0.383 A  
HETATM   26  C   UNL     1      -9.186   8.124  73.162  1.00  0.00    -0.336 A  
HETATM   27  C   UNL     1      -8.812   7.093  74.026  1.00  0.00    -0.231 A  
HETATM   28  C   UNL     1      -9.664   6.009  74.219  1.00  0.00    -0.221 A  
HETATM   29  C   UNL     1     -10.886   5.949  73.549  1.00  0.00    -0.246 A  
HETATM   30  C   UNL     1     -11.260   6.978  72.687  1.00  0.00    -0.310 A  
ENDBRANCH  24  25
ENDBRANCH  23  24
ENDBRANCH  21  23
ENDBRANCH  20  21
ENDBRANCH  19  20
ENDBRANCH  18  19
ENDBRANCH  17  18
ENDBRANCH  16  17
ENDBRANCH  15  16
ENDBRANCH  13  15
ENDBRANCH  12  13
ENDBRANCH  11  12
ENDBRANCH   8  11
TORSDOF 13
ENDMDL
MODEL      268
REMARK 921   NORMALIZED FREE ENERGY PREDICTED BY IDOCK:   -3.49 KCAL/MOL
REMARK 922        TOTAL FREE ENERGY PREDICTED BY IDOCK:   -8.90 KCAL/MOL
REMARK 923 INTER-LIGAND FREE ENERGY PREDICTED BY IDOCK:   -7.21 KCAL/MOL
REMARK 924 INTRA-LIGAND FREE ENERGY PREDICTED BY IDOCK:   -1.69 KCAL/MOL
REMARK 927      BINDING AFFINITY PREDICTED BY RF-SCORE:    0.00 PKD
ROOT
HETATM    1  O   UNL     1     -11.634   6.691  67.087  1.00  0.00    -0.749 OA 
HETATM    2  H   UNL     1     -12.188   6.879  66.338  1.00  0.00     0.000 HD 
HETATM    3  C   UNL     1     -10.530   7.432  67.412  1.00  0.00    -0.296 A  
HETATM    4  C   UNL     1      -9.719   7.157  68.509  1.00  0.00    -0.143 A  
HETATM    5  C   UNL     1      -8.629   7.981  68.799  1.00  0.00    -0.128 A  
HETATM    6  O   UNL     1      -9.936   6.098  69.342  1.00  0.00    -0.154 OA 
HETATM    7  H   UNL     1      -9.382   5.910  70.091  1.00  0.00     0.000 HD 
HETATM    8  C   UNL     1      -8.352   9.095  67.999  1.00  0.00    -0.120 A  
HETATM    9  C   UNL     1     -10.236   8.508  66.581  1.00  0.00    -0.345 A  
HETATM   10  C   UNL     1      -9.150   9.337  66.869  1.00  0.00    -0.158 A  
ENDROOT
BRANCH   8  11
HETATM   11  C   UNL     1      -7.207  10.019  68.331  1.00  0.00    -0.073 C  
BRANCH  11  12
HETATM   12  C   UNL     1      -7.540  10.926  69.517  1.00  0.00    -0.050 C  
BRANCH  12  13
HETATM   13  N   UNL     1      -8.486  11.974  69.116  1.00  0.00    -0.247 NA 
HETATM   14  H   UNL     1      -8.767  12.560  69.903  1.00  0.00     0.000 HD 
BRANCH  13  15
HETATM   15  C   UNL     1      -7.916  12.757  68.023  1.00  0.00    -0.160 C  
BRANCH  15  16
HETATM   16  C   UNL     1      -8.110  14.248  68.277  1.00  0.00    -0.143 C  
BRANCH  16  17
HETATM   17  C   UNL     1      -7.359  15.047  67.215  1.00  0.00    -0.195 C  
BRANCH  17  18
HETATM   18  C   UNL     1      -7.243  16.509  67.612  1.00  0.00    -0.158 C  
BRANCH  18  19
HETATM   19  C   UNL     1      -8.058  17.396  66.672  1.00  0.00    -0.294 C  
BRANCH  19  20
HETATM   20  C   UNL     1      -9.384  17.734  67.338  1.00  0.00    -0.252 C  
BRANCH  20  21
HETATM   21  N   UNL     1     -10.497  17.560  66.408  1.00  0.00    -0.315 NA 
HETATM   22  H   UNL     1     -10.610  18.372  65.802  1.00  0.00     0.000 HD 
BRANCH  21  23
HETATM   23  C   UNL     1     -10.351  16.321  65.631  1.00  0.00    -0.363 C  
BRANCH  23  24
HETATM   24  C   UNL     1     -11.073  15.123  66.267  1.00  0.00    -0.309 C  
BRANCH  24  25
HETATM   25  C   UNL     1     -11.160  13.946  65.332  1.00  0.00    -0.310 A  
HETATM   26  C   UNL     1     -10.236  12.900  65.442  1.00  0.00    -0.301 A  
HETATM   27  C   UNL     1     -10.316  11.800  64.587  1.00  0.00    -0.336 A  
HETATM   28  C   UNL     1     -11.314  11.747  63.617  1.00  0.00    -0.525 A  
HETATM   29  C   UNL     1     -12.230  12.792  63.496  1.00  0.00    -0.613 A  
HETATM   30  C   UNL     1     -12.151  13.891  64.349  1.00  0.00    -0.477 A  
ENDBRANCH  24  25
ENDBRANCH  23  24
ENDBRANCH  21  23
ENDBRANCH  20  21
ENDBRANCH  19  20
ENDBRANCH  18  19
ENDBRANCH  17  18
ENDBRANCH  16  17
ENDBRANCH  15  16
ENDBRANCH  13  15
ENDBRANCH  12  13
ENDBRANCH  11  12
ENDBRANCH   8  11
TORSDOF 13
ENDMDL
MODEL      269
REMARK 921   NORMALIZED FREE ENERGY PREDICTED BY IDOCK:   -3.49 KCAL/MOL
REMARK 922        TOTAL FREE ENERGY PREDICTED BY IDOCK:   -8.89 KCAL/MOL
REMARK 923 INTER-LIGAND FREE ENERGY PREDICTED BY IDOCK:   -8.26 KCAL/MOL
REMARK 924 INTRA-LIGAND FREE ENERGY PREDICTED BY IDOCK:   -0.64 KCAL/MOL
REMARK 927      BINDING AFFINITY PREDICTED BY RF-SCORE:    0.00 PKD
ROOT
HETATM    1  O   UNL     1      -7.847  19.570  68.487  1.00  0.00    -0.332 OA 
HETATM    2  H   UNL     1      -8.069  20.464  68.254  1.00  0.00     0.000 HD 
HETATM    3  C   UNL     1      -8.549  18.481  68.046  1.00  0.00    -0.291 A  
HETATM    4  C   UNL     1      -8.224  17.171  68.386  1.00  0.00    -0.253 A  
HETATM    5  C   UNL     1      -8.965  16.107  67.866  1.00  0.00    -0.183 A  
HETATM    6  O   UNL     1      -7.191  16.859  69.221  1.00  0.00    -0.239 OA 
HETATM    7  H   UNL     1      -6.969  15.965  69.454  1.00  0.00     0.000 HD 
HETATM    8  C   UNL     1     -10.030  16.349  66.991  1.00  0.00    -0.261 A  
HETATM    9  C   UNL     1      -9.635  18.736  67.215  1.00  0.00    -0.333 A  
HETATM   10  C   UNL     1     -10.377  17.675  66.690  1.00  0.00    -0.333 A  
ENDROOT
BRANCH   8  11
HETATM   11  C   UNL     1     -10.807  15.205  66.386  1.00  0.00    -0.326 C  
BRANCH  11  12
HETATM   12  C   UNL     1     -10.639  15.151  64.867  1.00  0.00    -0.365 C  
BRANCH  12  13
HETATM   13  N   UNL     1     -10.050  13.870  64.457  1.00  0.00    -0.718 NA 
HETATM   14  H   UNL     1      -9.036  13.859  64.572  1.00  0.00     0.000 HD 
BRANCH  13  15
HETATM   15  C   UNL     1     -10.699  12.779  65.179  1.00  0.00    -0.294 C  
BRANCH  15  16
HETATM   16  C   UNL     1      -9.659  11.797  65.708  1.00  0.00    -0.253 C  
BRANCH  16  17
HETATM   17  C   UNL     1      -9.921  10.413  65.118  1.00  0.00    -0.390 C  
BRANCH  17  18
HETATM   18  C   UNL     1      -9.657   9.324  66.144  1.00  0.00    -0.327 C  
BRANCH  18  19
HETATM   19  C   UNL     1     -10.672   9.390  67.284  1.00  0.00    -0.258 C  
BRANCH  19  20
HETATM   20  C   UNL     1     -10.253   8.415  68.376  1.00  0.00    -0.206 C  
BRANCH  20  21
HETATM   21  N   UNL     1     -10.833   7.093  68.150  1.00  0.00    -0.422 NA 
HETATM   22  H   UNL     1     -10.142   6.437  67.788  1.00  0.00     0.000 HD 
BRANCH  21  23
HETATM   23  C   UNL     1     -11.480   6.582  69.367  1.00  0.00    -0.281 C  
BRANCH  23  24
HETATM   24  C   UNL     1     -10.640   5.521  70.094  1.00  0.00    -0.367 C  
BRANCH  24  25
HETATM   25  C   UNL     1     -10.543   5.783  71.573  1.00  0.00    -0.304 A  
HETATM   26  C   UNL     1     -10.519   4.710  72.471  1.00  0.00    -0.257 A  
HETATM   27  C   UNL     1     -10.418   4.944  73.844  1.00  0.00    -0.317 A  
HETATM   28  C   UNL     1     -10.349   6.251  74.320  1.00  0.00    -0.304 A  
HETATM   29  C   UNL     1     -10.384   7.324  73.431  1.00  0.00    -0.410 A  
HETATM   30  C   UNL     1     -10.485   7.092  72.060  1.00  0.00    -0.232 A  
ENDBRANCH  24  25
ENDBRANCH  23  24
ENDBRANCH  21  23
ENDBRANCH  20  21
ENDBRANCH  19  20
ENDBRANCH  18  19
ENDBRANCH  17  18
ENDBRANCH  16  17
ENDBRANCH  15  16
ENDBRANCH  13  15
ENDBRANCH  12  13
ENDBRANCH  11  12
ENDBRANCH   8  11
TORSDOF 13
ENDMDL
MODEL      270
REMARK 921   NORMALIZED FREE ENERGY PREDICTED BY IDOCK:   -3.47 KCAL/MOL
REMARK 922        TOTAL FREE ENERGY PREDICTED BY IDOCK:   -8.85 KCAL/MOL
REMARK 923 INTER-LIGAND FREE ENERGY PREDICTED BY IDOCK:   -7.85 KCAL/MOL
REMARK 924 INTRA-LIGAND FREE ENERGY PREDICTED BY IDOCK:   -1.00 KCAL/MOL
REMARK 927      BINDING AFFINITY PREDICTED BY RF-SCORE:    0.00 PKD
ROOT
HETATM    1  O   UNL     1      -5.256  16.185  70.372  1.00  0.00    -0.157 OA 
HETATM    2  H   UNL     1      -5.204  15.237  70.408  1.00  0.00     0.000 HD 
HETATM    3  C   UNL     1      -5.940  16.865  69.401  1.00  0.00    -0.206 A  
HETATM    4  C   UNL     1      -6.017  18.253  69.347  1.00  0.00    -0.247 A  
HETATM    5  C   UNL     1      -6.766  18.876  68.347  1.00  0.00    -0.270 A  
HETATM    6  O   UNL     1      -5.384  19.064  70.246  1.00  0.00    -0.203 OA 
HETATM    7  H   UNL     1      -5.436  20.011  70.209  1.00  0.00     0.000 HD 
HETATM    8  C   UNL     1      -7.455  18.110  67.399  1.00  0.00    -0.219 A  
HETATM    9  C   UNL     1      -6.581  16.094  68.436  1.00  0.00    -0.127 A  
HETATM   10  C   UNL     1      -7.334  16.713  67.436  1.00  0.00    -0.189 A  
ENDROOT
BRANCH   8  11
HETATM   11  C   UNL     1      -8.306  18.772  66.344  1.00  0.00    -0.294 C  
BRANCH  11  12
HETATM   12  C   UNL     1      -9.791  18.462  66.541  1.00  0.00    -0.359 C  
BRANCH  12  13
HETATM   13  N   UNL     1     -10.264  17.524  65.516  1.00  0.00    -0.612 NA 
HETATM   14  H   UNL     1      -9.546  17.322  64.819  1.00  0.00     0.000 HD 
BRANCH  13  15
HETATM   15  C   UNL     1     -10.766  16.311  66.156  1.00  0.00    -0.197 C  
BRANCH  15  16
HETATM   16  C   UNL     1     -10.190  15.072  65.478  1.00  0.00    -0.406 C  
BRANCH  16  17
HETATM   17  C   UNL     1     -11.090  13.872  65.762  1.00  0.00    -0.294 C  
BRANCH  17  18
HETATM   18  C   UNL     1     -11.560  13.873  67.207  1.00  0.00    -0.393 C  
BRANCH  18  19
HETATM   19  C   UNL     1     -10.521  13.225  68.120  1.00  0.00    -0.251 C  
BRANCH  19  20
HETATM   20  C   UNL     1     -10.749  11.720  68.139  1.00  0.00    -0.214 C  
BRANCH  20  21
HETATM   21  N   UNL     1     -12.138  11.405  68.467  1.00  0.00    -0.567 NA 
HETATM   22  H   UNL     1     -12.532  10.726  67.816  1.00  0.00     0.000 HD 
BRANCH  21  23
HETATM   23  C   UNL     1     -12.265  10.956  69.861  1.00  0.00    -0.336 C  
BRANCH  23  24
HETATM   24  C   UNL     1     -10.954  10.395  70.435  1.00  0.00    -0.320 C  
BRANCH  24  25
HETATM   25  C   UNL     1     -11.073   8.944  70.817  1.00  0.00    -0.312 A  
HETATM   26  C   UNL     1     -11.245   8.589  72.160  1.00  0.00    -0.432 A  
HETATM   27  C   UNL     1     -11.366   7.247  72.523  1.00  0.00    -0.338 A  
HETATM   28  C   UNL     1     -11.309   6.258  71.544  1.00  0.00    -0.352 A  
HETATM   29  C   UNL     1     -11.125   6.605  70.206  1.00  0.00    -0.379 A  
HETATM   30  C   UNL     1     -11.004   7.945  69.843  1.00  0.00    -0.179 A  
ENDBRANCH  24  25
ENDBRANCH  23  24
ENDBRANCH  21  23
ENDBRANCH  20  21
ENDBRANCH  19  20
ENDBRANCH  18  19
ENDBRANCH  17  18
ENDBRANCH  16  17
ENDBRANCH  15  16
ENDBRANCH  13  15
ENDBRANCH  12  13
ENDBRANCH  11  12
ENDBRANCH   8  11
TORSDOF 13
ENDMDL
MODEL      271
REMARK 921   NORMALIZED FREE ENERGY PREDICTED BY IDOCK:   -3.46 KCAL/MOL
REMARK 922        TOTAL FREE ENERGY PREDICTED BY IDOCK:   -8.85 KCAL/MOL
REMARK 923 INTER-LIGAND FREE ENERGY PREDICTED BY IDOCK:   -7.39 KCAL/MOL
REMARK 924 INTRA-LIGAND FREE ENERGY PREDICTED BY IDOCK:   -1.46 KCAL/MOL
REMARK 927      BINDING AFFINITY PREDICTED BY RF-SCORE:    0.00 PKD
ROOT
HETATM    1  O   UNL     1      -8.077   8.370  63.966  1.00  0.00    -0.150 OA 
HETATM    2  H   UNL     1      -7.559   8.801  63.297  1.00  0.00     0.000 HD 
HETATM    3  C   UNL     1      -8.491   8.991  65.114  1.00  0.00    -0.167 A  
HETATM    4  C   UNL     1      -9.251   8.360  66.095  1.00  0.00    -0.205 A  
HETATM    5  C   UNL     1      -9.669   9.069  67.223  1.00  0.00    -0.232 A  
HETATM    6  O   UNL     1      -9.622   7.048  66.013  1.00  0.00    -0.397 OA 
HETATM    7  H   UNL     1     -10.140   6.617  66.682  1.00  0.00     0.000 HD 
HETATM    8  C   UNL     1      -9.340  10.422  67.369  1.00  0.00    -0.162 A  
HETATM    9  C   UNL     1      -8.118  10.321  65.271  1.00  0.00    -0.151 A  
HETATM   10  C   UNL     1      -8.536  11.036  66.396  1.00  0.00    -0.164 A  
ENDROOT
BRANCH   8  11
HETATM   11  C   UNL     1      -9.827  11.210  68.559  1.00  0.00    -0.199 C  
BRANCH  11  12
HETATM   12  C   UNL     1     -11.310  10.955  68.835  1.00  0.00    -0.288 C  
BRANCH  12  13
HETATM   13  N   UNL     1     -12.132  11.422  67.713  1.00  0.00    -0.564 NA 
HETATM   14  H   UNL     1     -13.129  11.298  67.889  1.00  0.00     0.000 HD 
BRANCH  13  15
HETATM   15  C   UNL     1     -11.797  12.809  67.402  1.00  0.00    -0.342 C  
BRANCH  15  16
HETATM   16  C   UNL     1     -11.876  13.053  65.899  1.00  0.00    -0.468 C  
BRANCH  16  17
HETATM   17  C   UNL     1     -11.516  14.506  65.601  1.00  0.00    -0.341 C  
BRANCH  17  18
HETATM   18  C   UNL     1     -10.012  14.681  65.475  1.00  0.00    -0.384 C  
BRANCH  18  19
HETATM   19  C   UNL     1      -9.518  15.818  66.368  1.00  0.00    -0.326 C  
BRANCH  19  20
HETATM   20  C   UNL     1      -9.051  15.237  67.695  1.00  0.00    -0.183 C  
BRANCH  20  21
HETATM   21  N   UNL     1      -7.623  15.468  67.896  1.00  0.00    -0.125 NA 
HETATM   22  H   UNL     1      -7.223  16.022  67.139  1.00  0.00     0.000 HD 
BRANCH  21  23
HETATM   23  C   UNL     1      -7.363  16.077  69.208  1.00  0.00    -0.231 C  
BRANCH  23  24
HETATM   24  C   UNL     1      -6.738  17.477  69.109  1.00  0.00    -0.243 C  
BRANCH  24  25
HETATM   25  C   UNL     1      -7.510  18.384  68.189  1.00  0.00    -0.279 A  
HETATM   26  C   UNL     1      -7.046  18.617  66.889  1.00  0.00    -0.218 A  
HETATM   27  C   UNL     1      -7.762  19.448  66.026  1.00  0.00    -0.310 A  
HETATM   28  C   UNL     1      -8.939  20.052  66.463  1.00  0.00    -0.431 A  
HETATM   29  C   UNL     1      -9.399  19.832  67.760  1.00  0.00    -0.443 A  
HETATM   30  C   UNL     1      -8.685  19.003  68.623  1.00  0.00    -0.387 A  
ENDBRANCH  24  25
ENDBRANCH  23  24
ENDBRANCH  21  23
ENDBRANCH  20  21
ENDBRANCH  19  20
ENDBRANCH  18  19
ENDBRANCH  17  18
ENDBRANCH  16  17
ENDBRANCH  15  16
ENDBRANCH  13  15
ENDBRANCH  12  13
ENDBRANCH  11  12
ENDBRANCH   8  11
TORSDOF 13
ENDMDL
MODEL      272
REMARK 921   NORMALIZED FREE ENERGY PREDICTED BY IDOCK:   -3.46 KCAL/MOL
REMARK 922        TOTAL FREE ENERGY PREDICTED BY IDOCK:   -8.84 KCAL/MOL
REMARK 923 INTER-LIGAND FREE ENERGY PREDICTED BY IDOCK:   -5.52 KCAL/MOL
REMARK 924 INTRA-LIGAND FREE ENERGY PREDICTED BY IDOCK:   -3.33 KCAL/MOL
REMARK 927      BINDING AFFINITY PREDICTED BY RF-SCORE:    0.00 PKD
ROOT
HETATM    1  O   UNL     1      -9.420   4.789  66.630  1.00  0.00    -0.134 OA 
HETATM    2  H   UNL     1      -8.762   4.118  66.494  1.00  0.00     0.000 HD 
HETATM    3  C   UNL     1      -9.961   5.076  67.854  1.00  0.00    -0.138 A  
HETATM    4  C   UNL     1     -10.925   6.061  68.054  1.00  0.00    -0.245 A  
HETATM    5  C   UNL     1     -11.404   6.323  69.339  1.00  0.00    -0.448 A  
HETATM    6  O   UNL     1     -11.442   6.807  67.033  1.00  0.00    -0.735 OA 
HETATM    7  H   UNL     1     -12.099   7.479  67.169  1.00  0.00     0.000 HD 
HETATM    8  C   UNL     1     -10.910   5.609  70.436  1.00  0.00    -0.326 A  
HETATM    9  C   UNL     1      -9.498   4.327  68.931  1.00  0.00    -0.236 A  
HETATM   10  C   UNL     1      -9.972   4.588  70.218  1.00  0.00    -0.288 A  
ENDROOT
BRANCH   8  11
HETATM   11  C   UNL     1     -11.385   5.918  71.835  1.00  0.00    -0.307 C  
BRANCH  11  12
HETATM   12  C   UNL     1     -12.349   7.106  71.853  1.00  0.00    -0.317 C  
BRANCH  12  13
HETATM   13  N   UNL     1     -11.749   8.247  72.554  1.00  0.00    -0.397 NA 
HETATM   14  H   UNL     1     -10.863   8.004  72.998  1.00  0.00     0.000 HD 
BRANCH  13  15
HETATM   15  C   UNL     1     -11.612   9.372  71.633  1.00  0.00    -0.396 C  
BRANCH  15  16
HETATM   16  C   UNL     1     -10.190   9.447  71.089  1.00  0.00    -0.361 C  
BRANCH  16  17
HETATM   17  C   UNL     1     -10.232   9.788  69.602  1.00  0.00    -0.254 C  
BRANCH  17  18
HETATM   18  C   UNL     1      -8.830   9.941  69.037  1.00  0.00    -0.156 C  
BRANCH  18  19
HETATM   19  C   UNL     1      -8.531   8.847  68.014  1.00  0.00    -0.126 C  
BRANCH  19  20
HETATM   20  C   UNL     1      -7.048   8.509  68.071  1.00  0.00    -0.086 C  
BRANCH  20  21
HETATM   21  N   UNL     1      -6.434   9.047  69.282  1.00  0.00    -0.045 NA 
HETATM   22  H   UNL     1      -7.118   9.522  69.870  1.00  0.00     0.000 HD 
BRANCH  21  23
HETATM   23  C   UNL     1      -5.717   7.999  70.024  1.00  0.00    -0.023 C  
BRANCH  23  24
HETATM   24  C   UNL     1      -6.331   6.603  69.840  1.00  0.00    -0.039 C  
BRANCH  24  25
HETATM   25  C   UNL     1      -6.878   6.045  71.126  1.00  0.00    -0.066 A  
HETATM   26  C   UNL     1      -6.659   4.701  71.450  1.00  0.00    -0.030 A  
HETATM   27  C   UNL     1      -7.153   4.177  72.646  1.00  0.00    -0.061 A  
HETATM   28  C   UNL     1      -7.872   4.994  73.515  1.00  0.00    -0.099 A  
HETATM   29  C   UNL     1      -8.102   6.331  73.191  1.00  0.00    -0.110 A  
HETATM   30  C   UNL     1      -7.609   6.855  71.998  1.00  0.00    -0.093 A  
ENDBRANCH  24  25
ENDBRANCH  23  24
ENDBRANCH  21  23
ENDBRANCH  20  21
ENDBRANCH  19  20
ENDBRANCH  18  19
ENDBRANCH  17  18
ENDBRANCH  16  17
ENDBRANCH  15  16
ENDBRANCH  13  15
ENDBRANCH  12  13
ENDBRANCH  11  12
ENDBRANCH   8  11
TORSDOF 13
ENDMDL
MODEL      273
REMARK 921   NORMALIZED FREE ENERGY PREDICTED BY IDOCK:   -3.46 KCAL/MOL
REMARK 922        TOTAL FREE ENERGY PREDICTED BY IDOCK:   -8.84 KCAL/MOL
REMARK 923 INTER-LIGAND FREE ENERGY PREDICTED BY IDOCK:   -8.02 KCAL/MOL
REMARK 924 INTRA-LIGAND FREE ENERGY PREDICTED BY IDOCK:   -0.81 KCAL/MOL
REMARK 927      BINDING AFFINITY PREDICTED BY RF-SCORE:    0.00 PKD
ROOT
HETATM    1  O   UNL     1     -10.694  19.481  68.938  1.00  0.00    -0.360 OA 
HETATM    2  H   UNL     1     -10.509  20.299  68.491  1.00  0.00     0.000 HD 
HETATM    3  C   UNL     1     -10.361  18.254  68.429  1.00  0.00    -0.343 A  
HETATM    4  C   UNL     1     -10.630  17.056  69.083  1.00  0.00    -0.303 A  
HETATM    5  C   UNL     1     -10.227  15.843  68.519  1.00  0.00    -0.226 A  
HETATM    6  O   UNL     1     -11.284  16.997  70.280  1.00  0.00    -0.344 OA 
HETATM    7  H   UNL     1     -11.468  16.179  70.727  1.00  0.00     0.000 HD 
HETATM    8  C   UNL     1      -9.538  15.825  67.301  1.00  0.00    -0.220 A  
HETATM    9  C   UNL     1      -9.720  18.245  67.195  1.00  0.00    -0.307 A  
HETATM   10  C   UNL     1      -9.312  17.035  66.629  1.00  0.00    -0.274 A  
ENDROOT
BRANCH   8  11
HETATM   11  C   UNL     1      -9.056  14.524  66.708  1.00  0.00    -0.283 C  
BRANCH  11  12
HETATM   12  C   UNL     1     -10.127  13.873  65.830  1.00  0.00    -0.317 C  
BRANCH  12  13
HETATM   13  N   UNL     1     -11.415  14.556  65.996  1.00  0.00    -0.345 NA 
HETATM   14  H   UNL     1     -11.704  15.043  65.147  1.00  0.00     0.000 HD 
BRANCH  13  15
HETATM   15  C   UNL     1     -12.422  13.601  66.452  1.00  0.00    -0.324 C  
BRANCH  15  16
HETATM   16  C   UNL     1     -11.767  12.277  66.832  1.00  0.00    -0.404 C  
BRANCH  16  17
HETATM   17  C   UNL     1     -11.988  12.009  68.318  1.00  0.00    -0.244 C  
BRANCH  17  18
HETATM   18  C   UNL     1     -10.688  11.625  69.004  1.00  0.00    -0.217 C  
BRANCH  18  19
HETATM   19  C   UNL     1     -10.768  10.208  69.571  1.00  0.00    -0.277 C  
BRANCH  19  20
HETATM   20  C   UNL     1     -11.685  10.215  70.787  1.00  0.00    -0.357 C  
BRANCH  20  21
HETATM   21  N   UNL     1     -11.155   9.361  71.848  1.00  0.00    -0.267 NA 
HETATM   22  H   UNL     1     -10.789   9.912  72.624  1.00  0.00     0.000 HD 
BRANCH  21  23
HETATM   23  C   UNL     1     -12.161   8.390  72.300  1.00  0.00    -0.387 C  
BRANCH  23  24
HETATM   24  C   UNL     1     -12.538   7.365  71.219  1.00  0.00    -0.376 C  
BRANCH  24  25
HETATM   25  C   UNL     1     -11.392   6.455  70.871  1.00  0.00    -0.398 A  
HETATM   26  C   UNL     1     -10.635   5.864  71.890  1.00  0.00    -0.280 A  
HETATM   27  C   UNL     1      -9.577   5.010  71.576  1.00  0.00    -0.213 A  
HETATM   28  C   UNL     1      -9.270   4.750  70.242  1.00  0.00    -0.191 A  
HETATM   29  C   UNL     1     -10.012   5.345  69.223  1.00  0.00    -0.277 A  
HETATM   30  C   UNL     1     -11.069   6.198  69.536  1.00  0.00    -0.490 A  
ENDBRANCH  24  25
ENDBRANCH  23  24
ENDBRANCH  21  23
ENDBRANCH  20  21
ENDBRANCH  19  20
ENDBRANCH  18  19
ENDBRANCH  17  18
ENDBRANCH  16  17
ENDBRANCH  15  16
ENDBRANCH  13  15
ENDBRANCH  12  13
ENDBRANCH  11  12
ENDBRANCH   8  11
TORSDOF 13
ENDMDL
MODEL      274
REMARK 921   NORMALIZED FREE ENERGY PREDICTED BY IDOCK:   -3.46 KCAL/MOL
REMARK 922        TOTAL FREE ENERGY PREDICTED BY IDOCK:   -8.84 KCAL/MOL
REMARK 923 INTER-LIGAND FREE ENERGY PREDICTED BY IDOCK:   -8.06 KCAL/MOL
REMARK 924 INTRA-LIGAND FREE ENERGY PREDICTED BY IDOCK:   -0.78 KCAL/MOL
REMARK 927      BINDING AFFINITY PREDICTED BY RF-SCORE:    0.00 PKD
ROOT
HETATM    1  O   UNL     1      -7.758   3.329  72.110  1.00  0.00    -0.055 OA 
HETATM    2  H   UNL     1      -7.456   3.293  73.010  1.00  0.00     0.000 HD 
HETATM    3  C   UNL     1      -8.796   4.118  71.695  1.00  0.00    -0.113 A  
HETATM    4  C   UNL     1      -9.238   4.172  70.377  1.00  0.00    -0.126 A  
HETATM    5  C   UNL     1     -10.281   5.031  70.021  1.00  0.00    -0.339 A  
HETATM    6  O   UNL     1      -8.693   3.411  69.383  1.00  0.00    -0.066 OA 
HETATM    7  H   UNL     1      -8.995   3.448  68.483  1.00  0.00     0.000 HD 
HETATM    8  C   UNL     1     -10.879   5.852  70.983  1.00  0.00    -0.339 A  
HETATM    9  C   UNL     1      -9.415   4.895  72.669  1.00  0.00    -0.159 A  
HETATM   10  C   UNL     1     -10.456   5.757  72.318  1.00  0.00    -0.253 A  
ENDROOT
BRANCH   8  11
HETATM   11  C   UNL     1     -11.973   6.818  70.600  1.00  0.00    -0.418 C  
BRANCH  11  12
HETATM   12  C   UNL     1     -11.462   8.259  70.555  1.00  0.00    -0.175 C  
BRANCH  12  13
HETATM   13  N   UNL     1     -12.583   9.202  70.464  1.00  0.00    -0.410 NA 
HETATM   14  H   UNL     1     -13.344   8.958  71.099  1.00  0.00     0.000 HD 
BRANCH  13  15
HETATM   15  C   UNL     1     -12.099  10.562  70.683  1.00  0.00    -0.356 C  
BRANCH  15  16
HETATM   16  C   UNL     1     -11.083  10.946  69.612  1.00  0.00    -0.328 C  
BRANCH  16  17
HETATM   17  C   UNL     1     -11.812  11.252  68.307  1.00  0.00    -0.299 C  
BRANCH  17  18
HETATM   18  C   UNL     1     -11.774  12.739  67.996  1.00  0.00    -0.405 C  
BRANCH  18  19
HETATM   19  C   UNL     1     -11.992  12.991  66.505  1.00  0.00    -0.457 C  
BRANCH  19  20
HETATM   20  C   UNL     1     -10.671  12.802  65.773  1.00  0.00    -0.272 C  
BRANCH  20  21
HETATM   21  N   UNL     1     -10.436  13.889  64.826  1.00  0.00    -0.428 NA 
HETATM   22  H   UNL     1     -11.286  14.135  64.319  1.00  0.00     0.000 HD 
BRANCH  21  23
HETATM   23  C   UNL     1      -9.848  15.059  65.494  1.00  0.00    -0.317 C  
BRANCH  23  24
HETATM   24  C   UNL     1     -10.709  16.324  65.364  1.00  0.00    -0.342 C  
BRANCH  24  25
HETATM   25  C   UNL     1     -10.516  17.269  66.519  1.00  0.00    -0.260 A  
HETATM   26  C   UNL     1     -10.478  16.773  67.827  1.00  0.00    -0.335 A  
HETATM   27  C   UNL     1     -10.288  17.641  68.903  1.00  0.00    -0.323 A  
HETATM   28  C   UNL     1     -10.143  19.007  68.674  1.00  0.00    -0.449 A  
HETATM   29  C   UNL     1     -10.191  19.508  67.373  1.00  0.00    -0.550 A  
HETATM   30  C   UNL     1     -10.381  18.642  66.298  1.00  0.00    -0.483 A  
ENDBRANCH  24  25
ENDBRANCH  23  24
ENDBRANCH  21  23
ENDBRANCH  20  21
ENDBRANCH  19  20
ENDBRANCH  18  19
ENDBRANCH  17  18
ENDBRANCH  16  17
ENDBRANCH  15  16
ENDBRANCH  13  15
ENDBRANCH  12  13
ENDBRANCH  11  12
ENDBRANCH   8  11
TORSDOF 13
ENDMDL
MODEL      275
REMARK 921   NORMALIZED FREE ENERGY PREDICTED BY IDOCK:   -3.45 KCAL/MOL
REMARK 922        TOTAL FREE ENERGY PREDICTED BY IDOCK:   -8.83 KCAL/MOL
REMARK 923 INTER-LIGAND FREE ENERGY PREDICTED BY IDOCK:   -7.76 KCAL/MOL
REMARK 924 INTRA-LIGAND FREE ENERGY PREDICTED BY IDOCK:   -1.08 KCAL/MOL
REMARK 927      BINDING AFFINITY PREDICTED BY RF-SCORE:    0.00 PKD
ROOT
HETATM    1  O   UNL     1     -10.214  18.164  65.560  1.00  0.00    -0.534 OA 
HETATM    2  H   UNL     1      -9.737  18.742  66.143  1.00  0.00     0.000 HD 
HETATM    3  C   UNL     1     -10.379  16.826  65.796  1.00  0.00    -0.305 A  
HETATM    4  C   UNL     1     -11.079  15.978  64.944  1.00  0.00    -0.370 A  
HETATM    5  C   UNL     1     -11.238  14.629  65.270  1.00  0.00    -0.358 A  
HETATM    6  O   UNL     1     -11.637  16.403  63.772  1.00  0.00    -1.605 OA 
HETATM    7  H   UNL     1     -12.115  15.825  63.189  1.00  0.00     0.000 HD 
HETATM    8  C   UNL     1     -10.708  14.123  66.462  1.00  0.00    -0.289 A  
HETATM    9  C   UNL     1      -9.806  16.324  66.960  1.00  0.00    -0.247 A  
HETATM   10  C   UNL     1      -9.965  14.977  67.293  1.00  0.00    -0.233 A  
ENDROOT
BRANCH   8  11
HETATM   11  C   UNL     1     -10.915  12.679  66.848  1.00  0.00    -0.297 C  
BRANCH  11  12
HETATM   12  C   UNL     1     -11.934  12.539  67.980  1.00  0.00    -0.223 C  
BRANCH  12  13
HETATM   13  N   UNL     1     -11.265  12.173  69.234  1.00  0.00    -0.365 NA 
HETATM   14  H   UNL     1     -11.385  12.885  69.956  1.00  0.00     0.000 HD 
BRANCH  13  15
HETATM   15  C   UNL     1     -11.730  10.861  69.674  1.00  0.00    -0.331 C  
BRANCH  15  16
HETATM   16  C   UNL     1     -10.565  10.032  70.205  1.00  0.00    -0.350 C  
BRANCH  16  17
HETATM   17  C   UNL     1      -9.325  10.295  69.354  1.00  0.00    -0.217 C  
BRANCH  17  18
HETATM   18  C   UNL     1      -9.053   9.135  68.411  1.00  0.00    -0.132 C  
BRANCH  18  19
HETATM   19  C   UNL     1      -7.725   8.459  68.747  1.00  0.00    -0.102 C  
BRANCH  19  20
HETATM   20  C   UNL     1      -7.452   7.370  67.718  1.00  0.00    -0.101 C  
BRANCH  20  21
HETATM   21  N   UNL     1      -8.379   7.468  66.592  1.00  0.00    -0.123 NA 
HETATM   22  H   UNL     1      -8.016   8.077  65.860  1.00  0.00     0.000 HD 
BRANCH  21  23
HETATM   23  C   UNL     1      -8.721   6.138  66.070  1.00  0.00    -0.153 C  
BRANCH  23  24
HETATM   24  C   UNL     1     -10.000   5.557  66.693  1.00  0.00    -0.213 C  
BRANCH  24  25
HETATM   25  C   UNL     1      -9.717   4.383  67.590  1.00  0.00    -0.198 A  
HETATM   26  C   UNL     1      -9.729   4.549  68.980  1.00  0.00    -0.235 A  
HETATM   27  C   UNL     1      -9.478   3.463  69.820  1.00  0.00    -0.229 A  
HETATM   28  C   UNL     1      -9.209   2.212  69.272  1.00  0.00    -0.187 A  
HETATM   29  C   UNL     1      -9.185   2.043  67.888  1.00  0.00    -0.228 A  
HETATM   30  C   UNL     1      -9.435   3.127  67.048  1.00  0.00    -0.128 A  
ENDBRANCH  24  25
ENDBRANCH  23  24
ENDBRANCH  21  23
ENDBRANCH  20  21
ENDBRANCH  19  20
ENDBRANCH  18  19
ENDBRANCH  17  18
ENDBRANCH  16  17
ENDBRANCH  15  16
ENDBRANCH  13  15
ENDBRANCH  12  13
ENDBRANCH  11  12
ENDBRANCH   8  11
TORSDOF 13
ENDMDL
MODEL      276
REMARK 921   NORMALIZED FREE ENERGY PREDICTED BY IDOCK:   -3.43 KCAL/MOL
REMARK 922        TOTAL FREE ENERGY PREDICTED BY IDOCK:   -8.78 KCAL/MOL
REMARK 923 INTER-LIGAND FREE ENERGY PREDICTED BY IDOCK:   -5.90 KCAL/MOL
REMARK 924 INTRA-LIGAND FREE ENERGY PREDICTED BY IDOCK:   -2.89 KCAL/MOL
REMARK 927      BINDING AFFINITY PREDICTED BY RF-SCORE:    0.00 PKD
ROOT
HETATM    1  O   UNL     1     -10.155   4.480  67.479  1.00  0.00    -0.134 OA 
HETATM    2  H   UNL     1     -10.448   4.221  66.613  1.00  0.00     0.000 HD 
HETATM    3  C   UNL     1     -10.084   5.783  67.891  1.00  0.00    -0.162 A  
HETATM    4  C   UNL     1      -9.656   6.163  69.159  1.00  0.00    -0.135 A  
HETATM    5  C   UNL     1      -9.645   7.512  69.522  1.00  0.00    -0.156 A  
HETATM    6  O   UNL     1      -9.234   5.264  70.097  1.00  0.00    -0.131 OA 
HETATM    7  H   UNL     1      -8.941   5.523  70.963  1.00  0.00     0.000 HD 
HETATM    8  C   UNL     1     -10.077   8.489  68.619  1.00  0.00    -0.207 A  
HETATM    9  C   UNL     1     -10.470   6.750  66.968  1.00  0.00    -0.369 A  
HETATM   10  C   UNL     1     -10.465   8.099  67.327  1.00  0.00    -0.379 A  
ENDROOT
BRANCH   8  11
HETATM   11  C   UNL     1     -10.116   9.944  69.016  1.00  0.00    -0.199 C  
BRANCH  11  12
HETATM   12  C   UNL     1     -10.994  10.764  68.070  1.00  0.00    -0.283 C  
BRANCH  12  13
HETATM   13  N   UNL     1     -10.929  12.191  68.410  1.00  0.00    -0.221 NA 
HETATM   14  H   UNL     1      -9.970  12.541  68.414  1.00  0.00     0.000 HD 
BRANCH  13  15
HETATM   15  C   UNL     1     -11.788  12.950  67.506  1.00  0.00    -0.351 C  
BRANCH  15  16
HETATM   16  C   UNL     1     -11.847  12.281  66.137  1.00  0.00    -0.398 C  
BRANCH  16  17
HETATM   17  C   UNL     1     -12.288  13.302  65.091  1.00  0.00    -0.516 C  
BRANCH  17  18
HETATM   18  C   UNL     1     -11.612  13.041  63.756  1.00  0.00    -0.517 C  
BRANCH  18  19
HETATM   19  C   UNL     1     -11.227  11.569  63.616  1.00  0.00    -0.451 C  
BRANCH  19  20
HETATM   20  C   UNL     1      -9.811  11.479  63.065  1.00  0.00    -0.343 C  
BRANCH  20  21
HETATM   21  N   UNL     1      -8.825  11.542  64.141  1.00  0.00    -0.285 NA 
HETATM   22  H   UNL     1      -8.954  12.372  64.720  1.00  0.00     0.000 HD 
BRANCH  21  23
HETATM   23  C   UNL     1      -8.838  10.313  64.947  1.00  0.00    -0.192 C  
BRANCH  23  24
HETATM   24  C   UNL     1      -7.601   9.430  64.720  1.00  0.00    -0.111 C  
BRANCH  24  25
HETATM   25  C   UNL     1      -7.068   8.852  66.003  1.00  0.00    -0.088 A  
HETATM   26  C   UNL     1      -6.753   9.700  67.072  1.00  0.00    -0.075 A  
HETATM   27  C   UNL     1      -6.269   9.172  68.269  1.00  0.00    -0.054 A  
HETATM   28  C   UNL     1      -6.092   7.796  68.398  1.00  0.00    -0.036 A  
HETATM   29  C   UNL     1      -6.393   6.948  67.333  1.00  0.00    -0.045 A  
HETATM   30  C   UNL     1      -6.877   7.475  66.137  1.00  0.00    -0.061 A  
ENDBRANCH  24  25
ENDBRANCH  23  24
ENDBRANCH  21  23
ENDBRANCH  20  21
ENDBRANCH  19  20
ENDBRANCH  18  19
ENDBRANCH  17  18
ENDBRANCH  16  17
ENDBRANCH  15  16
ENDBRANCH  13  15
ENDBRANCH  12  13
ENDBRANCH  11  12
ENDBRANCH   8  11
TORSDOF 13
ENDMDL
MODEL      277
REMARK 921   NORMALIZED FREE ENERGY PREDICTED BY IDOCK:   -3.42 KCAL/MOL
REMARK 922        TOTAL FREE ENERGY PREDICTED BY IDOCK:   -8.78 KCAL/MOL
REMARK 923 INTER-LIGAND FREE ENERGY PREDICTED BY IDOCK:   -6.39 KCAL/MOL
REMARK 924 INTRA-LIGAND FREE ENERGY PREDICTED BY IDOCK:   -2.39 KCAL/MOL
REMARK 927      BINDING AFFINITY PREDICTED BY RF-SCORE:    0.00 PKD
ROOT
HETATM    1  O   UNL     1      -8.882  21.084  67.235  1.00  0.00    -0.528 OA 
HETATM    2  H   UNL     1      -9.497  21.708  67.602  1.00  0.00     0.000 HD 
HETATM    3  C   UNL     1      -9.223  19.805  66.888  1.00  0.00    -0.360 A  
HETATM    4  C   UNL     1      -8.321  18.891  66.351  1.00  0.00    -0.296 A  
HETATM    5  C   UNL     1      -8.751  17.613  65.985  1.00  0.00    -0.051 A  
HETATM    6  O   UNL     1      -7.002  19.183  66.154  1.00  0.00    -0.220 OA 
HETATM    7  H   UNL     1      -6.387  18.559  65.787  1.00  0.00     0.000 HD 
HETATM    8  C   UNL     1     -10.093  17.247  66.144  1.00  0.00    -0.312 A  
HETATM    9  C   UNL     1     -10.548  19.436  67.095  1.00  0.00    -0.596 A  
HETATM   10  C   UNL     1     -10.984  18.161  66.728  1.00  0.00     0.114 A  
ENDROOT
BRANCH   8  11
HETATM   11  C   UNL     1     -10.578  15.887  65.708  1.00  0.00    -0.368 C  
BRANCH  11  12
HETATM   12  C   UNL     1     -11.578  15.988  64.554  1.00  0.00    -0.205 C  
BRANCH  12  13
HETATM   13  N   UNL     1     -12.383  14.764  64.460  1.00  0.00    -0.532 NA 
HETATM   14  H   UNL     1     -13.094  14.828  63.731  1.00  0.00     0.000 HD 
BRANCH  13  15
HETATM   15  C   UNL     1     -11.505  13.612  64.272  1.00  0.00    -0.366 C  
BRANCH  15  16
HETATM   16  C   UNL     1     -12.258  12.316  64.554  1.00  0.00    -0.469 C  
BRANCH  16  17
HETATM   17  C   UNL     1     -11.286  11.141  64.494  1.00  0.00    -0.064 C  
BRANCH  17  18
HETATM   18  C   UNL     1      -9.853  11.607  64.688  1.00  0.00    -0.259 C  
BRANCH  18  19
HETATM   19  C   UNL     1      -9.159  10.798  65.783  1.00  0.00    -0.208 C  
BRANCH  19  20
HETATM   20  C   UNL     1     -10.146  10.555  66.917  1.00  0.00    -0.216 C  
BRANCH  20  21
HETATM   21  N   UNL     1      -9.525  10.806  68.215  1.00  0.00    -0.158 NA 
HETATM   22  H   UNL     1      -8.513  10.907  68.134  1.00  0.00     0.000 HD 
BRANCH  21  23
HETATM   23  C   UNL     1     -10.133  11.968  68.878  1.00  0.00    -0.015 C  
BRANCH  23  24
HETATM   24  C   UNL     1     -10.128  13.231  68.003  1.00  0.00    -0.235 C  
BRANCH  24  25
HETATM   25  C   UNL     1      -8.902  14.076  68.225  1.00  0.00    -0.184 A  
HETATM   26  C   UNL     1      -7.749  13.843  67.466  1.00  0.00    -0.192 A  
HETATM   27  C   UNL     1      -6.611  14.628  67.657  1.00  0.00    -0.177 A  
HETATM   28  C   UNL     1      -6.623  15.643  68.611  1.00  0.00    -0.110 A  
HETATM   29  C   UNL     1      -7.765  15.872  69.378  1.00  0.00    -0.199 A  
HETATM   30  C   UNL     1      -8.901  15.088  69.188  1.00  0.00    -0.184 A  
ENDBRANCH  24  25
ENDBRANCH  23  24
ENDBRANCH  21  23
ENDBRANCH  20  21
ENDBRANCH  19  20
ENDBRANCH  18  19
ENDBRANCH  17  18
ENDBRANCH  16  17
ENDBRANCH  15  16
ENDBRANCH  13  15
ENDBRANCH  12  13
ENDBRANCH  11  12
ENDBRANCH   8  11
TORSDOF 13
ENDMDL
MODEL      278
REMARK 921   NORMALIZED FREE ENERGY PREDICTED BY IDOCK:   -3.42 KCAL/MOL
REMARK 922        TOTAL FREE ENERGY PREDICTED BY IDOCK:   -8.78 KCAL/MOL
REMARK 923 INTER-LIGAND FREE ENERGY PREDICTED BY IDOCK:   -6.14 KCAL/MOL
REMARK 924 INTRA-LIGAND FREE ENERGY PREDICTED BY IDOCK:   -2.64 KCAL/MOL
REMARK 927      BINDING AFFINITY PREDICTED BY RF-SCORE:    0.00 PKD
ROOT
HETATM    1  O   UNL     1      -5.806   8.398  66.765  1.00  0.00    -0.046 OA 
HETATM    2  H   UNL     1      -5.715   8.178  65.845  1.00  0.00     0.000 HD 
HETATM    3  C   UNL     1      -6.261   9.611  67.206  1.00  0.00    -0.067 A  
HETATM    4  C   UNL     1      -6.396   9.934  68.553  1.00  0.00    -0.050 A  
HETATM    5  C   UNL     1      -6.903  11.180  68.929  1.00  0.00    -0.086 A  
HETATM    6  O   UNL     1      -6.051   9.075  69.558  1.00  0.00    -0.036 OA 
HETATM    7  H   UNL     1      -6.143   9.296  70.477  1.00  0.00     0.000 HD 
HETATM    8  C   UNL     1      -7.291  12.107  67.955  1.00  0.00    -0.105 A  
HETATM    9  C   UNL     1      -6.599  10.543  66.230  1.00  0.00    -0.118 A  
HETATM   10  C   UNL     1      -7.110  11.788  66.600  1.00  0.00     0.026 A  
ENDROOT
BRANCH   8  11
HETATM   11  C   UNL     1      -7.885  13.437  68.349  1.00  0.00    -0.138 C  
BRANCH  11  12
HETATM   12  C   UNL     1      -9.413  13.415  68.281  1.00  0.00    -0.209 C  
BRANCH  12  13
HETATM   13  N   UNL     1      -9.976  14.615  68.911  1.00  0.00    -0.235 NA 
HETATM   14  H   UNL     1     -10.128  15.367  68.237  1.00  0.00     0.000 HD 
BRANCH  13  15
HETATM   15  C   UNL     1     -11.198  14.265  69.630  1.00  0.00    -0.210 C  
BRANCH  15  16
HETATM   16  C   UNL     1     -11.637  12.847  69.277  1.00  0.00    -0.368 C  
BRANCH  16  17
HETATM   17  C   UNL     1     -12.273  12.193  70.501  1.00  0.00    -0.392 C  
BRANCH  17  18
HETATM   18  C   UNL     1     -12.266  10.679  70.376  1.00  0.00    -0.432 C  
BRANCH  18  19
HETATM   19  C   UNL     1     -10.848  10.157  70.147  1.00  0.00    -0.368 C  
BRANCH  19  20
HETATM   20  C   UNL     1     -10.897   8.642  70.008  1.00  0.00    -0.221 C  
BRANCH  20  21
HETATM   21  N   UNL     1     -10.794   8.240  68.607  1.00  0.00    -0.428 NA 
HETATM   22  H   UNL     1     -11.705   8.244  68.149  1.00  0.00     0.000 HD 
BRANCH  21  23
HETATM   23  C   UNL     1      -9.821   9.072  67.886  1.00  0.00    -0.171 C  
BRANCH  23  24
HETATM   24  C   UNL     1      -9.869   8.872  66.364  1.00  0.00    -0.353 C  
BRANCH  24  25
HETATM   25  C   UNL     1     -10.222  10.138  65.631  1.00  0.00    -0.288 A  
HETATM   26  C   UNL     1      -9.745  10.349  64.332  1.00  0.00    -0.396 A  
HETATM   27  C   UNL     1     -10.076  11.516  63.642  1.00  0.00    -0.427 A  
HETATM   28  C   UNL     1     -10.880  12.476  64.252  1.00  0.00    -0.400 A  
HETATM   29  C   UNL     1     -11.348  12.277  65.550  1.00  0.00    -0.394 A  
HETATM   30  C   UNL     1     -11.017  11.112  66.240  1.00  0.00    -0.227 A  
ENDBRANCH  24  25
ENDBRANCH  23  24
ENDBRANCH  21  23
ENDBRANCH  20  21
ENDBRANCH  19  20
ENDBRANCH  18  19
ENDBRANCH  17  18
ENDBRANCH  16  17
ENDBRANCH  15  16
ENDBRANCH  13  15
ENDBRANCH  12  13
ENDBRANCH  11  12
ENDBRANCH   8  11
TORSDOF 13
ENDMDL
MODEL      279
REMARK 921   NORMALIZED FREE ENERGY PREDICTED BY IDOCK:   -3.42 KCAL/MOL
REMARK 922        TOTAL FREE ENERGY PREDICTED BY IDOCK:   -8.77 KCAL/MOL
REMARK 923 INTER-LIGAND FREE ENERGY PREDICTED BY IDOCK:   -7.72 KCAL/MOL
REMARK 924 INTRA-LIGAND FREE ENERGY PREDICTED BY IDOCK:   -1.05 KCAL/MOL
REMARK 927      BINDING AFFINITY PREDICTED BY RF-SCORE:    0.00 PKD
ROOT
HETATM    1  O   UNL     1      -9.849   8.532  65.802  1.00  0.00    -0.457 OA 
HETATM    2  H   UNL     1     -10.296   8.163  65.050  1.00  0.00     0.000 HD 
HETATM    3  C   UNL     1      -9.951   8.017  67.066  1.00  0.00    -0.254 A  
HETATM    4  C   UNL     1      -9.295   8.558  68.168  1.00  0.00    -0.137 A  
HETATM    5  C   UNL     1      -9.417   7.955  69.422  1.00  0.00    -0.156 A  
HETATM    6  O   UNL     1      -8.517   9.677  68.090  1.00  0.00    -0.117 OA 
HETATM    7  H   UNL     1      -8.070  10.047  68.842  1.00  0.00     0.000 HD 
HETATM    8  C   UNL     1     -10.187   6.797  69.577  1.00  0.00    -0.202 A  
HETATM    9  C   UNL     1     -10.757   6.894  67.218  1.00  0.00    -0.421 A  
HETATM   10  C   UNL     1     -10.879   6.285  68.469  1.00  0.00    -0.394 A  
ENDROOT
BRANCH   8  11
HETATM   11  C   UNL     1     -10.286   6.110  70.917  1.00  0.00    -0.250 C  
BRANCH  11  12
HETATM   12  C   UNL     1     -11.720   6.114  71.448  1.00  0.00    -0.171 C  
BRANCH  12  13
HETATM   13  N   UNL     1     -11.784   6.769  72.759  1.00  0.00    -0.490 NA 
HETATM   14  H   UNL     1     -11.126   6.363  73.425  1.00  0.00     0.000 HD 
BRANCH  13  15
HETATM   15  C   UNL     1     -11.588   8.208  72.599  1.00  0.00    -0.375 C  
BRANCH  15  16
HETATM   16  C   UNL     1     -12.610   8.780  71.622  1.00  0.00    -0.393 C  
BRANCH  16  17
HETATM   17  C   UNL     1     -12.712  10.290  71.819  1.00  0.00    -0.535 C  
BRANCH  17  18
HETATM   18  C   UNL     1     -12.519  11.026  70.505  1.00  0.00    -0.432 C  
BRANCH  18  19
HETATM   19  C   UNL     1     -12.488  12.538  70.726  1.00  0.00    -0.357 C  
BRANCH  19  20
HETATM   20  C   UNL     1     -11.981  13.212  69.458  1.00  0.00    -0.294 C  
BRANCH  20  21
HETATM   21  N   UNL     1     -12.566  14.541  69.301  1.00  0.00    -0.547 NA 
HETATM   22  H   UNL     1     -12.685  15.007  70.200  1.00  0.00     0.000 HD 
BRANCH  21  23
HETATM   23  C   UNL     1     -11.780  15.361  68.368  1.00  0.00    -0.316 C  
BRANCH  23  24
HETATM   24  C   UNL     1     -10.800  14.535  67.520  1.00  0.00    -0.289 C  
BRANCH  24  25
HETATM   25  C   UNL     1      -9.372  14.712  67.960  1.00  0.00    -0.198 A  
HETATM   26  C   UNL     1      -8.341  14.082  67.253  1.00  0.00    -0.209 A  
HETATM   27  C   UNL     1      -7.013  14.250  67.647  1.00  0.00    -0.202 A  
HETATM   28  C   UNL     1      -6.714  15.043  68.753  1.00  0.00    -0.099 A  
HETATM   29  C   UNL     1      -7.738  15.664  69.467  1.00  0.00    -0.185 A  
HETATM   30  C   UNL     1      -9.065  15.497  69.074  1.00  0.00    -0.236 A  
ENDBRANCH  24  25
ENDBRANCH  23  24
ENDBRANCH  21  23
ENDBRANCH  20  21
ENDBRANCH  19  20
ENDBRANCH  18  19
ENDBRANCH  17  18
ENDBRANCH  16  17
ENDBRANCH  15  16
ENDBRANCH  13  15
ENDBRANCH  12  13
ENDBRANCH  11  12
ENDBRANCH   8  11
TORSDOF 13
ENDMDL
MODEL      280
REMARK 921   NORMALIZED FREE ENERGY PREDICTED BY IDOCK:   -3.41 KCAL/MOL
REMARK 922        TOTAL FREE ENERGY PREDICTED BY IDOCK:   -8.76 KCAL/MOL
REMARK 923 INTER-LIGAND FREE ENERGY PREDICTED BY IDOCK:   -6.39 KCAL/MOL
REMARK 924 INTRA-LIGAND FREE ENERGY PREDICTED BY IDOCK:   -2.38 KCAL/MOL
REMARK 927      BINDING AFFINITY PREDICTED BY RF-SCORE:    0.00 PKD
ROOT
HETATM    1  O   UNL     1     -11.382   6.577  66.634  1.00  0.00    -0.699 OA 
HETATM    2  H   UNL     1     -11.944   6.930  65.955  1.00  0.00     0.000 HD 
HETATM    3  C   UNL     1     -10.557   7.349  67.406  1.00  0.00    -0.301 A  
HETATM    4  C   UNL     1      -9.734   6.831  68.402  1.00  0.00    -0.128 A  
HETATM    5  C   UNL     1      -8.945   7.686  69.175  1.00  0.00    -0.135 A  
HETATM    6  O   UNL     1      -9.652   5.496  68.674  1.00  0.00    -0.123 OA 
HETATM    7  H   UNL     1      -9.090   5.142  69.353  1.00  0.00     0.000 HD 
HETATM    8  C   UNL     1      -8.987   9.069  68.965  1.00  0.00    -0.140 A  
HETATM    9  C   UNL     1     -10.570   8.717  67.156  1.00  0.00    -0.303 A  
HETATM   10  C   UNL     1      -9.786   9.576  67.929  1.00  0.00    -0.186 A  
ENDROOT
BRANCH   8  11
HETATM   11  C   UNL     1      -8.176  10.005  69.827  1.00  0.00    -0.191 C  
BRANCH  11  12
HETATM   12  C   UNL     1      -6.943  10.527  69.087  1.00  0.00    -0.080 C  
BRANCH  12  13
HETATM   13  N   UNL     1      -5.758   9.736  69.436  1.00  0.00    -0.034 NA 
HETATM   14  H   UNL     1      -5.882   9.222  70.309  1.00  0.00     0.000 HD 
BRANCH  13  15
HETATM   15  C   UNL     1      -5.411   8.856  68.323  1.00  0.00    -0.034 C  
BRANCH  15  16
HETATM   16  C   UNL     1      -5.630   9.567  66.992  1.00  0.00    -0.047 C  
BRANCH  16  17
HETATM   17  C   UNL     1      -6.542   8.721  66.108  1.00  0.00    -0.065 C  
BRANCH  17  18
HETATM   18  C   UNL     1      -7.272   9.584  65.093  1.00  0.00    -0.108 C  
BRANCH  18  19
HETATM   19  C   UNL     1      -7.460   8.835  63.774  1.00  0.00    -0.111 C  
BRANCH  19  20
HETATM   20  C   UNL     1      -8.666   9.412  63.046  1.00  0.00    -0.218 C  
BRANCH  20  21
HETATM   21  N   UNL     1      -8.548  10.861  62.902  1.00  0.00    -0.346 NA 
HETATM   22  H   UNL     1      -8.065  11.114  62.041  1.00  0.00     0.000 HD 
BRANCH  21  23
HETATM   23  C   UNL     1      -9.862  11.513  62.997  1.00  0.00    -0.343 C  
BRANCH  23  24
HETATM   24  C   UNL     1     -10.607  11.180  64.299  1.00  0.00    -0.425 C  
BRANCH  24  25
HETATM   25  C   UNL     1     -10.950  12.413  65.092  1.00  0.00    -0.339 A  
HETATM   26  C   UNL     1     -10.541  13.671  64.635  1.00  0.00    -0.446 A  
HETATM   27  C   UNL     1     -10.864  14.820  65.359  1.00  0.00    -0.372 A  
HETATM   28  C   UNL     1     -11.590  14.712  66.542  1.00  0.00    -0.350 A  
HETATM   29  C   UNL     1     -11.990  13.460  67.008  1.00  0.00    -0.429 A  
HETATM   30  C   UNL     1     -11.668  12.312  66.286  1.00  0.00    -0.431 A  
ENDBRANCH  24  25
ENDBRANCH  23  24
ENDBRANCH  21  23
ENDBRANCH  20  21
ENDBRANCH  19  20
ENDBRANCH  18  19
ENDBRANCH  17  18
ENDBRANCH  16  17
ENDBRANCH  15  16
ENDBRANCH  13  15
ENDBRANCH  12  13
ENDBRANCH  11  12
ENDBRANCH   8  11
TORSDOF 13
ENDMDL
MODEL      281
REMARK 921   NORMALIZED FREE ENERGY PREDICTED BY IDOCK:   -3.41 KCAL/MOL
REMARK 922        TOTAL FREE ENERGY PREDICTED BY IDOCK:   -8.75 KCAL/MOL
REMARK 923 INTER-LIGAND FREE ENERGY PREDICTED BY IDOCK:   -7.97 KCAL/MOL
REMARK 924 INTRA-LIGAND FREE ENERGY PREDICTED BY IDOCK:   -0.78 KCAL/MOL
REMARK 927      BINDING AFFINITY PREDICTED BY RF-SCORE:    0.00 PKD
ROOT
HETATM    1  O   UNL     1      -6.569  19.875  69.851  1.00  0.00    -0.347 OA 
HETATM    2  H   UNL     1      -6.710  20.812  69.918  1.00  0.00     0.000 HD 
HETATM    3  C   UNL     1      -7.231  19.076  68.957  1.00  0.00    -0.316 A  
HETATM    4  C   UNL     1      -7.024  17.704  68.857  1.00  0.00    -0.251 A  
HETATM    5  C   UNL     1      -7.709  16.959  67.895  1.00  0.00    -0.179 A  
HETATM    6  O   UNL     1      -6.162  17.025  69.670  1.00  0.00    -0.228 OA 
HETATM    7  H   UNL     1      -6.021  16.088  69.602  1.00  0.00     0.000 HD 
HETATM    8  C   UNL     1      -8.598  17.589  67.016  1.00  0.00    -0.251 A  
HETATM    9  C   UNL     1      -8.148  19.705  68.121  1.00  0.00    -0.353 A  
HETATM   10  C   UNL     1      -8.833  18.965  67.154  1.00  0.00    -0.298 A  
ENDROOT
BRANCH   8  11
HETATM   11  C   UNL     1      -9.307  16.802  65.941  1.00  0.00    -0.162 C  
BRANCH  11  12
HETATM   12  C   UNL     1     -10.532  17.549  65.410  1.00  0.00     0.052 C  
BRANCH  12  13
HETATM   13  N   UNL     1     -11.236  16.741  64.407  1.00  0.00    -1.271 NA 
HETATM   14  H   UNL     1     -11.038  17.052  63.456  1.00  0.00     0.000 HD 
BRANCH  13  15
HETATM   15  C   UNL     1     -10.918  15.330  64.603  1.00  0.00    -0.304 C  
BRANCH  15  16
HETATM   16  C   UNL     1     -12.192  14.492  64.616  1.00  0.00    -0.474 C  
BRANCH  16  17
HETATM   17  C   UNL     1     -12.417  13.932  66.018  1.00  0.00    -0.501 C  
BRANCH  17  18
HETATM   18  C   UNL     1     -11.122  13.908  66.811  1.00  0.00    -0.310 C  
BRANCH  18  19
HETATM   19  C   UNL     1     -11.241  12.985  68.024  1.00  0.00    -0.310 C  
BRANCH  19  20
HETATM   20  C   UNL     1     -12.285  11.916  67.730  1.00  0.00     0.419 C  
BRANCH  20  21
HETATM   21  N   UNL     1     -11.852  10.611  68.224  1.00  0.00    -0.786 NA 
HETATM   22  H   UNL     1     -11.468  10.036  67.475  1.00  0.00     0.000 HD 
BRANCH  21  23
HETATM   23  C   UNL     1     -10.904  10.753  69.338  1.00  0.00    -0.244 C  
BRANCH  23  24
HETATM   24  C   UNL     1      -9.774   9.713  69.304  1.00  0.00    -0.191 C  
BRANCH  24  25
HETATM   25  C   UNL     1     -10.163   8.471  68.548  1.00  0.00    -0.225 A  
HETATM   26  C   UNL     1      -9.976   8.410  67.162  1.00  0.00    -0.304 A  
HETATM   27  C   UNL     1     -10.324   7.258  66.455  1.00  0.00    -0.104 A  
HETATM   28  C   UNL     1     -10.867   6.168  67.132  1.00  0.00    -0.442 A  
HETATM   29  C   UNL     1     -11.067   6.228  68.510  1.00  0.00    -0.397 A  
HETATM   30  C   UNL     1     -10.719   7.377  69.217  1.00  0.00    -0.197 A  
ENDBRANCH  24  25
ENDBRANCH  23  24
ENDBRANCH  21  23
ENDBRANCH  20  21
ENDBRANCH  19  20
ENDBRANCH  18  19
ENDBRANCH  17  18
ENDBRANCH  16  17
ENDBRANCH  15  16
ENDBRANCH  13  15
ENDBRANCH  12  13
ENDBRANCH  11  12
ENDBRANCH   8  11
TORSDOF 13
ENDMDL
MODEL      282
REMARK 921   NORMALIZED FREE ENERGY PREDICTED BY IDOCK:   -3.40 KCAL/MOL
REMARK 922        TOTAL FREE ENERGY PREDICTED BY IDOCK:   -8.74 KCAL/MOL
REMARK 923 INTER-LIGAND FREE ENERGY PREDICTED BY IDOCK:   -7.43 KCAL/MOL
REMARK 924 INTRA-LIGAND FREE ENERGY PREDICTED BY IDOCK:   -1.31 KCAL/MOL
REMARK 927      BINDING AFFINITY PREDICTED BY RF-SCORE:    0.00 PKD
ROOT
HETATM    1  O   UNL     1     -12.000  15.583  70.439  1.00  0.00    -0.313 OA 
HETATM    2  H   UNL     1     -11.399  15.769  69.727  1.00  0.00     0.000 HD 
HETATM    3  C   UNL     1     -12.377  14.316  70.795  1.00  0.00    -0.357 A  
HETATM    4  C   UNL     1     -13.257  14.043  71.838  1.00  0.00    -0.395 A  
HETATM    5  C   UNL     1     -13.566  12.722  72.167  1.00  0.00    -0.547 A  
HETATM    6  O   UNL     1     -13.852  15.024  72.579  1.00  0.00    -0.443 OA 
HETATM    7  H   UNL     1     -14.453  14.838  73.290  1.00  0.00     0.000 HD 
HETATM    8  C   UNL     1     -12.984  11.663  71.462  1.00  0.00    -0.463 A  
HETATM    9  C   UNL     1     -11.829  13.273  70.055  1.00  0.00    -0.365 A  
HETATM   10  C   UNL     1     -12.132  11.950  70.383  1.00  0.00    -0.421 A  
ENDROOT
BRANCH   8  11
HETATM   11  C   UNL     1     -13.273  10.231  71.841  1.00  0.00    -0.550 C  
BRANCH  11  12
HETATM   12  C   UNL     1     -12.013   9.366  71.778  1.00  0.00    -0.382 C  
BRANCH  12  13
HETATM   13  N   UNL     1     -12.173   8.292  70.791  1.00  0.00    -0.495 NA 
HETATM   14  H   UNL     1     -12.712   8.593  69.978  1.00  0.00     0.000 HD 
BRANCH  13  15
HETATM   15  C   UNL     1     -10.861   7.769  70.418  1.00  0.00    -0.244 C  
BRANCH  15  16
HETATM   16  C   UNL     1      -9.756   8.553  71.117  1.00  0.00    -0.257 C  
BRANCH  16  17
HETATM   17  C   UNL     1      -8.673   8.918  70.105  1.00  0.00    -0.168 C  
BRANCH  17  18
HETATM   18  C   UNL     1      -9.282   9.291  68.765  1.00  0.00    -0.136 C  
BRANCH  18  19
HETATM   19  C   UNL     1      -8.353   8.902  67.616  1.00  0.00    -0.110 C  
BRANCH  19  20
HETATM   20  C   UNL     1      -6.951   8.684  68.167  1.00  0.00    -0.074 C  
BRANCH  20  21
HETATM   21  N   UNL     1      -6.021   9.681  67.643  1.00  0.00    -0.051 NA 
HETATM   22  H   UNL     1      -5.177   9.246  67.269  1.00  0.00     0.000 HD 
BRANCH  21  23
HETATM   23  C   UNL     1      -6.672  10.543  66.646  1.00  0.00    -0.099 C  
BRANCH  23  24
HETATM   24  C   UNL     1      -7.179  11.868  67.235  1.00  0.00    -0.147 C  
BRANCH  24  25
HETATM   25  C   UNL     1      -8.588  12.181  66.808  1.00  0.00    -0.163 A  
HETATM   26  C   UNL     1      -9.348  13.103  67.537  1.00  0.00    -0.207 A  
HETATM   27  C   UNL     1     -10.652  13.407  67.142  1.00  0.00    -0.259 A  
HETATM   28  C   UNL     1     -11.199  12.786  66.022  1.00  0.00    -0.335 A  
HETATM   29  C   UNL     1     -10.450  11.859  65.299  1.00  0.00    -0.317 A  
HETATM   30  C   UNL     1      -9.148  11.554  65.692  1.00  0.00    -0.136 A  
ENDBRANCH  24  25
ENDBRANCH  23  24
ENDBRANCH  21  23
ENDBRANCH  20  21
ENDBRANCH  19  20
ENDBRANCH  18  19
ENDBRANCH  17  18
ENDBRANCH  16  17
ENDBRANCH  15  16
ENDBRANCH  13  15
ENDBRANCH  12  13
ENDBRANCH  11  12
ENDBRANCH   8  11
TORSDOF 13
ENDMDL
MODEL      283
REMARK 921   NORMALIZED FREE ENERGY PREDICTED BY IDOCK:   -3.39 KCAL/MOL
REMARK 922        TOTAL FREE ENERGY PREDICTED BY IDOCK:   -8.73 KCAL/MOL
REMARK 923 INTER-LIGAND FREE ENERGY PREDICTED BY IDOCK:   -7.38 KCAL/MOL
REMARK 924 INTRA-LIGAND FREE ENERGY PREDICTED BY IDOCK:   -1.34 KCAL/MOL
REMARK 927      BINDING AFFINITY PREDICTED BY RF-SCORE:    0.00 PKD
ROOT
HETATM    1  O   UNL     1      -8.611   5.045  73.298  1.00  0.00    -0.112 OA 
HETATM    2  H   UNL     1      -8.502   4.175  72.931  1.00  0.00     0.000 HD 
HETATM    3  C   UNL     1      -9.517   5.954  72.824  1.00  0.00    -0.148 A  
HETATM    4  C   UNL     1      -9.677   7.228  73.362  1.00  0.00    -0.251 A  
HETATM    5  C   UNL     1     -10.649   8.089  72.849  1.00  0.00    -0.399 A  
HETATM    6  O   UNL     1      -8.915   7.695  74.394  1.00  0.00    -0.413 OA 
HETATM    7  H   UNL     1      -9.023   8.565  74.761  1.00  0.00     0.000 HD 
HETATM    8  C   UNL     1     -11.479   7.674  71.801  1.00  0.00    -0.302 A  
HETATM    9  C   UNL     1     -10.303   5.549  71.751  1.00  0.00    -0.272 A  
HETATM   10  C   UNL     1     -11.279   6.405  71.237  1.00  0.00    -0.346 A  
ENDROOT
BRANCH   8  11
HETATM   11  C   UNL     1     -12.564   8.579  71.272  1.00  0.00    -0.248 C  
BRANCH  11  12
HETATM   12  C   UNL     1     -11.991   9.884  70.719  1.00  0.00    -0.323 C  
BRANCH  12  13
HETATM   13  N   UNL     1     -11.173   9.625  69.528  1.00  0.00    -0.404 NA 
HETATM   14  H   UNL     1     -11.353   8.703  69.131  1.00  0.00     0.000 HD 
BRANCH  13  15
HETATM   15  C   UNL     1     -11.375  10.693  68.552  1.00  0.00    -0.284 C  
BRANCH  15  16
HETATM   16  C   UNL     1     -10.661  10.364  67.246  1.00  0.00    -0.322 C  
BRANCH  16  17
HETATM   17  C   UNL     1     -10.791  11.543  66.284  1.00  0.00    -0.333 C  
BRANCH  17  18
HETATM   18  C   UNL     1     -12.099  12.284  66.503  1.00  0.00    -0.094 C  
BRANCH  18  19
HETATM   19  C   UNL     1     -12.636  12.845  65.187  1.00  0.00    -0.536 C  
BRANCH  19  20
HETATM   20  C   UNL     1     -11.546  13.676  64.525  1.00  0.00    -0.390 C  
BRANCH  20  21
HETATM   21  N   UNL     1     -11.496  15.023  65.089  1.00  0.00    -0.358 NA 
HETATM   22  H   UNL     1     -11.840  15.040  66.049  1.00  0.00     0.000 HD 
BRANCH  21  23
HETATM   23  C   UNL     1     -10.145  15.592  64.988  1.00  0.00    -0.128 C  
BRANCH  23  24
HETATM   24  C   UNL     1      -9.698  16.313  66.269  1.00  0.00    -0.329 C  
BRANCH  24  25
HETATM   25  C   UNL     1     -10.281  15.690  67.509  1.00  0.00    -0.263 A  
HETATM   26  C   UNL     1      -9.726  14.512  68.023  1.00  0.00    -0.218 A  
HETATM   27  C   UNL     1     -10.253  13.933  69.179  1.00  0.00     0.019 A  
HETATM   28  C   UNL     1     -11.338  14.528  69.818  1.00  0.00    -0.305 A  
HETATM   29  C   UNL     1     -11.902  15.695  69.304  1.00  0.00    -0.378 A  
HETATM   30  C   UNL     1     -11.377  16.273  68.150  1.00  0.00    -0.248 A  
ENDBRANCH  24  25
ENDBRANCH  23  24
ENDBRANCH  21  23
ENDBRANCH  20  21
ENDBRANCH  19  20
ENDBRANCH  18  19
ENDBRANCH  17  18
ENDBRANCH  16  17
ENDBRANCH  15  16
ENDBRANCH  13  15
ENDBRANCH  12  13
ENDBRANCH  11  12
ENDBRANCH   8  11
TORSDOF 13
ENDMDL
MODEL      284
REMARK 921   NORMALIZED FREE ENERGY PREDICTED BY IDOCK:   -3.38 KCAL/MOL
REMARK 922        TOTAL FREE ENERGY PREDICTED BY IDOCK:   -8.71 KCAL/MOL
REMARK 923 INTER-LIGAND FREE ENERGY PREDICTED BY IDOCK:   -8.29 KCAL/MOL
REMARK 924 INTRA-LIGAND FREE ENERGY PREDICTED BY IDOCK:   -0.42 KCAL/MOL
REMARK 927      BINDING AFFINITY PREDICTED BY RF-SCORE:    0.00 PKD
ROOT
HETATM    1  O   UNL     1      -7.409   2.747  64.933  1.00  0.00    -0.064 OA 
HETATM    2  H   UNL     1      -6.653   2.927  64.387  1.00  0.00     0.000 HD 
HETATM    3  C   UNL     1      -8.227   3.723  65.433  1.00  0.00    -0.101 A  
HETATM    4  C   UNL     1      -9.335   3.460  66.232  1.00  0.00    -0.145 A  
HETATM    5  C   UNL     1     -10.147   4.507  66.675  1.00  0.00    -0.238 A  
HETATM    6  O   UNL     1      -9.684   2.197  66.619  1.00  0.00    -0.320 OA 
HETATM    7  H   UNL     1     -10.440   2.017  67.165  1.00  0.00     0.000 HD 
HETATM    8  C   UNL     1      -9.861   5.826  66.307  1.00  0.00    -0.136 A  
HETATM    9  C   UNL     1      -7.906   5.035  65.100  1.00  0.00    -0.089 A  
HETATM   10  C   UNL     1      -8.716   6.085  65.537  1.00  0.00    -0.120 A  
ENDROOT
BRANCH   8  11
HETATM   11  C   UNL     1     -10.758   6.960  66.738  1.00  0.00    -0.296 C  
BRANCH  11  12
HETATM   12  C   UNL     1     -10.268   7.604  68.036  1.00  0.00    -0.202 C  
BRANCH  12  13
HETATM   13  N   UNL     1     -11.114   7.201  69.165  1.00  0.00    -0.449 NA 
HETATM   14  H   UNL     1     -11.977   6.751  68.858  1.00  0.00     0.000 HD 
BRANCH  13  15
HETATM   15  C   UNL     1     -10.348   6.356  70.077  1.00  0.00    -0.198 C  
BRANCH  15  16
HETATM   16  C   UNL     1     -11.131   6.109  71.362  1.00  0.00    -0.346 C  
BRANCH  16  17
HETATM   17  C   UNL     1     -12.410   6.943  71.346  1.00  0.00    -0.421 C  
BRANCH  17  18
HETATM   18  C   UNL     1     -12.302   8.126  72.292  1.00  0.00    -0.371 C  
BRANCH  18  19
HETATM   19  C   UNL     1     -13.591   8.945  72.291  1.00  0.00    -0.513 C  
BRANCH  19  20
HETATM   20  C   UNL     1     -13.272  10.368  71.854  1.00  0.00    -0.429 C  
BRANCH  20  21
HETATM   21  N   UNL     1     -12.822  10.401  70.465  1.00  0.00    -0.496 NA 
HETATM   22  H   UNL     1     -13.560  10.721  69.839  1.00  0.00     0.000 HD 
BRANCH  21  23
HETATM   23  C   UNL     1     -11.603  11.210  70.320  1.00  0.00    -0.296 C  
BRANCH  23  24
HETATM   24  C   UNL     1     -11.840  12.528  69.567  1.00  0.00    -0.375 C  
BRANCH  24  25
HETATM   25  C   UNL     1     -12.063  13.688  70.500  1.00  0.00    -0.411 A  
HETATM   26  C   UNL     1     -12.867  13.525  71.635  1.00  0.00    -0.419 A  
HETATM   27  C   UNL     1     -13.071  14.592  72.511  1.00  0.00    -0.518 A  
HETATM   28  C   UNL     1     -12.476  15.824  72.252  1.00  0.00    -0.533 A  
HETATM   29  C   UNL     1     -11.684  15.995  71.117  1.00  0.00    -0.487 A  
HETATM   30  C   UNL     1     -11.480  14.930  70.241  1.00  0.00    -0.315 A  
ENDBRANCH  24  25
ENDBRANCH  23  24
ENDBRANCH  21  23
ENDBRANCH  20  21
ENDBRANCH  19  20
ENDBRANCH  18  19
ENDBRANCH  17  18
ENDBRANCH  16  17
ENDBRANCH  15  16
ENDBRANCH  13  15
ENDBRANCH  12  13
ENDBRANCH  11  12
ENDBRANCH   8  11
TORSDOF 13
ENDMDL
MODEL      285
REMARK 921   NORMALIZED FREE ENERGY PREDICTED BY IDOCK:   -3.38 KCAL/MOL
REMARK 922        TOTAL FREE ENERGY PREDICTED BY IDOCK:   -8.70 KCAL/MOL
REMARK 923 INTER-LIGAND FREE ENERGY PREDICTED BY IDOCK:   -6.67 KCAL/MOL
REMARK 924 INTRA-LIGAND FREE ENERGY PREDICTED BY IDOCK:   -2.03 KCAL/MOL
REMARK 927      BINDING AFFINITY PREDICTED BY RF-SCORE:    0.00 PKD
ROOT
HETATM    1  O   UNL     1      -8.635  10.262  70.016  1.00  0.00    -0.371 OA 
HETATM    2  H   UNL     1      -9.148   9.635  70.512  1.00  0.00     0.000 HD 
HETATM    3  C   UNL     1      -8.802  10.480  68.675  1.00  0.00    -0.147 A  
HETATM    4  C   UNL     1      -8.051  11.399  67.949  1.00  0.00    -0.126 A  
HETATM    5  C   UNL     1      -8.305  11.594  66.589  1.00  0.00    -0.154 A  
HETATM    6  O   UNL     1      -7.052  12.144  68.507  1.00  0.00    -0.086 OA 
HETATM    7  H   UNL     1      -6.539  12.771  68.012  1.00  0.00     0.000 HD 
HETATM    8  C   UNL     1      -9.323  10.878  65.951  1.00  0.00    -0.226 A  
HETATM    9  C   UNL     1      -9.785   9.728  68.040  1.00  0.00    -0.165 A  
HETATM   10  C   UNL     1     -10.045   9.922  66.682  1.00  0.00    -0.297 A  
ENDROOT
BRANCH   8  11
HETATM   11  C   UNL     1      -9.638  11.116  64.494  1.00  0.00    -0.288 C  
BRANCH  11  12
HETATM   12  C   UNL     1     -11.146  11.131  64.238  1.00  0.00    -0.105 C  
BRANCH  12  13
HETATM   13  N   UNL     1     -11.522  12.299  63.433  1.00  0.00    -0.647 NA 
HETATM   14  H   UNL     1     -11.984  12.034  62.563  1.00  0.00     0.000 HD 
BRANCH  13  15
HETATM   15  C   UNL     1     -12.338  13.206  64.236  1.00  0.00    -0.351 C  
BRANCH  15  16
HETATM   16  C   UNL     1     -11.721  14.600  64.258  1.00  0.00    -0.291 C  
BRANCH  16  17
HETATM   17  C   UNL     1     -11.044  14.836  65.606  1.00  0.00    -0.342 C  
BRANCH  17  18
HETATM   18  C   UNL     1     -11.977  14.487  66.753  1.00  0.00    -0.364 C  
BRANCH  18  19
HETATM   19  C   UNL     1     -11.395  13.361  67.607  1.00  0.00    -0.321 C  
BRANCH  19  20
HETATM   20  C   UNL     1     -10.964  13.934  68.950  1.00  0.00    -0.263 C  
BRANCH  20  21
HETATM   21  N   UNL     1      -9.524  14.179  68.978  1.00  0.00    -0.398 NA 
HETATM   22  H   UNL     1      -9.069  13.838  68.132  1.00  0.00     0.000 HD 
BRANCH  21  23
HETATM   23  C   UNL     1      -9.231  15.600  69.216  1.00  0.00    -0.269 C  
BRANCH  23  24
HETATM   24  C   UNL     1      -7.732  15.885  69.388  1.00  0.00    -0.199 C  
BRANCH  24  25
HETATM   25  C   UNL     1      -7.207  16.833  68.343  1.00  0.00    -0.191 A  
HETATM   26  C   UNL     1      -6.045  17.573  68.594  1.00  0.00    -0.174 A  
HETATM   27  C   UNL     1      -5.545  18.446  67.627  1.00  0.00    -0.154 A  
HETATM   28  C   UNL     1      -6.209  18.586  66.410  1.00  0.00    -0.208 A  
HETATM   29  C   UNL     1      -7.372  17.859  66.160  1.00  0.00    -0.327 A  
HETATM   30  C   UNL     1      -7.873  16.987  67.125  1.00  0.00    -0.203 A  
ENDBRANCH  24  25
ENDBRANCH  23  24
ENDBRANCH  21  23
ENDBRANCH  20  21
ENDBRANCH  19  20
ENDBRANCH  18  19
ENDBRANCH  17  18
ENDBRANCH  16  17
ENDBRANCH  15  16
ENDBRANCH  13  15
ENDBRANCH  12  13
ENDBRANCH  11  12
ENDBRANCH   8  11
TORSDOF 13
ENDMDL
MODEL      286
REMARK 921   NORMALIZED FREE ENERGY PREDICTED BY IDOCK:   -3.38 KCAL/MOL
REMARK 922        TOTAL FREE ENERGY PREDICTED BY IDOCK:   -8.69 KCAL/MOL
REMARK 923 INTER-LIGAND FREE ENERGY PREDICTED BY IDOCK:   -7.96 KCAL/MOL
REMARK 924 INTRA-LIGAND FREE ENERGY PREDICTED BY IDOCK:   -0.73 KCAL/MOL
REMARK 927      BINDING AFFINITY PREDICTED BY RF-SCORE:    0.00 PKD
ROOT
HETATM    1  O   UNL     1     -11.879  16.745  72.336  1.00  0.00    -0.580 OA 
HETATM    2  H   UNL     1     -11.536  17.630  72.289  1.00  0.00     0.000 HD 
HETATM    3  C   UNL     1     -11.764  15.838  71.318  1.00  0.00    -0.440 A  
HETATM    4  C   UNL     1     -12.266  14.542  71.387  1.00  0.00    -0.358 A  
HETATM    5  C   UNL     1     -12.077  13.658  70.322  1.00  0.00    -0.427 A  
HETATM    6  O   UNL     1     -12.950  14.071  72.471  1.00  0.00    -0.401 OA 
HETATM    7  H   UNL     1     -13.293  13.186  72.518  1.00  0.00     0.000 HD 
HETATM    8  C   UNL     1     -11.372  14.065  69.183  1.00  0.00    -0.323 A  
HETATM    9  C   UNL     1     -11.103  16.268  70.172  1.00  0.00    -0.346 A  
HETATM   10  C   UNL     1     -10.909  15.388  69.105  1.00  0.00    -0.249 A  
ENDROOT
BRANCH   8  11
HETATM   11  C   UNL     1     -11.121  13.104  68.047  1.00  0.00    -0.290 C  
BRANCH  11  12
HETATM   12  C   UNL     1     -10.938  13.839  66.718  1.00  0.00    -0.304 C  
BRANCH  12  13
HETATM   13  N   UNL     1     -11.202  12.938  65.590  1.00  0.00    -0.289 NA 
HETATM   14  H   UNL     1     -11.479  13.447  64.749  1.00  0.00     0.000 HD 
BRANCH  13  15
HETATM   15  C   UNL     1     -10.040  12.085  65.359  1.00  0.00    -0.256 C  
BRANCH  15  16
HETATM   16  C   UNL     1     -10.380  10.975  64.371  1.00  0.00    -0.424 C  
BRANCH  16  17
HETATM   17  C   UNL     1      -9.453   9.785  64.604  1.00  0.00    -0.295 C  
BRANCH  17  18
HETATM   18  C   UNL     1      -8.829   9.842  65.988  1.00  0.00    -0.170 C  
BRANCH  18  19
HETATM   19  C   UNL     1      -9.390   8.740  66.885  1.00  0.00    -0.213 C  
BRANCH  19  20
HETATM   20  C   UNL     1      -9.051   9.063  68.334  1.00  0.00    -0.133 C  
BRANCH  20  21
HETATM   21  N   UNL     1      -9.209   7.886  69.185  1.00  0.00    -0.145 NA 
HETATM   22  H   UNL     1      -8.383   7.726  69.761  1.00  0.00     0.000 HD 
BRANCH  21  23
HETATM   23  C   UNL     1     -10.428   7.980  70.001  1.00  0.00    -0.228 C  
BRANCH  23  24
HETATM   24  C   UNL     1     -11.273   6.697  69.971  1.00  0.00    -0.425 C  
BRANCH  24  25
HETATM   25  C   UNL     1     -10.754   5.648  70.916  1.00  0.00    -0.313 A  
HETATM   26  C   UNL     1     -11.158   5.656  72.257  1.00  0.00    -0.318 A  
HETATM   27  C   UNL     1     -10.689   4.680  73.138  1.00  0.00    -0.309 A  
HETATM   28  C   UNL     1      -9.811   3.700  72.682  1.00  0.00    -0.213 A  
HETATM   29  C   UNL     1      -9.396   3.694  71.351  1.00  0.00    -0.211 A  
HETATM   30  C   UNL     1      -9.863   4.668  70.470  1.00  0.00    -0.301 A  
ENDBRANCH  24  25
ENDBRANCH  23  24
ENDBRANCH  21  23
ENDBRANCH  20  21
ENDBRANCH  19  20
ENDBRANCH  18  19
ENDBRANCH  17  18
ENDBRANCH  16  17
ENDBRANCH  15  16
ENDBRANCH  13  15
ENDBRANCH  12  13
ENDBRANCH  11  12
ENDBRANCH   8  11
TORSDOF 13
ENDMDL
MODEL      287
REMARK 921   NORMALIZED FREE ENERGY PREDICTED BY IDOCK:   -3.37 KCAL/MOL
REMARK 922        TOTAL FREE ENERGY PREDICTED BY IDOCK:   -8.69 KCAL/MOL
REMARK 923 INTER-LIGAND FREE ENERGY PREDICTED BY IDOCK:   -6.90 KCAL/MOL
REMARK 924 INTRA-LIGAND FREE ENERGY PREDICTED BY IDOCK:   -1.79 KCAL/MOL
REMARK 927      BINDING AFFINITY PREDICTED BY RF-SCORE:    0.00 PKD
ROOT
HETATM    1  O   UNL     1     -10.287   4.173  71.598  1.00  0.00    -0.113 OA 
HETATM    2  H   UNL     1      -9.518   3.714  71.280  1.00  0.00     0.000 HD 
HETATM    3  C   UNL     1     -10.460   5.525  71.479  1.00  0.00    -0.235 A  
HETATM    4  C   UNL     1     -11.587   6.197  71.943  1.00  0.00    -0.296 A  
HETATM    5  C   UNL     1     -11.711   7.575  71.752  1.00  0.00    -0.317 A  
HETATM    6  O   UNL     1     -12.609   5.565  72.593  1.00  0.00    -0.375 OA 
HETATM    7  H   UNL     1     -13.378   6.023  72.910  1.00  0.00     0.000 HD 
HETATM    8  C   UNL     1     -10.711   8.288  71.081  1.00  0.00    -0.270 A  
HETATM    9  C   UNL     1      -9.438   6.231  70.853  1.00  0.00    -0.185 A  
HETATM   10  C   UNL     1      -9.558   7.608  70.657  1.00  0.00    -0.163 A  
ENDROOT
BRANCH   8  11
HETATM   11  C   UNL     1     -10.857   9.768  70.827  1.00  0.00    -0.403 C  
BRANCH  11  12
HETATM   12  C   UNL     1     -12.265  10.261  71.163  1.00  0.00    -0.397 C  
BRANCH  12  13
HETATM   13  N   UNL     1     -12.987  10.635  69.941  1.00  0.00    -0.450 NA 
HETATM   14  H   UNL     1     -13.937  10.951  70.138  1.00  0.00     0.000 HD 
BRANCH  13  15
HETATM   15  C   UNL     1     -12.217  11.631  69.202  1.00  0.00    -0.137 C  
BRANCH  15  16
HETATM   16  C   UNL     1     -12.130  12.932  69.992  1.00  0.00    -0.357 C  
BRANCH  16  17
HETATM   17  C   UNL     1     -11.378  13.977  69.171  1.00  0.00    -0.323 C  
BRANCH  17  18
HETATM   18  C   UNL     1     -11.657  13.808  67.687  1.00  0.00    -0.381 C  
BRANCH  18  19
HETATM   19  C   UNL     1     -10.359  13.827  66.882  1.00  0.00    -0.266 C  
BRANCH  19  20
HETATM   20  C   UNL     1      -9.211  13.397  67.785  1.00  0.00    -0.211 C  
BRANCH  20  21
HETATM   21  N   UNL     1      -9.059  11.944  67.784  1.00  0.00    -0.174 NA 
HETATM   22  H   UNL     1      -9.715  11.498  68.425  1.00  0.00     0.000 HD 
BRANCH  21  23
HETATM   23  C   UNL     1      -9.176  11.399  66.424  1.00  0.00    -0.197 C  
BRANCH  23  24
HETATM   24  C   UNL     1     -10.268  10.326  66.297  1.00  0.00    -0.287 C  
BRANCH  24  25
HETATM   25  C   UNL     1      -9.716   8.931  66.417  1.00  0.00    -0.332 A  
HETATM   26  C   UNL     1     -10.457   7.942  67.075  1.00  0.00    -0.419 A  
HETATM   27  C   UNL     1      -9.957   6.643  67.181  1.00  0.00    -0.209 A  
HETATM   28  C   UNL     1      -8.713   6.333  66.635  1.00  0.00    -0.126 A  
HETATM   29  C   UNL     1      -7.966   7.317  65.989  1.00  0.00    -0.115 A  
HETATM   30  C   UNL     1      -8.464   8.614  65.882  1.00  0.00    -0.158 A  
ENDBRANCH  24  25
ENDBRANCH  23  24
ENDBRANCH  21  23
ENDBRANCH  20  21
ENDBRANCH  19  20
ENDBRANCH  18  19
ENDBRANCH  17  18
ENDBRANCH  16  17
ENDBRANCH  15  16
ENDBRANCH  13  15
ENDBRANCH  12  13
ENDBRANCH  11  12
ENDBRANCH   8  11
TORSDOF 13
ENDMDL
MODEL      288
REMARK 921   NORMALIZED FREE ENERGY PREDICTED BY IDOCK:   -3.37 KCAL/MOL
REMARK 922        TOTAL FREE ENERGY PREDICTED BY IDOCK:   -8.68 KCAL/MOL
REMARK 923 INTER-LIGAND FREE ENERGY PREDICTED BY IDOCK:   -7.08 KCAL/MOL
REMARK 924 INTRA-LIGAND FREE ENERGY PREDICTED BY IDOCK:   -1.60 KCAL/MOL
REMARK 927      BINDING AFFINITY PREDICTED BY RF-SCORE:    0.00 PKD
ROOT
HETATM    1  O   UNL     1     -11.720   6.473  67.978  1.00  0.00    -0.518 OA 
HETATM    2  H   UNL     1     -12.314   7.071  68.415  1.00  0.00     0.000 HD 
HETATM    3  C   UNL     1     -10.682   6.886  67.187  1.00  0.00    -0.366 A  
HETATM    4  C   UNL     1      -9.811   6.010  66.546  1.00  0.00    -0.145 A  
HETATM    5  C   UNL     1      -8.751   6.507  65.785  1.00  0.00    -0.129 A  
HETATM    6  O   UNL     1      -9.938   4.653  66.624  1.00  0.00    -0.200 OA 
HETATM    7  H   UNL     1      -9.344   4.055  66.187  1.00  0.00     0.000 HD 
HETATM    8  C   UNL     1      -8.548   7.887  65.671  1.00  0.00    -0.159 A  
HETATM    9  C   UNL     1     -10.519   8.260  67.041  1.00  0.00    -0.384 A  
HETATM   10  C   UNL     1      -9.458   8.761  66.284  1.00  0.00    -0.300 A  
ENDROOT
BRANCH   8  11
HETATM   11  C   UNL     1      -7.378   8.433  64.891  1.00  0.00    -0.087 C  
BRANCH  11  12
HETATM   12  C   UNL     1      -7.558   8.227  63.386  1.00  0.00    -0.131 C  
BRANCH  12  13
HETATM   13  N   UNL     1      -7.769   9.513  62.710  1.00  0.00    -0.114 NA 
HETATM   14  H   UNL     1      -7.340   9.536  61.784  1.00  0.00     0.000 HD 
BRANCH  13  15
HETATM   15  C   UNL     1      -9.196   9.815  62.663  1.00  0.00    -0.243 C  
BRANCH  15  16
HETATM   16  C   UNL     1      -9.518  11.012  63.550  1.00  0.00    -0.315 C  
BRANCH  16  17
HETATM   17  C   UNL     1     -11.023  11.268  63.533  1.00  0.00    -0.329 C  
BRANCH  17  18
HETATM   18  C   UNL     1     -11.324  12.757  63.551  1.00  0.00    -0.480 C  
BRANCH  18  19
HETATM   19  C   UNL     1     -12.529  13.060  64.441  1.00  0.00    -0.406 C  
BRANCH  19  20
HETATM   20  C   UNL     1     -12.038  13.378  65.846  1.00  0.00    -0.439 C  
BRANCH  20  21
HETATM   21  N   UNL     1     -12.128  12.204  66.711  1.00  0.00    -0.565 NA 
HETATM   22  H   UNL     1     -12.182  11.342  66.169  1.00  0.00     0.000 HD 
BRANCH  21  23
HETATM   23  C   UNL     1     -11.019  12.168  67.675  1.00  0.00    -0.243 C  
BRANCH  23  24
HETATM   24  C   UNL     1      -9.683  12.629  67.073  1.00  0.00    -0.225 C  
BRANCH  24  25
HETATM   25  C   UNL     1      -9.198  13.918  67.679  1.00  0.00    -0.199 A  
HETATM   26  C   UNL     1      -8.095  14.578  67.124  1.00  0.00    -0.196 A  
HETATM   27  C   UNL     1      -7.645  15.780  67.673  1.00  0.00    -0.177 A  
HETATM   28  C   UNL     1      -8.291  16.319  68.782  1.00  0.00    -0.235 A  
HETATM   29  C   UNL     1      -9.383  15.660  69.347  1.00  0.00    -0.279 A  
HETATM   30  C   UNL     1      -9.833  14.460  68.799  1.00  0.00    -0.214 A  
ENDBRANCH  24  25
ENDBRANCH  23  24
ENDBRANCH  21  23
ENDBRANCH  20  21
ENDBRANCH  19  20
ENDBRANCH  18  19
ENDBRANCH  17  18
ENDBRANCH  16  17
ENDBRANCH  15  16
ENDBRANCH  13  15
ENDBRANCH  12  13
ENDBRANCH  11  12
ENDBRANCH   8  11
TORSDOF 13
ENDMDL
MODEL      289
REMARK 921   NORMALIZED FREE ENERGY PREDICTED BY IDOCK:   -3.35 KCAL/MOL
REMARK 922        TOTAL FREE ENERGY PREDICTED BY IDOCK:   -8.65 KCAL/MOL
REMARK 923 INTER-LIGAND FREE ENERGY PREDICTED BY IDOCK:   -7.93 KCAL/MOL
REMARK 924 INTRA-LIGAND FREE ENERGY PREDICTED BY IDOCK:   -0.71 KCAL/MOL
REMARK 927      BINDING AFFINITY PREDICTED BY RF-SCORE:    0.00 PKD
ROOT
HETATM    1  O   UNL     1      -6.631  18.341  68.120  1.00  0.00    -0.198 OA 
HETATM    2  H   UNL     1      -5.852  17.837  68.325  1.00  0.00     0.000 HD 
HETATM    3  C   UNL     1      -7.902  17.850  68.250  1.00  0.00    -0.285 A  
HETATM    4  C   UNL     1      -9.043  18.588  67.951  1.00  0.00    -0.290 A  
HETATM    5  C   UNL     1     -10.309  18.032  68.145  1.00  0.00    -0.398 A  
HETATM    6  O   UNL     1      -8.992  19.863  67.465  1.00  0.00    -0.318 OA 
HETATM    7  H   UNL     1      -9.770  20.367  67.260  1.00  0.00     0.000 HD 
HETATM    8  C   UNL     1     -10.441  16.736  68.655  1.00  0.00    -0.333 A  
HETATM    9  C   UNL     1      -8.020  16.543  68.712  1.00  0.00    -0.236 A  
HETATM   10  C   UNL     1      -9.284  15.984  68.911  1.00  0.00    -0.233 A  
ENDROOT
BRANCH   8  11
HETATM   11  C   UNL     1     -11.804  16.143  68.914  1.00  0.00    -0.159 C  
BRANCH  11  12
HETATM   12  C   UNL     1     -11.922  15.603  70.340  1.00  0.00    -0.376 C  
BRANCH  12  13
HETATM   13  N   UNL     1     -12.944  14.552  70.412  1.00  0.00    -0.519 NA 
HETATM   14  H   UNL     1     -13.508  14.506  69.563  1.00  0.00     0.000 HD 
BRANCH  13  15
HETATM   15  C   UNL     1     -12.312  13.273  70.722  1.00  0.00    -0.344 C  
BRANCH  15  16
HETATM   16  C   UNL     1     -11.814  12.601  69.447  1.00  0.00    -0.356 C  
BRANCH  16  17
HETATM   17  C   UNL     1     -12.122  11.107  69.507  1.00  0.00    -0.396 C  
BRANCH  17  18
HETATM   18  C   UNL     1     -12.691  10.720  70.861  1.00  0.00    -0.478 C  
BRANCH  18  19
HETATM   19  C   UNL     1     -11.814   9.671  71.542  1.00  0.00    -0.483 C  
BRANCH  19  20
HETATM   20  C   UNL     1     -10.992   8.951  70.483  1.00  0.00    -0.241 C  
BRANCH  20  21
HETATM   21  N   UNL     1     -11.638   7.705  70.076  1.00  0.00    -0.480 NA 
HETATM   22  H   UNL     1     -12.550   7.876  69.653  1.00  0.00     0.000 HD 
BRANCH  21  23
HETATM   23  C   UNL     1     -10.767   6.922  69.187  1.00  0.00    -0.234 C  
BRANCH  23  24
HETATM   24  C   UNL     1     -10.636   7.532  67.783  1.00  0.00    -0.274 C  
BRANCH  24  25
HETATM   25  C   UNL     1     -10.049   6.564  66.791  1.00  0.00    -0.239 A  
HETATM   26  C   UNL     1      -8.890   6.905  66.085  1.00  0.00    -0.163 A  
HETATM   27  C   UNL     1      -8.333   6.009  65.171  1.00  0.00    -0.140 A  
HETATM   28  C   UNL     1      -8.938   4.773  64.958  1.00  0.00    -0.153 A  
HETATM   29  C   UNL     1     -10.100   4.432  65.650  1.00  0.00    -0.256 A  
HETATM   30  C   UNL     1     -10.657   5.326  66.562  1.00  0.00    -0.348 A  
ENDBRANCH  24  25
ENDBRANCH  23  24
ENDBRANCH  21  23
ENDBRANCH  20  21
ENDBRANCH  19  20
ENDBRANCH  18  19
ENDBRANCH  17  18
ENDBRANCH  16  17
ENDBRANCH  15  16
ENDBRANCH  13  15
ENDBRANCH  12  13
ENDBRANCH  11  12
ENDBRANCH   8  11
TORSDOF 13
ENDMDL
MODEL      290
REMARK 921   NORMALIZED FREE ENERGY PREDICTED BY IDOCK:   -3.34 KCAL/MOL
REMARK 922        TOTAL FREE ENERGY PREDICTED BY IDOCK:   -8.64 KCAL/MOL
REMARK 923 INTER-LIGAND FREE ENERGY PREDICTED BY IDOCK:   -6.45 KCAL/MOL
REMARK 924 INTRA-LIGAND FREE ENERGY PREDICTED BY IDOCK:   -2.19 KCAL/MOL
REMARK 927      BINDING AFFINITY PREDICTED BY RF-SCORE:    0.00 PKD
ROOT
HETATM    1  O   UNL     1     -10.302   7.973  72.589  1.00  0.00    -0.278 OA 
HETATM    2  H   UNL     1      -9.884   8.172  73.419  1.00  0.00     0.000 HD 
HETATM    3  C   UNL     1      -9.684   8.128  71.378  1.00  0.00    -0.171 A  
HETATM    4  C   UNL     1     -10.296   7.836  70.163  1.00  0.00    -0.218 A  
HETATM    5  C   UNL     1      -9.588   7.984  68.968  1.00  0.00    -0.156 A  
HETATM    6  O   UNL     1     -11.586   7.399  70.071  1.00  0.00    -0.482 OA 
HETATM    7  H   UNL     1     -12.004   7.200  69.241  1.00  0.00     0.000 HD 
HETATM    8  C   UNL     1      -8.256   8.413  68.984  1.00  0.00    -0.118 A  
HETATM    9  C   UNL     1      -8.376   8.601  71.403  1.00  0.00    -0.217 A  
HETATM   10  C   UNL     1      -7.663   8.748  70.211  1.00  0.00    -0.085 A  
ENDROOT
BRANCH   8  11
HETATM   11  C   UNL     1      -7.468   8.530  67.703  1.00  0.00    -0.094 C  
BRANCH  11  12
HETATM   12  C   UNL     1      -6.628   9.808  67.672  1.00  0.00    -0.068 C  
BRANCH  12  13
HETATM   13  N   UNL     1      -7.357  10.889  66.998  1.00  0.00    -0.111 NA 
HETATM   14  H   UNL     1      -8.229  10.563  66.582  1.00  0.00     0.000 HD 
BRANCH  13  15
HETATM   15  C   UNL     1      -7.570  11.993  67.930  1.00  0.00    -0.124 C  
BRANCH  15  16
HETATM   16  C   UNL     1      -7.973  13.257  67.178  1.00  0.00    -0.077 C  
BRANCH  16  17
HETATM   17  C   UNL     1      -6.971  14.368  67.478  1.00  0.00    -0.182 C  
BRANCH  17  18
HETATM   18  C   UNL     1      -7.673  15.704  67.652  1.00  0.00    -0.176 C  
BRANCH  18  19
HETATM   19  C   UNL     1      -8.437  16.089  66.385  1.00  0.00    -0.363 C  
BRANCH  19  20
HETATM   20  C   UNL     1      -9.721  16.805  66.781  1.00  0.00    -0.264 C  
BRANCH  20  21
HETATM   21  N   UNL     1     -10.779  16.562  65.804  1.00  0.00    -0.274 NA 
HETATM   22  H   UNL     1     -10.846  17.321  65.127  1.00  0.00     0.000 HD 
BRANCH  21  23
HETATM   23  C   UNL     1     -10.603  15.261  65.143  1.00  0.00    -0.430 C  
BRANCH  23  24
HETATM   24  C   UNL     1     -11.827  14.343  65.283  1.00  0.00    -0.373 C  
BRANCH  24  25
HETATM   25  C   UNL     1     -11.612  13.256  66.301  1.00  0.00    -0.384 A  
HETATM   26  C   UNL     1     -11.834  13.518  67.658  1.00  0.00    -0.399 A  
HETATM   27  C   UNL     1     -11.648  12.512  68.608  1.00  0.00    -0.357 A  
HETATM   28  C   UNL     1     -11.234  11.246  68.203  1.00  0.00    -0.351 A  
HETATM   29  C   UNL     1     -11.000  10.983  66.854  1.00  0.00    -0.311 A  
HETATM   30  C   UNL     1     -11.186  11.986  65.905  1.00  0.00    -0.385 A  
ENDBRANCH  24  25
ENDBRANCH  23  24
ENDBRANCH  21  23
ENDBRANCH  20  21
ENDBRANCH  19  20
ENDBRANCH  18  19
ENDBRANCH  17  18
ENDBRANCH  16  17
ENDBRANCH  15  16
ENDBRANCH  13  15
ENDBRANCH  12  13
ENDBRANCH  11  12
ENDBRANCH   8  11
TORSDOF 13
ENDMDL
MODEL      291
REMARK 921   NORMALIZED FREE ENERGY PREDICTED BY IDOCK:   -3.33 KCAL/MOL
REMARK 922        TOTAL FREE ENERGY PREDICTED BY IDOCK:   -8.62 KCAL/MOL
REMARK 923 INTER-LIGAND FREE ENERGY PREDICTED BY IDOCK:   -7.85 KCAL/MOL
REMARK 924 INTRA-LIGAND FREE ENERGY PREDICTED BY IDOCK:   -0.77 KCAL/MOL
REMARK 927      BINDING AFFINITY PREDICTED BY RF-SCORE:    0.00 PKD
ROOT
HETATM    1  O   UNL     1      -8.607   7.846  64.129  1.00  0.00    -0.377 OA 
HETATM    2  H   UNL     1      -8.087   8.169  63.402  1.00  0.00     0.000 HD 
HETATM    3  C   UNL     1      -8.862   8.579  65.256  1.00  0.00    -0.100 A  
HETATM    4  C   UNL     1      -9.625   8.107  66.320  1.00  0.00    -0.178 A  
HETATM    5  C   UNL     1      -9.875   8.927  67.423  1.00  0.00    -0.247 A  
HETATM    6  O   UNL     1     -10.158   6.850  66.347  1.00  0.00    -0.414 OA 
HETATM    7  H   UNL     1     -10.678   6.528  67.074  1.00  0.00     0.000 HD 
HETATM    8  C   UNL     1      -9.373  10.233  67.460  1.00  0.00    -0.164 A  
HETATM    9  C   UNL     1      -8.318   9.859  65.303  1.00  0.00    -0.153 A  
HETATM   10  C   UNL     1      -8.568  10.684  66.401  1.00  0.00    -0.151 A  
ENDROOT
BRANCH   8  11
HETATM   11  C   UNL     1      -9.678  11.144  68.623  1.00  0.00    -0.202 C  
BRANCH  11  12
HETATM   12  C   UNL     1     -11.103  10.940  69.140  1.00  0.00    -0.245 C  
BRANCH  12  13
HETATM   13  N   UNL     1     -12.080  11.183  68.072  1.00  0.00    -0.711 NA 
HETATM   14  H   UNL     1     -13.040  11.163  68.418  1.00  0.00     0.000 HD 
BRANCH  13  15
HETATM   15  C   UNL     1     -11.764  12.436  67.394  1.00  0.00    -0.347 C  
BRANCH  15  16
HETATM   16  C   UNL     1     -11.864  12.264  65.882  1.00  0.00    -0.420 C  
BRANCH  16  17
HETATM   17  C   UNL     1     -12.272  13.590  65.245  1.00  0.00    -0.474 C  
BRANCH  17  18
HETATM   18  C   UNL     1     -11.054  14.376  64.791  1.00  0.00    -0.402 C  
BRANCH  18  19
HETATM   19  C   UNL     1     -11.391  15.857  64.623  1.00  0.00    -0.328 C  
BRANCH  19  20
HETATM   20  C   UNL     1     -10.329  16.688  65.329  1.00  0.00    -0.092 C  
BRANCH  20  21
HETATM   21  N   UNL     1     -10.661  18.110  65.285  1.00  0.00    -0.542 NA 
HETATM   22  H   UNL     1     -11.658  18.267  65.434  1.00  0.00     0.000 HD 
BRANCH  21  23
HETATM   23  C   UNL     1      -9.845  18.876  66.237  1.00  0.00    -0.365 C  
BRANCH  23  24
HETATM   24  C   UNL     1     -10.412  18.862  67.665  1.00  0.00    -0.514 C  
BRANCH  24  25
HETATM   25  C   UNL     1     -10.253  17.521  68.329  1.00  0.00    -0.365 A  
HETATM   26  C   UNL     1     -11.386  16.766  68.656  1.00  0.00    -0.062 A  
HETATM   27  C   UNL     1     -11.248  15.517  69.263  1.00  0.00    -0.312 A  
HETATM   28  C   UNL     1      -9.977  15.023  69.549  1.00  0.00    -0.152 A  
HETATM   29  C   UNL     1      -8.846  15.775  69.236  1.00  0.00    -0.262 A  
HETATM   30  C   UNL     1      -8.983  17.023  68.630  1.00  0.00    -0.267 A  
ENDBRANCH  24  25
ENDBRANCH  23  24
ENDBRANCH  21  23
ENDBRANCH  20  21
ENDBRANCH  19  20
ENDBRANCH  18  19
ENDBRANCH  17  18
ENDBRANCH  16  17
ENDBRANCH  15  16
ENDBRANCH  13  15
ENDBRANCH  12  13
ENDBRANCH  11  12
ENDBRANCH   8  11
TORSDOF 13
ENDMDL
MODEL      292
REMARK 921   NORMALIZED FREE ENERGY PREDICTED BY IDOCK:   -3.33 KCAL/MOL
REMARK 922        TOTAL FREE ENERGY PREDICTED BY IDOCK:   -8.62 KCAL/MOL
REMARK 923 INTER-LIGAND FREE ENERGY PREDICTED BY IDOCK:   -7.11 KCAL/MOL
REMARK 924 INTRA-LIGAND FREE ENERGY PREDICTED BY IDOCK:   -1.51 KCAL/MOL
REMARK 927      BINDING AFFINITY PREDICTED BY RF-SCORE:    0.00 PKD
ROOT
HETATM    1  O   UNL     1     -11.362  13.988  70.768  1.00  0.00    -0.505 OA 
HETATM    2  H   UNL     1     -11.182  14.833  71.164  1.00  0.00     0.000 HD 
HETATM    3  C   UNL     1     -11.642  13.824  69.439  1.00  0.00    -0.310 A  
HETATM    4  C   UNL     1     -11.906  12.587  68.858  1.00  0.00    -0.301 A  
HETATM    5  C   UNL     1     -12.147  12.493  67.486  1.00  0.00    -0.124 A  
HETATM    6  O   UNL     1     -11.941  11.426  69.577  1.00  0.00    -0.309 OA 
HETATM    7  H   UNL     1     -12.121  10.582  69.181  1.00  0.00     0.000 HD 
HETATM    8  C   UNL     1     -12.112  13.638  66.683  1.00  0.00    -0.459 A  
HETATM    9  C   UNL     1     -11.653  14.975  68.658  1.00  0.00    -0.347 A  
HETATM   10  C   UNL     1     -11.890  14.886  67.285  1.00  0.00    -0.239 A  
ENDROOT
BRANCH   8  11
HETATM   11  C   UNL     1     -12.324  13.541  65.192  1.00  0.00    -0.488 C  
BRANCH  11  12
HETATM   12  C   UNL     1     -11.020  13.223  64.457  1.00  0.00    -0.382 C  
BRANCH  12  13
HETATM   13  N   UNL     1     -11.254  12.239  63.393  1.00  0.00    -0.630 NA 
HETATM   14  H   UNL     1     -11.397  12.682  62.485  1.00  0.00     0.000 HD 
BRANCH  13  15
HETATM   15  C   UNL     1     -10.158  11.274  63.368  1.00  0.00    -0.400 C  
BRANCH  15  16
HETATM   16  C   UNL     1     -10.155  10.438  64.644  1.00  0.00    -0.378 C  
BRANCH  16  17
HETATM   17  C   UNL     1      -8.781   9.800  64.830  1.00  0.00    -0.216 C  
BRANCH  17  18
HETATM   18  C   UNL     1      -8.711   9.024  66.134  1.00  0.00    -0.169 C  
BRANCH  18  19
HETATM   19  C   UNL     1      -9.742   9.543  67.134  1.00  0.00    -0.221 C  
BRANCH  19  20
HETATM   20  C   UNL     1     -10.471   8.358  67.752  1.00  0.00    -0.220 C  
BRANCH  20  21
HETATM   21  N   UNL     1     -11.005   7.474  66.719  1.00  0.00    -0.475 NA 
HETATM   22  H   UNL     1     -10.671   7.736  65.792  1.00  0.00     0.000 HD 
BRANCH  21  23
HETATM   23  C   UNL     1     -10.710   6.066  67.022  1.00  0.00    -0.337 C  
BRANCH  23  24
HETATM   24  C   UNL     1      -9.610   5.475  66.127  1.00  0.00    -0.158 C  
BRANCH  24  25
HETATM   25  C   UNL     1      -8.499   4.848  66.925  1.00  0.00    -0.106 A  
HETATM   26  C   UNL     1      -8.299   3.463  66.872  1.00  0.00    -0.100 A  
HETATM   27  C   UNL     1      -7.264   2.874  67.601  1.00  0.00    -0.053 A  
HETATM   28  C   UNL     1      -6.432   3.668  68.387  1.00  0.00    -0.037 A  
HETATM   29  C   UNL     1      -6.635   5.046  68.452  1.00  0.00    -0.045 A  
HETATM   30  C   UNL     1      -7.668   5.635  67.725  1.00  0.00    -0.096 A  
ENDBRANCH  24  25
ENDBRANCH  23  24
ENDBRANCH  21  23
ENDBRANCH  20  21
ENDBRANCH  19  20
ENDBRANCH  18  19
ENDBRANCH  17  18
ENDBRANCH  16  17
ENDBRANCH  15  16
ENDBRANCH  13  15
ENDBRANCH  12  13
ENDBRANCH  11  12
ENDBRANCH   8  11
TORSDOF 13
ENDMDL
MODEL      293
REMARK 921   NORMALIZED FREE ENERGY PREDICTED BY IDOCK:   -3.33 KCAL/MOL
REMARK 922        TOTAL FREE ENERGY PREDICTED BY IDOCK:   -8.61 KCAL/MOL
REMARK 923 INTER-LIGAND FREE ENERGY PREDICTED BY IDOCK:   -7.76 KCAL/MOL
REMARK 924 INTRA-LIGAND FREE ENERGY PREDICTED BY IDOCK:   -0.85 KCAL/MOL
REMARK 927      BINDING AFFINITY PREDICTED BY RF-SCORE:    0.00 PKD
ROOT
HETATM    1  O   UNL     1      -8.874   7.331  65.194  1.00  0.00    -0.363 OA 
HETATM    2  H   UNL     1      -8.074   7.570  64.742  1.00  0.00     0.000 HD 
HETATM    3  C   UNL     1      -9.292   7.927  66.353  1.00  0.00    -0.189 A  
HETATM    4  C   UNL     1     -10.466   7.577  67.015  1.00  0.00    -0.338 A  
HETATM    5  C   UNL     1     -10.847   8.257  68.174  1.00  0.00     0.015 A  
HETATM    6  O   UNL     1     -11.289   6.578  66.581  1.00  0.00    -0.699 OA 
HETATM    7  H   UNL     1     -12.090   6.339  67.033  1.00  0.00     0.000 HD 
HETATM    8  C   UNL     1     -10.061   9.303  68.670  1.00  0.00    -0.207 A  
HETATM    9  C   UNL     1      -8.479   8.933  66.864  1.00  0.00    -0.113 A  
HETATM   10  C   UNL     1      -8.857   9.618  68.020  1.00  0.00    -0.119 A  
ENDROOT
BRANCH   8  11
HETATM   11  C   UNL     1     -10.488  10.076  69.893  1.00  0.00    -0.317 C  
BRANCH  11  12
HETATM   12  C   UNL     1     -11.944  10.535  69.790  1.00  0.00    -0.238 C  
BRANCH  12  13
HETATM   13  N   UNL     1     -12.110  11.483  68.682  1.00  0.00    -0.505 NA 
HETATM   14  H   UNL     1     -13.091  11.707  68.512  1.00  0.00     0.000 HD 
BRANCH  13  15
HETATM   15  C   UNL     1     -11.308  12.677  68.934  1.00  0.00    -0.297 C  
BRANCH  15  16
HETATM   16  C   UNL     1     -11.847  13.860  68.137  1.00  0.00    -0.407 C  
BRANCH  16  17
HETATM   17  C   UNL     1     -11.532  15.157  68.876  1.00  0.00    -0.337 C  
BRANCH  17  18
HETATM   18  C   UNL     1     -10.305  14.999  69.758  1.00  0.00    -0.172 C  
BRANCH  18  19
HETATM   19  C   UNL     1      -9.134  15.818  69.217  1.00  0.00    -0.263 C  
BRANCH  19  20
HETATM   20  C   UNL     1      -8.457  15.034  68.102  1.00  0.00    -0.151 C  
BRANCH  20  21
HETATM   21  N   UNL     1      -7.029  15.339  68.039  1.00  0.00    -0.120 NA 
HETATM   22  H   UNL     1      -6.486  14.530  67.738  1.00  0.00     0.000 HD 
BRANCH  21  23
HETATM   23  C   UNL     1      -6.773  16.509  67.187  1.00  0.00    -0.197 C  
BRANCH  23  24
HETATM   24  C   UNL     1      -7.951  16.848  66.260  1.00  0.00    -0.350 C  
BRANCH  24  25
HETATM   25  C   UNL     1      -8.634  18.131  66.650  1.00  0.00    -0.284 A  
HETATM   26  C   UNL     1     -10.029  18.171  66.765  1.00  0.00    -0.353 A  
HETATM   27  C   UNL     1     -10.670  19.353  67.136  1.00  0.00    -0.593 A  
HETATM   28  C   UNL     1      -9.919  20.499  67.386  1.00  0.00    -0.525 A  
HETATM   29  C   UNL     1      -8.531  20.468  67.261  1.00  0.00    -0.365 A  
HETATM   30  C   UNL     1      -7.889  19.288  66.891  1.00  0.00    -0.273 A  
ENDBRANCH  24  25
ENDBRANCH  23  24
ENDBRANCH  21  23
ENDBRANCH  20  21
ENDBRANCH  19  20
ENDBRANCH  18  19
ENDBRANCH  17  18
ENDBRANCH  16  17
ENDBRANCH  15  16
ENDBRANCH  13  15
ENDBRANCH  12  13
ENDBRANCH  11  12
ENDBRANCH   8  11
TORSDOF 13
ENDMDL
MODEL      294
REMARK 921   NORMALIZED FREE ENERGY PREDICTED BY IDOCK:   -3.32 KCAL/MOL
REMARK 922        TOTAL FREE ENERGY PREDICTED BY IDOCK:   -8.60 KCAL/MOL
REMARK 923 INTER-LIGAND FREE ENERGY PREDICTED BY IDOCK:   -7.46 KCAL/MOL
REMARK 924 INTRA-LIGAND FREE ENERGY PREDICTED BY IDOCK:   -1.14 KCAL/MOL
REMARK 927      BINDING AFFINITY PREDICTED BY RF-SCORE:    0.00 PKD
ROOT
HETATM    1  O   UNL     1      -8.730  21.279  67.321  1.00  0.00    -0.473 OA 
HETATM    2  H   UNL     1      -9.110  21.939  67.888  1.00  0.00     0.000 HD 
HETATM    3  C   UNL     1      -9.051  19.950  67.393  1.00  0.00    -0.342 A  
HETATM    4  C   UNL     1      -8.496  18.982  66.562  1.00  0.00    -0.314 A  
HETATM    5  C   UNL     1      -8.899  17.649  66.670  1.00  0.00    -0.283 A  
HETATM    6  O   UNL     1      -7.552  19.270  65.619  1.00  0.00    -0.443 OA 
HETATM    7  H   UNL     1      -7.172  18.609  65.051  1.00  0.00     0.000 HD 
HETATM    8  C   UNL     1      -9.874  17.280  67.604  1.00  0.00    -0.279 A  
HETATM    9  C   UNL     1      -9.985  19.586  68.358  1.00  0.00    -0.540 A  
HETATM   10  C   UNL     1     -10.395  18.256  68.467  1.00  0.00    -0.341 A  
ENDROOT
BRANCH   8  11
HETATM   11  C   UNL     1     -10.353  15.852  67.695  1.00  0.00    -0.281 C  
BRANCH  11  12
HETATM   12  C   UNL     1     -11.226  15.472  66.498  1.00  0.00    -0.104 C  
BRANCH  12  13
HETATM   13  N   UNL     1     -11.879  14.177  66.725  1.00  0.00    -0.407 NA 
HETATM   14  H   UNL     1     -12.729  14.073  66.170  1.00  0.00     0.000 HD 
BRANCH  13  15
HETATM   15  C   UNL     1     -10.927  13.097  66.481  1.00  0.00    -0.286 C  
BRANCH  15  16
HETATM   16  C   UNL     1     -11.600  11.741  66.664  1.00  0.00    -0.273 C  
BRANCH  16  17
HETATM   17  C   UNL     1     -10.559  10.710  67.091  1.00  0.00    -0.312 C  
BRANCH  17  18
HETATM   18  C   UNL     1      -9.546  11.320  68.045  1.00  0.00    -0.182 C  
BRANCH  18  19
HETATM   19  C   UNL     1      -9.447  10.502  69.332  1.00  0.00    -0.158 C  
BRANCH  19  20
HETATM   20  C   UNL     1     -10.826   9.959  69.679  1.00  0.00    -0.253 C  
BRANCH  20  21
HETATM   21  N   UNL     1     -11.197  10.307  71.049  1.00  0.00    -0.316 NA 
HETATM   22  H   UNL     1     -10.462  10.841  71.512  1.00  0.00     0.000 HD 
BRANCH  21  23
HETATM   23  C   UNL     1     -12.485  11.015  71.086  1.00  0.00    -0.397 C  
BRANCH  23  24
HETATM   24  C   UNL     1     -12.410  12.433  70.498  1.00  0.00    -0.346 C  
BRANCH  24  25
HETATM   25  C   UNL     1     -12.833  13.485  71.487  1.00  0.00    -0.440 A  
HETATM   26  C   UNL     1     -12.136  13.628  72.693  1.00  0.00     0.935 A  
HETATM   27  C   UNL     1     -12.513  14.609  73.611  1.00  0.00    -0.374 A  
HETATM   28  C   UNL     1     -13.592  15.444  73.328  1.00  0.00    -0.341 A  
HETATM   29  C   UNL     1     -14.297  15.298  72.134  1.00  0.00    -0.651 A  
HETATM   30  C   UNL     1     -13.921  14.319  71.216  1.00  0.00    -0.257 A  
ENDBRANCH  24  25
ENDBRANCH  23  24
ENDBRANCH  21  23
ENDBRANCH  20  21
ENDBRANCH  19  20
ENDBRANCH  18  19
ENDBRANCH  17  18
ENDBRANCH  16  17
ENDBRANCH  15  16
ENDBRANCH  13  15
ENDBRANCH  12  13
ENDBRANCH  11  12
ENDBRANCH   8  11
TORSDOF 13
ENDMDL
MODEL      295
REMARK 921   NORMALIZED FREE ENERGY PREDICTED BY IDOCK:   -3.31 KCAL/MOL
REMARK 922        TOTAL FREE ENERGY PREDICTED BY IDOCK:   -8.59 KCAL/MOL
REMARK 923 INTER-LIGAND FREE ENERGY PREDICTED BY IDOCK:   -7.35 KCAL/MOL
REMARK 924 INTRA-LIGAND FREE ENERGY PREDICTED BY IDOCK:   -1.23 KCAL/MOL
REMARK 927      BINDING AFFINITY PREDICTED BY RF-SCORE:    0.00 PKD
ROOT
HETATM    1  O   UNL     1      -7.375  13.372  69.415  1.00  0.00    -0.314 OA 
HETATM    2  H   UNL     1      -7.516  14.243  69.062  1.00  0.00     0.000 HD 
HETATM    3  C   UNL     1      -7.405  12.236  68.653  1.00  0.00    -0.106 A  
HETATM    4  C   UNL     1      -7.198  10.961  69.170  1.00  0.00    -0.118 A  
HETATM    5  C   UNL     1      -7.207   9.850  68.323  1.00  0.00    -0.078 A  
HETATM    6  O   UNL     1      -6.979  10.728  70.498  1.00  0.00    -0.477 OA 
HETATM    7  H   UNL     1      -6.838   9.858  70.851  1.00  0.00     0.000 HD 
HETATM    8  C   UNL     1      -7.410  10.012  66.948  1.00  0.00    -0.092 A  
HETATM    9  C   UNL     1      -7.656  12.404  67.295  1.00  0.00    -0.141 A  
HETATM   10  C   UNL     1      -7.662  11.297  66.443  1.00  0.00    -0.089 A  
ENDROOT
BRANCH   8  11
HETATM   11  C   UNL     1      -7.373   8.825  66.018  1.00  0.00    -0.089 C  
BRANCH  11  12
HETATM   12  C   UNL     1      -7.423   9.256  64.551  1.00  0.00    -0.102 C  
BRANCH  12  13
HETATM   13  N   UNL     1      -8.623   8.723  63.896  1.00  0.00    -0.390 NA 
HETATM   14  H   UNL     1      -9.254   8.270  64.559  1.00  0.00     0.000 HD 
BRANCH  13  15
HETATM   15  C   UNL     1      -9.286   9.786  63.146  1.00  0.00    -0.186 C  
BRANCH  15  16
HETATM   16  C   UNL     1     -10.278  10.529  64.035  1.00  0.00    -0.238 C  
BRANCH  16  17
HETATM   17  C   UNL     1     -10.763  11.785  63.316  1.00  0.00    -0.414 C  
BRANCH  17  18
HETATM   18  C   UNL     1     -10.850  12.962  64.272  1.00  0.00    -0.423 C  
BRANCH  18  19
HETATM   19  C   UNL     1     -11.868  12.692  65.379  1.00  0.00    -0.473 C  
BRANCH  19  20
HETATM   20  C   UNL     1     -11.297  13.180  66.704  1.00  0.00    -0.325 C  
BRANCH  20  21
HETATM   21  N   UNL     1     -11.555  14.606  66.892  1.00  0.00    -0.369 NA 
HETATM   22  H   UNL     1     -11.878  14.807  67.838  1.00  0.00     0.000 HD 
BRANCH  21  23
HETATM   23  C   UNL     1     -10.375  15.410  66.540  1.00  0.00    -0.289 C  
BRANCH  23  24
HETATM   24  C   UNL     1     -10.726  16.682  65.754  1.00  0.00    -0.210 C  
BRANCH  24  25
HETATM   25  C   UNL     1     -10.128  17.918  66.370  1.00  0.00    -0.369 A  
HETATM   26  C   UNL     1     -10.527  19.183  65.922  1.00  0.00    -0.500 A  
HETATM   27  C   UNL     1      -9.986  20.335  66.495  1.00  0.00    -0.528 A  
HETATM   28  C   UNL     1      -9.041  20.224  67.512  1.00  0.00    -0.462 A  
HETATM   29  C   UNL     1      -8.631  18.966  67.954  1.00  0.00    -0.323 A  
HETATM   30  C   UNL     1      -9.171  17.815  67.383  1.00  0.00    -0.248 A  
ENDBRANCH  24  25
ENDBRANCH  23  24
ENDBRANCH  21  23
ENDBRANCH  20  21
ENDBRANCH  19  20
ENDBRANCH  18  19
ENDBRANCH  17  18
ENDBRANCH  16  17
ENDBRANCH  15  16
ENDBRANCH  13  15
ENDBRANCH  12  13
ENDBRANCH  11  12
ENDBRANCH   8  11
TORSDOF 13
ENDMDL
MODEL      296
REMARK 921   NORMALIZED FREE ENERGY PREDICTED BY IDOCK:   -3.30 KCAL/MOL
REMARK 922        TOTAL FREE ENERGY PREDICTED BY IDOCK:   -8.56 KCAL/MOL
REMARK 923 INTER-LIGAND FREE ENERGY PREDICTED BY IDOCK:   -6.47 KCAL/MOL
REMARK 924 INTRA-LIGAND FREE ENERGY PREDICTED BY IDOCK:   -2.10 KCAL/MOL
REMARK 927      BINDING AFFINITY PREDICTED BY RF-SCORE:    0.00 PKD
ROOT
HETATM    1  O   UNL     1      -8.095  16.820  66.349  1.00  0.00    -0.266 OA 
HETATM    2  H   UNL     1      -8.142  17.635  65.864  1.00  0.00     0.000 HD 
HETATM    3  C   UNL     1      -9.004  16.461  67.308  1.00  0.00    -0.195 A  
HETATM    4  C   UNL     1      -8.937  15.267  68.019  1.00  0.00    -0.171 A  
HETATM    5  C   UNL     1      -9.922  14.952  68.957  1.00  0.00    -0.235 A  
HETATM    6  O   UNL     1      -7.932  14.358  67.845  1.00  0.00    -0.123 OA 
HETATM    7  H   UNL     1      -7.886  13.543  68.330  1.00  0.00     0.000 HD 
HETATM    8  C   UNL     1     -10.991  15.827  69.179  1.00  0.00    -0.265 A  
HETATM    9  C   UNL     1     -10.036  17.361  67.555  1.00  0.00    -0.298 A  
HETATM   10  C   UNL     1     -11.025  17.049  68.490  1.00  0.00    -0.247 A  
ENDROOT
BRANCH   8  11
HETATM   11  C   UNL     1     -12.087  15.475  70.155  1.00  0.00    -0.404 C  
BRANCH  11  12
HETATM   12  C   UNL     1     -12.092  13.980  70.480  1.00  0.00    -0.353 C  
BRANCH  12  13
HETATM   13  N   UNL     1     -12.765  13.733  71.761  1.00  0.00    -0.310 NA 
HETATM   14  H   UNL     1     -13.574  14.340  71.894  1.00  0.00     0.000 HD 
BRANCH  13  15
HETATM   15  C   UNL     1     -13.114  12.319  71.867  1.00  0.00    -0.363 C  
BRANCH  15  16
HETATM   16  C   UNL     1     -12.342  11.500  70.838  1.00  0.00    -0.460 C  
BRANCH  16  17
HETATM   17  C   UNL     1     -11.963  10.151  71.442  1.00  0.00    -0.447 C  
BRANCH  17  18
HETATM   18  C   UNL     1     -11.394   9.220  70.385  1.00  0.00    -0.283 C  
BRANCH  18  19
HETATM   19  C   UNL     1     -10.801   7.965  71.025  1.00  0.00    -0.253 C  
BRANCH  19  20
HETATM   20  C   UNL     1      -9.374   7.784  70.526  1.00  0.00    -0.163 C  
BRANCH  20  21
HETATM   21  N   UNL     1      -8.554   8.950  70.847  1.00  0.00    -0.182 NA 
HETATM   22  H   UNL     1      -7.957   8.777  71.656  1.00  0.00     0.000 HD 
BRANCH  21  23
HETATM   23  C   UNL     1      -7.773   9.388  69.681  1.00  0.00    -0.098 C  
BRANCH  23  24
HETATM   24  C   UNL     1      -8.165  10.789  69.186  1.00  0.00    -0.124 C  
BRANCH  24  25
HETATM   25  C   UNL     1      -9.108  10.738  68.015  1.00  0.00    -0.150 A  
HETATM   26  C   UNL     1     -10.213  11.598  67.972  1.00  0.00    -0.202 A  
HETATM   27  C   UNL     1     -11.087  11.565  66.884  1.00  0.00    -0.366 A  
HETATM   28  C   UNL     1     -10.862  10.669  65.842  1.00  0.00    -0.030 A  
HETATM   29  C   UNL     1      -9.771   9.802  65.886  1.00  0.00    -0.332 A  
HETATM   30  C   UNL     1      -8.897   9.834  66.971  1.00  0.00    -0.145 A  
ENDBRANCH  24  25
ENDBRANCH  23  24
ENDBRANCH  21  23
ENDBRANCH  20  21
ENDBRANCH  19  20
ENDBRANCH  18  19
ENDBRANCH  17  18
ENDBRANCH  16  17
ENDBRANCH  15  16
ENDBRANCH  13  15
ENDBRANCH  12  13
ENDBRANCH  11  12
ENDBRANCH   8  11
TORSDOF 13
ENDMDL
MODEL      297
REMARK 921   NORMALIZED FREE ENERGY PREDICTED BY IDOCK:   -3.30 KCAL/MOL
REMARK 922        TOTAL FREE ENERGY PREDICTED BY IDOCK:   -8.56 KCAL/MOL
REMARK 923 INTER-LIGAND FREE ENERGY PREDICTED BY IDOCK:   -7.13 KCAL/MOL
REMARK 924 INTRA-LIGAND FREE ENERGY PREDICTED BY IDOCK:   -1.43 KCAL/MOL
REMARK 927      BINDING AFFINITY PREDICTED BY RF-SCORE:    0.00 PKD
ROOT
HETATM    1  O   UNL     1      -7.825   4.190  64.464  1.00  0.00    -0.083 OA 
HETATM    2  H   UNL     1      -7.305   3.664  63.869  1.00  0.00     0.000 HD 
HETATM    3  C   UNL     1      -7.689   5.547  64.584  1.00  0.00    -0.093 A  
HETATM    4  C   UNL     1      -8.451   6.319  65.456  1.00  0.00    -0.144 A  
HETATM    5  C   UNL     1      -8.281   7.705  65.496  1.00  0.00    -0.135 A  
HETATM    6  O   UNL     1      -9.383   5.783  66.297  1.00  0.00    -0.155 OA 
HETATM    7  H   UNL     1      -9.904   6.310  66.892  1.00  0.00     0.000 HD 
HETATM    8  C   UNL     1      -7.355   8.328  64.653  1.00  0.00    -0.090 A  
HETATM    9  C   UNL     1      -6.731   6.150  63.776  1.00  0.00    -0.037 A  
HETATM   10  C   UNL     1      -6.560   7.536  63.810  1.00  0.00    -0.053 A  
ENDROOT
BRANCH   8  11
HETATM   11  C   UNL     1      -7.198   9.829  64.654  1.00  0.00    -0.131 C  
BRANCH  11  12
HETATM   12  C   UNL     1      -8.075  10.487  65.721  1.00  0.00    -0.158 C  
BRANCH  12  13
HETATM   13  N   UNL     1      -8.821  11.616  65.154  1.00  0.00    -0.381 NA 
HETATM   14  H   UNL     1      -8.204  12.308  64.726  1.00  0.00     0.000 HD 
BRANCH  13  15
HETATM   15  C   UNL     1      -9.825  11.120  64.217  1.00  0.00    -0.286 C  
BRANCH  15  16
HETATM   16  C   UNL     1     -10.508  12.281  63.502  1.00  0.00    -0.459 C  
BRANCH  16  17
HETATM   17  C   UNL     1     -12.014  12.036  63.457  1.00  0.00    -0.605 C  
BRANCH  17  18
HETATM   18  C   UNL     1     -12.714  12.723  64.617  1.00  0.00    -0.439 C  
BRANCH  18  19
HETATM   19  C   UNL     1     -12.022  14.038  64.971  1.00  0.00    -0.409 C  
BRANCH  19  20
HETATM   20  C   UNL     1     -11.806  14.093  66.477  1.00  0.00    -0.419 C  
BRANCH  20  21
HETATM   21  N   UNL     1     -10.462  13.644  66.831  1.00  0.00    -0.270 NA 
HETATM   22  H   UNL     1      -9.987  13.218  66.035  1.00  0.00     0.000 HD 
BRANCH  21  23
HETATM   23  C   UNL     1      -9.671  14.740  67.409  1.00  0.00    -0.214 C  
BRANCH  23  24
HETATM   24  C   UNL     1      -8.839  15.499  66.364  1.00  0.00    -0.359 C  
BRANCH  24  25
HETATM   25  C   UNL     1      -9.056  16.986  66.431  1.00  0.00    -0.300 A  
HETATM   26  C   UNL     1     -10.357  17.498  66.500  1.00  0.00    -0.325 A  
HETATM   27  C   UNL     1     -10.567  18.876  66.573  1.00  0.00    -0.462 A  
HETATM   28  C   UNL     1      -9.478  19.744  66.570  1.00  0.00    -0.500 A  
HETATM   29  C   UNL     1      -8.180  19.240  66.488  1.00  0.00    -0.319 A  
HETATM   30  C   UNL     1      -7.969  17.864  66.416  1.00  0.00    -0.302 A  
ENDBRANCH  24  25
ENDBRANCH  23  24
ENDBRANCH  21  23
ENDBRANCH  20  21
ENDBRANCH  19  20
ENDBRANCH  18  19
ENDBRANCH  17  18
ENDBRANCH  16  17
ENDBRANCH  15  16
ENDBRANCH  13  15
ENDBRANCH  12  13
ENDBRANCH  11  12
ENDBRANCH   8  11
TORSDOF 13
ENDMDL
MODEL      298
REMARK 921   NORMALIZED FREE ENERGY PREDICTED BY IDOCK:   -3.29 KCAL/MOL
REMARK 922        TOTAL FREE ENERGY PREDICTED BY IDOCK:   -8.54 KCAL/MOL
REMARK 923 INTER-LIGAND FREE ENERGY PREDICTED BY IDOCK:   -5.49 KCAL/MOL
REMARK 924 INTRA-LIGAND FREE ENERGY PREDICTED BY IDOCK:   -3.06 KCAL/MOL
REMARK 927      BINDING AFFINITY PREDICTED BY RF-SCORE:    0.00 PKD
ROOT
HETATM    1  O   UNL     1     -11.303   4.731  65.598  1.00  0.00    -0.900 OA 
HETATM    2  H   UNL     1     -11.810   5.524  65.466  1.00  0.00     0.000 HD 
HETATM    3  C   UNL     1      -9.963   4.731  65.872  1.00  0.00    -0.228 A  
HETATM    4  C   UNL     1      -9.220   3.570  66.065  1.00  0.00    -0.165 A  
HETATM    5  C   UNL     1      -7.862   3.650  66.380  1.00  0.00    -0.089 A  
HETATM    6  O   UNL     1      -9.762   2.321  65.963  1.00  0.00    -0.339 OA 
HETATM    7  H   UNL     1      -9.256   1.528  66.094  1.00  0.00     0.000 HD 
HETATM    8  C   UNL     1      -7.240   4.896  66.516  1.00  0.00    -0.077 A  
HETATM    9  C   UNL     1      -9.345   5.975  65.958  1.00  0.00    -0.100 A  
HETATM   10  C   UNL     1      -7.987   6.060  66.276  1.00  0.00    -0.106 A  
ENDROOT
BRANCH   8  11
HETATM   11  C   UNL     1      -5.785   4.994  66.903  1.00  0.00    -0.018 C  
BRANCH  11  12
HETATM   12  C   UNL     1      -5.590   5.866  68.145  1.00  0.00    -0.008 C  
BRANCH  12  13
HETATM   13  N   UNL     1      -6.172   5.219  69.327  1.00  0.00    -0.031 NA 
HETATM   14  H   UNL     1      -5.527   4.558  69.761  1.00  0.00     0.000 HD 
BRANCH  13  15
HETATM   15  C   UNL     1      -6.631   6.237  70.268  1.00  0.00    -0.045 C  
BRANCH  15  16
HETATM   16  C   UNL     1      -7.971   5.836  70.876  1.00  0.00    -0.111 C  
BRANCH  16  17
HETATM   17  C   UNL     1      -8.996   5.639  69.763  1.00  0.00    -0.140 C  
BRANCH  17  18
HETATM   18  C   UNL     1      -9.726   4.316  69.922  1.00  0.00    -0.291 C  
BRANCH  18  19
HETATM   19  C   UNL     1      -8.965   3.382  70.862  1.00  0.00    -0.164 C  
BRANCH  19  20
HETATM   20  C   UNL     1      -9.960   2.697  71.788  1.00  0.00    -0.118 C  
BRANCH  20  21
HETATM   21  N   UNL     1      -9.486   2.711  73.170  1.00  0.00    -0.088 NA 
HETATM   22  H   UNL     1      -8.606   2.205  73.270  1.00  0.00     0.000 HD 
BRANCH  21  23
HETATM   23  C   UNL     1      -9.380   4.085  73.681  1.00  0.00    -0.103 C  
BRANCH  23  24
HETATM   24  C   UNL     1     -10.746   4.762  73.875  1.00  0.00    -0.362 C  
BRANCH  24  25
HETATM   25  C   UNL     1     -10.872   6.034  73.081  1.00  0.00    -0.287 A  
HETATM   26  C   UNL     1     -10.023   7.114  73.354  1.00  0.00    -0.320 A  
HETATM   27  C   UNL     1     -10.126   8.293  72.615  1.00  0.00    -0.365 A  
HETATM   28  C   UNL     1     -11.081   8.398  71.607  1.00  0.00    -0.344 A  
HETATM   29  C   UNL     1     -11.937   7.330  71.339  1.00  0.00    -0.354 A  
HETATM   30  C   UNL     1     -11.835   6.151  72.076  1.00  0.00    -0.336 A  
ENDBRANCH  24  25
ENDBRANCH  23  24
ENDBRANCH  21  23
ENDBRANCH  20  21
ENDBRANCH  19  20
ENDBRANCH  18  19
ENDBRANCH  17  18
ENDBRANCH  16  17
ENDBRANCH  15  16
ENDBRANCH  13  15
ENDBRANCH  12  13
ENDBRANCH  11  12
ENDBRANCH   8  11
TORSDOF 13
ENDMDL
MODEL      299
REMARK 921   NORMALIZED FREE ENERGY PREDICTED BY IDOCK:   -3.28 KCAL/MOL
REMARK 922        TOTAL FREE ENERGY PREDICTED BY IDOCK:   -8.53 KCAL/MOL
REMARK 923 INTER-LIGAND FREE ENERGY PREDICTED BY IDOCK:   -6.22 KCAL/MOL
REMARK 924 INTRA-LIGAND FREE ENERGY PREDICTED BY IDOCK:   -2.32 KCAL/MOL
REMARK 927      BINDING AFFINITY PREDICTED BY RF-SCORE:    0.00 PKD
ROOT
HETATM    1  O   UNL     1      -8.780  12.718  66.237  1.00  0.00    -0.422 OA 
HETATM    2  H   UNL     1      -9.159  13.441  66.723  1.00  0.00     0.000 HD 
HETATM    3  C   UNL     1      -9.179  11.418  66.388  1.00  0.00    -0.197 A  
HETATM    4  C   UNL     1      -8.624  10.359  65.675  1.00  0.00    -0.167 A  
HETATM    5  C   UNL     1      -9.109   9.062  65.855  1.00  0.00    -0.264 A  
HETATM    6  O   UNL     1      -7.602  10.523  64.784  1.00  0.00    -0.299 OA 
HETATM    7  H   UNL     1      -7.223   9.800  64.298  1.00  0.00     0.000 HD 
HETATM    8  C   UNL     1     -10.165   8.818  66.740  1.00  0.00    -0.354 A  
HETATM    9  C   UNL     1     -10.196  11.181  67.306  1.00  0.00    -0.227 A  
HETATM   10  C   UNL     1     -10.687   9.886  67.487  1.00  0.00    -0.333 A  
ENDROOT
BRANCH   8  11
HETATM   11  C   UNL     1     -10.728   7.428  66.905  1.00  0.00    -0.324 C  
BRANCH  11  12
HETATM   12  C   UNL     1     -10.720   6.987  68.370  1.00  0.00    -0.179 C  
BRANCH  12  13
HETATM   13  N   UNL     1     -10.548   5.533  68.471  1.00  0.00    -0.173 NA 
HETATM   14  H   UNL     1     -11.431   5.052  68.645  1.00  0.00     0.000 HD 
BRANCH  13  15
HETATM   15  C   UNL     1      -9.876   5.034  67.274  1.00  0.00    -0.179 C  
BRANCH  15  16
HETATM   16  C   UNL     1      -8.397   4.790  67.555  1.00  0.00    -0.104 C  
BRANCH  16  17
HETATM   17  C   UNL     1      -7.558   5.425  66.449  1.00  0.00    -0.088 C  
BRANCH  17  18
HETATM   18  C   UNL     1      -6.282   6.028  67.010  1.00  0.00    -0.026 C  
BRANCH  18  19
HETATM   19  C   UNL     1      -6.392   6.231  68.521  1.00  0.00    -0.044 C  
BRANCH  19  20
HETATM   20  C   UNL     1      -6.040   7.675  68.851  1.00  0.00    -0.035 C  
BRANCH  20  21
HETATM   21  N   UNL     1      -7.236   8.513  68.882  1.00  0.00    -0.076 NA 
HETATM   22  H   UNL     1      -7.807   8.382  68.048  1.00  0.00     0.000 HD 
BRANCH  21  23
HETATM   23  C   UNL     1      -8.013   8.285  70.110  1.00  0.00    -0.106 C  
BRANCH  23  24
HETATM   24  C   UNL     1      -8.806   9.521  70.558  1.00  0.00    -0.253 C  
BRANCH  24  25
HETATM   25  C   UNL     1     -10.135   9.159  71.165  1.00  0.00    -0.384 A  
HETATM   26  C   UNL     1     -11.222  10.032  71.036  1.00  0.00    -0.387 A  
HETATM   27  C   UNL     1     -12.461   9.699  71.586  1.00  0.00    -0.494 A  
HETATM   28  C   UNL     1     -12.613   8.496  72.270  1.00  0.00    -0.438 A  
HETATM   29  C   UNL     1     -11.531   7.628  72.412  1.00  0.00    -0.392 A  
HETATM   30  C   UNL     1     -10.294   7.959  71.863  1.00  0.00    -0.271 A  
ENDBRANCH  24  25
ENDBRANCH  23  24
ENDBRANCH  21  23
ENDBRANCH  20  21
ENDBRANCH  19  20
ENDBRANCH  18  19
ENDBRANCH  17  18
ENDBRANCH  16  17
ENDBRANCH  15  16
ENDBRANCH  13  15
ENDBRANCH  12  13
ENDBRANCH  11  12
ENDBRANCH   8  11
TORSDOF 13
ENDMDL
MODEL      300
REMARK 921   NORMALIZED FREE ENERGY PREDICTED BY IDOCK:   -3.28 KCAL/MOL
REMARK 922        TOTAL FREE ENERGY PREDICTED BY IDOCK:   -8.53 KCAL/MOL
REMARK 923 INTER-LIGAND FREE ENERGY PREDICTED BY IDOCK:   -5.53 KCAL/MOL
REMARK 924 INTRA-LIGAND FREE ENERGY PREDICTED BY IDOCK:   -3.00 KCAL/MOL
REMARK 927      BINDING AFFINITY PREDICTED BY RF-SCORE:    0.00 PKD
ROOT
HETATM    1  O   UNL     1     -11.339   5.112  65.882  1.00  0.00    -0.782 OA 
HETATM    2  H   UNL     1     -11.869   5.896  65.797  1.00  0.00     0.000 HD 
HETATM    3  C   UNL     1      -9.984   5.136  66.071  1.00  0.00    -0.163 A  
HETATM    4  C   UNL     1      -9.208   3.988  66.196  1.00  0.00    -0.155 A  
HETATM    5  C   UNL     1      -7.834   4.091  66.425  1.00  0.00    -0.094 A  
HETATM    6  O   UNL     1      -9.730   2.729  66.105  1.00  0.00    -0.383 OA 
HETATM    7  H   UNL     1      -9.200   1.945  66.190  1.00  0.00     0.000 HD 
HETATM    8  C   UNL     1      -7.230   5.348  66.545  1.00  0.00    -0.077 A  
HETATM    9  C   UNL     1      -9.387   6.390  66.141  1.00  0.00    -0.110 A  
HETATM   10  C   UNL     1      -8.014   6.499  66.373  1.00  0.00    -0.110 A  
ENDROOT
BRANCH   8  11
HETATM   11  C   UNL     1      -5.756   5.470  66.841  1.00  0.00    -0.017 C  
BRANCH  11  12
HETATM   12  C   UNL     1      -5.505   5.914  68.283  1.00  0.00    -0.004 C  
BRANCH  12  13
HETATM   13  N   UNL     1      -6.327   5.132  69.215  1.00  0.00    -0.033 NA 
HETATM   14  H   UNL     1      -5.949   4.198  69.370  1.00  0.00     0.000 HD 
BRANCH  13  15
HETATM   15  C   UNL     1      -6.495   5.873  70.462  1.00  0.00    -0.036 C  
BRANCH  15  16
HETATM   16  C   UNL     1      -7.890   5.646  71.034  1.00  0.00    -0.105 C  
BRANCH  16  17
HETATM   17  C   UNL     1      -8.897   5.540  69.891  1.00  0.00    -0.137 C  
BRANCH  17  18
HETATM   18  C   UNL     1     -10.301   5.304  70.421  1.00  0.00    -0.345 C  
BRANCH  18  19
HETATM   19  C   UNL     1     -10.277   5.015  71.921  1.00  0.00    -0.267 C  
BRANCH  19  20
HETATM   20  C   UNL     1     -11.410   5.781  72.589  1.00  0.00    -0.300 C  
BRANCH  20  21
HETATM   21  N   UNL     1     -10.912   6.598  73.693  1.00  0.00    -0.486 NA 
HETATM   22  H   UNL     1     -10.344   6.049  74.338  1.00  0.00     0.000 HD 
BRANCH  21  23
HETATM   23  C   UNL     1     -10.183   7.774  73.197  1.00  0.00    -0.335 C  
BRANCH  23  24
HETATM   24  C   UNL     1     -10.996   8.606  72.194  1.00  0.00    -0.434 C  
BRANCH  24  25
HETATM   25  C   UNL     1     -10.262   8.814  70.896  1.00  0.00    -0.284 A  
HETATM   26  C   UNL     1      -8.869   8.955  70.898  1.00  0.00    -0.268 A  
HETATM   27  C   UNL     1      -8.180   9.138  69.698  1.00  0.00    -0.116 A  
HETATM   28  C   UNL     1      -8.882   9.186  68.496  1.00  0.00    -0.129 A  
HETATM   29  C   UNL     1     -10.271   9.058  68.490  1.00  0.00    -0.224 A  
HETATM   30  C   UNL     1     -10.960   8.876  69.687  1.00  0.00    -0.132 A  
ENDBRANCH  24  25
ENDBRANCH  23  24
ENDBRANCH  21  23
ENDBRANCH  20  21
ENDBRANCH  19  20
ENDBRANCH  18  19
ENDBRANCH  17  18
ENDBRANCH  16  17
ENDBRANCH  15  16
ENDBRANCH  13  15
ENDBRANCH  12  13
ENDBRANCH  11  12
ENDBRANCH   8  11
TORSDOF 13
ENDMDL
MODEL      301
REMARK 921   NORMALIZED FREE ENERGY PREDICTED BY IDOCK:   -3.28 KCAL/MOL
REMARK 922        TOTAL FREE ENERGY PREDICTED BY IDOCK:   -8.53 KCAL/MOL
REMARK 923 INTER-LIGAND FREE ENERGY PREDICTED BY IDOCK:   -7.34 KCAL/MOL
REMARK 924 INTRA-LIGAND FREE ENERGY PREDICTED BY IDOCK:   -1.19 KCAL/MOL
REMARK 927      BINDING AFFINITY PREDICTED BY RF-SCORE:    0.00 PKD
ROOT
HETATM    1  O   UNL     1      -6.168  10.854  63.441  1.00  0.00    -0.370 OA 
HETATM    2  H   UNL     1      -5.329  10.704  63.021  1.00  0.00     0.000 HD 
HETATM    3  C   UNL     1      -6.910   9.858  64.016  1.00  0.00    -0.126 A  
HETATM    4  C   UNL     1      -8.139  10.077  64.632  1.00  0.00    -0.155 A  
HETATM    5  C   UNL     1      -8.823   9.017  65.231  1.00  0.00    -0.234 A  
HETATM    6  O   UNL     1      -8.730  11.307  64.686  1.00  0.00    -0.376 OA 
HETATM    7  H   UNL     1      -9.569  11.457  65.106  1.00  0.00     0.000 HD 
HETATM    8  C   UNL     1      -8.272   7.730  65.228  1.00  0.00    -0.142 A  
HETATM    9  C   UNL     1      -6.376   8.575  63.965  1.00  0.00    -0.072 A  
HETATM   10  C   UNL     1      -7.054   7.512  64.566  1.00  0.00    -0.065 A  
ENDROOT
BRANCH   8  11
HETATM   11  C   UNL     1      -8.979   6.587  65.914  1.00  0.00    -0.103 C  
BRANCH  11  12
HETATM   12  C   UNL     1      -8.708   5.255  65.213  1.00  0.00    -0.151 C  
BRANCH  12  13
HETATM   13  N   UNL     1      -8.678   4.156  66.186  1.00  0.00    -0.113 NA 
HETATM   14  H   UNL     1      -7.774   4.079  66.651  1.00  0.00     0.000 HD 
BRANCH  13  15
HETATM   15  C   UNL     1      -9.775   4.312  67.137  1.00  0.00    -0.196 C  
BRANCH  15  16
HETATM   16  C   UNL     1      -9.529   3.463  68.380  1.00  0.00    -0.209 C  
BRANCH  16  17
HETATM   17  C   UNL     1      -9.901   4.264  69.625  1.00  0.00    -0.244 C  
BRANCH  17  18
HETATM   18  C   UNL     1     -10.273   5.692  69.264  1.00  0.00    -0.309 C  
BRANCH  18  19
HETATM   19  C   UNL     1     -11.353   6.229  70.203  1.00  0.00    -0.476 C  
BRANCH  19  20
HETATM   20  C   UNL     1     -10.909   6.009  71.642  1.00  0.00    -0.260 C  
BRANCH  20  21
HETATM   21  N   UNL     1     -11.838   6.635  72.579  1.00  0.00    -0.493 NA 
HETATM   22  H   UNL     1     -11.805   6.189  73.495  1.00  0.00     0.000 HD 
BRANCH  21  23
HETATM   23  C   UNL     1     -11.602   8.083  72.674  1.00  0.00    -0.387 C  
BRANCH  23  24
HETATM   24  C   UNL     1     -12.815   8.921  72.242  1.00  0.00    -0.475 C  
BRANCH  24  25
HETATM   25  C   UNL     1     -12.431  10.059  71.336  1.00  0.00    -0.510 A  
HETATM   26  C   UNL     1     -12.928  11.344  71.581  1.00  0.00    -0.523 A  
HETATM   27  C   UNL     1     -12.569  12.407  70.752  1.00  0.00    -0.298 A  
HETATM   28  C   UNL     1     -11.717  12.186  69.672  1.00  0.00    -0.396 A  
HETATM   29  C   UNL     1     -11.229  10.905  69.416  1.00  0.00    -0.335 A  
HETATM   30  C   UNL     1     -11.587   9.843  70.243  1.00  0.00    -0.319 A  
ENDBRANCH  24  25
ENDBRANCH  23  24
ENDBRANCH  21  23
ENDBRANCH  20  21
ENDBRANCH  19  20
ENDBRANCH  18  19
ENDBRANCH  17  18
ENDBRANCH  16  17
ENDBRANCH  15  16
ENDBRANCH  13  15
ENDBRANCH  12  13
ENDBRANCH  11  12
ENDBRANCH   8  11
TORSDOF 13
ENDMDL
MODEL      302
REMARK 921   NORMALIZED FREE ENERGY PREDICTED BY IDOCK:   -3.28 KCAL/MOL
REMARK 922        TOTAL FREE ENERGY PREDICTED BY IDOCK:   -8.52 KCAL/MOL
REMARK 923 INTER-LIGAND FREE ENERGY PREDICTED BY IDOCK:   -6.56 KCAL/MOL
REMARK 924 INTRA-LIGAND FREE ENERGY PREDICTED BY IDOCK:   -1.96 KCAL/MOL
REMARK 927      BINDING AFFINITY PREDICTED BY RF-SCORE:    0.00 PKD
ROOT
HETATM    1  O   UNL     1      -6.670  13.378  70.017  1.00  0.00    -0.358 OA 
HETATM    2  H   UNL     1      -6.695  13.302  70.964  1.00  0.00     0.000 HD 
HETATM    3  C   UNL     1      -6.813  12.311  69.172  1.00  0.00    -0.073 A  
HETATM    4  C   UNL     1      -6.776  12.422  67.786  1.00  0.00    -0.115 A  
HETATM    5  C   UNL     1      -6.968  11.293  66.986  1.00  0.00    -0.126 A  
HETATM    6  O   UNL     1      -6.558  13.607  67.144  1.00  0.00    -0.445 OA 
HETATM    7  H   UNL     1      -6.532  13.683  66.198  1.00  0.00     0.000 HD 
HETATM    8  C   UNL     1      -7.211  10.045  67.572  1.00  0.00    -0.089 A  
HETATM    9  C   UNL     1      -7.007  11.068  69.766  1.00  0.00    -0.092 A  
HETATM   10  C   UNL     1      -7.202   9.936  68.971  1.00  0.00    -0.077 A  
ENDROOT
BRANCH   8  11
HETATM   11  C   UNL     1      -7.468   8.828  66.717  1.00  0.00    -0.086 C  
BRANCH  11  12
HETATM   12  C   UNL     1      -8.806   8.171  67.059  1.00  0.00    -0.132 C  
BRANCH  12  13
HETATM   13  N   UNL     1      -8.617   7.090  68.034  1.00  0.00    -0.124 NA 
HETATM   14  H   UNL     1      -8.162   7.416  68.887  1.00  0.00     0.000 HD 
BRANCH  13  15
HETATM   15  C   UNL     1      -9.898   6.444  68.305  1.00  0.00    -0.128 C  
BRANCH  15  16
HETATM   16  C   UNL     1     -10.554   7.059  69.537  1.00  0.00    -0.253 C  
BRANCH  16  17
HETATM   17  C   UNL     1      -9.474   7.503  70.520  1.00  0.00    -0.164 C  
BRANCH  17  18
HETATM   18  C   UNL     1      -9.744   8.909  71.029  1.00  0.00    -0.320 C  
BRANCH  18  19
HETATM   19  C   UNL     1     -11.138   9.008  71.648  1.00  0.00    -0.433 C  
BRANCH  19  20
HETATM   20  C   UNL     1     -11.810  10.280  71.151  1.00  0.00    -0.362 C  
BRANCH  20  21
HETATM   21  N   UNL     1     -12.120  10.188  69.726  1.00  0.00    -0.492 NA 
HETATM   22  H   UNL     1     -13.032   9.759  69.568  1.00  0.00     0.000 HD 
BRANCH  21  23
HETATM   23  C   UNL     1     -12.020  11.501  69.074  1.00  0.00    -0.311 C  
BRANCH  23  24
HETATM   24  C   UNL     1     -10.679  11.715  68.354  1.00  0.00    -0.248 C  
BRANCH  24  25
HETATM   25  C   UNL     1     -10.810  12.621  67.159  1.00  0.00    -0.282 A  
HETATM   26  C   UNL     1     -11.847  12.418  66.241  1.00  0.00    -0.431 A  
HETATM   27  C   UNL     1     -11.982  13.261  65.136  1.00  0.00    -0.413 A  
HETATM   28  C   UNL     1     -11.078  14.302  64.945  1.00  0.00    -0.396 A  
HETATM   29  C   UNL     1     -10.036  14.501  65.850  1.00  0.00    -0.352 A  
HETATM   30  C   UNL     1      -9.900  13.661  66.953  1.00  0.00    -0.261 A  
ENDBRANCH  24  25
ENDBRANCH  23  24
ENDBRANCH  21  23
ENDBRANCH  20  21
ENDBRANCH  19  20
ENDBRANCH  18  19
ENDBRANCH  17  18
ENDBRANCH  16  17
ENDBRANCH  15  16
ENDBRANCH  13  15
ENDBRANCH  12  13
ENDBRANCH  11  12
ENDBRANCH   8  11
TORSDOF 13
ENDMDL
MODEL      303
REMARK 921   NORMALIZED FREE ENERGY PREDICTED BY IDOCK:   -3.27 KCAL/MOL
REMARK 922        TOTAL FREE ENERGY PREDICTED BY IDOCK:   -8.50 KCAL/MOL
REMARK 923 INTER-LIGAND FREE ENERGY PREDICTED BY IDOCK:   -7.48 KCAL/MOL
REMARK 924 INTRA-LIGAND FREE ENERGY PREDICTED BY IDOCK:   -1.02 KCAL/MOL
REMARK 927      BINDING AFFINITY PREDICTED BY RF-SCORE:    0.00 PKD
ROOT
HETATM    1  O   UNL     1     -13.375  15.925  73.872  1.00  0.00    -0.804 OA 
HETATM    2  H   UNL     1     -13.092  16.727  74.296  1.00  0.00     0.000 HD 
HETATM    3  C   UNL     1     -12.928  15.526  72.642  1.00  0.00    -0.445 A  
HETATM    4  C   UNL     1     -13.342  14.352  72.020  1.00  0.00    -0.384 A  
HETATM    5  C   UNL     1     -12.813  13.990  70.779  1.00  0.00    -0.355 A  
HETATM    6  O   UNL     1     -14.263  13.508  72.573  1.00  0.00    -0.734 OA 
HETATM    7  H   UNL     1     -14.546  12.707  72.149  1.00  0.00     0.000 HD 
HETATM    8  C   UNL     1     -11.854  14.798  70.158  1.00  0.00    -0.360 A  
HETATM    9  C   UNL     1     -12.010  16.361  72.012  1.00  0.00    -0.437 A  
HETATM   10  C   UNL     1     -11.476  16.002  70.773  1.00  0.00    -0.444 A  
ENDROOT
BRANCH   8  11
HETATM   11  C   UNL     1     -11.240  14.393  68.841  1.00  0.00    -0.284 C  
BRANCH  11  12
HETATM   12  C   UNL     1     -10.933  12.894  68.799  1.00  0.00    -0.254 C  
BRANCH  12  13
HETATM   13  N   UNL     1      -9.484  12.662  68.823  1.00  0.00    -0.408 NA 
HETATM   14  H   UNL     1      -9.080  12.850  69.740  1.00  0.00     0.000 HD 
BRANCH  13  15
HETATM   15  C   UNL     1      -9.197  11.307  68.361  1.00  0.00    -0.178 C  
BRANCH  15  16
HETATM   16  C   UNL     1      -9.214  11.248  66.837  1.00  0.00    -0.184 C  
BRANCH  16  17
HETATM   17  C   UNL     1     -10.151  10.131  66.383  1.00  0.00    -0.300 C  
BRANCH  17  18
HETATM   18  C   UNL     1     -10.534   9.233  67.546  1.00  0.00    -0.338 C  
BRANCH  18  19
HETATM   19  C   UNL     1     -10.630   7.774  67.101  1.00  0.00    -0.401 C  
BRANCH  19  20
HETATM   20  C   UNL     1     -10.479   6.875  68.320  1.00  0.00    -0.206 C  
BRANCH  20  21
HETATM   21  N   UNL     1     -10.703   5.475  67.970  1.00  0.00    -0.146 NA 
HETATM   22  H   UNL     1     -11.644   5.172  68.218  1.00  0.00     0.000 HD 
BRANCH  21  23
HETATM   23  C   UNL     1     -10.412   5.230  66.550  1.00  0.00    -0.298 C  
BRANCH  23  24
HETATM   24  C   UNL     1      -9.278   4.216  66.333  1.00  0.00    -0.161 C  
BRANCH  24  25
HETATM   25  C   UNL     1      -7.962   4.885  66.039  1.00  0.00    -0.107 A  
HETATM   26  C   UNL     1      -7.942   6.149  65.436  1.00  0.00    -0.116 A  
HETATM   27  C   UNL     1      -6.727   6.781  65.170  1.00  0.00    -0.050 A  
HETATM   28  C   UNL     1      -5.530   6.148  65.498  1.00  0.00    -0.017 A  
HETATM   29  C   UNL     1      -5.544   4.884  66.087  1.00  0.00    -0.017 A  
HETATM   30  C   UNL     1      -6.757   4.252  66.354  1.00  0.00    -0.050 A  
ENDBRANCH  24  25
ENDBRANCH  23  24
ENDBRANCH  21  23
ENDBRANCH  20  21
ENDBRANCH  19  20
ENDBRANCH  18  19
ENDBRANCH  17  18
ENDBRANCH  16  17
ENDBRANCH  15  16
ENDBRANCH  13  15
ENDBRANCH  12  13
ENDBRANCH  11  12
ENDBRANCH   8  11
TORSDOF 13
ENDMDL
MODEL      304
REMARK 921   NORMALIZED FREE ENERGY PREDICTED BY IDOCK:   -3.26 KCAL/MOL
REMARK 922        TOTAL FREE ENERGY PREDICTED BY IDOCK:   -8.49 KCAL/MOL
REMARK 923 INTER-LIGAND FREE ENERGY PREDICTED BY IDOCK:   -6.97 KCAL/MOL
REMARK 924 INTRA-LIGAND FREE ENERGY PREDICTED BY IDOCK:   -1.53 KCAL/MOL
REMARK 927      BINDING AFFINITY PREDICTED BY RF-SCORE:    0.00 PKD
ROOT
HETATM    1  O   UNL     1     -11.345   7.235  73.789  1.00  0.00    -0.466 OA 
HETATM    2  H   UNL     1     -10.619   7.423  74.373  1.00  0.00     0.000 HD 
HETATM    3  C   UNL     1     -11.195   7.026  72.445  1.00  0.00    -0.268 A  
HETATM    4  C   UNL     1     -12.257   6.750  71.590  1.00  0.00    -0.365 A  
HETATM    5  C   UNL     1     -12.023   6.511  70.234  1.00  0.00    -0.252 A  
HETATM    6  O   UNL     1     -13.554   6.698  72.014  1.00  0.00    -0.481 OA 
HETATM    7  H   UNL     1     -14.280   6.511  71.431  1.00  0.00     0.000 HD 
HETATM    8  C   UNL     1     -10.718   6.532  69.728  1.00  0.00    -0.322 A  
HETATM    9  C   UNL     1      -9.899   7.097  71.945  1.00  0.00    -0.172 A  
HETATM   10  C   UNL     1      -9.659   6.855  70.591  1.00  0.00    -0.171 A  
ENDROOT
BRANCH   8  11
HETATM   11  C   UNL     1     -10.449   6.227  68.276  1.00  0.00    -0.277 C  
BRANCH  11  12
HETATM   12  C   UNL     1      -9.799   7.413  67.561  1.00  0.00    -0.158 C  
BRANCH  12  13
HETATM   13  N   UNL     1     -10.822   8.327  67.041  1.00  0.00    -0.399 NA 
HETATM   14  H   UNL     1     -11.768   7.997  67.236  1.00  0.00     0.000 HD 
BRANCH  13  15
HETATM   15  C   UNL     1     -10.590   9.671  67.562  1.00  0.00    -0.277 C  
BRANCH  15  16
HETATM   16  C   UNL     1     -10.285  10.640  66.425  1.00  0.00    -0.291 C  
BRANCH  16  17
HETATM   17  C   UNL     1      -8.789  10.614  66.122  1.00  0.00    -0.179 C  
BRANCH  17  18
HETATM   18  C   UNL     1      -7.974  10.869  67.379  1.00  0.00    -0.113 C  
BRANCH  18  19
HETATM   19  C   UNL     1      -7.714  12.363  67.567  1.00  0.00    -0.161 C  
BRANCH  19  20
HETATM   20  C   UNL     1      -7.590  12.659  69.055  1.00  0.00     0.146 C  
BRANCH  20  21
HETATM   21  N   UNL     1      -7.678  14.094  69.314  1.00  0.00    -0.339 NA 
HETATM   22  H   UNL     1      -6.796  14.467  69.664  1.00  0.00     0.000 HD 
BRANCH  21  23
HETATM   23  C   UNL     1      -8.138  14.821  68.122  1.00  0.00    -0.134 C  
BRANCH  23  24
HETATM   24  C   UNL     1      -9.538  15.430  68.291  1.00  0.00    -0.205 C  
BRANCH  24  25
HETATM   25  C   UNL     1     -10.534  14.851  67.322  1.00  0.00    -0.263 A  
HETATM   26  C   UNL     1     -11.455  13.891  67.759  1.00  0.00    -0.354 A  
HETATM   27  C   UNL     1     -12.389  13.357  66.870  1.00  0.00    -0.262 A  
HETATM   28  C   UNL     1     -12.399  13.776  65.542  1.00  0.00    -0.507 A  
HETATM   29  C   UNL     1     -11.477  14.723  65.099  1.00  0.00    -0.371 A  
HETATM   30  C   UNL     1     -10.544  15.258  65.986  1.00  0.00    -0.327 A  
ENDBRANCH  24  25
ENDBRANCH  23  24
ENDBRANCH  21  23
ENDBRANCH  20  21
ENDBRANCH  19  20
ENDBRANCH  18  19
ENDBRANCH  17  18
ENDBRANCH  16  17
ENDBRANCH  15  16
ENDBRANCH  13  15
ENDBRANCH  12  13
ENDBRANCH  11  12
ENDBRANCH   8  11
TORSDOF 13
ENDMDL
MODEL      305
REMARK 921   NORMALIZED FREE ENERGY PREDICTED BY IDOCK:   -3.25 KCAL/MOL
REMARK 922        TOTAL FREE ENERGY PREDICTED BY IDOCK:   -8.48 KCAL/MOL
REMARK 923 INTER-LIGAND FREE ENERGY PREDICTED BY IDOCK:   -7.09 KCAL/MOL
REMARK 924 INTRA-LIGAND FREE ENERGY PREDICTED BY IDOCK:   -1.39 KCAL/MOL
REMARK 927      BINDING AFFINITY PREDICTED BY RF-SCORE:    0.00 PKD
ROOT
HETATM    1  O   UNL     1     -11.217   5.626  66.222  1.00  0.00    -0.759 OA 
HETATM    2  H   UNL     1     -11.647   5.981  65.453  1.00  0.00     0.000 HD 
HETATM    3  C   UNL     1     -10.646   6.404  67.192  1.00  0.00    -0.321 A  
HETATM    4  C   UNL     1     -10.017   5.883  68.319  1.00  0.00    -0.146 A  
HETATM    5  C   UNL     1      -9.488   6.741  69.287  1.00  0.00    -0.142 A  
HETATM    6  O   UNL     1      -9.884   4.542  68.539  1.00  0.00    -0.150 OA 
HETATM    7  H   UNL     1      -9.454   4.187  69.308  1.00  0.00     0.000 HD 
HETATM    8  C   UNL     1      -9.600   8.128  69.138  1.00  0.00    -0.157 A  
HETATM    9  C   UNL     1     -10.720   7.781  67.010  1.00  0.00    -0.316 A  
HETATM   10  C   UNL     1     -10.197   8.642  67.976  1.00  0.00    -0.261 A  
ENDROOT
BRANCH   8  11
HETATM   11  C   UNL     1      -9.076   9.062  70.200  1.00  0.00    -0.206 C  
BRANCH  11  12
HETATM   12  C   UNL     1      -8.390  10.285  69.587  1.00  0.00    -0.123 C  
BRANCH  12  13
HETATM   13  N   UNL     1      -7.031   9.949  69.147  1.00  0.00    -0.054 NA 
HETATM   14  H   UNL     1      -6.756   9.008  69.432  1.00  0.00     0.000 HD 
BRANCH  13  15
HETATM   15  C   UNL     1      -6.921  10.141  67.704  1.00  0.00    -0.085 C  
BRANCH  15  16
HETATM   16  C   UNL     1      -7.202  11.594  67.336  1.00  0.00    -0.128 C  
BRANCH  16  17
HETATM   17  C   UNL     1      -8.490  11.672  66.521  1.00  0.00    -0.141 C  
BRANCH  17  18
HETATM   18  C   UNL     1      -9.280  12.924  66.866  1.00  0.00    -0.234 C  
BRANCH  18  19
HETATM   19  C   UNL     1     -10.631  12.565  67.481  1.00  0.00    -0.238 C  
BRANCH  19  20
HETATM   20  C   UNL     1     -10.864  13.439  68.705  1.00  0.00    -0.246 C  
BRANCH  20  21
HETATM   21  N   UNL     1     -12.168  14.095  68.641  1.00  0.00    -0.554 NA 
HETATM   22  H   UNL     1     -12.890  13.542  69.101  1.00  0.00     0.000 HD 
BRANCH  21  23
HETATM   23  C   UNL     1     -12.103  15.459  69.184  1.00  0.00    -0.242 C  
BRANCH  23  24
HETATM   24  C   UNL     1     -10.674  16.024  69.225  1.00  0.00    -0.275 C  
BRANCH  24  25
HETATM   25  C   UNL     1     -10.472  17.140  68.236  1.00  0.00    -0.373 A  
HETATM   26  C   UNL     1     -10.255  18.445  68.692  1.00  0.00    -0.370 A  
HETATM   27  C   UNL     1     -10.055  19.484  67.782  1.00  0.00    -0.532 A  
HETATM   28  C   UNL     1     -10.079  19.221  66.415  1.00  0.00    -0.507 A  
HETATM   29  C   UNL     1     -10.307  17.925  65.954  1.00  0.00    -0.259 A  
HETATM   30  C   UNL     1     -10.506  16.887  66.862  1.00  0.00    -0.271 A  
ENDBRANCH  24  25
ENDBRANCH  23  24
ENDBRANCH  21  23
ENDBRANCH  20  21
ENDBRANCH  19  20
ENDBRANCH  18  19
ENDBRANCH  17  18
ENDBRANCH  16  17
ENDBRANCH  15  16
ENDBRANCH  13  15
ENDBRANCH  12  13
ENDBRANCH  11  12
ENDBRANCH   8  11
TORSDOF 13
ENDMDL
MODEL      306
REMARK 921   NORMALIZED FREE ENERGY PREDICTED BY IDOCK:   -3.25 KCAL/MOL
REMARK 922        TOTAL FREE ENERGY PREDICTED BY IDOCK:   -8.48 KCAL/MOL
REMARK 923 INTER-LIGAND FREE ENERGY PREDICTED BY IDOCK:   -6.78 KCAL/MOL
REMARK 924 INTRA-LIGAND FREE ENERGY PREDICTED BY IDOCK:   -1.69 KCAL/MOL
REMARK 927      BINDING AFFINITY PREDICTED BY RF-SCORE:    0.00 PKD
ROOT
HETATM    1  O   UNL     1     -11.382  13.167  69.954  1.00  0.00    -0.491 OA 
HETATM    2  H   UNL     1     -10.986  13.966  70.282  1.00  0.00     0.000 HD 
HETATM    3  C   UNL     1     -11.109  12.643  68.720  1.00  0.00    -0.263 A  
HETATM    4  C   UNL     1     -11.688  11.473  68.239  1.00  0.00    -0.301 A  
HETATM    5  C   UNL     1     -11.332  10.978  66.983  1.00  0.00    -0.164 A  
HETATM    6  O   UNL     1     -12.612  10.760  68.948  1.00  0.00    -0.735 OA 
HETATM    7  H   UNL     1     -13.009   9.962  68.620  1.00  0.00     0.000 HD 
HETATM    8  C   UNL     1     -10.380  11.646  66.204  1.00  0.00    -0.280 A  
HETATM    9  C   UNL     1     -10.197  13.342  67.935  1.00  0.00    -0.233 A  
HETATM   10  C   UNL     1      -9.835  12.849  66.679  1.00  0.00    -0.250 A  
ENDROOT
BRANCH   8  11
HETATM   11  C   UNL     1      -9.952  11.094  64.867  1.00  0.00    -0.331 C  
BRANCH  11  12
HETATM   12  C   UNL     1      -8.681  10.251  64.986  1.00  0.00    -0.182 C  
BRANCH  12  13
HETATM   13  N   UNL     1      -8.721   9.121  64.050  1.00  0.00    -0.360 NA 
HETATM   14  H   UNL     1      -8.207   9.315  63.191  1.00  0.00     0.000 HD 
BRANCH  13  15
HETATM   15  C   UNL     1      -8.242   7.913  64.718  1.00  0.00    -0.108 C  
BRANCH  15  16
HETATM   16  C   UNL     1      -9.157   7.548  65.882  1.00  0.00    -0.086 C  
BRANCH  16  17
HETATM   17  C   UNL     1      -8.391   6.681  66.877  1.00  0.00    -0.114 C  
BRANCH  17  18
HETATM   18  C   UNL     1      -8.941   6.849  68.284  1.00  0.00    -0.124 C  
BRANCH  18  19
HETATM   19  C   UNL     1      -7.842   7.289  69.250  1.00  0.00    -0.116 C  
BRANCH  19  20
HETATM   20  C   UNL     1      -7.739   8.808  69.222  1.00  0.00    -0.095 C  
BRANCH  20  21
HETATM   21  N   UNL     1      -9.063   9.424  69.282  1.00  0.00    -0.145 NA 
HETATM   22  H   UNL     1      -9.717   8.971  68.644  1.00  0.00     0.000 HD 
BRANCH  21  23
HETATM   23  C   UNL     1      -9.576   9.446  70.659  1.00  0.00    -0.268 C  
BRANCH  23  24
HETATM   24  C   UNL     1     -10.916   8.711  70.814  1.00  0.00    -0.286 C  
BRANCH  24  25
HETATM   25  C   UNL     1     -10.811   7.518  71.725  1.00  0.00    -0.261 A  
HETATM   26  C   UNL     1     -10.972   6.228  71.206  1.00  0.00    -0.330 A  
HETATM   27  C   UNL     1     -10.865   5.115  72.042  1.00  0.00    -0.194 A  
HETATM   28  C   UNL     1     -10.606   5.291  73.399  1.00  0.00    -0.300 A  
HETATM   29  C   UNL     1     -10.457   6.575  73.924  1.00  0.00    -0.329 A  
HETATM   30  C   UNL     1     -10.563   7.686  73.090  1.00  0.00    -0.438 A  
ENDBRANCH  24  25
ENDBRANCH  23  24
ENDBRANCH  21  23
ENDBRANCH  20  21
ENDBRANCH  19  20
ENDBRANCH  18  19
ENDBRANCH  17  18
ENDBRANCH  16  17
ENDBRANCH  15  16
ENDBRANCH  13  15
ENDBRANCH  12  13
ENDBRANCH  11  12
ENDBRANCH   8  11
TORSDOF 13
ENDMDL
MODEL      307
REMARK 921   NORMALIZED FREE ENERGY PREDICTED BY IDOCK:   -3.24 KCAL/MOL
REMARK 922        TOTAL FREE ENERGY PREDICTED BY IDOCK:   -8.46 KCAL/MOL
REMARK 923 INTER-LIGAND FREE ENERGY PREDICTED BY IDOCK:   -6.96 KCAL/MOL
REMARK 924 INTRA-LIGAND FREE ENERGY PREDICTED BY IDOCK:   -1.51 KCAL/MOL
REMARK 927      BINDING AFFINITY PREDICTED BY RF-SCORE:    0.00 PKD
ROOT
HETATM    1  O   UNL     1     -10.661  14.422  66.084  1.00  0.00    -0.294 OA 
HETATM    2  H   UNL     1     -10.169  15.037  66.615  1.00  0.00     0.000 HD 
HETATM    3  C   UNL     1     -10.302  13.111  65.922  1.00  0.00    -0.290 A  
HETATM    4  C   UNL     1     -11.023  12.210  65.145  1.00  0.00    -0.310 A  
HETATM    5  C   UNL     1     -10.616  10.877  65.056  1.00  0.00    -0.287 A  
HETATM    6  O   UNL     1     -12.140  12.566  64.444  1.00  0.00    -0.377 OA 
HETATM    7  H   UNL     1     -12.632  11.951  63.913  1.00  0.00     0.000 HD 
HETATM    8  C   UNL     1      -9.489  10.435  65.758  1.00  0.00    -0.247 A  
HETATM    9  C   UNL     1      -9.153  12.694  66.586  1.00  0.00    -0.193 A  
HETATM   10  C   UNL     1      -8.743  11.361  66.503  1.00  0.00    -0.181 A  
ENDROOT
BRANCH   8  11
HETATM   11  C   UNL     1      -9.068   8.986  65.708  1.00  0.00    -0.272 C  
BRANCH  11  12
HETATM   12  C   UNL     1      -7.893   8.708  66.647  1.00  0.00    -0.097 C  
BRANCH  12  13
HETATM   13  N   UNL     1      -7.424   7.326  66.492  1.00  0.00    -0.086 NA 
HETATM   14  H   UNL     1      -6.519   7.175  66.940  1.00  0.00     0.000 HD 
BRANCH  13  15
HETATM   15  C   UNL     1      -8.443   6.403  66.984  1.00  0.00    -0.112 C  
BRANCH  15  16
HETATM   16  C   UNL     1      -7.797   5.125  67.507  1.00  0.00    -0.096 C  
BRANCH  16  17
HETATM   17  C   UNL     1      -7.845   5.119  69.033  1.00  0.00    -0.081 C  
BRANCH  17  18
HETATM   18  C   UNL     1      -8.517   6.374  69.563  1.00  0.00    -0.133 C  
BRANCH  18  19
HETATM   19  C   UNL     1      -9.683   6.020  70.486  1.00  0.00    -0.210 C  
BRANCH  19  20
HETATM   20  C   UNL     1     -10.906   5.704  69.637  1.00  0.00    -0.295 C  
BRANCH  20  21
HETATM   21  N   UNL     1     -11.834   6.832  69.614  1.00  0.00    -0.646 NA 
HETATM   22  H   UNL     1     -12.764   6.560  69.932  1.00  0.00     0.000 HD 
BRANCH  21  23
HETATM   23  C   UNL     1     -11.309   7.967  70.387  1.00  0.00    -0.187 C  
BRANCH  23  24
HETATM   24  C   UNL     1     -10.976   9.187  69.514  1.00  0.00    -0.138 C  
BRANCH  24  25
HETATM   25  C   UNL     1     -11.598  10.453  70.039  1.00  0.00    -0.378 A  
HETATM   26  C   UNL     1     -12.383  10.416  71.198  1.00  0.00    -0.505 A  
HETATM   27  C   UNL     1     -12.955  11.587  71.698  1.00  0.00    -0.499 A  
HETATM   28  C   UNL     1     -12.748  12.795  71.037  1.00  0.00    -0.331 A  
HETATM   29  C   UNL     1     -11.977  12.836  69.876  1.00  0.00    -0.368 A  
HETATM   30  C   UNL     1     -11.405  11.667  69.376  1.00  0.00    -0.342 A  
ENDBRANCH  24  25
ENDBRANCH  23  24
ENDBRANCH  21  23
ENDBRANCH  20  21
ENDBRANCH  19  20
ENDBRANCH  18  19
ENDBRANCH  17  18
ENDBRANCH  16  17
ENDBRANCH  15  16
ENDBRANCH  13  15
ENDBRANCH  12  13
ENDBRANCH  11  12
ENDBRANCH   8  11
TORSDOF 13
ENDMDL
MODEL      308
REMARK 921   NORMALIZED FREE ENERGY PREDICTED BY IDOCK:   -3.24 KCAL/MOL
REMARK 922        TOTAL FREE ENERGY PREDICTED BY IDOCK:   -8.46 KCAL/MOL
REMARK 923 INTER-LIGAND FREE ENERGY PREDICTED BY IDOCK:   -7.65 KCAL/MOL
REMARK 924 INTRA-LIGAND FREE ENERGY PREDICTED BY IDOCK:   -0.81 KCAL/MOL
REMARK 927      BINDING AFFINITY PREDICTED BY RF-SCORE:    0.00 PKD
ROOT
HETATM    1  O   UNL     1      -5.778  13.528  68.364  1.00  0.00    -0.082 OA 
HETATM    2  H   UNL     1      -5.062  13.850  68.898  1.00  0.00     0.000 HD 
HETATM    3  C   UNL     1      -6.975  14.179  68.237  1.00  0.00    -0.106 A  
HETATM    4  C   UNL     1      -8.025  13.707  67.454  1.00  0.00    -0.166 A  
HETATM    5  C   UNL     1      -9.205  14.445  67.343  1.00  0.00    -0.199 A  
HETATM    6  O   UNL     1      -7.963  12.528  66.767  1.00  0.00    -0.382 OA 
HETATM    7  H   UNL     1      -8.679  12.205  66.233  1.00  0.00     0.000 HD 
HETATM    8  C   UNL     1      -9.336  15.671  68.006  1.00  0.00    -0.193 A  
HETATM    9  C   UNL     1      -7.113  15.372  68.938  1.00  0.00    -0.131 A  
HETATM   10  C   UNL     1      -8.289  16.116  68.828  1.00  0.00    -0.231 A  
ENDROOT
BRANCH   8  11
HETATM   11  C   UNL     1     -10.588  16.500  67.853  1.00  0.00    -0.329 C  
BRANCH  11  12
HETATM   12  C   UNL     1     -11.784  15.847  68.548  1.00  0.00    -0.292 C  
BRANCH  12  13
HETATM   13  N   UNL     1     -11.688  16.008  70.004  1.00  0.00    -0.327 NA 
HETATM   14  H   UNL     1     -11.978  16.938  70.308  1.00  0.00     0.000 HD 
BRANCH  13  15
HETATM   15  C   UNL     1     -12.446  14.951  70.666  1.00  0.00    -0.352 C  
BRANCH  15  16
HETATM   16  C   UNL     1     -11.989  13.580  70.177  1.00  0.00    -0.399 C  
BRANCH  16  17
HETATM   17  C   UNL     1     -12.618  12.495  71.047  1.00  0.00    -0.350 C  
BRANCH  17  18
HETATM   18  C   UNL     1     -12.489  11.129  70.394  1.00  0.00    -0.382 C  
BRANCH  18  19
HETATM   19  C   UNL     1     -13.274  10.075  71.174  1.00  0.00    -0.441 C  
BRANCH  19  20
HETATM   20  C   UNL     1     -12.353   9.435  72.202  1.00  0.00    -0.298 C  
BRANCH  20  21
HETATM   21  N   UNL     1     -12.831   8.107  72.580  1.00  0.00    -0.586 NA 
HETATM   22  H   UNL     1     -13.812   8.127  72.859  1.00  0.00     0.000 HD 
BRANCH  21  23
HETATM   23  C   UNL     1     -12.594   7.132  71.506  1.00  0.00    -0.390 C  
BRANCH  23  24
HETATM   24  C   UNL     1     -11.109   6.779  71.331  1.00  0.00    -0.293 C  
BRANCH  24  25
HETATM   25  C   UNL     1     -10.772   5.424  71.893  1.00  0.00    -0.275 A  
HETATM   26  C   UNL     1      -9.989   4.535  71.147  1.00  0.00    -0.257 A  
HETATM   27  C   UNL     1      -9.663   3.281  71.665  1.00  0.00    -0.234 A  
HETATM   28  C   UNL     1     -10.125   2.911  72.925  1.00  0.00    -0.218 A  
HETATM   29  C   UNL     1     -10.916   3.787  73.667  1.00  0.00    -0.334 A  
HETATM   30  C   UNL     1     -11.241   5.040  73.151  1.00  0.00    -0.408 A  
ENDBRANCH  24  25
ENDBRANCH  23  24
ENDBRANCH  21  23
ENDBRANCH  20  21
ENDBRANCH  19  20
ENDBRANCH  18  19
ENDBRANCH  17  18
ENDBRANCH  16  17
ENDBRANCH  15  16
ENDBRANCH  13  15
ENDBRANCH  12  13
ENDBRANCH  11  12
ENDBRANCH   8  11
TORSDOF 13
ENDMDL
MODEL      309
REMARK 921   NORMALIZED FREE ENERGY PREDICTED BY IDOCK:   -3.24 KCAL/MOL
REMARK 922        TOTAL FREE ENERGY PREDICTED BY IDOCK:   -8.46 KCAL/MOL
REMARK 923 INTER-LIGAND FREE ENERGY PREDICTED BY IDOCK:   -6.70 KCAL/MOL
REMARK 924 INTRA-LIGAND FREE ENERGY PREDICTED BY IDOCK:   -1.76 KCAL/MOL
REMARK 927      BINDING AFFINITY PREDICTED BY RF-SCORE:    0.00 PKD
ROOT
HETATM    1  O   UNL     1      -6.230  17.500  69.027  1.00  0.00    -0.190 OA 
HETATM    2  H   UNL     1      -5.546  16.878  69.244  1.00  0.00     0.000 HD 
HETATM    3  C   UNL     1      -7.559  17.177  68.994  1.00  0.00    -0.187 A  
HETATM    4  C   UNL     1      -8.562  18.089  68.676  1.00  0.00    -0.264 A  
HETATM    5  C   UNL     1      -9.902  17.695  68.700  1.00  0.00    -0.347 A  
HETATM    6  O   UNL     1      -8.301  19.385  68.334  1.00  0.00    -0.329 OA 
HETATM    7  H   UNL     1      -8.985  20.007  68.117  1.00  0.00     0.000 HD 
HETATM    8  C   UNL     1     -10.247  16.387  69.056  1.00  0.00    -0.269 A  
HETATM    9  C   UNL     1      -7.888  15.861  69.302  1.00  0.00    -0.226 A  
HETATM   10  C   UNL     1      -9.227  15.464  69.331  1.00  0.00    -0.268 A  
ENDROOT
BRANCH   8  11
HETATM   11  C   UNL     1     -11.694  15.965  69.132  1.00  0.00    -0.369 C  
BRANCH  11  12
HETATM   12  C   UNL     1     -12.049  15.413  70.514  1.00  0.00    -0.371 C  
BRANCH  12  13
HETATM   13  N   UNL     1     -13.073  14.368  70.406  1.00  0.00    -0.470 NA 
HETATM   14  H   UNL     1     -13.435  14.281  69.456  1.00  0.00     0.000 HD 
BRANCH  13  15
HETATM   15  C   UNL     1     -12.540  13.105  70.909  1.00  0.00    -0.295 C  
BRANCH  15  16
HETATM   16  C   UNL     1     -11.982  12.267  69.764  1.00  0.00    -0.365 C  
BRANCH  16  17
HETATM   17  C   UNL     1     -12.373  10.805  69.967  1.00  0.00    -0.371 C  
BRANCH  17  18
HETATM   18  C   UNL     1     -12.434  10.455  71.444  1.00  0.00    -0.521 C  
BRANCH  18  19
HETATM   19  C   UNL     1     -11.462   9.324  71.777  1.00  0.00    -0.448 C  
BRANCH  19  20
HETATM   20  C   UNL     1     -11.306   8.431  70.554  1.00  0.00    -0.216 C  
BRANCH  20  21
HETATM   21  N   UNL     1      -9.995   7.787  70.540  1.00  0.00    -0.187 NA 
HETATM   22  H   UNL     1      -9.979   6.956  71.130  1.00  0.00     0.000 HD 
BRANCH  21  23
HETATM   23  C   UNL     1      -9.567   7.483  69.166  1.00  0.00    -0.157 C  
BRANCH  23  24
HETATM   24  C   UNL     1      -9.875   8.616  68.176  1.00  0.00    -0.192 C  
BRANCH  24  25
HETATM   25  C   UNL     1      -8.816   9.685  68.183  1.00  0.00    -0.119 A  
HETATM   26  C   UNL     1      -7.463   9.326  68.199  1.00  0.00    -0.083 A  
HETATM   27  C   UNL     1      -6.475  10.312  68.195  1.00  0.00    -0.057 A  
HETATM   28  C   UNL     1      -6.837  11.656  68.181  1.00  0.00    -0.068 A  
HETATM   29  C   UNL     1      -8.183  12.019  68.177  1.00  0.00    -0.163 A  
HETATM   30  C   UNL     1      -9.171  11.037  68.181  1.00  0.00    -0.165 A  
ENDBRANCH  24  25
ENDBRANCH  23  24
ENDBRANCH  21  23
ENDBRANCH  20  21
ENDBRANCH  19  20
ENDBRANCH  18  19
ENDBRANCH  17  18
ENDBRANCH  16  17
ENDBRANCH  15  16
ENDBRANCH  13  15
ENDBRANCH  12  13
ENDBRANCH  11  12
ENDBRANCH   8  11
TORSDOF 13
ENDMDL
MODEL      310
REMARK 921   NORMALIZED FREE ENERGY PREDICTED BY IDOCK:   -3.24 KCAL/MOL
REMARK 922        TOTAL FREE ENERGY PREDICTED BY IDOCK:   -8.45 KCAL/MOL
REMARK 923 INTER-LIGAND FREE ENERGY PREDICTED BY IDOCK:   -6.90 KCAL/MOL
REMARK 924 INTRA-LIGAND FREE ENERGY PREDICTED BY IDOCK:   -1.55 KCAL/MOL
REMARK 927      BINDING AFFINITY PREDICTED BY RF-SCORE:    0.00 PKD
ROOT
HETATM    1  O   UNL     1      -9.452   1.501  70.770  1.00  0.00    -0.104 OA 
HETATM    2  H   UNL     1      -9.697   0.976  71.523  1.00  0.00     0.000 HD 
HETATM    3  C   UNL     1      -9.588   2.862  70.724  1.00  0.00    -0.125 A  
HETATM    4  C   UNL     1      -9.228   3.631  69.621  1.00  0.00    -0.151 A  
HETATM    5  C   UNL     1      -9.362   5.021  69.661  1.00  0.00    -0.184 A  
HETATM    6  O   UNL     1      -8.736   3.087  68.469  1.00  0.00    -0.084 OA 
HETATM    7  H   UNL     1      -8.490   3.611  67.716  1.00  0.00     0.000 HD 
HETATM    8  C   UNL     1      -9.845   5.651  70.813  1.00  0.00    -0.239 A  
HETATM    9  C   UNL     1     -10.115   3.474  71.857  1.00  0.00    -0.168 A  
HETATM   10  C   UNL     1     -10.247   4.863  71.903  1.00  0.00    -0.267 A  
ENDROOT
BRANCH   8  11
HETATM   11  C   UNL     1      -9.948   7.155  70.884  1.00  0.00    -0.193 C  
BRANCH  11  12
HETATM   12  C   UNL     1     -10.005   7.782  69.490  1.00  0.00    -0.187 C  
BRANCH  12  13
HETATM   13  N   UNL     1      -8.673   8.235  69.072  1.00  0.00    -0.142 NA 
HETATM   14  H   UNL     1      -8.209   7.558  68.466  1.00  0.00     0.000 HD 
BRANCH  13  15
HETATM   15  C   UNL     1      -8.775   9.552  68.450  1.00  0.00    -0.124 C  
BRANCH  15  16
HETATM   16  C   UNL     1      -9.932   9.584  67.457  1.00  0.00    -0.235 C  
BRANCH  16  17
HETATM   17  C   UNL     1     -10.565  10.973  67.460  1.00  0.00    -0.266 C  
BRANCH  17  18
HETATM   18  C   UNL     1     -11.807  11.005  68.335  1.00  0.00    -0.254 C  
BRANCH  18  19
HETATM   19  C   UNL     1     -11.518  11.698  69.666  1.00  0.00    -0.359 C  
BRANCH  19  20
HETATM   20  C   UNL     1     -12.015  13.135  69.592  1.00  0.00    -0.306 C  
BRANCH  20  21
HETATM   21  N   UNL     1     -10.980  14.021  69.066  1.00  0.00    -0.257 NA 
HETATM   22  H   UNL     1     -10.200  13.495  68.674  1.00  0.00     0.000 HD 
BRANCH  21  23
HETATM   23  C   UNL     1     -11.538  14.969  68.091  1.00  0.00    -0.340 C  
BRANCH  23  24
HETATM   24  C   UNL     1     -10.699  15.078  66.809  1.00  0.00    -0.308 C  
BRANCH  24  25
HETATM   25  C   UNL     1     -11.114  14.075  65.767  1.00  0.00    -0.305 A  
HETATM   26  C   UNL     1     -12.460  13.712  65.646  1.00  0.00    -0.540 A  
HETATM   27  C   UNL     1     -12.856  12.791  64.675  1.00  0.00    -0.355 A  
HETATM   28  C   UNL     1     -11.905  12.225  63.829  1.00  0.00    -0.587 A  
HETATM   29  C   UNL     1     -10.560  12.573  63.954  1.00  0.00    -0.472 A  
HETATM   30  C   UNL     1     -10.164  13.493  64.923  1.00  0.00    -0.351 A  
ENDBRANCH  24  25
ENDBRANCH  23  24
ENDBRANCH  21  23
ENDBRANCH  20  21
ENDBRANCH  19  20
ENDBRANCH  18  19
ENDBRANCH  17  18
ENDBRANCH  16  17
ENDBRANCH  15  16
ENDBRANCH  13  15
ENDBRANCH  12  13
ENDBRANCH  11  12
ENDBRANCH   8  11
TORSDOF 13
ENDMDL
MODEL      311
REMARK 921   NORMALIZED FREE ENERGY PREDICTED BY IDOCK:   -3.23 KCAL/MOL
REMARK 922        TOTAL FREE ENERGY PREDICTED BY IDOCK:   -8.44 KCAL/MOL
REMARK 923 INTER-LIGAND FREE ENERGY PREDICTED BY IDOCK:   -7.59 KCAL/MOL
REMARK 924 INTRA-LIGAND FREE ENERGY PREDICTED BY IDOCK:   -0.86 KCAL/MOL
REMARK 927      BINDING AFFINITY PREDICTED BY RF-SCORE:    0.00 PKD
ROOT
HETATM    1  O   UNL     1     -11.710   4.649  65.150  1.00  0.00    -1.054 OA 
HETATM    2  H   UNL     1     -12.393   5.299  65.258  1.00  0.00     0.000 HD 
HETATM    3  C   UNL     1     -10.521   4.686  65.826  1.00  0.00    -0.255 A  
HETATM    4  C   UNL     1      -9.519   3.732  65.668  1.00  0.00    -0.170 A  
HETATM    5  C   UNL     1      -8.346   3.816  66.421  1.00  0.00    -0.105 A  
HETATM    6  O   UNL     1      -9.623   2.689  64.793  1.00  0.00    -0.233 OA 
HETATM    7  H   UNL     1      -8.940   2.038  64.685  1.00  0.00     0.000 HD 
HETATM    8  C   UNL     1      -8.174   4.849  67.349  1.00  0.00    -0.106 A  
HETATM    9  C   UNL     1     -10.340   5.744  66.710  1.00  0.00    -0.312 A  
HETATM   10  C   UNL     1      -9.171   5.830  67.468  1.00  0.00    -0.108 A  
ENDROOT
BRANCH   8  11
HETATM   11  C   UNL     1      -6.932   4.921  68.202  1.00  0.00    -0.061 C  
BRANCH  11  12
HETATM   12  C   UNL     1      -6.961   6.128  69.141  1.00  0.00    -0.068 C  
BRANCH  12  13
HETATM   13  N   UNL     1      -7.112   5.695  70.535  1.00  0.00    -0.064 NA 
HETATM   14  H   UNL     1      -6.212   5.528  70.985  1.00  0.00     0.000 HD 
BRANCH  13  15
HETATM   15  C   UNL     1      -7.921   6.666  71.266  1.00  0.00    -0.107 C  
BRANCH  15  16
HETATM   16  C   UNL     1      -9.368   6.192  71.362  1.00  0.00    -0.163 C  
BRANCH  16  17
HETATM   17  C   UNL     1      -9.726   5.946  72.825  1.00  0.00    -0.167 C  
BRANCH  17  18
HETATM   18  C   UNL     1     -10.976   6.715  73.218  1.00  0.00    -0.237 C  
BRANCH  18  19
HETATM   19  C   UNL     1     -11.004   8.089  72.549  1.00  0.00    -0.430 C  
BRANCH  19  20
HETATM   20  C   UNL     1     -12.335   8.261  71.830  1.00  0.00    -0.328 C  
BRANCH  20  21
HETATM   21  N   UNL     1     -13.214   9.169  72.563  1.00  0.00    -0.491 NA 
HETATM   22  H   UNL     1     -13.057   9.112  73.568  1.00  0.00     0.000 HD 
BRANCH  21  23
HETATM   23  C   UNL     1     -13.081  10.548  72.071  1.00  0.00    -0.406 C  
BRANCH  23  24
HETATM   24  C   UNL     1     -12.513  10.627  70.645  1.00  0.00    -0.462 C  
BRANCH  24  25
HETATM   25  C   UNL     1     -12.268  12.045  70.205  1.00  0.00    -0.348 A  
HETATM   26  C   UNL     1     -12.566  13.104  71.071  1.00  0.00    -0.397 A  
HETATM   27  C   UNL     1     -12.332  14.422  70.675  1.00  0.00    -0.422 A  
HETATM   28  C   UNL     1     -11.807  14.683  69.412  1.00  0.00    -0.368 A  
HETATM   29  C   UNL     1     -11.519  13.632  68.542  1.00  0.00    -0.347 A  
HETATM   30  C   UNL     1     -11.752  12.316  68.936  1.00  0.00    -0.380 A  
ENDBRANCH  24  25
ENDBRANCH  23  24
ENDBRANCH  21  23
ENDBRANCH  20  21
ENDBRANCH  19  20
ENDBRANCH  18  19
ENDBRANCH  17  18
ENDBRANCH  16  17
ENDBRANCH  15  16
ENDBRANCH  13  15
ENDBRANCH  12  13
ENDBRANCH  11  12
ENDBRANCH   8  11
TORSDOF 13
ENDMDL
MODEL      312
REMARK 921   NORMALIZED FREE ENERGY PREDICTED BY IDOCK:   -3.21 KCAL/MOL
REMARK 922        TOTAL FREE ENERGY PREDICTED BY IDOCK:   -8.41 KCAL/MOL
REMARK 923 INTER-LIGAND FREE ENERGY PREDICTED BY IDOCK:   -6.47 KCAL/MOL
REMARK 924 INTRA-LIGAND FREE ENERGY PREDICTED BY IDOCK:   -1.94 KCAL/MOL
REMARK 927      BINDING AFFINITY PREDICTED BY RF-SCORE:    0.00 PKD
ROOT
HETATM    1  O   UNL     1     -11.206   6.835  67.281  1.00  0.00    -0.567 OA 
HETATM    2  H   UNL     1     -12.146   6.957  67.224  1.00  0.00     0.000 HD 
HETATM    3  C   UNL     1     -10.304   7.850  67.112  1.00  0.00    -0.328 A  
HETATM    4  C   UNL     1      -8.926   7.672  67.195  1.00  0.00    -0.126 A  
HETATM    5  C   UNL     1      -8.067   8.764  67.048  1.00  0.00    -0.099 A  
HETATM    6  O   UNL     1      -8.350   6.455  67.421  1.00  0.00    -0.112 OA 
HETATM    7  H   UNL     1      -7.410   6.333  67.477  1.00  0.00     0.000 HD 
HETATM    8  C   UNL     1      -8.585  10.046  66.830  1.00  0.00    -0.129 A  
HETATM    9  C   UNL     1     -10.827   9.112  66.847  1.00  0.00    -0.014 A  
HETATM   10  C   UNL     1      -9.973  10.207  66.703  1.00  0.00    -0.272 A  
ENDROOT
BRANCH   8  11
HETATM   11  C   UNL     1      -7.668  11.239  66.718  1.00  0.00    -0.155 C  
BRANCH  11  12
HETATM   12  C   UNL     1      -7.122  11.660  68.084  1.00  0.00    -0.078 C  
BRANCH  12  13
HETATM   13  N   UNL     1      -8.168  12.316  68.878  1.00  0.00    -0.349 NA 
HETATM   14  H   UNL     1      -7.878  12.468  69.845  1.00  0.00     0.000 HD 
BRANCH  13  15
HETATM   15  C   UNL     1      -8.577  13.555  68.224  1.00  0.00    -0.168 C  
BRANCH  15  16
HETATM   16  C   UNL     1     -10.098  13.658  68.180  1.00  0.00    -0.245 C  
BRANCH  16  17
HETATM   17  C   UNL     1     -10.516  15.112  68.386  1.00  0.00    -0.233 C  
BRANCH  17  18
HETATM   18  C   UNL     1     -11.130  15.314  69.760  1.00  0.00    -0.293 C  
BRANCH  18  19
HETATM   19  C   UNL     1     -12.399  14.477  69.920  1.00  0.00    -0.347 C  
BRANCH  19  20
HETATM   20  C   UNL     1     -12.349  13.756  71.259  1.00  0.00    -0.308 C  
BRANCH  20  21
HETATM   21  N   UNL     1     -13.387  12.731  71.342  1.00  0.00    -0.147 NA 
HETATM   22  H   UNL     1     -13.923  12.670  70.477  1.00  0.00     0.000 HD 
BRANCH  21  23
HETATM   23  C   UNL     1     -12.819  11.429  71.719  1.00  0.00    -0.344 C  
BRANCH  23  24
HETATM   24  C   UNL     1     -12.032  10.763  70.580  1.00  0.00    -0.466 C  
BRANCH  24  25
HETATM   25  C   UNL     1     -11.739   9.313  70.860  1.00  0.00    -0.360 A  
HETATM   26  C   UNL     1     -12.781   8.445  71.204  1.00  0.00    -0.121 A  
HETATM   27  C   UNL     1     -12.519   7.097  71.454  1.00  0.00    -0.427 A  
HETATM   28  C   UNL     1     -11.215   6.617  71.368  1.00  0.00    -0.318 A  
HETATM   29  C   UNL     1     -10.171   7.481  71.038  1.00  0.00    -0.194 A  
HETATM   30  C   UNL     1     -10.431   8.827  70.788  1.00  0.00    -0.270 A  
ENDBRANCH  24  25
ENDBRANCH  23  24
ENDBRANCH  21  23
ENDBRANCH  20  21
ENDBRANCH  19  20
ENDBRANCH  18  19
ENDBRANCH  17  18
ENDBRANCH  16  17
ENDBRANCH  15  16
ENDBRANCH  13  15
ENDBRANCH  12  13
ENDBRANCH  11  12
ENDBRANCH   8  11
TORSDOF 13
ENDMDL
MODEL      313
REMARK 921   NORMALIZED FREE ENERGY PREDICTED BY IDOCK:   -3.21 KCAL/MOL
REMARK 922        TOTAL FREE ENERGY PREDICTED BY IDOCK:   -8.40 KCAL/MOL
REMARK 923 INTER-LIGAND FREE ENERGY PREDICTED BY IDOCK:   -7.38 KCAL/MOL
REMARK 924 INTRA-LIGAND FREE ENERGY PREDICTED BY IDOCK:   -1.02 KCAL/MOL
REMARK 927      BINDING AFFINITY PREDICTED BY RF-SCORE:    0.00 PKD
ROOT
HETATM    1  O   UNL     1      -7.585   2.990  64.616  1.00  0.00    -0.074 OA 
HETATM    2  H   UNL     1      -6.950   3.281  63.972  1.00  0.00     0.000 HD 
HETATM    3  C   UNL     1      -8.381   3.847  65.328  1.00  0.00    -0.105 A  
HETATM    4  C   UNL     1      -9.311   3.421  66.272  1.00  0.00    -0.145 A  
HETATM    5  C   UNL     1     -10.116   4.352  66.932  1.00  0.00    -0.159 A  
HETATM    6  O   UNL     1      -9.486   2.107  66.597  1.00  0.00    -0.367 OA 
HETATM    7  H   UNL     1     -10.120   1.817  67.242  1.00  0.00     0.000 HD 
HETATM    8  C   UNL     1     -10.004   5.716  66.641  1.00  0.00    -0.211 A  
HETATM    9  C   UNL     1      -8.227   5.204  65.065  1.00  0.00    -0.130 A  
HETATM   10  C   UNL     1      -9.032   6.138  65.720  1.00  0.00    -0.099 A  
ENDROOT
BRANCH   8  11
HETATM   11  C   UNL     1     -10.902   6.725  67.313  1.00  0.00    -0.443 C  
BRANCH  11  12
HETATM   12  C   UNL     1     -10.510   6.943  68.775  1.00  0.00    -0.205 C  
BRANCH  12  13
HETATM   13  N   UNL     1     -11.692   6.874  69.643  1.00  0.00    -0.611 NA 
HETATM   14  H   UNL     1     -12.505   6.497  69.155  1.00  0.00     0.000 HD 
BRANCH  13  15
HETATM   15  C   UNL     1     -11.372   6.115  70.849  1.00  0.00    -0.287 C  
BRANCH  15  16
HETATM   16  C   UNL     1     -11.913   6.824  72.085  1.00  0.00    -0.309 C  
BRANCH  16  17
HETATM   17  C   UNL     1     -12.949   7.863  71.663  1.00  0.00    -0.359 C  
BRANCH  17  18
HETATM   18  C   UNL     1     -12.514   9.262  72.063  1.00  0.00    -0.451 C  
BRANCH  18  19
HETATM   19  C   UNL     1     -13.222  10.317  71.214  1.00  0.00    -0.447 C  
BRANCH  19  20
HETATM   20  C   UNL     1     -12.189  11.032  70.353  1.00  0.00    -0.373 C  
BRANCH  20  21
HETATM   21  N   UNL     1     -11.762  10.189  69.239  1.00  0.00    -0.490 NA 
HETATM   22  H   UNL     1     -12.556   9.859  68.692  1.00  0.00     0.000 HD 
BRANCH  21  23
HETATM   23  C   UNL     1     -10.776  10.881  68.397  1.00  0.00    -0.203 C  
BRANCH  23  24
HETATM   24  C   UNL     1     -11.413  11.890  67.429  1.00  0.00    -0.393 C  
BRANCH  24  25
HETATM   25  C   UNL     1     -10.567  13.121  67.248  1.00  0.00    -0.250 A  
HETATM   26  C   UNL     1      -9.499  13.368  68.120  1.00  0.00    -0.218 A  
HETATM   27  C   UNL     1      -8.703  14.502  67.952  1.00  0.00    -0.165 A  
HETATM   28  C   UNL     1      -8.976  15.394  66.918  1.00  0.00    -0.273 A  
HETATM   29  C   UNL     1     -10.045  15.159  66.054  1.00  0.00    -0.323 A  
HETATM   30  C   UNL     1     -10.841  14.027  66.220  1.00  0.00    -0.291 A  
ENDBRANCH  24  25
ENDBRANCH  23  24
ENDBRANCH  21  23
ENDBRANCH  20  21
ENDBRANCH  19  20
ENDBRANCH  18  19
ENDBRANCH  17  18
ENDBRANCH  16  17
ENDBRANCH  15  16
ENDBRANCH  13  15
ENDBRANCH  12  13
ENDBRANCH  11  12
ENDBRANCH   8  11
TORSDOF 13
ENDMDL
MODEL      314
REMARK 921   NORMALIZED FREE ENERGY PREDICTED BY IDOCK:   -3.20 KCAL/MOL
REMARK 922        TOTAL FREE ENERGY PREDICTED BY IDOCK:   -8.39 KCAL/MOL
REMARK 923 INTER-LIGAND FREE ENERGY PREDICTED BY IDOCK:   -7.52 KCAL/MOL
REMARK 924 INTRA-LIGAND FREE ENERGY PREDICTED BY IDOCK:   -0.87 KCAL/MOL
REMARK 927      BINDING AFFINITY PREDICTED BY RF-SCORE:    0.00 PKD
ROOT
HETATM    1  O   UNL     1      -8.012   3.479  66.198  1.00  0.00    -0.091 OA 
HETATM    2  H   UNL     1      -7.371   2.857  66.521  1.00  0.00     0.000 HD 
HETATM    3  C   UNL     1      -8.894   4.141  67.008  1.00  0.00    -0.119 A  
HETATM    4  C   UNL     1      -9.832   5.054  66.536  1.00  0.00    -0.199 A  
HETATM    5  C   UNL     1     -10.676   5.719  67.428  1.00  0.00    -0.332 A  
HETATM    6  O   UNL     1      -9.978   5.344  65.209  1.00  0.00    -0.361 OA 
HETATM    7  H   UNL     1     -10.619   5.967  64.886  1.00  0.00     0.000 HD 
HETATM    8  C   UNL     1     -10.575   5.484  68.804  1.00  0.00    -0.236 A  
HETATM    9  C   UNL     1      -8.817   3.864  68.369  1.00  0.00    -0.145 A  
HETATM   10  C   UNL     1      -9.656   4.529  69.266  1.00  0.00    -0.258 A  
ENDROOT
BRANCH   8  11
HETATM   11  C   UNL     1     -11.447   6.233  69.781  1.00  0.00    -0.449 C  
BRANCH  11  12
HETATM   12  C   UNL     1     -10.944   6.083  71.217  1.00  0.00    -0.278 C  
BRANCH  12  13
HETATM   13  N   UNL     1     -11.859   6.740  72.157  1.00  0.00    -0.360 NA 
HETATM   14  H   UNL     1     -12.365   6.068  72.735  1.00  0.00     0.000 HD 
BRANCH  13  15
HETATM   15  C   UNL     1     -11.123   7.712  72.961  1.00  0.00    -0.381 C  
BRANCH  15  16
HETATM   16  C   UNL     1     -10.492   8.774  72.067  1.00  0.00    -0.414 C  
BRANCH  16  17
HETATM   17  C   UNL     1     -11.591   9.622  71.432  1.00  0.00    -0.472 C  
BRANCH  17  18
HETATM   18  C   UNL     1     -11.344   9.811  69.945  1.00  0.00    -0.238 C  
BRANCH  18  19
HETATM   19  C   UNL     1     -11.886  11.157  69.468  1.00  0.00    -0.423 C  
BRANCH  19  20
HETATM   20  C   UNL     1     -11.615  11.298  67.976  1.00  0.00    -0.272 C  
BRANCH  20  21
HETATM   21  N   UNL     1     -12.234  12.509  67.443  1.00  0.00    -0.370 NA 
HETATM   22  H   UNL     1     -12.497  13.155  68.187  1.00  0.00     0.000 HD 
BRANCH  21  23
HETATM   23  C   UNL     1     -11.366  13.155  66.448  1.00  0.00    -0.315 C  
BRANCH  23  24
HETATM   24  C   UNL     1     -11.155  14.653  66.715  1.00  0.00    -0.335 C  
BRANCH  24  25
HETATM   25  C   UNL     1      -9.700  15.009  66.860  1.00  0.00    -0.247 A  
HETATM   26  C   UNL     1      -8.868  14.225  67.667  1.00  0.00    -0.196 A  
HETATM   27  C   UNL     1      -7.515  14.541  67.799  1.00  0.00    -0.182 A  
HETATM   28  C   UNL     1      -6.994  15.645  67.129  1.00  0.00    -0.169 A  
HETATM   29  C   UNL     1      -7.821  16.437  66.333  1.00  0.00    -0.297 A  
HETATM   30  C   UNL     1      -9.172  16.122  66.201  1.00  0.00    -0.382 A  
ENDBRANCH  24  25
ENDBRANCH  23  24
ENDBRANCH  21  23
ENDBRANCH  20  21
ENDBRANCH  19  20
ENDBRANCH  18  19
ENDBRANCH  17  18
ENDBRANCH  16  17
ENDBRANCH  15  16
ENDBRANCH  13  15
ENDBRANCH  12  13
ENDBRANCH  11  12
ENDBRANCH   8  11
TORSDOF 13
ENDMDL
MODEL      315
REMARK 921   NORMALIZED FREE ENERGY PREDICTED BY IDOCK:   -3.20 KCAL/MOL
REMARK 922        TOTAL FREE ENERGY PREDICTED BY IDOCK:   -8.39 KCAL/MOL
REMARK 923 INTER-LIGAND FREE ENERGY PREDICTED BY IDOCK:   -6.35 KCAL/MOL
REMARK 924 INTRA-LIGAND FREE ENERGY PREDICTED BY IDOCK:   -2.04 KCAL/MOL
REMARK 927      BINDING AFFINITY PREDICTED BY RF-SCORE:    0.00 PKD
ROOT
HETATM    1  O   UNL     1     -12.462   7.886  73.045  1.00  0.00    -0.526 OA 
HETATM    2  H   UNL     1     -12.079   7.062  73.323  1.00  0.00     0.000 HD 
HETATM    3  C   UNL     1     -11.881   8.712  72.122  1.00  0.00    -0.377 A  
HETATM    4  C   UNL     1     -12.442   9.919  71.714  1.00  0.00    -0.397 A  
HETATM    5  C   UNL     1     -11.810  10.692  70.738  1.00  0.00    -0.459 A  
HETATM    6  O   UNL     1     -13.611  10.402  72.228  1.00  0.00    -0.558 OA 
HETATM    7  H   UNL     1     -13.994  11.225  71.950  1.00  0.00     0.000 HD 
HETATM    8  C   UNL     1     -10.616  10.254  70.153  1.00  0.00    -0.303 A  
HETATM    9  C   UNL     1     -10.670   8.290  71.582  1.00  0.00    -0.320 A  
HETATM   10  C   UNL     1     -10.036   9.058  70.604  1.00  0.00    -0.287 A  
ENDROOT
BRANCH   8  11
HETATM   11  C   UNL     1      -9.950  11.058  69.064  1.00  0.00    -0.184 C  
BRANCH  11  12
HETATM   12  C   UNL     1      -9.014  10.193  68.217  1.00  0.00    -0.120 C  
BRANCH  12  13
HETATM   13  N   UNL     1      -9.234  10.442  66.787  1.00  0.00    -0.153 NA 
HETATM   14  H   UNL     1      -8.366  10.665  66.298  1.00  0.00     0.000 HD 
BRANCH  13  15
HETATM   15  C   UNL     1      -9.924   9.301  66.191  1.00  0.00    -0.277 C  
BRANCH  15  16
HETATM   16  C   UNL     1      -9.630   8.029  66.978  1.00  0.00    -0.252 C  
BRANCH  16  17
HETATM   17  C   UNL     1     -10.917   7.226  67.145  1.00  0.00    -0.285 C  
BRANCH  17  18
HETATM   18  C   UNL     1     -10.822   6.281  68.331  1.00  0.00    -0.394 C  
BRANCH  18  19
HETATM   19  C   UNL     1      -9.366   6.074  68.748  1.00  0.00    -0.128 C  
BRANCH  19  20
HETATM   20  C   UNL     1      -9.255   4.765  69.517  1.00  0.00    -0.120 C  
BRANCH  20  21
HETATM   21  N   UNL     1      -9.987   4.834  70.779  1.00  0.00    -0.215 NA 
HETATM   22  H   UNL     1     -10.981   4.649  70.647  1.00  0.00     0.000 HD 
BRANCH  21  23
HETATM   23  C   UNL     1      -9.399   3.937  71.785  1.00  0.00    -0.134 C  
BRANCH  23  24
HETATM   24  C   UNL     1      -9.591   4.438  73.224  1.00  0.00    -0.142 C  
BRANCH  24  25
HETATM   25  C   UNL     1      -8.512   5.400  73.643  1.00  0.00    -0.111 A  
HETATM   26  C   UNL     1      -8.853   6.690  74.066  1.00  0.00    -0.171 A  
HETATM   27  C   UNL     1      -7.860   7.585  74.467  1.00  0.00    -0.212 A  
HETATM   28  C   UNL     1      -6.524   7.193  74.439  1.00  0.00    -0.082 A  
HETATM   29  C   UNL     1      -6.177   5.914  74.008  1.00  0.00    -0.065 A  
HETATM   30  C   UNL     1      -7.168   5.019  73.608  1.00  0.00    -0.082 A  
ENDBRANCH  24  25
ENDBRANCH  23  24
ENDBRANCH  21  23
ENDBRANCH  20  21
ENDBRANCH  19  20
ENDBRANCH  18  19
ENDBRANCH  17  18
ENDBRANCH  16  17
ENDBRANCH  15  16
ENDBRANCH  13  15
ENDBRANCH  12  13
ENDBRANCH  11  12
ENDBRANCH   8  11
TORSDOF 13
ENDMDL
MODEL      316
REMARK 921   NORMALIZED FREE ENERGY PREDICTED BY IDOCK:   -3.20 KCAL/MOL
REMARK 922        TOTAL FREE ENERGY PREDICTED BY IDOCK:   -8.38 KCAL/MOL
REMARK 923 INTER-LIGAND FREE ENERGY PREDICTED BY IDOCK:   -7.23 KCAL/MOL
REMARK 924 INTRA-LIGAND FREE ENERGY PREDICTED BY IDOCK:   -1.15 KCAL/MOL
REMARK 927      BINDING AFFINITY PREDICTED BY RF-SCORE:    0.00 PKD
ROOT
HETATM    1  O   UNL     1     -13.772  15.500  72.471  1.00  0.00    -0.490 OA 
HETATM    2  H   UNL     1     -14.328  15.477  73.241  1.00  0.00     0.000 HD 
HETATM    3  C   UNL     1     -13.303  14.375  71.848  1.00  0.00    -0.374 A  
HETATM    4  C   UNL     1     -12.490  14.408  70.719  1.00  0.00    -0.352 A  
HETATM    5  C   UNL     1     -12.080  13.217  70.115  1.00  0.00    -0.403 A  
HETATM    6  O   UNL     1     -12.059  15.573  70.151  1.00  0.00    -0.340 OA 
HETATM    7  H   UNL     1     -11.504  15.595  69.381  1.00  0.00     0.000 HD 
HETATM    8  C   UNL     1     -12.494  11.984  70.631  1.00  0.00    -0.335 A  
HETATM    9  C   UNL     1     -13.681  13.155  72.398  1.00  0.00    -0.640 A  
HETATM   10  C   UNL     1     -13.276  11.962  71.796  1.00  0.00    -0.426 A  
ENDROOT
BRANCH   8  11
HETATM   11  C   UNL     1     -12.096  10.694  69.958  1.00  0.00    -0.393 C  
BRANCH  11  12
HETATM   12  C   UNL     1     -10.621  10.365  70.195  1.00  0.00    -0.188 C  
BRANCH  12  13
HETATM   13  N   UNL     1      -9.932  10.136  68.920  1.00  0.00    -0.189 NA 
HETATM   14  H   UNL     1     -10.572   9.830  68.186  1.00  0.00     0.000 HD 
BRANCH  13  15
HETATM   15  C   UNL     1      -9.191  11.335  68.539  1.00  0.00    -0.181 C  
BRANCH  15  16
HETATM   16  C   UNL     1      -7.690  11.088  68.634  1.00  0.00    -0.132 C  
BRANCH  16  17
HETATM   17  C   UNL     1      -7.359   9.730  68.018  1.00  0.00    -0.081 C  
BRANCH  17  18
HETATM   18  C   UNL     1      -6.786   9.889  66.620  1.00  0.00    -0.080 C  
BRANCH  18  19
HETATM   19  C   UNL     1      -7.852   9.619  65.560  1.00  0.00    -0.111 C  
BRANCH  19  20
HETATM   20  C   UNL     1      -8.568   8.319  65.899  1.00  0.00    -0.150 C  
BRANCH  20  21
HETATM   21  N   UNL     1     -10.015   8.512  65.936  1.00  0.00    -0.432 NA 
HETATM   22  H   UNL     1     -10.438   8.356  65.022  1.00  0.00     0.000 HD 
BRANCH  21  23
HETATM   23  C   UNL     1     -10.637   7.672  66.970  1.00  0.00    -0.336 C  
BRANCH  23  24
HETATM   24  C   UNL     1     -10.599   6.174  66.631  1.00  0.00    -0.296 C  
BRANCH  24  25
HETATM   25  C   UNL     1     -10.119   5.338  67.786  1.00  0.00    -0.205 A  
HETATM   26  C   UNL     1     -10.077   5.886  69.074  1.00  0.00    -0.237 A  
HETATM   27  C   UNL     1      -9.643   5.114  70.153  1.00  0.00    -0.247 A  
HETATM   28  C   UNL     1      -9.245   3.796  69.945  1.00  0.00    -0.219 A  
HETATM   29  C   UNL     1      -9.274   3.248  68.663  1.00  0.00    -0.232 A  
HETATM   30  C   UNL     1      -9.707   4.018  67.585  1.00  0.00    -0.164 A  
ENDBRANCH  24  25
ENDBRANCH  23  24
ENDBRANCH  21  23
ENDBRANCH  20  21
ENDBRANCH  19  20
ENDBRANCH  18  19
ENDBRANCH  17  18
ENDBRANCH  16  17
ENDBRANCH  15  16
ENDBRANCH  13  15
ENDBRANCH  12  13
ENDBRANCH  11  12
ENDBRANCH   8  11
TORSDOF 13
ENDMDL
MODEL      317
REMARK 921   NORMALIZED FREE ENERGY PREDICTED BY IDOCK:   -3.19 KCAL/MOL
REMARK 922        TOTAL FREE ENERGY PREDICTED BY IDOCK:   -8.38 KCAL/MOL
REMARK 923 INTER-LIGAND FREE ENERGY PREDICTED BY IDOCK:   -6.49 KCAL/MOL
REMARK 924 INTRA-LIGAND FREE ENERGY PREDICTED BY IDOCK:   -1.88 KCAL/MOL
REMARK 927      BINDING AFFINITY PREDICTED BY RF-SCORE:    0.00 PKD
ROOT
HETATM    1  O   UNL     1      -6.560   8.167  68.529  1.00  0.00    -0.055 OA 
HETATM    2  H   UNL     1      -6.277   7.682  67.763  1.00  0.00     0.000 HD 
HETATM    3  C   UNL     1      -6.434   9.524  68.650  1.00  0.00    -0.052 A  
HETATM    4  C   UNL     1      -6.848  10.236  69.772  1.00  0.00    -0.120 A  
HETATM    5  C   UNL     1      -6.721  11.626  69.808  1.00  0.00    -0.013 A  
HETATM    6  O   UNL     1      -7.388   9.633  70.871  1.00  0.00    -0.288 OA 
HETATM    7  H   UNL     1      -7.671  10.118  71.638  1.00  0.00     0.000 HD 
HETATM    8  C   UNL     1      -6.190  12.316  68.711  1.00  0.00    -0.072 A  
HETATM    9  C   UNL     1      -5.860  10.194  67.574  1.00  0.00    -0.049 A  
HETATM   10  C   UNL     1      -5.734  11.585  67.603  1.00  0.00    -0.054 A  
ENDROOT
BRANCH   8  11
HETATM   11  C   UNL     1      -6.093  13.821  68.720  1.00  0.00    -0.086 C  
BRANCH  11  12
HETATM   12  C   UNL     1      -7.296  14.467  68.031  1.00  0.00    -0.138 C  
BRANCH  12  13
HETATM   13  N   UNL     1      -8.022  15.336  68.965  1.00  0.00    -0.178 NA 
HETATM   14  H   UNL     1      -7.532  16.215  69.132  1.00  0.00     0.000 HD 
BRANCH  13  15
HETATM   15  C   UNL     1      -9.383  15.549  68.480  1.00  0.00    -0.197 C  
BRANCH  15  16
HETATM   16  C   UNL     1      -9.661  14.668  67.267  1.00  0.00    -0.231 C  
BRANCH  16  17
HETATM   17  C   UNL     1     -11.160  14.658  66.979  1.00  0.00    -0.333 C  
BRANCH  17  18
HETATM   18  C   UNL     1     -11.615  13.291  66.498  1.00  0.00    -0.392 C  
BRANCH  18  19
HETATM   19  C   UNL     1     -10.585  12.218  66.850  1.00  0.00    -0.249 C  
BRANCH  19  20
HETATM   20  C   UNL     1     -11.249  10.851  66.768  1.00  0.00    -0.033 C  
BRANCH  20  21
HETATM   21  N   UNL     1     -11.041  10.092  67.999  1.00  0.00    -0.465 NA 
HETATM   22  H   UNL     1     -10.303   9.397  67.891  1.00  0.00     0.000 HD 
BRANCH  21  23
HETATM   23  C   UNL     1     -10.778  10.986  69.136  1.00  0.00    -0.234 C  
BRANCH  23  24
HETATM   24  C   UNL     1     -11.762  10.787  70.299  1.00  0.00    -0.442 C  
BRANCH  24  25
HETATM   25  C   UNL     1     -12.344  12.086  70.785  1.00  0.00    -0.403 A  
HETATM   26  C   UNL     1     -11.988  13.287  70.159  1.00  0.00    -0.388 A  
HETATM   27  C   UNL     1     -12.532  14.496  70.596  1.00  0.00    -0.409 A  
HETATM   28  C   UNL     1     -13.426  14.507  71.663  1.00  0.00    -0.452 A  
HETATM   29  C   UNL     1     -13.775  13.316  72.298  1.00  0.00    -0.686 A  
HETATM   30  C   UNL     1     -13.233  12.108  71.862  1.00  0.00    -0.474 A  
ENDBRANCH  24  25
ENDBRANCH  23  24
ENDBRANCH  21  23
ENDBRANCH  20  21
ENDBRANCH  19  20
ENDBRANCH  18  19
ENDBRANCH  17  18
ENDBRANCH  16  17
ENDBRANCH  15  16
ENDBRANCH  13  15
ENDBRANCH  12  13
ENDBRANCH  11  12
ENDBRANCH   8  11
TORSDOF 13
ENDMDL
MODEL      318
REMARK 921   NORMALIZED FREE ENERGY PREDICTED BY IDOCK:   -3.19 KCAL/MOL
REMARK 922        TOTAL FREE ENERGY PREDICTED BY IDOCK:   -8.38 KCAL/MOL
REMARK 923 INTER-LIGAND FREE ENERGY PREDICTED BY IDOCK:   -6.76 KCAL/MOL
REMARK 924 INTRA-LIGAND FREE ENERGY PREDICTED BY IDOCK:   -1.62 KCAL/MOL
REMARK 927      BINDING AFFINITY PREDICTED BY RF-SCORE:    0.00 PKD
ROOT
HETATM    1  O   UNL     1     -10.628  17.313  65.295  1.00  0.00    -0.667 OA 
HETATM    2  H   UNL     1     -10.255  18.016  64.777  1.00  0.00     0.000 HD 
HETATM    3  C   UNL     1      -9.879  16.467  66.067  1.00  0.00    -0.335 A  
HETATM    4  C   UNL     1     -10.425  15.437  66.827  1.00  0.00    -0.299 A  
HETATM    5  C   UNL     1      -9.601  14.637  67.620  1.00  0.00    -0.212 A  
HETATM    6  O   UNL     1     -11.762  15.159  66.843  1.00  0.00    -0.244 OA 
HETATM    7  H   UNL     1     -12.135  14.456  67.361  1.00  0.00     0.000 HD 
HETATM    8  C   UNL     1      -8.222  14.871  67.667  1.00  0.00    -0.184 A  
HETATM    9  C   UNL     1      -8.504  16.679  66.069  1.00  0.00    -0.198 A  
HETATM   10  C   UNL     1      -7.675  15.883  66.862  1.00  0.00    -0.268 A  
ENDROOT
BRANCH   8  11
HETATM   11  C   UNL     1      -7.328  14.044  68.558  1.00  0.00    -0.114 C  
BRANCH  11  12
HETATM   12  C   UNL     1      -7.423  12.554  68.223  1.00  0.00    -0.122 C  
BRANCH  12  13
HETATM   13  N   UNL     1      -7.197  12.331  66.790  1.00  0.00    -0.380 NA 
HETATM   14  H   UNL     1      -6.204  12.276  66.562  1.00  0.00     0.000 HD 
BRANCH  13  15
HETATM   15  C   UNL     1      -7.928  11.143  66.357  1.00  0.00    -0.147 C  
BRANCH  15  16
HETATM   16  C   UNL     1      -8.748  10.573  67.509  1.00  0.00    -0.125 C  
BRANCH  16  17
HETATM   17  C   UNL     1     -10.169  10.289  67.030  1.00  0.00    -0.282 C  
BRANCH  17  18
HETATM   18  C   UNL     1     -11.132  11.361  67.513  1.00  0.00    -0.339 C  
BRANCH  18  19
HETATM   19  C   UNL     1     -10.999  11.576  69.020  1.00  0.00    -0.285 C  
BRANCH  19  20
HETATM   20  C   UNL     1     -12.191  10.937  69.717  1.00  0.00    -0.311 C  
BRANCH  20  21
HETATM   21  N   UNL     1     -11.773  10.218  70.918  1.00  0.00    -0.360 NA 
HETATM   22  H   UNL     1     -12.482   9.550  71.222  1.00  0.00     0.000 HD 
BRANCH  21  23
HETATM   23  C   UNL     1     -10.469   9.570  70.722  1.00  0.00    -0.314 C  
BRANCH  23  24
HETATM   24  C   UNL     1     -10.580   8.163  70.113  1.00  0.00    -0.237 C  
BRANCH  24  25
HETATM   25  C   UNL     1     -10.330   7.080  71.127  1.00  0.00    -0.222 A  
HETATM   26  C   UNL     1      -9.019   6.762  71.498  1.00  0.00    -0.137 A  
HETATM   27  C   UNL     1      -8.778   5.766  72.446  1.00  0.00    -0.128 A  
HETATM   28  C   UNL     1      -9.848   5.082  73.019  1.00  0.00    -0.175 A  
HETATM   29  C   UNL     1     -11.156   5.387  72.644  1.00  0.00    -0.332 A  
HETATM   30  C   UNL     1     -11.397   6.381  71.698  1.00  0.00    -0.339 A  
ENDBRANCH  24  25
ENDBRANCH  23  24
ENDBRANCH  21  23
ENDBRANCH  20  21
ENDBRANCH  19  20
ENDBRANCH  18  19
ENDBRANCH  17  18
ENDBRANCH  16  17
ENDBRANCH  15  16
ENDBRANCH  13  15
ENDBRANCH  12  13
ENDBRANCH  11  12
ENDBRANCH   8  11
TORSDOF 13
ENDMDL
MODEL      319
REMARK 921   NORMALIZED FREE ENERGY PREDICTED BY IDOCK:   -3.19 KCAL/MOL
REMARK 922        TOTAL FREE ENERGY PREDICTED BY IDOCK:   -8.37 KCAL/MOL
REMARK 923 INTER-LIGAND FREE ENERGY PREDICTED BY IDOCK:   -7.05 KCAL/MOL
REMARK 924 INTRA-LIGAND FREE ENERGY PREDICTED BY IDOCK:   -1.32 KCAL/MOL
REMARK 927      BINDING AFFINITY PREDICTED BY RF-SCORE:    0.00 PKD
ROOT
HETATM    1  O   UNL     1      -5.811  13.544  68.378  1.00  0.00    -0.077 OA 
HETATM    2  H   UNL     1      -5.103  13.792  68.960  1.00  0.00     0.000 HD 
HETATM    3  C   UNL     1      -6.967  14.266  68.249  1.00  0.00    -0.108 A  
HETATM    4  C   UNL     1      -8.005  13.902  67.396  1.00  0.00    -0.170 A  
HETATM    5  C   UNL     1      -9.140  14.709  67.288  1.00  0.00    -0.215 A  
HETATM    6  O   UNL     1      -7.975  12.768  66.636  1.00  0.00    -0.400 OA 
HETATM    7  H   UNL     1      -8.684  12.520  66.054  1.00  0.00     0.000 HD 
HETATM    8  C   UNL     1      -9.236  15.895  68.026  1.00  0.00    -0.192 A  
HETATM    9  C   UNL     1      -7.073  15.417  69.022  1.00  0.00    -0.144 A  
HETATM   10  C   UNL     1      -8.203  16.229  68.915  1.00  0.00    -0.231 A  
ENDROOT
BRANCH   8  11
HETATM   11  C   UNL     1     -10.435  16.799  67.880  1.00  0.00    -0.335 C  
BRANCH  11  12
HETATM   12  C   UNL     1     -11.696  16.162  68.469  1.00  0.00    -0.170 C  
BRANCH  12  13
HETATM   13  N   UNL     1     -11.728  16.333  69.926  1.00  0.00    -0.338 NA 
HETATM   14  H   UNL     1     -12.092  17.247  70.198  1.00  0.00     0.000 HD 
BRANCH  13  15
HETATM   15  C   UNL     1     -12.482  15.238  70.532  1.00  0.00    -0.405 C  
BRANCH  15  16
HETATM   16  C   UNL     1     -11.914  13.893  70.092  1.00  0.00    -0.402 C  
BRANCH  16  17
HETATM   17  C   UNL     1     -12.644  12.769  70.824  1.00  0.00    -0.308 C  
BRANCH  17  18
HETATM   18  C   UNL     1     -12.349  11.421  70.189  1.00  0.00    -0.344 C  
BRANCH  18  19
HETATM   19  C   UNL     1     -13.361  10.371  70.642  1.00  0.00    -0.046 C  
BRANCH  19  20
HETATM   20  C   UNL     1     -13.312  10.261  72.160  1.00  0.00    -0.299 C  
BRANCH  20  21
HETATM   21  N   UNL     1     -13.573   8.891  72.595  1.00  0.00    -0.754 NA 
HETATM   22  H   UNL     1     -14.484   8.563  72.276  1.00  0.00     0.000 HD 
BRANCH  21  23
HETATM   23  C   UNL     1     -12.494   7.986  72.175  1.00  0.00    -0.296 C  
BRANCH  23  24
HETATM   24  C   UNL     1     -11.243   8.088  73.060  1.00  0.00    -0.279 C  
BRANCH  24  25
HETATM   25  C   UNL     1     -10.003   8.397  72.265  1.00  0.00    -0.383 A  
HETATM   26  C   UNL     1      -8.743   8.074  72.784  1.00  0.00    -0.262 A  
HETATM   27  C   UNL     1      -7.589   8.347  72.048  1.00  0.00    -0.152 A  
HETATM   28  C   UNL     1      -7.692   8.949  70.797  1.00  0.00    -0.126 A  
HETATM   29  C   UNL     1      -8.943   9.284  70.281  1.00  0.00    -0.261 A  
HETATM   30  C   UNL     1     -10.096   9.012  71.014  1.00  0.00    -0.352 A  
ENDBRANCH  24  25
ENDBRANCH  23  24
ENDBRANCH  21  23
ENDBRANCH  20  21
ENDBRANCH  19  20
ENDBRANCH  18  19
ENDBRANCH  17  18
ENDBRANCH  16  17
ENDBRANCH  15  16
ENDBRANCH  13  15
ENDBRANCH  12  13
ENDBRANCH  11  12
ENDBRANCH   8  11
TORSDOF 13
ENDMDL
MODEL      320
REMARK 921   NORMALIZED FREE ENERGY PREDICTED BY IDOCK:   -3.19 KCAL/MOL
REMARK 922        TOTAL FREE ENERGY PREDICTED BY IDOCK:   -8.36 KCAL/MOL
REMARK 923 INTER-LIGAND FREE ENERGY PREDICTED BY IDOCK:   -6.45 KCAL/MOL
REMARK 924 INTRA-LIGAND FREE ENERGY PREDICTED BY IDOCK:   -1.91 KCAL/MOL
REMARK 927      BINDING AFFINITY PREDICTED BY RF-SCORE:    0.00 PKD
ROOT
HETATM    1  O   UNL     1     -13.297   9.481  70.836  1.00  0.00    -0.571 OA 
HETATM    2  H   UNL     1     -13.519   8.558  70.866  1.00  0.00     0.000 HD 
HETATM    3  C   UNL     1     -12.201   9.972  70.180  1.00  0.00    -0.046 A  
HETATM    4  C   UNL     1     -11.876  11.324  70.136  1.00  0.00    -0.364 A  
HETATM    5  C   UNL     1     -10.762  11.755  69.413  1.00  0.00    -0.049 A  
HETATM    6  O   UNL     1     -12.609  12.282  70.777  1.00  0.00    -0.303 OA 
HETATM    7  H   UNL     1     -12.387  13.205  70.748  1.00  0.00     0.000 HD 
HETATM    8  C   UNL     1      -9.971  10.833  68.718  1.00  0.00    -0.201 A  
HETATM    9  C   UNL     1     -11.395   9.041  69.531  1.00  0.00     0.166 A  
HETATM   10  C   UNL     1     -10.282   9.467  68.805  1.00  0.00    -0.215 A  
ENDROOT
BRANCH   8  11
HETATM   11  C   UNL     1      -8.793  11.293  67.895  1.00  0.00    -0.142 C  
BRANCH  11  12
HETATM   12  C   UNL     1      -7.552  10.439  68.159  1.00  0.00    -0.091 C  
BRANCH  12  13
HETATM   13  N   UNL     1      -7.007   9.916  66.901  1.00  0.00    -0.087 NA 
HETATM   14  H   UNL     1      -7.308   8.958  66.720  1.00  0.00     0.000 HD 
BRANCH  13  15
HETATM   15  C   UNL     1      -7.351  10.817  65.805  1.00  0.00    -0.061 C  
BRANCH  15  16
HETATM   16  C   UNL     1      -7.526  10.036  64.507  1.00  0.00    -0.142 C  
BRANCH  16  17
HETATM   17  C   UNL     1      -9.015   9.862  64.216  1.00  0.00    -0.278 C  
BRANCH  17  18
HETATM   18  C   UNL     1      -9.787  11.127  64.547  1.00  0.00    -0.330 C  
BRANCH  18  19
HETATM   19  C   UNL     1     -10.946  11.330  63.572  1.00  0.00    -0.329 C  
BRANCH  19  20
HETATM   20  C   UNL     1     -11.970  12.259  64.209  1.00  0.00    -0.407 C  
BRANCH  20  21
HETATM   21  N   UNL     1     -11.642  13.659  63.950  1.00  0.00    -0.628 NA 
HETATM   22  H   UNL     1     -12.199  14.039  63.185  1.00  0.00     0.000 HD 
BRANCH  21  23
HETATM   23  C   UNL     1     -11.772  14.470  65.169  1.00  0.00    -0.376 C  
BRANCH  23  24
HETATM   24  C   UNL     1     -10.784  14.061  66.272  1.00  0.00    -0.289 C  
BRANCH  24  25
HETATM   25  C   UNL     1     -10.668  15.104  67.351  1.00  0.00    -0.286 A  
HETATM   26  C   UNL     1     -11.528  15.062  68.455  1.00  0.00    -0.335 A  
HETATM   27  C   UNL     1     -11.421  16.019  69.466  1.00  0.00    -0.326 A  
HETATM   28  C   UNL     1     -10.459  17.022  69.371  1.00  0.00    -0.250 A  
HETATM   29  C   UNL     1      -9.608  17.074  68.268  1.00  0.00    -0.273 A  
HETATM   30  C   UNL     1      -9.714  16.120  67.258  1.00  0.00    -0.233 A  
ENDBRANCH  24  25
ENDBRANCH  23  24
ENDBRANCH  21  23
ENDBRANCH  20  21
ENDBRANCH  19  20
ENDBRANCH  18  19
ENDBRANCH  17  18
ENDBRANCH  16  17
ENDBRANCH  15  16
ENDBRANCH  13  15
ENDBRANCH  12  13
ENDBRANCH  11  12
ENDBRANCH   8  11
TORSDOF 13
ENDMDL
MODEL      321
REMARK 921   NORMALIZED FREE ENERGY PREDICTED BY IDOCK:   -3.17 KCAL/MOL
REMARK 922        TOTAL FREE ENERGY PREDICTED BY IDOCK:   -8.34 KCAL/MOL
REMARK 923 INTER-LIGAND FREE ENERGY PREDICTED BY IDOCK:   -7.57 KCAL/MOL
REMARK 924 INTRA-LIGAND FREE ENERGY PREDICTED BY IDOCK:   -0.77 KCAL/MOL
REMARK 927      BINDING AFFINITY PREDICTED BY RF-SCORE:    0.00 PKD
ROOT
HETATM    1  O   UNL     1     -10.971   7.425  74.002  1.00  0.00    -0.520 OA 
HETATM    2  H   UNL     1     -10.202   7.503  74.554  1.00  0.00     0.000 HD 
HETATM    3  C   UNL     1     -10.911   7.146  72.663  1.00  0.00    -0.288 A  
HETATM    4  C   UNL     1     -12.037   7.030  71.854  1.00  0.00    -0.323 A  
HETATM    5  C   UNL     1     -11.900   6.707  70.502  1.00  0.00    -0.430 A  
HETATM    6  O   UNL     1     -13.306   7.220  72.321  1.00  0.00    -0.503 OA 
HETATM    7  H   UNL     1     -14.075   7.141  71.769  1.00  0.00     0.000 HD 
HETATM    8  C   UNL     1     -10.631   6.483  69.955  1.00  0.00    -0.282 A  
HETATM    9  C   UNL     1      -9.643   6.973  72.119  1.00  0.00    -0.160 A  
HETATM   10  C   UNL     1      -9.500   6.646  70.769  1.00  0.00    -0.173 A  
ENDROOT
BRANCH   8  11
HETATM   11  C   UNL     1     -10.474   6.085  68.508  1.00  0.00    -0.287 C  
BRANCH  11  12
HETATM   12  C   UNL     1      -9.969   7.250  67.655  1.00  0.00    -0.162 C  
BRANCH  12  13
HETATM   13  N   UNL     1     -11.032   8.241  67.451  1.00  0.00    -0.466 NA 
HETATM   14  H   UNL     1     -11.919   7.942  67.858  1.00  0.00     0.000 HD 
BRANCH  13  15
HETATM   15  C   UNL     1     -10.600   9.538  67.966  1.00  0.00    -0.230 C  
BRANCH  15  16
HETATM   16  C   UNL     1     -10.907  10.641  66.959  1.00  0.00    -0.298 C  
BRANCH  16  17
HETATM   17  C   UNL     1      -9.719  10.814  66.016  1.00  0.00    -0.264 C  
BRANCH  17  18
HETATM   18  C   UNL     1      -8.465  11.196  66.783  1.00  0.00    -0.153 C  
BRANCH  18  19
HETATM   19  C   UNL     1      -8.354  12.713  66.929  1.00  0.00    -0.078 C  
BRANCH  19  20
HETATM   20  C   UNL     1      -7.860  13.040  68.331  1.00  0.00    -0.134 C  
BRANCH  20  21
HETATM   21  N   UNL     1      -7.790  14.484  68.539  1.00  0.00    -0.129 NA 
HETATM   22  H   UNL     1      -6.844  14.784  68.772  1.00  0.00     0.000 HD 
BRANCH  21  23
HETATM   23  C   UNL     1      -8.320  15.214  67.378  1.00  0.00    -0.186 C  
BRANCH  23  24
HETATM   24  C   UNL     1      -7.728  16.625  67.233  1.00  0.00    -0.198 C  
BRANCH  24  25
HETATM   25  C   UNL     1      -8.759  17.701  67.441  1.00  0.00    -0.235 A  
HETATM   26  C   UNL     1      -8.765  18.441  68.629  1.00  0.00    -0.306 A  
HETATM   27  C   UNL     1      -9.711  19.449  68.825  1.00  0.00    -0.516 A  
HETATM   28  C   UNL     1     -10.656  19.713  67.837  1.00  0.00    -0.492 A  
HETATM   29  C   UNL     1     -10.663  18.971  66.657  1.00  0.00    -0.429 A  
HETATM   30  C   UNL     1      -9.719  17.964  66.460  1.00  0.00    -0.331 A  
ENDBRANCH  24  25
ENDBRANCH  23  24
ENDBRANCH  21  23
ENDBRANCH  20  21
ENDBRANCH  19  20
ENDBRANCH  18  19
ENDBRANCH  17  18
ENDBRANCH  16  17
ENDBRANCH  15  16
ENDBRANCH  13  15
ENDBRANCH  12  13
ENDBRANCH  11  12
ENDBRANCH   8  11
TORSDOF 13
ENDMDL
MODEL      322
REMARK 921   NORMALIZED FREE ENERGY PREDICTED BY IDOCK:   -3.17 KCAL/MOL
REMARK 922        TOTAL FREE ENERGY PREDICTED BY IDOCK:   -8.34 KCAL/MOL
REMARK 923 INTER-LIGAND FREE ENERGY PREDICTED BY IDOCK:   -7.64 KCAL/MOL
REMARK 924 INTRA-LIGAND FREE ENERGY PREDICTED BY IDOCK:   -0.69 KCAL/MOL
REMARK 927      BINDING AFFINITY PREDICTED BY RF-SCORE:    0.00 PKD
ROOT
HETATM    1  O   UNL     1     -13.311  15.950  74.096  1.00  0.00    -0.786 OA 
HETATM    2  H   UNL     1     -12.960  16.676  74.599  1.00  0.00     0.000 HD 
HETATM    3  C   UNL     1     -12.901  15.646  72.827  1.00  0.00    -0.452 A  
HETATM    4  C   UNL     1     -13.415  14.582  72.090  1.00  0.00    -0.400 A  
HETATM    5  C   UNL     1     -12.920  14.310  70.813  1.00  0.00    -0.368 A  
HETATM    6  O   UNL     1     -14.403  13.766  72.561  1.00  0.00    -0.696 OA 
HETATM    7  H   UNL     1     -14.754  13.041  72.058  1.00  0.00     0.000 HD 
HETATM    8  C   UNL     1     -11.896  15.094  70.269  1.00  0.00    -0.352 A  
HETATM    9  C   UNL     1     -11.917  16.461  72.277  1.00  0.00    -0.521 A  
HETATM   10  C   UNL     1     -11.416  16.190  71.002  1.00  0.00    -0.424 A  
ENDROOT
BRANCH   8  11
HETATM   11  C   UNL     1     -11.321  14.778  68.911  1.00  0.00    -0.302 C  
BRANCH  11  12
HETATM   12  C   UNL     1     -11.020  13.286  68.759  1.00  0.00    -0.260 C  
BRANCH  12  13
HETATM   13  N   UNL     1      -9.915  13.075  67.816  1.00  0.00    -0.221 NA 
HETATM   14  H   UNL     1      -9.015  13.353  68.210  1.00  0.00     0.000 HD 
BRANCH  13  15
HETATM   15  C   UNL     1      -9.913  11.687  67.365  1.00  0.00    -0.183 C  
BRANCH  15  16
HETATM   16  C   UNL     1      -8.598  11.355  66.667  1.00  0.00    -0.170 C  
BRANCH  16  17
HETATM   17  C   UNL     1      -8.868  10.411  65.498  1.00  0.00    -0.193 C  
BRANCH  17  18
HETATM   18  C   UNL     1     -10.060   9.514  65.784  1.00  0.00    -0.223 C  
BRANCH  18  19
HETATM   19  C   UNL     1      -9.608   8.177  66.370  1.00  0.00    -0.286 C  
BRANCH  19  20
HETATM   20  C   UNL     1     -10.754   7.577  67.173  1.00  0.00    -0.309 C  
BRANCH  20  21
HETATM   21  N   UNL     1     -11.098   6.245  66.682  1.00  0.00    -0.748 NA 
HETATM   22  H   UNL     1     -11.707   6.292  65.865  1.00  0.00     0.000 HD 
BRANCH  21  23
HETATM   23  C   UNL     1      -9.892   5.450  66.413  1.00  0.00    -0.176 C  
BRANCH  23  24
HETATM   24  C   UNL     1      -9.909   4.077  67.100  1.00  0.00    -0.144 C  
BRANCH  24  25
HETATM   25  C   UNL     1      -8.771   3.908  68.070  1.00  0.00    -0.122 A  
HETATM   26  C   UNL     1      -7.974   5.008  68.407  1.00  0.00    -0.086 A  
HETATM   27  C   UNL     1      -6.923   4.863  69.314  1.00  0.00    -0.051 A  
HETATM   28  C   UNL     1      -6.663   3.616  69.879  1.00  0.00    -0.034 A  
HETATM   29  C   UNL     1      -7.446   2.515  69.537  1.00  0.00    -0.044 A  
HETATM   30  C   UNL     1      -8.496   2.659  68.632  1.00  0.00    -0.095 A  
ENDBRANCH  24  25
ENDBRANCH  23  24
ENDBRANCH  21  23
ENDBRANCH  20  21
ENDBRANCH  19  20
ENDBRANCH  18  19
ENDBRANCH  17  18
ENDBRANCH  16  17
ENDBRANCH  15  16
ENDBRANCH  13  15
ENDBRANCH  12  13
ENDBRANCH  11  12
ENDBRANCH   8  11
TORSDOF 13
ENDMDL
MODEL      323
REMARK 921   NORMALIZED FREE ENERGY PREDICTED BY IDOCK:   -3.16 KCAL/MOL
REMARK 922        TOTAL FREE ENERGY PREDICTED BY IDOCK:   -8.31 KCAL/MOL
REMARK 923 INTER-LIGAND FREE ENERGY PREDICTED BY IDOCK:   -7.25 KCAL/MOL
REMARK 924 INTRA-LIGAND FREE ENERGY PREDICTED BY IDOCK:   -1.06 KCAL/MOL
REMARK 927      BINDING AFFINITY PREDICTED BY RF-SCORE:    0.00 PKD
ROOT
HETATM    1  O   UNL     1     -13.305   9.114  73.075  1.00  0.00    -0.801 OA 
HETATM    2  H   UNL     1     -12.963   9.681  73.756  1.00  0.00     0.000 HD 
HETATM    3  C   UNL     1     -12.514   8.330  72.280  1.00  0.00    -0.335 A  
HETATM    4  C   UNL     1     -13.015   7.499  71.282  1.00  0.00    -0.278 A  
HETATM    5  C   UNL     1     -12.149   6.698  70.534  1.00  0.00    -0.302 A  
HETATM    6  O   UNL     1     -14.346   7.420  70.985  1.00  0.00    -0.622 OA 
HETATM    7  H   UNL     1     -14.688   6.853  70.304  1.00  0.00     0.000 HD 
HETATM    8  C   UNL     1     -10.773   6.715  70.791  1.00  0.00    -0.282 A  
HETATM    9  C   UNL     1     -11.144   8.390  72.511  1.00  0.00    -0.397 A  
HETATM   10  C   UNL     1     -10.274   7.589  71.769  1.00  0.00    -0.216 A  
ENDROOT
BRANCH   8  11
HETATM   11  C   UNL     1      -9.834   5.819  70.023  1.00  0.00    -0.235 C  
BRANCH  11  12
HETATM   12  C   UNL     1      -9.019   6.605  68.995  1.00  0.00    -0.130 C  
BRANCH  12  13
HETATM   13  N   UNL     1      -9.629   6.502  67.664  1.00  0.00    -0.122 NA 
HETATM   14  H   UNL     1     -10.139   5.627  67.541  1.00  0.00     0.000 HD 
BRANCH  13  15
HETATM   15  C   UNL     1     -10.471   7.669  67.418  1.00  0.00    -0.297 C  
BRANCH  15  16
HETATM   16  C   UNL     1      -9.759   8.658  66.502  1.00  0.00    -0.325 C  
BRANCH  16  17
HETATM   17  C   UNL     1      -9.832  10.057  67.109  1.00  0.00    -0.231 C  
BRANCH  17  18
HETATM   18  C   UNL     1     -10.476  10.023  68.484  1.00  0.00    -0.229 C  
BRANCH  18  19
HETATM   19  C   UNL     1     -11.704  10.930  68.535  1.00  0.00    -0.307 C  
BRANCH  19  20
HETATM   20  C   UNL     1     -11.547  11.909  69.690  1.00  0.00    -0.317 C  
BRANCH  20  21
HETATM   21  N   UNL     1     -10.894  13.140  69.249  1.00  0.00    -0.440 NA 
HETATM   22  H   UNL     1      -9.879  13.066  69.304  1.00  0.00     0.000 HD 
BRANCH  21  23
HETATM   23  C   UNL     1     -11.336  13.522  67.900  1.00  0.00    -0.289 C  
BRANCH  23  24
HETATM   24  C   UNL     1     -10.223  13.408  66.847  1.00  0.00    -0.252 C  
BRANCH  24  25
HETATM   25  C   UNL     1      -8.863  13.701  67.419  1.00  0.00    -0.221 A  
HETATM   26  C   UNL     1      -8.675  14.829  68.227  1.00  0.00    -0.170 A  
HETATM   27  C   UNL     1      -7.419  15.103  68.770  1.00  0.00    -0.132 A  
HETATM   28  C   UNL     1      -6.348  14.254  68.502  1.00  0.00    -0.092 A  
HETATM   29  C   UNL     1      -6.527  13.136  67.689  1.00  0.00    -0.166 A  
HETATM   30  C   UNL     1      -7.781  12.861  67.145  1.00  0.00    -0.058 A  
ENDBRANCH  24  25
ENDBRANCH  23  24
ENDBRANCH  21  23
ENDBRANCH  20  21
ENDBRANCH  19  20
ENDBRANCH  18  19
ENDBRANCH  17  18
ENDBRANCH  16  17
ENDBRANCH  15  16
ENDBRANCH  13  15
ENDBRANCH  12  13
ENDBRANCH  11  12
ENDBRANCH   8  11
TORSDOF 13
ENDMDL
MODEL      324
REMARK 921   NORMALIZED FREE ENERGY PREDICTED BY IDOCK:   -3.15 KCAL/MOL
REMARK 922        TOTAL FREE ENERGY PREDICTED BY IDOCK:   -8.29 KCAL/MOL
REMARK 923 INTER-LIGAND FREE ENERGY PREDICTED BY IDOCK:   -6.32 KCAL/MOL
REMARK 924 INTRA-LIGAND FREE ENERGY PREDICTED BY IDOCK:   -1.97 KCAL/MOL
REMARK 927      BINDING AFFINITY PREDICTED BY RF-SCORE:    0.00 PKD
ROOT
HETATM    1  O   UNL     1     -12.696  11.009  69.332  1.00  0.00    -0.459 OA 
HETATM    2  H   UNL     1     -13.157  10.179  69.294  1.00  0.00     0.000 HD 
HETATM    3  C   UNL     1     -11.476  11.220  68.747  1.00  0.00    -0.293 A  
HETATM    4  C   UNL     1     -10.800  12.435  68.802  1.00  0.00    -0.226 A  
HETATM    5  C   UNL     1      -9.575  12.587  68.149  1.00  0.00    -0.215 A  
HETATM    6  O   UNL     1     -11.283  13.519  69.477  1.00  0.00    -0.393 OA 
HETATM    7  H   UNL     1     -10.821  14.349  69.515  1.00  0.00     0.000 HD 
HETATM    8  C   UNL     1      -9.025  11.523  67.423  1.00  0.00    -0.156 A  
HETATM    9  C   UNL     1     -10.916  10.142  68.070  1.00  0.00    -0.326 A  
HETATM   10  C   UNL     1      -9.693  10.289  67.412  1.00  0.00    -0.189 A  
ENDROOT
BRANCH   8  11
HETATM   11  C   UNL     1      -7.727  11.691  66.674  1.00  0.00    -0.065 C  
BRANCH  11  12
HETATM   12  C   UNL     1      -7.365  10.432  65.884  1.00  0.00    -0.135 C  
BRANCH  12  13
HETATM   13  N   UNL     1      -7.757  10.574  64.477  1.00  0.00    -0.338 NA 
HETATM   14  H   UNL     1      -6.949  10.647  63.858  1.00  0.00     0.000 HD 
BRANCH  13  15
HETATM   15  C   UNL     1      -8.641   9.475  64.100  1.00  0.00    -0.201 C  
BRANCH  15  16
HETATM   16  C   UNL     1      -8.056   8.697  62.927  1.00  0.00    -0.177 C  
BRANCH  16  17
HETATM   17  C   UNL     1      -7.615   7.315  63.403  1.00  0.00    -0.117 C  
BRANCH  17  18
HETATM   18  C   UNL     1      -8.250   6.969  64.738  1.00  0.00    -0.048 C  
BRANCH  18  19
HETATM   19  C   UNL     1      -8.170   5.467  65.008  1.00  0.00    -0.139 C  
BRANCH  19  20
HETATM   20  C   UNL     1      -9.186   5.104  66.082  1.00  0.00    -0.151 C  
BRANCH  20  21
HETATM   21  N   UNL     1     -10.318   6.027  66.067  1.00  0.00    -0.406 NA 
HETATM   22  H   UNL     1     -11.024   5.743  65.388  1.00  0.00     0.000 HD 
BRANCH  21  23
HETATM   23  C   UNL     1     -10.893   6.184  67.411  1.00  0.00    -0.343 C  
BRANCH  23  24
HETATM   24  C   UNL     1      -9.833   6.174  68.523  1.00  0.00    -0.157 C  
BRANCH  24  25
HETATM   25  C   UNL     1     -10.241   7.005  69.709  1.00  0.00    -0.213 A  
HETATM   26  C   UNL     1     -11.529   6.873  70.243  1.00  0.00    -0.373 A  
HETATM   27  C   UNL     1     -11.912   7.633  71.350  1.00  0.00    -0.336 A  
HETATM   28  C   UNL     1     -11.011   8.530  71.920  1.00  0.00    -0.394 A  
HETATM   29  C   UNL     1      -9.732   8.674  71.384  1.00  0.00    -0.314 A  
HETATM   30  C   UNL     1      -9.348   7.916  70.280  1.00  0.00    -0.159 A  
ENDBRANCH  24  25
ENDBRANCH  23  24
ENDBRANCH  21  23
ENDBRANCH  20  21
ENDBRANCH  19  20
ENDBRANCH  18  19
ENDBRANCH  17  18
ENDBRANCH  16  17
ENDBRANCH  15  16
ENDBRANCH  13  15
ENDBRANCH  12  13
ENDBRANCH  11  12
ENDBRANCH   8  11
TORSDOF 13
ENDMDL
MODEL      325
REMARK 921   NORMALIZED FREE ENERGY PREDICTED BY IDOCK:   -3.14 KCAL/MOL
REMARK 922        TOTAL FREE ENERGY PREDICTED BY IDOCK:   -8.28 KCAL/MOL
REMARK 923 INTER-LIGAND FREE ENERGY PREDICTED BY IDOCK:   -6.91 KCAL/MOL
REMARK 924 INTRA-LIGAND FREE ENERGY PREDICTED BY IDOCK:   -1.38 KCAL/MOL
REMARK 927      BINDING AFFINITY PREDICTED BY RF-SCORE:    0.00 PKD
ROOT
HETATM    1  O   UNL     1      -6.571  17.625  66.896  1.00  0.00    -0.154 OA 
HETATM    2  H   UNL     1      -6.566  18.548  66.675  1.00  0.00     0.000 HD 
HETATM    3  C   UNL     1      -7.672  16.824  66.763  1.00  0.00    -0.250 A  
HETATM    4  C   UNL     1      -7.679  15.470  67.087  1.00  0.00    -0.222 A  
HETATM    5  C   UNL     1      -8.832  14.707  66.889  1.00  0.00    -0.267 A  
HETATM    6  O   UNL     1      -6.590  14.828  67.602  1.00  0.00    -0.163 OA 
HETATM    7  H   UNL     1      -6.594  13.904  67.824  1.00  0.00     0.000 HD 
HETATM    8  C   UNL     1      -9.983  15.293  66.351  1.00  0.00    -0.291 A  
HETATM    9  C   UNL     1      -8.826  17.427  66.273  1.00  0.00    -0.236 A  
HETATM   10  C   UNL     1      -9.979  16.668  66.069  1.00  0.00    -0.346 A  
ENDROOT
BRANCH   8  11
HETATM   11  C   UNL     1     -11.218  14.467  66.087  1.00  0.00    -0.339 C  
BRANCH  11  12
HETATM   12  C   UNL     1     -10.932  12.970  66.210  1.00  0.00    -0.284 C  
BRANCH  12  13
HETATM   13  N   UNL     1     -12.080  12.270  66.799  1.00  0.00    -0.565 NA 
HETATM   14  H   UNL     1     -12.557  11.676  66.121  1.00  0.00     0.000 HD 
BRANCH  13  15
HETATM   15  C   UNL     1     -11.648  11.524  67.978  1.00  0.00    -0.300 C  
BRANCH  15  16
HETATM   16  C   UNL     1     -10.139  11.305  67.947  1.00  0.00    -0.195 C  
BRANCH  16  17
HETATM   17  C   UNL     1      -9.842   9.808  67.992  1.00  0.00    -0.173 C  
BRANCH  17  18
HETATM   18  C   UNL     1     -10.096   9.160  66.642  1.00  0.00    -0.343 C  
BRANCH  18  19
HETATM   19  C   UNL     1      -8.807   8.579  66.064  1.00  0.00    -0.208 C  
BRANCH  19  20
HETATM   20  C   UNL     1      -7.973   8.001  67.199  1.00  0.00    -0.113 C  
BRANCH  20  21
HETATM   21  N   UNL     1      -7.901   6.545  67.108  1.00  0.00    -0.107 NA 
HETATM   22  H   UNL     1      -6.968   6.232  66.843  1.00  0.00     0.000 HD 
BRANCH  21  23
HETATM   23  C   UNL     1      -8.350   5.912  68.357  1.00  0.00    -0.112 C  
BRANCH  23  24
HETATM   24  C   UNL     1      -9.842   5.545  68.342  1.00  0.00    -0.186 C  
BRANCH  24  25
HETATM   25  C   UNL     1     -10.499   5.766  69.678  1.00  0.00    -0.363 A  
HETATM   26  C   UNL     1     -10.130   4.979  70.776  1.00  0.00    -0.307 A  
HETATM   27  C   UNL     1     -10.726   5.185  72.021  1.00  0.00    -0.236 A  
HETATM   28  C   UNL     1     -11.695   6.174  72.169  1.00  0.00    -0.361 A  
HETATM   29  C   UNL     1     -12.074   6.953  71.077  1.00  0.00    -0.429 A  
HETATM   30  C   UNL     1     -11.480   6.748  69.833  1.00  0.00    -0.355 A  
ENDBRANCH  24  25
ENDBRANCH  23  24
ENDBRANCH  21  23
ENDBRANCH  20  21
ENDBRANCH  19  20
ENDBRANCH  18  19
ENDBRANCH  17  18
ENDBRANCH  16  17
ENDBRANCH  15  16
ENDBRANCH  13  15
ENDBRANCH  12  13
ENDBRANCH  11  12
ENDBRANCH   8  11
TORSDOF 13
ENDMDL
MODEL      326
REMARK 921   NORMALIZED FREE ENERGY PREDICTED BY IDOCK:   -3.12 KCAL/MOL
REMARK 922        TOTAL FREE ENERGY PREDICTED BY IDOCK:   -8.24 KCAL/MOL
REMARK 923 INTER-LIGAND FREE ENERGY PREDICTED BY IDOCK:   -6.79 KCAL/MOL
REMARK 924 INTRA-LIGAND FREE ENERGY PREDICTED BY IDOCK:   -1.45 KCAL/MOL
REMARK 927      BINDING AFFINITY PREDICTED BY RF-SCORE:    0.00 PKD
ROOT
HETATM    1  O   UNL     1      -5.968  13.874  70.859  1.00  0.00    -0.258 OA 
HETATM    2  H   UNL     1      -5.460  14.408  71.458  1.00  0.00     0.000 HD 
HETATM    3  C   UNL     1      -6.608  14.378  69.760  1.00  0.00    -0.142 A  
HETATM    4  C   UNL     1      -7.352  13.596  68.881  1.00  0.00    -0.060 A  
HETATM    5  C   UNL     1      -7.947  14.176  67.758  1.00  0.00    -0.175 A  
HETATM    6  O   UNL     1      -7.537  12.255  69.060  1.00  0.00    -0.301 OA 
HETATM    7  H   UNL     1      -8.045  11.721  68.460  1.00  0.00     0.000 HD 
HETATM    8  C   UNL     1      -7.789  15.542  67.500  1.00  0.00    -0.191 A  
HETATM    9  C   UNL     1      -6.484  15.746  69.540  1.00  0.00    -0.177 A  
HETATM   10  C   UNL     1      -7.074  16.329  68.416  1.00  0.00    -0.136 A  
ENDROOT
BRANCH   8  11
HETATM   11  C   UNL     1      -8.386  16.168  66.265  1.00  0.00    -0.322 C  
BRANCH  11  12
HETATM   12  C   UNL     1      -9.861  16.520  66.468  1.00  0.00    -0.278 C  
BRANCH  12  13
HETATM   13  N   UNL     1     -10.650  16.139  65.290  1.00  0.00    -0.544 NA 
HETATM   14  H   UNL     1     -10.459  16.741  64.488  1.00  0.00     0.000 HD 
BRANCH  13  15
HETATM   15  C   UNL     1     -10.428  14.729  64.985  1.00  0.00    -0.416 C  
BRANCH  15  16
HETATM   16  C   UNL     1     -11.719  13.936  65.157  1.00  0.00    -0.357 C  
BRANCH  16  17
HETATM   17  C   UNL     1     -12.193  14.045  66.604  1.00  0.00    -0.463 C  
BRANCH  17  18
HETATM   18  C   UNL     1     -11.365  13.158  67.518  1.00  0.00    -0.336 C  
BRANCH  18  19
HETATM   19  C   UNL     1     -11.688  11.683  67.288  1.00  0.00    -0.255 C  
BRANCH  19  20
HETATM   20  C   UNL     1     -11.762  10.978  68.635  1.00  0.00    -0.296 C  
BRANCH  20  21
HETATM   21  N   UNL     1     -10.579  11.264  69.443  1.00  0.00    -0.413 NA 
HETATM   22  H   UNL     1     -10.774  11.965  70.157  1.00  0.00     0.000 HD 
BRANCH  21  23
HETATM   23  C   UNL     1     -10.026  10.035  70.029  1.00  0.00    -0.222 C  
BRANCH  23  24
HETATM   24  C   UNL     1      -9.553   9.025  68.972  1.00  0.00    -0.160 C  
BRANCH  24  25
HETATM   25  C   UNL     1      -9.624   7.605  69.466  1.00  0.00    -0.163 A  
HETATM   26  C   UNL     1      -8.875   7.217  70.584  1.00  0.00    -0.148 A  
HETATM   27  C   UNL     1      -8.943   5.905  71.055  1.00  0.00    -0.148 A  
HETATM   28  C   UNL     1      -9.755   4.978  70.406  1.00  0.00    -0.280 A  
HETATM   29  C   UNL     1     -10.494   5.355  69.286  1.00  0.00    -0.309 A  
HETATM   30  C   UNL     1     -10.426   6.665  68.814  1.00  0.00    -0.241 A  
ENDBRANCH  24  25
ENDBRANCH  23  24
ENDBRANCH  21  23
ENDBRANCH  20  21
ENDBRANCH  19  20
ENDBRANCH  18  19
ENDBRANCH  17  18
ENDBRANCH  16  17
ENDBRANCH  15  16
ENDBRANCH  13  15
ENDBRANCH  12  13
ENDBRANCH  11  12
ENDBRANCH   8  11
TORSDOF 13
ENDMDL
MODEL      327
REMARK 921   NORMALIZED FREE ENERGY PREDICTED BY IDOCK:   -3.11 KCAL/MOL
REMARK 922        TOTAL FREE ENERGY PREDICTED BY IDOCK:   -8.23 KCAL/MOL
REMARK 923 INTER-LIGAND FREE ENERGY PREDICTED BY IDOCK:   -7.32 KCAL/MOL
REMARK 924 INTRA-LIGAND FREE ENERGY PREDICTED BY IDOCK:   -0.90 KCAL/MOL
REMARK 927      BINDING AFFINITY PREDICTED BY RF-SCORE:    0.00 PKD
ROOT
HETATM    1  O   UNL     1     -13.037   5.988  72.442  1.00  0.00    -0.403 OA 
HETATM    2  H   UNL     1     -13.697   5.691  71.827  1.00  0.00     0.000 HD 
HETATM    3  C   UNL     1     -11.953   6.740  72.077  1.00  0.00    -0.317 A  
HETATM    4  C   UNL     1     -10.986   7.176  72.978  1.00  0.00    -0.317 A  
HETATM    5  C   UNL     1      -9.926   7.972  72.539  1.00  0.00    -0.338 A  
HETATM    6  O   UNL     1     -11.017   6.862  74.306  1.00  0.00    -0.315 OA 
HETATM    7  H   UNL     1     -10.357   7.159  74.921  1.00  0.00     0.000 HD 
HETATM    8  C   UNL     1      -9.835   8.348  71.194  1.00  0.00    -0.242 A  
HETATM    9  C   UNL     1     -11.847   7.067  70.730  1.00  0.00    -0.401 A  
HETATM   10  C   UNL     1     -10.791   7.866  70.286  1.00  0.00    -0.241 A  
ENDROOT
BRANCH   8  11
HETATM   11  C   UNL     1      -8.722   9.248  70.718  1.00  0.00    -0.272 C  
BRANCH  11  12
HETATM   12  C   UNL     1      -7.455   8.454  70.393  1.00  0.00    -0.067 C  
BRANCH  12  13
HETATM   13  N   UNL     1      -7.053   8.670  68.998  1.00  0.00    -0.064 NA 
HETATM   14  H   UNL     1      -7.402   7.937  68.379  1.00  0.00     0.000 HD 
BRANCH  13  15
HETATM   15  C   UNL     1      -7.471  10.001  68.567  1.00  0.00    -0.086 C  
BRANCH  15  16
HETATM   16  C   UNL     1      -8.332   9.909  67.312  1.00  0.00    -0.121 C  
BRANCH  16  17
HETATM   17  C   UNL     1      -8.705  11.314  66.847  1.00  0.00    -0.157 C  
BRANCH  17  18
HETATM   18  C   UNL     1      -7.872  12.364  67.562  1.00  0.00    -0.169 C  
BRANCH  18  19
HETATM   19  C   UNL     1      -8.602  13.706  67.600  1.00  0.00    -0.185 C  
BRANCH  19  20
HETATM   20  C   UNL     1      -9.851  13.564  68.458  1.00  0.00    -0.189 C  
BRANCH  20  21
HETATM   21  N   UNL     1     -10.936  14.398  67.946  1.00  0.00    -0.257 NA 
HETATM   22  H   UNL     1     -11.831  13.909  67.977  1.00  0.00     0.000 HD 
BRANCH  21  23
HETATM   23  C   UNL     1     -10.998  15.684  68.656  1.00  0.00    -0.294 C  
BRANCH  23  24
HETATM   24  C   UNL     1     -12.407  16.022  69.168  1.00  0.00     0.267 C  
BRANCH  24  25
HETATM   25  C   UNL     1     -12.584  15.681  70.623  1.00  0.00    -0.461 A  
HETATM   26  C   UNL     1     -13.569  14.765  71.010  1.00  0.00    -0.364 A  
HETATM   27  C   UNL     1     -13.733  14.435  72.356  1.00  0.00    -0.590 A  
HETATM   28  C   UNL     1     -12.916  15.025  73.318  1.00  0.00    -0.642 A  
HETATM   29  C   UNL     1     -11.941  15.946  72.939  1.00  0.00    -0.609 A  
HETATM   30  C   UNL     1     -11.776  16.277  71.595  1.00  0.00    -0.490 A  
ENDBRANCH  24  25
ENDBRANCH  23  24
ENDBRANCH  21  23
ENDBRANCH  20  21
ENDBRANCH  19  20
ENDBRANCH  18  19
ENDBRANCH  17  18
ENDBRANCH  16  17
ENDBRANCH  15  16
ENDBRANCH  13  15
ENDBRANCH  12  13
ENDBRANCH  11  12
ENDBRANCH   8  11
TORSDOF 13
ENDMDL
MODEL      328
REMARK 921   NORMALIZED FREE ENERGY PREDICTED BY IDOCK:   -3.10 KCAL/MOL
REMARK 922        TOTAL FREE ENERGY PREDICTED BY IDOCK:   -8.21 KCAL/MOL
REMARK 923 INTER-LIGAND FREE ENERGY PREDICTED BY IDOCK:   -6.85 KCAL/MOL
REMARK 924 INTRA-LIGAND FREE ENERGY PREDICTED BY IDOCK:   -1.36 KCAL/MOL
REMARK 927      BINDING AFFINITY PREDICTED BY RF-SCORE:    0.00 PKD
ROOT
HETATM    1  O   UNL     1     -10.933  15.461  70.325  1.00  0.00    -0.275 OA 
HETATM    2  H   UNL     1     -10.624  16.359  70.323  1.00  0.00     0.000 HD 
HETATM    3  C   UNL     1     -11.333  14.801  69.195  1.00  0.00    -0.282 A  
HETATM    4  C   UNL     1     -11.786  13.485  69.197  1.00  0.00    -0.340 A  
HETATM    5  C   UNL     1     -12.142  12.864  67.998  1.00  0.00    -0.202 A  
HETATM    6  O   UNL     1     -11.904  12.745  70.339  1.00  0.00    -0.516 OA 
HETATM    7  H   UNL     1     -12.214  11.847  70.340  1.00  0.00     0.000 HD 
HETATM    8  C   UNL     1     -12.034  13.554  66.785  1.00  0.00    -0.453 A  
HETATM    9  C   UNL     1     -11.267  15.512  68.001  1.00  0.00    -0.332 A  
HETATM   10  C   UNL     1     -11.618  14.895  66.799  1.00  0.00    -0.275 A  
ENDROOT
BRANCH   8  11
HETATM   11  C   UNL     1     -12.370  12.877  65.479  1.00  0.00    -0.517 C  
BRANCH  11  12
HETATM   12  C   UNL     1     -11.342  13.204  64.394  1.00  0.00    -0.363 C  
BRANCH  12  13
HETATM   13  N   UNL     1     -11.405  12.217  63.309  1.00  0.00    -0.697 NA 
HETATM   14  H   UNL     1     -11.792  12.613  62.452  1.00  0.00     0.000 HD 
BRANCH  13  15
HETATM   15  C   UNL     1     -10.083  11.635  63.098  1.00  0.00    -0.376 C  
BRANCH  15  16
HETATM   16  C   UNL     1      -9.781  10.594  64.171  1.00  0.00    -0.378 C  
BRANCH  16  17
HETATM   17  C   UNL     1      -8.291  10.625  64.504  1.00  0.00    -0.043 C  
BRANCH  17  18
HETATM   18  C   UNL     1      -8.067  10.935  65.974  1.00  0.00    -0.142 C  
BRANCH  18  19
HETATM   19  C   UNL     1      -9.383  10.891  66.749  1.00  0.00    -0.185 C  
BRANCH  19  20
HETATM   20  C   UNL     1      -9.080  10.925  68.240  1.00  0.00    -0.158 C  
BRANCH  20  21
HETATM   21  N   UNL     1      -7.693  10.546  68.502  1.00  0.00    -0.098 NA 
HETATM   22  H   UNL     1      -7.191  11.282  68.999  1.00  0.00     0.000 HD 
BRANCH  21  23
HETATM   23  C   UNL     1      -7.619   9.263  69.216  1.00  0.00    -0.080 C  
BRANCH  23  24
HETATM   24  C   UNL     1      -7.800   9.408  70.735  1.00  0.00    -0.151 C  
BRANCH  24  25
HETATM   25  C   UNL     1      -8.383   8.170  71.362  1.00  0.00    -0.146 A  
HETATM   26  C   UNL     1      -8.243   7.954  72.738  1.00  0.00    -0.194 A  
HETATM   27  C   UNL     1      -8.790   6.814  73.330  1.00  0.00    -0.140 A  
HETATM   28  C   UNL     1      -9.472   5.887  72.546  1.00  0.00    -0.155 A  
HETATM   29  C   UNL     1      -9.604   6.091  71.173  1.00  0.00    -0.195 A  
HETATM   30  C   UNL     1      -9.058   7.229  70.581  1.00  0.00    -0.157 A  
ENDBRANCH  24  25
ENDBRANCH  23  24
ENDBRANCH  21  23
ENDBRANCH  20  21
ENDBRANCH  19  20
ENDBRANCH  18  19
ENDBRANCH  17  18
ENDBRANCH  16  17
ENDBRANCH  15  16
ENDBRANCH  13  15
ENDBRANCH  12  13
ENDBRANCH  11  12
ENDBRANCH   8  11
TORSDOF 13
ENDMDL
MODEL      329
REMARK 921   NORMALIZED FREE ENERGY PREDICTED BY IDOCK:   -3.09 KCAL/MOL
REMARK 922        TOTAL FREE ENERGY PREDICTED BY IDOCK:   -8.19 KCAL/MOL
REMARK 923 INTER-LIGAND FREE ENERGY PREDICTED BY IDOCK:   -6.96 KCAL/MOL
REMARK 924 INTRA-LIGAND FREE ENERGY PREDICTED BY IDOCK:   -1.23 KCAL/MOL
REMARK 927      BINDING AFFINITY PREDICTED BY RF-SCORE:    0.00 PKD
ROOT
HETATM    1  O   UNL     1      -7.235   6.504  74.221  1.00  0.00    -0.091 OA 
HETATM    2  H   UNL     1      -6.835   5.798  74.716  1.00  0.00     0.000 HD 
HETATM    3  C   UNL     1      -7.973   6.303  73.086  1.00  0.00    -0.106 A  
HETATM    4  C   UNL     1      -8.560   7.336  72.362  1.00  0.00    -0.115 A  
HETATM    5  C   UNL     1      -9.331   7.051  71.233  1.00  0.00    -0.160 A  
HETATM    6  O   UNL     1      -8.421   8.651  72.704  1.00  0.00    -0.378 OA 
HETATM    7  H   UNL     1      -8.821   9.356  72.209  1.00  0.00     0.000 HD 
HETATM    8  C   UNL     1      -9.531   5.726  70.830  1.00  0.00    -0.197 A  
HETATM    9  C   UNL     1      -8.125   4.985  72.667  1.00  0.00    -0.108 A  
HETATM   10  C   UNL     1      -8.898   4.695  71.541  1.00  0.00    -0.149 A  
ENDROOT
BRANCH   8  11
HETATM   11  C   UNL     1     -10.402   5.404  69.640  1.00  0.00    -0.361 C  
BRANCH  11  12
HETATM   12  C   UNL     1     -11.498   6.453  69.444  1.00  0.00    -0.305 C  
BRANCH  12  13
HETATM   13  N   UNL     1     -11.521   6.924  68.054  1.00  0.00    -0.410 NA 
HETATM   14  H   UNL     1     -11.853   7.886  67.980  1.00  0.00     0.000 HD 
BRANCH  13  15
HETATM   15  C   UNL     1     -10.201   6.749  67.455  1.00  0.00    -0.190 C  
BRANCH  15  16
HETATM   16  C   UNL     1      -9.761   8.027  66.749  1.00  0.00    -0.305 C  
BRANCH  16  17
HETATM   17  C   UNL     1      -8.293   7.908  66.350  1.00  0.00    -0.129 C  
BRANCH  17  18
HETATM   18  C   UNL     1      -8.127   8.012  64.843  1.00  0.00    -0.147 C  
BRANCH  18  19
HETATM   19  C   UNL     1      -8.002   9.471  64.407  1.00  0.00    -0.135 C  
BRANCH  19  20
HETATM   20  C   UNL     1      -8.396   9.584  62.941  1.00  0.00    -0.172 C  
BRANCH  20  21
HETATM   21  N   UNL     1      -9.823   9.866  62.802  1.00  0.00    -0.489 NA 
HETATM   22  H   UNL     1     -10.388   9.221  63.355  1.00  0.00     0.000 HD 
BRANCH  21  23
HETATM   23  C   UNL     1     -10.123  11.267  63.131  1.00  0.00    -0.345 C  
BRANCH  23  24
HETATM   24  C   UNL     1     -11.551  11.469  63.659  1.00  0.00    -0.323 C  
BRANCH  24  25
HETATM   25  C   UNL     1     -11.571  12.119  65.017  1.00  0.00    -0.365 A  
HETATM   26  C   UNL     1     -10.859  11.543  66.076  1.00  0.00    -0.330 A  
HETATM   27  C   UNL     1     -10.864  12.145  67.335  1.00  0.00    -0.286 A  
HETATM   28  C   UNL     1     -11.586  13.319  67.539  1.00  0.00    -0.388 A  
HETATM   29  C   UNL     1     -12.307  13.889  66.491  1.00  0.00    -0.447 A  
HETATM   30  C   UNL     1     -12.303  13.289  65.233  1.00  0.00    -0.525 A  
ENDBRANCH  24  25
ENDBRANCH  23  24
ENDBRANCH  21  23
ENDBRANCH  20  21
ENDBRANCH  19  20
ENDBRANCH  18  19
ENDBRANCH  17  18
ENDBRANCH  16  17
ENDBRANCH  15  16
ENDBRANCH  13  15
ENDBRANCH  12  13
ENDBRANCH  11  12
ENDBRANCH   8  11
TORSDOF 13
ENDMDL
MODEL      330
REMARK 921   NORMALIZED FREE ENERGY PREDICTED BY IDOCK:   -3.08 KCAL/MOL
REMARK 922        TOTAL FREE ENERGY PREDICTED BY IDOCK:   -8.18 KCAL/MOL
REMARK 923 INTER-LIGAND FREE ENERGY PREDICTED BY IDOCK:   -6.62 KCAL/MOL
REMARK 924 INTRA-LIGAND FREE ENERGY PREDICTED BY IDOCK:   -1.56 KCAL/MOL
REMARK 927      BINDING AFFINITY PREDICTED BY RF-SCORE:    0.00 PKD
ROOT
HETATM    1  O   UNL     1      -7.817  10.076  68.268  1.00  0.00    -0.088 OA 
HETATM    2  H   UNL     1      -7.118  10.614  68.621  1.00  0.00     0.000 HD 
HETATM    3  C   UNL     1      -8.013   8.769  68.623  1.00  0.00    -0.107 A  
HETATM    4  C   UNL     1      -9.037   7.980  68.107  1.00  0.00    -0.134 A  
HETATM    5  C   UNL     1      -9.198   6.664  68.546  1.00  0.00    -0.127 A  
HETATM    6  O   UNL     1      -9.920   8.435  67.170  1.00  0.00    -0.190 OA 
HETATM    7  H   UNL     1     -10.619   7.897  66.818  1.00  0.00     0.000 HD 
HETATM    8  C   UNL     1      -8.340   6.133  69.515  1.00  0.00    -0.120 A  
HETATM    9  C   UNL     1      -7.125   8.236  69.552  1.00  0.00    -0.053 A  
HETATM   10  C   UNL     1      -7.284   6.922  69.996  1.00  0.00    -0.080 A  
ENDROOT
BRANCH   8  11
HETATM   11  C   UNL     1      -8.534   4.728  70.031  1.00  0.00    -0.087 C  
BRANCH  11  12
HETATM   12  C   UNL     1      -8.606   4.693  71.559  1.00  0.00    -0.116 C  
BRANCH  12  13
HETATM   13  N   UNL     1      -9.811   5.383  72.035  1.00  0.00    -0.164 NA 
HETATM   14  H   UNL     1     -10.463   4.745  72.493  1.00  0.00     0.000 HD 
BRANCH  13  15
HETATM   15  C   UNL     1      -9.430   6.496  72.901  1.00  0.00    -0.141 C  
BRANCH  15  16
HETATM   16  C   UNL     1     -10.475   7.604  72.837  1.00  0.00    -0.394 C  
BRANCH  16  17
HETATM   17  C   UNL     1     -11.586   7.200  71.870  1.00  0.00    -0.314 C  
BRANCH  17  18
HETATM   18  C   UNL     1     -11.635   8.135  70.674  1.00  0.00    -0.199 C  
BRANCH  18  19
HETATM   19  C   UNL     1     -11.196   9.545  71.065  1.00  0.00    -0.432 C  
BRANCH  19  20
HETATM   20  C   UNL     1     -12.322  10.519  70.746  1.00  0.00    -0.378 C  
BRANCH  20  21
HETATM   21  N   UNL     1     -12.648  10.496  69.322  1.00  0.00    -0.659 NA 
HETATM   22  H   UNL     1     -13.656  10.500  69.168  1.00  0.00     0.000 HD 
BRANCH  21  23
HETATM   23  C   UNL     1     -11.987  11.598  68.608  1.00  0.00    -0.248 C  
BRANCH  23  24
HETATM   24  C   UNL     1     -11.371  11.164  67.269  1.00  0.00    -0.302 C  
BRANCH  24  25
HETATM   25  C   UNL     1     -11.490  12.230  66.213  1.00  0.00    -0.435 A  
HETATM   26  C   UNL     1     -11.732  11.869  64.882  1.00  0.00    -0.262 A  
HETATM   27  C   UNL     1     -11.855  12.851  63.899  1.00  0.00    -0.541 A  
HETATM   28  C   UNL     1     -11.729  14.195  64.242  1.00  0.00    -0.365 A  
HETATM   29  C   UNL     1     -11.477  14.559  65.564  1.00  0.00    -0.343 A  
HETATM   30  C   UNL     1     -11.354  13.579  66.548  1.00  0.00    -0.340 A  
ENDBRANCH  24  25
ENDBRANCH  23  24
ENDBRANCH  21  23
ENDBRANCH  20  21
ENDBRANCH  19  20
ENDBRANCH  18  19
ENDBRANCH  17  18
ENDBRANCH  16  17
ENDBRANCH  15  16
ENDBRANCH  13  15
ENDBRANCH  12  13
ENDBRANCH  11  12
ENDBRANCH   8  11
TORSDOF 13
ENDMDL
MODEL      331
REMARK 921   NORMALIZED FREE ENERGY PREDICTED BY IDOCK:   -3.08 KCAL/MOL
REMARK 922        TOTAL FREE ENERGY PREDICTED BY IDOCK:   -8.17 KCAL/MOL
REMARK 923 INTER-LIGAND FREE ENERGY PREDICTED BY IDOCK:   -5.10 KCAL/MOL
REMARK 924 INTRA-LIGAND FREE ENERGY PREDICTED BY IDOCK:   -3.07 KCAL/MOL
REMARK 927      BINDING AFFINITY PREDICTED BY RF-SCORE:    0.00 PKD
ROOT
HETATM    1  O   UNL     1     -11.186   5.467  66.363  1.00  0.00    -0.686 OA 
HETATM    2  H   UNL     1     -11.683   5.994  65.747  1.00  0.00     0.000 HD 
HETATM    3  C   UNL     1      -9.884   5.727  66.697  1.00  0.00    -0.165 A  
HETATM    4  C   UNL     1      -9.156   4.957  67.599  1.00  0.00    -0.115 A  
HETATM    5  C   UNL     1      -7.843   5.306  67.920  1.00  0.00    -0.092 A  
HETATM    6  O   UNL     1      -9.670   3.847  68.206  1.00  0.00    -0.140 OA 
HETATM    7  H   UNL     1      -9.174   3.320  68.821  1.00  0.00     0.000 HD 
HETATM    8  C   UNL     1      -7.253   6.439  67.348  1.00  0.00    -0.082 A  
HETATM    9  C   UNL     1      -9.293   6.828  66.087  1.00  0.00    -0.095 A  
HETATM   10  C   UNL     1      -7.981   7.184  66.407  1.00  0.00    -0.112 A  
ENDROOT
BRANCH   8  11
HETATM   11  C   UNL     1      -5.852   6.853  67.725  1.00  0.00    -0.021 C  
BRANCH  11  12
HETATM   12  C   UNL     1      -5.810   8.290  68.247  1.00  0.00    -0.038 C  
BRANCH  12  13
HETATM   13  N   UNL     1      -6.539   8.401  69.515  1.00  0.00    -0.040 NA 
HETATM   14  H   UNL     1      -5.976   8.098  70.311  1.00  0.00     0.000 HD 
BRANCH  13  15
HETATM   15  C   UNL     1      -7.035   9.765  69.679  1.00  0.00    -0.078 C  
BRANCH  15  16
HETATM   16  C   UNL     1      -8.469   9.752  70.199  1.00  0.00    -0.204 C  
BRANCH  16  17
HETATM   17  C   UNL     1      -9.216   8.563  69.602  1.00  0.00    -0.157 C  
BRANCH  17  18
HETATM   18  C   UNL     1     -10.693   8.615  69.951  1.00  0.00    -0.227 C  
BRANCH  18  19
HETATM   19  C   UNL     1     -10.988   9.771  70.905  1.00  0.00    -0.411 C  
BRANCH  19  20
HETATM   20  C   UNL     1     -12.389  10.298  70.624  1.00  0.00    -0.325 C  
BRANCH  20  21
HETATM   21  N   UNL     1     -12.451  11.746  70.807  1.00  0.00    -0.348 NA 
HETATM   22  H   UNL     1     -12.330  12.006  71.786  1.00  0.00     0.000 HD 
BRANCH  21  23
HETATM   23  C   UNL     1     -11.483  12.433  69.941  1.00  0.00    -0.097 C  
BRANCH  23  24
HETATM   24  C   UNL     1     -11.815  12.303  68.446  1.00  0.00    -0.358 C  
BRANCH  24  25
HETATM   25  C   UNL     1     -10.660  11.758  67.649  1.00  0.00    -0.237 A  
HETATM   26  C   UNL     1     -10.877  10.734  66.719  1.00  0.00    -0.256 A  
HETATM   27  C   UNL     1      -9.814  10.230  65.968  1.00  0.00    -0.292 A  
HETATM   28  C   UNL     1      -8.532  10.744  66.151  1.00  0.00    -0.167 A  
HETATM   29  C   UNL     1      -8.309  11.755  67.084  1.00  0.00    -0.168 A  
HETATM   30  C   UNL     1      -9.369  12.260  67.834  1.00  0.00    -0.190 A  
ENDBRANCH  24  25
ENDBRANCH  23  24
ENDBRANCH  21  23
ENDBRANCH  20  21
ENDBRANCH  19  20
ENDBRANCH  18  19
ENDBRANCH  17  18
ENDBRANCH  16  17
ENDBRANCH  15  16
ENDBRANCH  13  15
ENDBRANCH  12  13
ENDBRANCH  11  12
ENDBRANCH   8  11
TORSDOF 13
ENDMDL
MODEL      332
REMARK 921   NORMALIZED FREE ENERGY PREDICTED BY IDOCK:   -3.07 KCAL/MOL
REMARK 922        TOTAL FREE ENERGY PREDICTED BY IDOCK:   -8.16 KCAL/MOL
REMARK 923 INTER-LIGAND FREE ENERGY PREDICTED BY IDOCK:   -6.84 KCAL/MOL
REMARK 924 INTRA-LIGAND FREE ENERGY PREDICTED BY IDOCK:   -1.33 KCAL/MOL
REMARK 927      BINDING AFFINITY PREDICTED BY RF-SCORE:    0.00 PKD
ROOT
HETATM    1  O   UNL     1     -12.072  15.727  70.382  1.00  0.00    -0.378 OA 
HETATM    2  H   UNL     1     -11.484  15.895  69.655  1.00  0.00     0.000 HD 
HETATM    3  C   UNL     1     -12.427  14.470  70.788  1.00  0.00    -0.351 A  
HETATM    4  C   UNL     1     -13.289  14.223  71.853  1.00  0.00    -0.388 A  
HETATM    5  C   UNL     1     -13.576  12.911  72.234  1.00  0.00    -0.611 A  
HETATM    6  O   UNL     1     -13.886  15.222  72.567  1.00  0.00    -0.476 OA 
HETATM    7  H   UNL     1     -14.474  15.054  73.294  1.00  0.00     0.000 HD 
HETATM    8  C   UNL     1     -12.990  11.834  71.558  1.00  0.00    -0.446 A  
HETATM    9  C   UNL     1     -11.876  13.407  70.079  1.00  0.00    -0.364 A  
HETATM   10  C   UNL     1     -12.157  12.093  70.458  1.00  0.00    -0.383 A  
ENDROOT
BRANCH   8  11
HETATM   11  C   UNL     1     -13.255  10.414  71.992  1.00  0.00    -0.497 C  
BRANCH  11  12
HETATM   12  C   UNL     1     -11.998   9.548  71.886  1.00  0.00    -0.311 C  
BRANCH  12  13
HETATM   13  N   UNL     1     -12.191   8.477  70.901  1.00  0.00    -0.478 NA 
HETATM   14  H   UNL     1     -12.961   8.676  70.262  1.00  0.00     0.000 HD 
BRANCH  13  15
HETATM   15  C   UNL     1     -10.938   8.229  70.194  1.00  0.00    -0.222 C  
BRANCH  15  16
HETATM   16  C   UNL     1      -9.915   9.310  70.527  1.00  0.00    -0.307 C  
BRANCH  16  17
HETATM   17  C   UNL     1      -9.309   9.853  69.235  1.00  0.00    -0.215 C  
BRANCH  17  18
HETATM   18  C   UNL     1     -10.391  10.165  68.215  1.00  0.00    -0.215 C  
BRANCH  18  19
HETATM   19  C   UNL     1      -9.931   9.803  66.803  1.00  0.00    -0.278 C  
BRANCH  19  20
HETATM   20  C   UNL     1      -8.417   9.647  66.802  1.00  0.00    -0.127 C  
BRANCH  20  21
HETATM   21  N   UNL     1      -7.801  10.513  65.799  1.00  0.00    -0.153 NA 
HETATM   22  H   UNL     1      -7.418  11.359  66.219  1.00  0.00     0.000 HD 
BRANCH  21  23
HETATM   23  C   UNL     1      -6.787   9.787  65.022  1.00  0.00    -0.115 C  
BRANCH  23  24
HETATM   24  C   UNL     1      -7.317   9.266  63.677  1.00  0.00    -0.101 C  
BRANCH  24  25
HETATM   25  C   UNL     1      -7.267   7.765  63.585  1.00  0.00    -0.082 A  
HETATM   26  C   UNL     1      -7.979   7.103  62.578  1.00  0.00    -0.125 A  
HETATM   27  C   UNL     1      -7.929   5.712  62.479  1.00  0.00    -0.092 A  
HETATM   28  C   UNL     1      -7.173   4.980  63.390  1.00  0.00    -0.048 A  
HETATM   29  C   UNL     1      -6.471   5.632  64.403  1.00  0.00    -0.037 A  
HETATM   30  C   UNL     1      -6.520   7.022  64.503  1.00  0.00    -0.036 A  
ENDBRANCH  24  25
ENDBRANCH  23  24
ENDBRANCH  21  23
ENDBRANCH  20  21
ENDBRANCH  19  20
ENDBRANCH  18  19
ENDBRANCH  17  18
ENDBRANCH  16  17
ENDBRANCH  15  16
ENDBRANCH  13  15
ENDBRANCH  12  13
ENDBRANCH  11  12
ENDBRANCH   8  11
TORSDOF 13
ENDMDL
MODEL      333
REMARK 921   NORMALIZED FREE ENERGY PREDICTED BY IDOCK:   -3.06 KCAL/MOL
REMARK 922        TOTAL FREE ENERGY PREDICTED BY IDOCK:   -8.14 KCAL/MOL
REMARK 923 INTER-LIGAND FREE ENERGY PREDICTED BY IDOCK:   -7.30 KCAL/MOL
REMARK 924 INTRA-LIGAND FREE ENERGY PREDICTED BY IDOCK:   -0.84 KCAL/MOL
REMARK 927      BINDING AFFINITY PREDICTED BY RF-SCORE:    0.00 PKD
ROOT
HETATM    1  O   UNL     1     -13.392  15.883  73.938  1.00  0.00    -0.804 OA 
HETATM    2  H   UNL     1     -13.079  16.662  74.382  1.00  0.00     0.000 HD 
HETATM    3  C   UNL     1     -12.997  15.525  72.677  1.00  0.00    -0.445 A  
HETATM    4  C   UNL     1     -13.454  14.383  72.026  1.00  0.00    -0.402 A  
HETATM    5  C   UNL     1     -12.977  14.062  70.753  1.00  0.00    -0.298 A  
HETATM    6  O   UNL     1     -14.369  13.533  72.579  1.00  0.00    -0.713 OA 
HETATM    7  H   UNL     1     -14.682  12.754  72.135  1.00  0.00     0.000 HD 
HETATM    8  C   UNL     1     -12.027  14.877  70.129  1.00  0.00    -0.368 A  
HETATM    9  C   UNL     1     -12.088  16.368  72.046  1.00  0.00    -0.362 A  
HETATM   10  C   UNL     1     -11.606  16.050  70.775  1.00  0.00    -0.431 A  
ENDROOT
BRANCH   8  11
HETATM   11  C   UNL     1     -11.469  14.514  68.775  1.00  0.00    -0.322 C  
BRANCH  11  12
HETATM   12  C   UNL     1     -11.118  13.027  68.690  1.00  0.00    -0.269 C  
BRANCH  12  13
HETATM   13  N   UNL     1      -9.665  12.835  68.755  1.00  0.00    -0.416 NA 
HETATM   14  H   UNL     1      -9.299  12.983  69.696  1.00  0.00     0.000 HD 
BRANCH  13  15
HETATM   15  C   UNL     1      -9.321  11.515  68.232  1.00  0.00    -0.190 C  
BRANCH  15  16
HETATM   16  C   UNL     1      -7.917  11.116  68.673  1.00  0.00    -0.145 C  
BRANCH  16  17
HETATM   17  C   UNL     1      -7.079  10.766  67.446  1.00  0.00    -0.091 C  
BRANCH  17  18
HETATM   18  C   UNL     1      -7.932  10.746  66.190  1.00  0.00    -0.157 C  
BRANCH  18  19
HETATM   19  C   UNL     1      -7.581   9.547  65.311  1.00  0.00    -0.111 C  
BRANCH  19  20
HETATM   20  C   UNL     1      -8.736   9.279  64.356  1.00  0.00    -0.181 C  
BRANCH  20  21
HETATM   21  N   UNL     1      -8.461   8.120  63.511  1.00  0.00    -0.402 NA 
HETATM   22  H   UNL     1      -8.051   8.395  62.619  1.00  0.00     0.000 HD 
BRANCH  21  23
HETATM   23  C   UNL     1      -7.621   7.139  64.213  1.00  0.00    -0.112 C  
BRANCH  23  24
HETATM   24  C   UNL     1      -8.264   5.746  64.296  1.00  0.00    -0.106 C  
BRANCH  24  25
HETATM   25  C   UNL     1      -8.795   5.442  65.671  1.00  0.00    -0.153 A  
HETATM   26  C   UNL     1      -9.022   6.485  66.577  1.00  0.00    -0.152 A  
HETATM   27  C   UNL     1      -9.524   6.214  67.851  1.00  0.00    -0.115 A  
HETATM   28  C   UNL     1      -9.793   4.899  68.223  1.00  0.00    -0.198 A  
HETATM   29  C   UNL     1      -9.558   3.855  67.329  1.00  0.00    -0.222 A  
HETATM   30  C   UNL     1      -9.056   4.125  66.057  1.00  0.00    -0.136 A  
ENDBRANCH  24  25
ENDBRANCH  23  24
ENDBRANCH  21  23
ENDBRANCH  20  21
ENDBRANCH  19  20
ENDBRANCH  18  19
ENDBRANCH  17  18
ENDBRANCH  16  17
ENDBRANCH  15  16
ENDBRANCH  13  15
ENDBRANCH  12  13
ENDBRANCH  11  12
ENDBRANCH   8  11
TORSDOF 13
ENDMDL
MODEL      334
REMARK 921   NORMALIZED FREE ENERGY PREDICTED BY IDOCK:   -3.06 KCAL/MOL
REMARK 922        TOTAL FREE ENERGY PREDICTED BY IDOCK:   -8.14 KCAL/MOL
REMARK 923 INTER-LIGAND FREE ENERGY PREDICTED BY IDOCK:   -7.21 KCAL/MOL
REMARK 924 INTRA-LIGAND FREE ENERGY PREDICTED BY IDOCK:   -0.93 KCAL/MOL
REMARK 927      BINDING AFFINITY PREDICTED BY RF-SCORE:    0.00 PKD
ROOT
HETATM    1  O   UNL     1     -13.237   6.505  72.324  1.00  0.00    -0.539 OA 
HETATM    2  H   UNL     1     -13.961   6.178  71.804  1.00  0.00     0.000 HD 
HETATM    3  C   UNL     1     -12.036   6.883  71.788  1.00  0.00    -0.333 A  
HETATM    4  C   UNL     1     -10.974   7.363  72.549  1.00  0.00    -0.296 A  
HETATM    5  C   UNL     1      -9.790   7.767  71.927  1.00  0.00    -0.217 A  
HETATM    6  O   UNL     1     -11.027   7.466  73.910  1.00  0.00    -0.536 OA 
HETATM    7  H   UNL     1     -10.302   7.793  74.430  1.00  0.00     0.000 HD 
HETATM    8  C   UNL     1      -9.668   7.705  70.534  1.00  0.00    -0.182 A  
HETATM    9  C   UNL     1     -11.907   6.772  70.407  1.00  0.00    -0.395 A  
HETATM   10  C   UNL     1     -10.728   7.178  69.780  1.00  0.00    -0.257 A  
ENDROOT
BRANCH   8  11
HETATM   11  C   UNL     1      -8.412   8.183  69.849  1.00  0.00    -0.125 C  
BRANCH  11  12
HETATM   12  C   UNL     1      -7.558   7.013  69.356  1.00  0.00    -0.099 C  
BRANCH  12  13
HETATM   13  N   UNL     1      -7.775   6.782  67.923  1.00  0.00    -0.110 NA 
HETATM   14  H   UNL     1      -8.499   6.084  67.752  1.00  0.00     0.000 HD 
BRANCH  13  15
HETATM   15  C   UNL     1      -8.066   8.051  67.260  1.00  0.00    -0.121 C  
BRANCH  15  16
HETATM   16  C   UNL     1      -9.279   7.909  66.347  1.00  0.00    -0.241 C  
BRANCH  16  17
HETATM   17  C   UNL     1      -9.670   9.282  65.804  1.00  0.00    -0.339 C  
BRANCH  17  18
HETATM   18  C   UNL     1      -8.714  10.356  66.296  1.00  0.00    -0.163 C  
BRANCH  18  19
HETATM   19  C   UNL     1      -9.349  11.741  66.191  1.00  0.00    -0.236 C  
BRANCH  19  20
HETATM   20  C   UNL     1      -9.828  12.171  67.571  1.00  0.00    -0.191 C  
BRANCH  20  21
HETATM   21  N   UNL     1     -10.948  13.104  67.471  1.00  0.00    -0.257 NA 
HETATM   22  H   UNL     1     -11.469  13.160  68.345  1.00  0.00     0.000 HD 
BRANCH  21  23
HETATM   23  C   UNL     1     -10.496  14.429  67.024  1.00  0.00    -0.268 C  
BRANCH  23  24
HETATM   24  C   UNL     1     -11.157  15.582  67.795  1.00  0.00    -0.315 C  
BRANCH  24  25
HETATM   25  C   UNL     1     -10.344  16.848  67.738  1.00  0.00    -0.327 A  
HETATM   26  C   UNL     1     -10.409  17.766  68.793  1.00  0.00    -0.332 A  
HETATM   27  C   UNL     1      -9.650  18.937  68.754  1.00  0.00    -0.433 A  
HETATM   28  C   UNL     1      -8.831  19.195  67.657  1.00  0.00    -0.332 A  
HETATM   29  C   UNL     1      -8.772  18.290  66.598  1.00  0.00    -0.289 A  
HETATM   30  C   UNL     1      -9.529  17.120  66.637  1.00  0.00    -0.279 A  
ENDBRANCH  24  25
ENDBRANCH  23  24
ENDBRANCH  21  23
ENDBRANCH  20  21
ENDBRANCH  19  20
ENDBRANCH  18  19
ENDBRANCH  17  18
ENDBRANCH  16  17
ENDBRANCH  15  16
ENDBRANCH  13  15
ENDBRANCH  12  13
ENDBRANCH  11  12
ENDBRANCH   8  11
TORSDOF 13
ENDMDL
MODEL      335
REMARK 921   NORMALIZED FREE ENERGY PREDICTED BY IDOCK:   -3.05 KCAL/MOL
REMARK 922        TOTAL FREE ENERGY PREDICTED BY IDOCK:   -8.12 KCAL/MOL
REMARK 923 INTER-LIGAND FREE ENERGY PREDICTED BY IDOCK:   -6.77 KCAL/MOL
REMARK 924 INTRA-LIGAND FREE ENERGY PREDICTED BY IDOCK:   -1.35 KCAL/MOL
REMARK 927      BINDING AFFINITY PREDICTED BY RF-SCORE:    0.00 PKD
ROOT
HETATM    1  O   UNL     1     -14.339  15.682  72.018  1.00  0.00    -0.494 OA 
HETATM    2  H   UNL     1     -14.948  15.592  72.742  1.00  0.00     0.000 HD 
HETATM    3  C   UNL     1     -13.573  14.651  71.545  1.00  0.00    -0.405 A  
HETATM    4  C   UNL     1     -12.682  14.783  70.484  1.00  0.00    -0.343 A  
HETATM    5  C   UNL     1     -11.961  13.676  70.032  1.00  0.00    -0.413 A  
HETATM    6  O   UNL     1     -12.468  15.968  69.841  1.00  0.00    -0.413 OA 
HETATM    7  H   UNL     1     -11.860  16.059  69.118  1.00  0.00     0.000 HD 
HETATM    8  C   UNL     1     -12.138  12.424  70.632  1.00  0.00    -0.317 A  
HETATM    9  C   UNL     1     -13.722  13.422  72.180  1.00  0.00    -0.646 A  
HETATM   10  C   UNL     1     -13.006  12.312  71.730  1.00  0.00    -0.431 A  
ENDROOT
BRANCH   8  11
HETATM   11  C   UNL     1     -11.400  11.211  70.120  1.00  0.00    -0.295 C  
BRANCH  11  12
HETATM   12  C   UNL     1     -12.049  10.650  68.854  1.00  0.00     0.056 C  
BRANCH  12  13
HETATM   13  N   UNL     1     -11.363   9.427  68.420  1.00  0.00    -0.385 NA 
HETATM   14  H   UNL     1     -11.985   8.618  68.418  1.00  0.00     0.000 HD 
BRANCH  13  15
HETATM   15  C   UNL     1     -10.743   9.648  67.116  1.00  0.00    -0.188 C  
BRANCH  15  16
HETATM   16  C   UNL     1      -9.300   9.156  67.122  1.00  0.00    -0.178 C  
BRANCH  16  17
HETATM   17  C   UNL     1      -9.264   7.682  66.724  1.00  0.00    -0.197 C  
BRANCH  17  18
HETATM   18  C   UNL     1      -9.311   6.785  67.949  1.00  0.00    -0.113 C  
BRANCH  18  19
HETATM   19  C   UNL     1      -7.968   6.091  68.170  1.00  0.00    -0.110 C  
BRANCH  19  20
HETATM   20  C   UNL     1      -6.888   7.150  68.340  1.00  0.00    -0.073 C  
BRANCH  20  21
HETATM   21  N   UNL     1      -6.340   7.127  69.695  1.00  0.00    -0.034 NA 
HETATM   22  H   UNL     1      -5.469   6.598  69.738  1.00  0.00     0.000 HD 
BRANCH  21  23
HETATM   23  C   UNL     1      -6.173   8.488  70.223  1.00  0.00    -0.034 C  
BRANCH  23  24
HETATM   24  C   UNL     1      -7.506   9.227  70.415  1.00  0.00    -0.124 C  
BRANCH  24  25
HETATM   25  C   UNL     1      -8.336   8.632  71.521  1.00  0.00    -0.220 A  
HETATM   26  C   UNL     1      -7.718   8.199  72.700  1.00  0.00    -0.177 A  
HETATM   27  C   UNL     1      -8.481   7.656  73.735  1.00  0.00    -0.260 A  
HETATM   28  C   UNL     1      -9.861   7.539  73.590  1.00  0.00    -0.348 A  
HETATM   29  C   UNL     1     -10.480   7.958  72.413  1.00  0.00    -0.339 A  
HETATM   30  C   UNL     1      -9.719   8.500  71.379  1.00  0.00    -0.287 A  
ENDBRANCH  24  25
ENDBRANCH  23  24
ENDBRANCH  21  23
ENDBRANCH  20  21
ENDBRANCH  19  20
ENDBRANCH  18  19
ENDBRANCH  17  18
ENDBRANCH  16  17
ENDBRANCH  15  16
ENDBRANCH  13  15
ENDBRANCH  12  13
ENDBRANCH  11  12
ENDBRANCH   8  11
TORSDOF 13
ENDMDL
MODEL      336
REMARK 921   NORMALIZED FREE ENERGY PREDICTED BY IDOCK:   -3.04 KCAL/MOL
REMARK 922        TOTAL FREE ENERGY PREDICTED BY IDOCK:   -8.11 KCAL/MOL
REMARK 923 INTER-LIGAND FREE ENERGY PREDICTED BY IDOCK:   -6.39 KCAL/MOL
REMARK 924 INTRA-LIGAND FREE ENERGY PREDICTED BY IDOCK:   -1.72 KCAL/MOL
REMARK 927      BINDING AFFINITY PREDICTED BY RF-SCORE:    0.00 PKD
ROOT
HETATM    1  O   UNL     1     -12.698  16.299  72.625  1.00  0.00    -0.413 OA 
HETATM    2  H   UNL     1     -13.128  16.485  73.451  1.00  0.00     0.000 HD 
HETATM    3  C   UNL     1     -12.703  15.064  72.034  1.00  0.00    -0.333 A  
HETATM    4  C   UNL     1     -12.073  14.792  70.823  1.00  0.00    -0.309 A  
HETATM    5  C   UNL     1     -12.153  13.515  70.262  1.00  0.00    -0.425 A  
HETATM    6  O   UNL     1     -11.362  15.731  70.132  1.00  0.00    -0.294 OA 
HETATM    7  H   UNL     1     -10.932  15.545  69.306  1.00  0.00     0.000 HD 
HETATM    8  C   UNL     1     -12.877  12.505  70.906  1.00  0.00    -0.177 A  
HETATM    9  C   UNL     1     -13.385  14.055  72.706  1.00  0.00    -0.603 A  
HETATM   10  C   UNL     1     -13.470  12.778  72.148  1.00  0.00    -0.591 A  
ENDROOT
BRANCH   8  11
HETATM   11  C   UNL     1     -13.010  11.137  70.285  1.00  0.00    -0.008 C  
BRANCH  11  12
HETATM   12  C   UNL     1     -13.191  10.051  71.347  1.00  0.00    -0.395 C  
BRANCH  12  13
HETATM   13  N   UNL     1     -12.519   8.811  70.939  1.00  0.00    -0.492 NA 
HETATM   14  H   UNL     1     -12.786   8.521  69.998  1.00  0.00     0.000 HD 
BRANCH  13  15
HETATM   15  C   UNL     1     -11.074   8.968  71.077  1.00  0.00    -0.289 C  
BRANCH  15  16
HETATM   16  C   UNL     1     -10.399   7.606  71.197  1.00  0.00    -0.212 C  
BRANCH  16  17
HETATM   17  C   UNL     1     -10.975   6.659  70.147  1.00  0.00    -0.358 C  
BRANCH  17  18
HETATM   18  C   UNL     1      -9.896   5.754  69.578  1.00  0.00    -0.231 C  
BRANCH  18  19
HETATM   19  C   UNL     1     -10.454   4.880  68.455  1.00  0.00     0.062 C  
BRANCH  19  20
HETATM   20  C   UNL     1     -10.603   5.726  67.198  1.00  0.00    -0.291 C  
BRANCH  20  21
HETATM   21  N   UNL     1      -9.298   6.124  66.676  1.00  0.00    -0.143 NA 
HETATM   22  H   UNL     1      -8.862   5.371  66.144  1.00  0.00     0.000 HD 
BRANCH  21  23
HETATM   23  C   UNL     1      -9.396   7.359  65.886  1.00  0.00     0.101 C  
BRANCH  23  24
HETATM   24  C   UNL     1     -10.139   8.486  66.620  1.00  0.00    -0.364 C  
BRANCH  24  25
HETATM   25  C   UNL     1      -9.287   9.140  67.674  1.00  0.00    -0.154 A  
HETATM   26  C   UNL     1      -8.068   8.560  68.044  1.00  0.00    -0.115 A  
HETATM   27  C   UNL     1      -7.266   9.166  69.013  1.00  0.00    -0.072 A  
HETATM   28  C   UNL     1      -7.686  10.348  69.618  1.00  0.00    -0.152 A  
HETATM   29  C   UNL     1      -8.905  10.923  69.263  1.00  0.00     0.020 A  
HETATM   30  C   UNL     1      -9.706  10.319  68.295  1.00  0.00    -0.154 A  
ENDBRANCH  24  25
ENDBRANCH  23  24
ENDBRANCH  21  23
ENDBRANCH  20  21
ENDBRANCH  19  20
ENDBRANCH  18  19
ENDBRANCH  17  18
ENDBRANCH  16  17
ENDBRANCH  15  16
ENDBRANCH  13  15
ENDBRANCH  12  13
ENDBRANCH  11  12
ENDBRANCH   8  11
TORSDOF 13
ENDMDL
MODEL      337
REMARK 921   NORMALIZED FREE ENERGY PREDICTED BY IDOCK:   -3.04 KCAL/MOL
REMARK 922        TOTAL FREE ENERGY PREDICTED BY IDOCK:   -8.10 KCAL/MOL
REMARK 923 INTER-LIGAND FREE ENERGY PREDICTED BY IDOCK:   -7.83 KCAL/MOL
REMARK 924 INTRA-LIGAND FREE ENERGY PREDICTED BY IDOCK:   -0.27 KCAL/MOL
REMARK 927      BINDING AFFINITY PREDICTED BY RF-SCORE:    0.00 PKD
ROOT
HETATM    1  O   UNL     1     -13.205  15.430  74.097  1.00  0.00    -0.570 OA 
HETATM    2  H   UNL     1     -12.838  16.141  74.609  1.00  0.00     0.000 HD 
HETATM    3  C   UNL     1     -12.881  15.200  72.787  1.00  0.00    -0.411 A  
HETATM    4  C   UNL     1     -13.417  14.158  72.037  1.00  0.00    -0.431 A  
HETATM    5  C   UNL     1     -13.010  13.963  70.715  1.00  0.00    -0.265 A  
HETATM    6  O   UNL     1     -14.345  13.289  72.535  1.00  0.00    -0.662 OA 
HETATM    7  H   UNL     1     -14.712  12.578  72.023  1.00  0.00     0.000 HD 
HETATM    8  C   UNL     1     -12.050  14.804  70.140  1.00  0.00    -0.382 A  
HETATM    9  C   UNL     1     -11.962  16.072  72.211  1.00  0.00    -0.633 A  
HETATM   10  C   UNL     1     -11.549  15.879  70.891  1.00  0.00    -0.456 A  
ENDROOT
BRANCH   8  11
HETATM   11  C   UNL     1     -11.568  14.573  68.730  1.00  0.00    -0.343 C  
BRANCH  11  12
HETATM   12  C   UNL     1     -11.353  13.086  68.444  1.00  0.00    -0.291 C  
BRANCH  12  13
HETATM   13  N   UNL     1     -10.159  12.886  67.614  1.00  0.00    -0.217 NA 
HETATM   14  H   UNL     1      -9.318  13.261  68.053  1.00  0.00     0.000 HD 
BRANCH  13  15
HETATM   15  C   UNL     1     -10.023  11.470  67.283  1.00  0.00    -0.191 C  
BRANCH  15  16
HETATM   16  C   UNL     1      -8.753  11.231  66.474  1.00  0.00    -0.178 C  
BRANCH  16  17
HETATM   17  C   UNL     1      -8.921   9.975  65.623  1.00  0.00    -0.203 C  
BRANCH  17  18
HETATM   18  C   UNL     1      -9.970   9.050  66.215  1.00  0.00    -0.352 C  
BRANCH  18  19
HETATM   19  C   UNL     1      -9.336   8.064  67.195  1.00  0.00    -0.186 C  
BRANCH  19  20
HETATM   20  C   UNL     1     -10.407   7.568  68.158  1.00  0.00    -0.200 C  
BRANCH  20  21
HETATM   21  N   UNL     1     -10.111   6.214  68.620  1.00  0.00    -0.150 NA 
HETATM   22  H   UNL     1     -10.398   5.513  67.937  1.00  0.00     0.000 HD 
BRANCH  21  23
HETATM   23  C   UNL     1      -8.691   6.073  68.975  1.00  0.00    -0.122 C  
BRANCH  23  24
HETATM   24  C   UNL     1      -8.247   7.046  70.078  1.00  0.00    -0.133 C  
BRANCH  24  25
HETATM   25  C   UNL     1      -9.202   7.066  71.241  1.00  0.00    -0.152 A  
HETATM   26  C   UNL     1      -9.879   8.247  71.567  1.00  0.00    -0.250 A  
HETATM   27  C   UNL     1     -10.774   8.272  72.638  1.00  0.00    -0.384 A  
HETATM   28  C   UNL     1     -10.988   7.118  73.388  1.00  0.00    -0.277 A  
HETATM   29  C   UNL     1     -10.308   5.942  73.075  1.00  0.00    -0.225 A  
HETATM   30  C   UNL     1      -9.414   5.916  72.006  1.00  0.00    -0.164 A  
ENDBRANCH  24  25
ENDBRANCH  23  24
ENDBRANCH  21  23
ENDBRANCH  20  21
ENDBRANCH  19  20
ENDBRANCH  18  19
ENDBRANCH  17  18
ENDBRANCH  16  17
ENDBRANCH  15  16
ENDBRANCH  13  15
ENDBRANCH  12  13
ENDBRANCH  11  12
ENDBRANCH   8  11
TORSDOF 13
ENDMDL
MODEL      338
REMARK 921   NORMALIZED FREE ENERGY PREDICTED BY IDOCK:   -3.03 KCAL/MOL
REMARK 922        TOTAL FREE ENERGY PREDICTED BY IDOCK:   -8.09 KCAL/MOL
REMARK 923 INTER-LIGAND FREE ENERGY PREDICTED BY IDOCK:   -6.61 KCAL/MOL
REMARK 924 INTRA-LIGAND FREE ENERGY PREDICTED BY IDOCK:   -1.49 KCAL/MOL
REMARK 927      BINDING AFFINITY PREDICTED BY RF-SCORE:    0.00 PKD
ROOT
HETATM    1  O   UNL     1     -11.783  12.102  70.130  1.00  0.00    -0.472 OA 
HETATM    2  H   UNL     1     -12.545  12.663  70.209  1.00  0.00     0.000 HD 
HETATM    3  C   UNL     1     -11.753  10.805  70.567  1.00  0.00    -0.351 A  
HETATM    4  C   UNL     1     -10.636   9.983  70.450  1.00  0.00    -0.280 A  
HETATM    5  C   UNL     1     -10.692   8.657  70.885  1.00  0.00    -0.269 A  
HETATM    6  O   UNL     1      -9.454  10.413  69.917  1.00  0.00    -0.411 OA 
HETATM    7  H   UNL     1      -8.691   9.852  69.838  1.00  0.00     0.000 HD 
HETATM    8  C   UNL     1     -11.874   8.141  71.428  1.00  0.00    -0.329 A  
HETATM    9  C   UNL     1     -12.918  10.317  71.149  1.00  0.00    -0.503 A  
HETATM   10  C   UNL     1     -12.980   8.991  71.582  1.00  0.00    -0.418 A  
ENDROOT
BRANCH   8  11
HETATM   11  C   UNL     1     -11.960   6.697  71.857  1.00  0.00    -0.386 C  
BRANCH  11  12
HETATM   12  C   UNL     1     -11.026   6.401  73.032  1.00  0.00    -0.238 C  
BRANCH  12  13
HETATM   13  N   UNL     1      -9.838   5.670  72.576  1.00  0.00    -0.162 NA 
HETATM   14  H   UNL     1      -9.026   5.851  73.166  1.00  0.00     0.000 HD 
BRANCH  13  15
HETATM   15  C   UNL     1     -10.145   4.245  72.484  1.00  0.00    -0.172 C  
BRANCH  15  16
HETATM   16  C   UNL     1      -9.861   3.728  71.077  1.00  0.00    -0.204 C  
BRANCH  16  17
HETATM   17  C   UNL     1      -8.875   2.565  71.152  1.00  0.00    -0.130 C  
BRANCH  17  18
HETATM   18  C   UNL     1      -8.522   2.059  69.764  1.00  0.00    -0.085 C  
BRANCH  18  19
HETATM   19  C   UNL     1      -9.557   2.515  68.737  1.00  0.00    -0.071 C  
BRANCH  19  20
HETATM   20  C   UNL     1      -9.242   1.864  67.397  1.00  0.00    -0.101 C  
BRANCH  20  21
HETATM   21  N   UNL     1      -9.422   2.811  66.299  1.00  0.00    -0.381 NA 
HETATM   22  H   UNL     1     -10.182   2.528  65.680  1.00  0.00     0.000 HD 
BRANCH  21  23
HETATM   23  C   UNL     1      -9.615   4.178  66.803  1.00  0.00    -0.208 C  
BRANCH  23  24
HETATM   24  C   UNL     1      -8.619   5.185  66.208  1.00  0.00    -0.114 C  
BRANCH  24  25
HETATM   25  C   UNL     1      -9.062   6.611  66.403  1.00  0.00    -0.172 A  
HETATM   26  C   UNL     1     -10.343   6.881  66.898  1.00  0.00    -0.332 A  
HETATM   27  C   UNL     1     -10.758   8.199  67.091  1.00  0.00    -0.264 A  
HETATM   28  C   UNL     1      -9.896   9.249  66.785  1.00  0.00    -0.289 A  
HETATM   29  C   UNL     1      -8.623   8.986  66.281  1.00  0.00    -0.140 A  
HETATM   30  C   UNL     1      -8.207   7.670  66.087  1.00  0.00    -0.124 A  
ENDBRANCH  24  25
ENDBRANCH  23  24
ENDBRANCH  21  23
ENDBRANCH  20  21
ENDBRANCH  19  20
ENDBRANCH  18  19
ENDBRANCH  17  18
ENDBRANCH  16  17
ENDBRANCH  15  16
ENDBRANCH  13  15
ENDBRANCH  12  13
ENDBRANCH  11  12
ENDBRANCH   8  11
TORSDOF 13
ENDMDL
MODEL      339
REMARK 921   NORMALIZED FREE ENERGY PREDICTED BY IDOCK:   -3.03 KCAL/MOL
REMARK 922        TOTAL FREE ENERGY PREDICTED BY IDOCK:   -8.09 KCAL/MOL
REMARK 923 INTER-LIGAND FREE ENERGY PREDICTED BY IDOCK:   -6.57 KCAL/MOL
REMARK 924 INTRA-LIGAND FREE ENERGY PREDICTED BY IDOCK:   -1.52 KCAL/MOL
REMARK 927      BINDING AFFINITY PREDICTED BY RF-SCORE:    0.00 PKD
ROOT
HETATM    1  O   UNL     1     -11.513   6.312  68.081  1.00  0.00    -0.515 OA 
HETATM    2  H   UNL     1     -12.030   6.010  67.343  1.00  0.00     0.000 HD 
HETATM    3  C   UNL     1     -10.598   7.326  67.995  1.00  0.00    -0.189 A  
HETATM    4  C   UNL     1      -9.842   7.769  69.076  1.00  0.00    -0.169 A  
HETATM    5  C   UNL     1      -8.953   8.836  68.920  1.00  0.00    -0.134 A  
HETATM    6  O   UNL     1      -9.923   7.204  70.316  1.00  0.00    -0.186 OA 
HETATM    7  H   UNL     1      -9.407   7.507  71.054  1.00  0.00     0.000 HD 
HETATM    8  C   UNL     1      -8.826   9.475  67.681  1.00  0.00    -0.121 A  
HETATM    9  C   UNL     1     -10.445   7.922  66.747  1.00  0.00    -0.317 A  
HETATM   10  C   UNL     1      -9.561   8.991  66.587  1.00  0.00    -0.274 A  
ENDROOT
BRANCH   8  11
HETATM   11  C   UNL     1      -7.906  10.658  67.515  1.00  0.00    -0.106 C  
BRANCH  11  12
HETATM   12  C   UNL     1      -7.931  11.570  68.743  1.00  0.00    -0.107 C  
BRANCH  12  13
HETATM   13  N   UNL     1      -9.183  12.335  68.792  1.00  0.00    -0.400 NA 
HETATM   14  H   UNL     1      -9.257  12.895  69.642  1.00  0.00     0.000 HD 
BRANCH  13  15
HETATM   15  C   UNL     1      -9.309  13.148  67.586  1.00  0.00    -0.205 C  
BRANCH  15  16
HETATM   16  C   UNL     1      -9.054  14.617  67.903  1.00  0.00    -0.189 C  
BRANCH  16  17
HETATM   17  C   UNL     1      -7.623  14.980  67.513  1.00  0.00    -0.216 C  
BRANCH  17  18
HETATM   18  C   UNL     1      -6.978  15.864  68.566  1.00  0.00    -0.122 C  
BRANCH  18  19
HETATM   19  C   UNL     1      -5.860  16.711  67.958  1.00  0.00    -0.127 C  
BRANCH  19  20
HETATM   20  C   UNL     1      -5.805  18.049  68.682  1.00  0.00    -0.189 C  
BRANCH  20  21
HETATM   21  N   UNL     1      -5.594  19.146  67.741  1.00  0.00    -0.182 NA 
HETATM   22  H   UNL     1      -4.678  19.576  67.866  1.00  0.00     0.000 HD 
BRANCH  21  23
HETATM   23  C   UNL     1      -5.799  18.703  66.354  1.00  0.00    -0.153 C  
BRANCH  23  24
HETATM   24  C   UNL     1      -6.919  19.471  65.636  1.00  0.00    -0.317 C  
BRANCH  24  25
HETATM   25  C   UNL     1      -8.255  19.294  66.306  1.00  0.00    -0.327 A  
HETATM   26  C   UNL     1      -8.812  20.348  67.040  1.00  0.00    -0.400 A  
HETATM   27  C   UNL     1     -10.055  20.196  67.656  1.00  0.00    -0.542 A  
HETATM   28  C   UNL     1     -10.740  18.989  67.544  1.00  0.00    -0.532 A  
HETATM   29  C   UNL     1     -10.184  17.932  66.824  1.00  0.00    -0.360 A  
HETATM   30  C   UNL     1      -8.943  18.082  66.209  1.00  0.00    -0.194 A  
ENDBRANCH  24  25
ENDBRANCH  23  24
ENDBRANCH  21  23
ENDBRANCH  20  21
ENDBRANCH  19  20
ENDBRANCH  18  19
ENDBRANCH  17  18
ENDBRANCH  16  17
ENDBRANCH  15  16
ENDBRANCH  13  15
ENDBRANCH  12  13
ENDBRANCH  11  12
ENDBRANCH   8  11
TORSDOF 13
ENDMDL
MODEL      340
REMARK 921   NORMALIZED FREE ENERGY PREDICTED BY IDOCK:   -3.03 KCAL/MOL
REMARK 922        TOTAL FREE ENERGY PREDICTED BY IDOCK:   -8.08 KCAL/MOL
REMARK 923 INTER-LIGAND FREE ENERGY PREDICTED BY IDOCK:   -7.38 KCAL/MOL
REMARK 924 INTRA-LIGAND FREE ENERGY PREDICTED BY IDOCK:   -0.71 KCAL/MOL
REMARK 927      BINDING AFFINITY PREDICTED BY RF-SCORE:    0.00 PKD
ROOT
HETATM    1  O   UNL     1      -7.369  19.729  65.901  1.00  0.00    -0.293 OA 
HETATM    2  H   UNL     1      -6.479  19.465  65.700  1.00  0.00     0.000 HD 
HETATM    3  C   UNL     1      -8.321  18.867  66.373  1.00  0.00    -0.296 A  
HETATM    4  C   UNL     1      -9.625  19.253  66.669  1.00  0.00    -0.349 A  
HETATM    5  C   UNL     1     -10.533  18.325  67.183  1.00  0.00    -0.417 A  
HETATM    6  O   UNL     1     -10.079  20.527  66.480  1.00  0.00    -0.526 OA 
HETATM    7  H   UNL     1     -10.969  20.791  66.681  1.00  0.00     0.000 HD 
HETATM    8  C   UNL     1     -10.135  17.004  67.418  1.00  0.00    -0.291 A  
HETATM    9  C   UNL     1      -7.928  17.545  66.558  1.00  0.00    -0.309 A  
HETATM   10  C   UNL     1      -8.831  16.614  67.075  1.00  0.00    -0.220 A  
ENDROOT
BRANCH   8  11
HETATM   11  C   UNL     1     -11.093  16.005  68.019  1.00  0.00    -0.334 C  
BRANCH  11  12
HETATM   12  C   UNL     1     -11.036  14.661  67.292  1.00  0.00    -0.317 C  
BRANCH  12  13
HETATM   13  N   UNL     1     -12.389  14.163  67.017  1.00  0.00    -0.571 NA 
HETATM   14  H   UNL     1     -13.109  14.803  67.353  1.00  0.00     0.000 HD 
BRANCH  13  15
HETATM   15  C   UNL     1     -12.527  13.878  65.592  1.00  0.00    -0.505 C  
BRANCH  15  16
HETATM   16  C   UNL     1     -11.165  13.911  64.907  1.00  0.00    -0.356 C  
BRANCH  16  17
HETATM   17  C   UNL     1     -10.856  12.534  64.324  1.00  0.00    -0.400 C  
BRANCH  17  18
HETATM   18  C   UNL     1      -9.794  11.821  65.142  1.00  0.00    -0.263 C  
BRANCH  18  19
HETATM   19  C   UNL     1     -10.062  10.317  65.193  1.00  0.00    -0.355 C  
BRANCH  19  20
HETATM   20  C   UNL     1      -9.278   9.715  66.351  1.00  0.00    -0.163 C  
BRANCH  20  21
HETATM   21  N   UNL     1      -9.370   8.257  66.344  1.00  0.00    -0.200 NA 
HETATM   22  H   UNL     1      -8.466   7.823  66.531  1.00  0.00     0.000 HD 
BRANCH  21  23
HETATM   23  C   UNL     1     -10.401   7.786  67.280  1.00  0.00    -0.301 C  
BRANCH  23  24
HETATM   24  C   UNL     1      -9.905   6.665  68.207  1.00  0.00    -0.137 C  
BRANCH  24  25
HETATM   25  C   UNL     1      -9.258   5.539  67.447  1.00  0.00    -0.110 A  
HETATM   26  C   UNL     1     -10.054   4.604  66.773  1.00  0.00    -0.246 A  
HETATM   27  C   UNL     1      -9.462   3.563  66.057  1.00  0.00    -0.145 A  
HETATM   28  C   UNL     1      -8.074   3.450  66.019  1.00  0.00    -0.093 A  
HETATM   29  C   UNL     1      -7.277   4.371  66.698  1.00  0.00    -0.079 A  
HETATM   30  C   UNL     1      -7.867   5.411  67.413  1.00  0.00    -0.101 A  
ENDBRANCH  24  25
ENDBRANCH  23  24
ENDBRANCH  21  23
ENDBRANCH  20  21
ENDBRANCH  19  20
ENDBRANCH  18  19
ENDBRANCH  17  18
ENDBRANCH  16  17
ENDBRANCH  15  16
ENDBRANCH  13  15
ENDBRANCH  12  13
ENDBRANCH  11  12
ENDBRANCH   8  11
TORSDOF 13
ENDMDL
MODEL      341
REMARK 921   NORMALIZED FREE ENERGY PREDICTED BY IDOCK:   -3.01 KCAL/MOL
REMARK 922        TOTAL FREE ENERGY PREDICTED BY IDOCK:   -8.06 KCAL/MOL
REMARK 923 INTER-LIGAND FREE ENERGY PREDICTED BY IDOCK:   -7.41 KCAL/MOL
REMARK 924 INTRA-LIGAND FREE ENERGY PREDICTED BY IDOCK:   -0.65 KCAL/MOL
REMARK 927      BINDING AFFINITY PREDICTED BY RF-SCORE:    0.00 PKD
ROOT
HETATM    1  O   UNL     1      -7.588   3.348  72.095  1.00  0.00    -0.054 OA 
HETATM    2  H   UNL     1      -7.481   2.941  72.946  1.00  0.00     0.000 HD 
HETATM    3  C   UNL     1      -8.667   4.121  71.761  1.00  0.00    -0.112 A  
HETATM    4  C   UNL     1      -8.825   4.719  70.514  1.00  0.00    -0.107 A  
HETATM    5  C   UNL     1      -9.935   5.526  70.258  1.00  0.00    -0.281 A  
HETATM    6  O   UNL     1      -7.927   4.557  69.498  1.00  0.00    -0.061 OA 
HETATM    7  H   UNL     1      -8.034   4.965  68.647  1.00  0.00     0.000 HD 
HETATM    8  C   UNL     1     -10.890   5.751  71.256  1.00  0.00    -0.313 A  
HETATM    9  C   UNL     1      -9.635   4.299  72.745  1.00  0.00    -0.167 A  
HETATM   10  C   UNL     1     -10.745   5.107  72.495  1.00  0.00    -0.286 A  
ENDROOT
BRANCH   8  11
HETATM   11  C   UNL     1     -12.068   6.660  71.006  1.00  0.00    -0.384 C  
BRANCH  11  12
HETATM   12  C   UNL     1     -11.900   8.008  71.709  1.00  0.00    -0.296 C  
BRANCH  12  13
HETATM   13  N   UNL     1     -13.207   8.624  71.966  1.00  0.00    -0.363 NA 
HETATM   14  H   UNL     1     -13.639   8.268  72.819  1.00  0.00     0.000 HD 
BRANCH  13  15
HETATM   15  C   UNL     1     -13.069  10.078  71.985  1.00  0.00    -0.441 C  
BRANCH  15  16
HETATM   16  C   UNL     1     -13.145  10.639  70.569  1.00  0.00    -0.177 C  
BRANCH  16  17
HETATM   17  C   UNL     1     -11.779  11.188  70.165  1.00  0.00    -0.439 C  
BRANCH  17  18
HETATM   18  C   UNL     1     -11.881  12.033  68.907  1.00  0.00    -0.356 C  
BRANCH  18  19
HETATM   19  C   UNL     1     -10.707  13.006  68.806  1.00  0.00    -0.250 C  
BRANCH  19  20
HETATM   20  C   UNL     1     -11.229  14.428  68.959  1.00  0.00    -0.264 C  
BRANCH  20  21
HETATM   21  N   UNL     1     -10.785  15.271  67.852  1.00  0.00    -0.268 NA 
HETATM   22  H   UNL     1      -9.768  15.292  67.781  1.00  0.00     0.000 HD 
BRANCH  21  23
HETATM   23  C   UNL     1     -11.406  14.856  66.586  1.00  0.00    -0.326 C  
BRANCH  23  24
HETATM   24  C   UNL     1     -10.386  14.632  65.459  1.00  0.00    -0.383 C  
BRANCH  24  25
HETATM   25  C   UNL     1     -10.318  13.192  65.028  1.00  0.00    -0.346 A  
HETATM   26  C   UNL     1      -9.845  12.219  65.917  1.00  0.00    -0.266 A  
HETATM   27  C   UNL     1      -9.789  10.880  65.530  1.00  0.00    -0.298 A  
HETATM   28  C   UNL     1     -10.198  10.511  64.251  1.00  0.00    -0.314 A  
HETATM   29  C   UNL     1     -10.659  11.477  63.357  1.00  0.00    -0.460 A  
HETATM   30  C   UNL     1     -10.716  12.815  63.743  1.00  0.00    -0.397 A  
ENDBRANCH  24  25
ENDBRANCH  23  24
ENDBRANCH  21  23
ENDBRANCH  20  21
ENDBRANCH  19  20
ENDBRANCH  18  19
ENDBRANCH  17  18
ENDBRANCH  16  17
ENDBRANCH  15  16
ENDBRANCH  13  15
ENDBRANCH  12  13
ENDBRANCH  11  12
ENDBRANCH   8  11
TORSDOF 13
ENDMDL
MODEL      342
REMARK 921   NORMALIZED FREE ENERGY PREDICTED BY IDOCK:   -3.00 KCAL/MOL
REMARK 922        TOTAL FREE ENERGY PREDICTED BY IDOCK:   -8.03 KCAL/MOL
REMARK 923 INTER-LIGAND FREE ENERGY PREDICTED BY IDOCK:   -7.38 KCAL/MOL
REMARK 924 INTRA-LIGAND FREE ENERGY PREDICTED BY IDOCK:   -0.65 KCAL/MOL
REMARK 927      BINDING AFFINITY PREDICTED BY RF-SCORE:    0.00 PKD
ROOT
HETATM    1  O   UNL     1      -6.036  19.235  64.672  1.00  0.00    -0.268 OA 
HETATM    2  H   UNL     1      -5.233  18.844  64.349  1.00  0.00     0.000 HD 
HETATM    3  C   UNL     1      -6.819  18.660  65.636  1.00  0.00    -0.249 A  
HETATM    4  C   UNL     1      -7.996  19.233  66.110  1.00  0.00    -0.294 A  
HETATM    5  C   UNL     1      -8.724  18.605  67.123  1.00  0.00    -0.281 A  
HETATM    6  O   UNL     1      -8.492  20.410  65.626  1.00  0.00    -0.498 OA 
HETATM    7  H   UNL     1      -9.295  20.801  65.949  1.00  0.00     0.000 HD 
HETATM    8  C   UNL     1      -8.269  17.404  67.679  1.00  0.00    -0.210 A  
HETATM    9  C   UNL     1      -6.384  17.442  66.148  1.00  0.00    -0.212 A  
HETATM   10  C   UNL     1      -7.106  16.812  67.163  1.00  0.00    -0.222 A  
ENDROOT
BRANCH   8  11
HETATM   11  C   UNL     1      -9.022  16.743  68.807  1.00  0.00    -0.254 C  
BRANCH  11  12
HETATM   12  C   UNL     1      -9.438  15.315  68.447  1.00  0.00    -0.206 C  
BRANCH  12  13
HETATM   13  N   UNL     1     -10.023  14.638  69.610  1.00  0.00    -0.429 NA 
HETATM   14  H   UNL     1      -9.961  15.205  70.456  1.00  0.00     0.000 HD 
BRANCH  13  15
HETATM   15  C   UNL     1     -11.396  14.244  69.310  1.00  0.00    -0.283 C  
BRANCH  15  16
HETATM   16  C   UNL     1     -11.565  13.993  67.815  1.00  0.00    -0.378 C  
BRANCH  16  17
HETATM   17  C   UNL     1     -11.893  12.521  67.581  1.00  0.00    -0.381 C  
BRANCH  17  18
HETATM   18  C   UNL     1     -10.639  11.665  67.637  1.00  0.00    -0.237 C  
BRANCH  18  19
HETATM   19  C   UNL     1     -10.988  10.179  67.579  1.00  0.00    -0.319 C  
BRANCH  19  20
HETATM   20  C   UNL     1      -9.739   9.392  67.209  1.00  0.00    -0.165 C  
BRANCH  20  21
HETATM   21  N   UNL     1     -10.071   8.251  66.359  1.00  0.00    -0.452 NA 
HETATM   22  H   UNL     1      -9.237   7.843  65.937  1.00  0.00     0.000 HD 
BRANCH  21  23
HETATM   23  C   UNL     1     -10.849   7.247  67.098  1.00  0.00    -0.308 C  
BRANCH  23  24
HETATM   24  C   UNL     1     -10.537   5.806  66.667  1.00  0.00    -0.347 C  
BRANCH  24  25
HETATM   25  C   UNL     1     -10.095   4.947  67.821  1.00  0.00    -0.158 A  
HETATM   26  C   UNL     1      -9.608   3.657  67.583  1.00  0.00    -0.193 A  
HETATM   27  C   UNL     1      -9.186   2.857  68.647  1.00  0.00    -0.233 A  
HETATM   28  C   UNL     1      -9.257   3.344  69.950  1.00  0.00    -0.222 A  
HETATM   29  C   UNL     1      -9.753   4.624  70.194  1.00  0.00    -0.285 A  
HETATM   30  C   UNL     1     -10.175   5.423  69.132  1.00  0.00    -0.302 A  
ENDBRANCH  24  25
ENDBRANCH  23  24
ENDBRANCH  21  23
ENDBRANCH  20  21
ENDBRANCH  19  20
ENDBRANCH  18  19
ENDBRANCH  17  18
ENDBRANCH  16  17
ENDBRANCH  15  16
ENDBRANCH  13  15
ENDBRANCH  12  13
ENDBRANCH  11  12
ENDBRANCH   8  11
TORSDOF 13
ENDMDL
MODEL      343
REMARK 921   NORMALIZED FREE ENERGY PREDICTED BY IDOCK:   -3.00 KCAL/MOL
REMARK 922        TOTAL FREE ENERGY PREDICTED BY IDOCK:   -8.03 KCAL/MOL
REMARK 923 INTER-LIGAND FREE ENERGY PREDICTED BY IDOCK:   -6.46 KCAL/MOL
REMARK 924 INTRA-LIGAND FREE ENERGY PREDICTED BY IDOCK:   -1.57 KCAL/MOL
REMARK 927      BINDING AFFINITY PREDICTED BY RF-SCORE:    0.00 PKD
ROOT
HETATM    1  O   UNL     1      -7.642   2.665  72.527  1.00  0.00    -0.049 OA 
HETATM    2  H   UNL     1      -7.870   2.648  73.449  1.00  0.00     0.000 HD 
HETATM    3  C   UNL     1      -8.338   3.384  71.594  1.00  0.00    -0.065 A  
HETATM    4  C   UNL     1      -8.005   3.410  70.243  1.00  0.00    -0.046 A  
HETATM    5  C   UNL     1      -8.739   4.198  69.354  1.00  0.00    -0.124 A  
HETATM    6  O   UNL     1      -6.969   2.688  69.723  1.00  0.00    -0.033 OA 
HETATM    7  H   UNL     1      -6.742   2.706  68.801  1.00  0.00     0.000 HD 
HETATM    8  C   UNL     1      -9.806   4.978  69.816  1.00  0.00    -0.286 A  
HETATM    9  C   UNL     1      -9.426   4.117  72.056  1.00  0.00    -0.195 A  
HETATM   10  C   UNL     1     -10.161   4.910  71.172  1.00  0.00    -0.261 A  
ENDROOT
BRANCH   8  11
HETATM   11  C   UNL     1     -10.575   5.870  68.873  1.00  0.00    -0.357 C  
BRANCH  11  12
HETATM   12  C   UNL     1     -10.013   7.292  68.858  1.00  0.00    -0.166 C  
BRANCH  12  13
HETATM   13  N   UNL     1     -11.095   8.277  68.973  1.00  0.00    -0.413 NA 
HETATM   14  H   UNL     1     -11.513   8.281  69.904  1.00  0.00     0.000 HD 
BRANCH  13  15
HETATM   15  C   UNL     1     -10.602   9.596  68.586  1.00  0.00    -0.217 C  
BRANCH  15  16
HETATM   16  C   UNL     1     -10.964   9.896  67.135  1.00  0.00    -0.147 C  
BRANCH  16  17
HETATM   17  C   UNL     1      -9.727  10.400  66.396  1.00  0.00    -0.250 C  
BRANCH  17  18
HETATM   18  C   UNL     1      -9.930  10.346  64.892  1.00  0.00    -0.409 C  
BRANCH  18  19
HETATM   19  C   UNL     1      -9.802  11.737  64.274  1.00  0.00    -0.231 C  
BRANCH  19  20
HETATM   20  C   UNL     1     -10.977  11.970  63.334  1.00  0.00    -0.403 C  
BRANCH  20  21
HETATM   21  N   UNL     1     -12.178  12.342  64.079  1.00  0.00    -0.455 NA 
HETATM   22  H   UNL     1     -12.315  11.744  64.893  1.00  0.00     0.000 HD 
BRANCH  21  23
HETATM   23  C   UNL     1     -12.152  13.764  64.451  1.00  0.00    -0.436 C  
BRANCH  23  24
HETATM   24  C   UNL     1     -12.351  13.996  65.957  1.00  0.00    -0.504 C  
BRANCH  24  25
HETATM   25  C   UNL     1     -11.044  14.129  66.692  1.00  0.00    -0.314 A  
HETATM   26  C   UNL     1     -10.953  13.728  68.030  1.00  0.00    -0.268 A  
HETATM   27  C   UNL     1      -9.742  13.839  68.716  1.00  0.00    -0.069 A  
HETATM   28  C   UNL     1      -8.623  14.356  68.067  1.00  0.00    -0.166 A  
HETATM   29  C   UNL     1      -8.712  14.768  66.738  1.00  0.00    -0.255 A  
HETATM   30  C   UNL     1      -9.920  14.658  66.052  1.00  0.00    -0.337 A  
ENDBRANCH  24  25
ENDBRANCH  23  24
ENDBRANCH  21  23
ENDBRANCH  20  21
ENDBRANCH  19  20
ENDBRANCH  18  19
ENDBRANCH  17  18
ENDBRANCH  16  17
ENDBRANCH  15  16
ENDBRANCH  13  15
ENDBRANCH  12  13
ENDBRANCH  11  12
ENDBRANCH   8  11
TORSDOF 13
ENDMDL
MODEL      344
REMARK 921   NORMALIZED FREE ENERGY PREDICTED BY IDOCK:   -3.00 KCAL/MOL
REMARK 922        TOTAL FREE ENERGY PREDICTED BY IDOCK:   -8.03 KCAL/MOL
REMARK 923 INTER-LIGAND FREE ENERGY PREDICTED BY IDOCK:   -5.58 KCAL/MOL
REMARK 924 INTRA-LIGAND FREE ENERGY PREDICTED BY IDOCK:   -2.45 KCAL/MOL
REMARK 927      BINDING AFFINITY PREDICTED BY RF-SCORE:    0.00 PKD
ROOT
HETATM    1  O   UNL     1      -9.950   6.706  70.146  1.00  0.00    -0.172 OA 
HETATM    2  H   UNL     1     -10.506   6.020  69.796  1.00  0.00     0.000 HD 
HETATM    3  C   UNL     1      -8.856   7.198  69.487  1.00  0.00    -0.137 A  
HETATM    4  C   UNL     1      -8.042   8.203  70.000  1.00  0.00    -0.114 A  
HETATM    5  C   UNL     1      -6.963   8.682  69.252  1.00  0.00    -0.058 A  
HETATM    6  O   UNL     1      -8.245   8.765  71.227  1.00  0.00    -0.146 OA 
HETATM    7  H   UNL     1      -7.689   9.451  71.578  1.00  0.00     0.000 HD 
HETATM    8  C   UNL     1      -6.701   8.164  67.979  1.00  0.00    -0.065 A  
HETATM    9  C   UNL     1      -8.577   6.643  68.243  1.00  0.00    -0.119 A  
HETATM   10  C   UNL     1      -7.502   7.120  67.490  1.00  0.00    -0.101 A  
ENDROOT
BRANCH   8  11
HETATM   11  C   UNL     1      -5.568   8.707  67.143  1.00  0.00    -0.038 C  
BRANCH  11  12
HETATM   12  C   UNL     1      -6.080   9.595  66.008  1.00  0.00    -0.064 C  
BRANCH  12  13
HETATM   13  N   UNL     1      -6.752  10.785  66.545  1.00  0.00    -0.117 NA 
HETATM   14  H   UNL     1      -7.329  10.567  67.357  1.00  0.00     0.000 HD 
BRANCH  13  15
HETATM   15  C   UNL     1      -5.761  11.818  66.835  1.00  0.00    -0.142 C  
BRANCH  15  16
HETATM   16  C   UNL     1      -6.437  13.057  67.413  1.00  0.00    -0.107 C  
BRANCH  16  17
HETATM   17  C   UNL     1      -7.951  12.863  67.402  1.00  0.00    -0.178 C  
BRANCH  17  18
HETATM   18  C   UNL     1      -8.652  13.987  68.146  1.00  0.00    -0.181 C  
BRANCH  18  19
HETATM   19  C   UNL     1      -8.778  15.229  67.266  1.00  0.00    -0.216 C  
BRANCH  19  20
HETATM   20  C   UNL     1      -9.666  14.902  66.074  1.00  0.00    -0.328 C  
BRANCH  20  21
HETATM   21  N   UNL     1     -11.045  15.321  66.317  1.00  0.00    -0.311 NA 
HETATM   22  H   UNL     1     -11.445  15.784  65.502  1.00  0.00     0.000 HD 
BRANCH  21  23
HETATM   23  C   UNL     1     -11.874  14.190  66.758  1.00  0.00    -0.425 C  
BRANCH  23  24
HETATM   24  C   UNL     1     -12.052  13.116  65.675  1.00  0.00    -0.501 C  
BRANCH  24  25
HETATM   25  C   UNL     1     -11.313  11.846  66.002  1.00  0.00    -0.375 A  
HETATM   26  C   UNL     1     -11.329  11.348  67.311  1.00  0.00    -0.347 A  
HETATM   27  C   UNL     1     -10.656  10.165  67.621  1.00  0.00    -0.316 A  
HETATM   28  C   UNL     1      -9.961   9.483  66.626  1.00  0.00    -0.314 A  
HETATM   29  C   UNL     1      -9.932   9.980  65.324  1.00  0.00    -0.368 A  
HETATM   30  C   UNL     1     -10.604  11.161  65.012  1.00  0.00    -0.340 A  
ENDBRANCH  24  25
ENDBRANCH  23  24
ENDBRANCH  21  23
ENDBRANCH  20  21
ENDBRANCH  19  20
ENDBRANCH  18  19
ENDBRANCH  17  18
ENDBRANCH  16  17
ENDBRANCH  15  16
ENDBRANCH  13  15
ENDBRANCH  12  13
ENDBRANCH  11  12
ENDBRANCH   8  11
TORSDOF 13
ENDMDL
MODEL      345
REMARK 921   NORMALIZED FREE ENERGY PREDICTED BY IDOCK:   -2.99 KCAL/MOL
REMARK 922        TOTAL FREE ENERGY PREDICTED BY IDOCK:   -8.02 KCAL/MOL
REMARK 923 INTER-LIGAND FREE ENERGY PREDICTED BY IDOCK:   -6.51 KCAL/MOL
REMARK 924 INTRA-LIGAND FREE ENERGY PREDICTED BY IDOCK:   -1.51 KCAL/MOL
REMARK 927      BINDING AFFINITY PREDICTED BY RF-SCORE:    0.00 PKD
ROOT
HETATM    1  O   UNL     1      -5.543  13.313  68.601  1.00  0.00    -0.070 OA 
HETATM    2  H   UNL     1      -4.874  13.580  69.220  1.00  0.00     0.000 HD 
HETATM    3  C   UNL     1      -6.741  13.961  68.461  1.00  0.00    -0.100 A  
HETATM    4  C   UNL     1      -7.721  13.571  67.554  1.00  0.00    -0.175 A  
HETATM    5  C   UNL     1      -8.905  14.304  67.441  1.00  0.00    -0.211 A  
HETATM    6  O   UNL     1      -7.586  12.481  66.743  1.00  0.00    -0.380 OA 
HETATM    7  H   UNL     1      -8.255  12.214  66.123  1.00  0.00     0.000 HD 
HETATM    8  C   UNL     1      -9.108  15.442  68.229  1.00  0.00    -0.187 A  
HETATM    9  C   UNL     1      -6.952  15.063  69.283  1.00  0.00    -0.156 A  
HETATM   10  C   UNL     1      -8.132  15.801  69.172  1.00  0.00    -0.237 A  
ENDROOT
BRANCH   8  11
HETATM   11  C   UNL     1     -10.362  16.269  68.081  1.00  0.00    -0.277 C  
BRANCH  11  12
HETATM   12  C   UNL     1     -11.589  15.533  68.620  1.00  0.00    -0.368 C  
BRANCH  12  13
HETATM   13  N   UNL     1     -11.524  15.420  70.082  1.00  0.00    -0.288 NA 
HETATM   14  H   UNL     1     -11.675  16.317  70.544  1.00  0.00     0.000 HD 
BRANCH  13  15
HETATM   15  C   UNL     1     -12.464  14.400  70.538  1.00  0.00    -0.350 C  
BRANCH  15  16
HETATM   16  C   UNL     1     -12.119  13.045  69.928  1.00  0.00    -0.347 C  
BRANCH  16  17
HETATM   17  C   UNL     1     -12.437  11.940  70.932  1.00  0.00    -0.397 C  
BRANCH  17  18
HETATM   18  C   UNL     1     -11.760  10.637  70.543  1.00  0.00    -0.451 C  
BRANCH  18  19
HETATM   19  C   UNL     1     -10.682  10.876  69.487  1.00  0.00    -0.251 C  
BRANCH  19  20
HETATM   20  C   UNL     1     -10.860   9.867  68.361  1.00  0.00    -0.221 C  
BRANCH  20  21
HETATM   21  N   UNL     1      -9.591   9.227  68.025  1.00  0.00    -0.141 NA 
HETATM   22  H   UNL     1      -9.052   9.787  67.364  1.00  0.00     0.000 HD 
BRANCH  21  23
HETATM   23  C   UNL     1      -8.813   8.921  69.234  1.00  0.00    -0.139 C  
BRANCH  23  24
HETATM   24  C   UNL     1      -8.764   7.419  69.553  1.00  0.00    -0.137 C  
BRANCH  24  25
HETATM   25  C   UNL     1      -9.489   7.081  70.828  1.00  0.00    -0.161 A  
HETATM   26  C   UNL     1      -9.618   8.047  71.834  1.00  0.00    -0.242 A  
HETATM   27  C   UNL     1     -10.298   7.746  73.015  1.00  0.00    -0.410 A  
HETATM   28  C   UNL     1     -10.844   6.477  73.195  1.00  0.00    -0.286 A  
HETATM   29  C   UNL     1     -10.709   5.508  72.202  1.00  0.00    -0.288 A  
HETATM   30  C   UNL     1     -10.030   5.808  71.022  1.00  0.00    -0.243 A  
ENDBRANCH  24  25
ENDBRANCH  23  24
ENDBRANCH  21  23
ENDBRANCH  20  21
ENDBRANCH  19  20
ENDBRANCH  18  19
ENDBRANCH  17  18
ENDBRANCH  16  17
ENDBRANCH  15  16
ENDBRANCH  13  15
ENDBRANCH  12  13
ENDBRANCH  11  12
ENDBRANCH   8  11
TORSDOF 13
ENDMDL
MODEL      346
REMARK 921   NORMALIZED FREE ENERGY PREDICTED BY IDOCK:   -2.99 KCAL/MOL
REMARK 922        TOTAL FREE ENERGY PREDICTED BY IDOCK:   -8.02 KCAL/MOL
REMARK 923 INTER-LIGAND FREE ENERGY PREDICTED BY IDOCK:   -6.81 KCAL/MOL
REMARK 924 INTRA-LIGAND FREE ENERGY PREDICTED BY IDOCK:   -1.21 KCAL/MOL
REMARK 927      BINDING AFFINITY PREDICTED BY RF-SCORE:    0.00 PKD
ROOT
HETATM    1  O   UNL     1      -8.568  18.490  68.713  1.00  0.00    -0.311 OA 
HETATM    2  H   UNL     1      -9.053  18.993  69.357  1.00  0.00     0.000 HD 
HETATM    3  C   UNL     1      -8.975  17.268  68.250  1.00  0.00    -0.262 A  
HETATM    4  C   UNL     1      -8.265  16.532  67.306  1.00  0.00    -0.173 A  
HETATM    5  C   UNL     1      -8.762  15.307  66.853  1.00  0.00    -0.288 A  
HETATM    6  O   UNL     1      -7.077  16.952  66.782  1.00  0.00    -0.190 OA 
HETATM    7  H   UNL     1      -6.592  16.450  66.138  1.00  0.00     0.000 HD 
HETATM    8  C   UNL     1      -9.982  14.819  67.334  1.00  0.00    -0.223 A  
HETATM    9  C   UNL     1     -10.164  16.769  68.771  1.00  0.00    -0.299 A  
HETATM   10  C   UNL     1     -10.667  15.548  68.319  1.00  0.00    -0.271 A  
ENDROOT
BRANCH   8  11
HETATM   11  C   UNL     1     -10.551  13.521  66.816  1.00  0.00    -0.272 C  
BRANCH  11  12
HETATM   12  C   UNL     1     -11.968  13.278  67.339  1.00  0.00    -0.335 C  
BRANCH  12  13
HETATM   13  N   UNL     1     -12.040  12.005  68.066  1.00  0.00    -0.478 NA 
HETATM   14  H   UNL     1     -11.954  11.202  67.443  1.00  0.00     0.000 HD 
BRANCH  13  15
HETATM   15  C   UNL     1     -11.037  11.989  69.127  1.00  0.00    -0.215 C  
BRANCH  15  16
HETATM   16  C   UNL     1     -11.668  11.571  70.451  1.00  0.00    -0.328 C  
BRANCH  16  17
HETATM   17  C   UNL     1     -12.620  10.401  70.214  1.00  0.00    -0.262 C  
BRANCH  17  18
HETATM   18  C   UNL     1     -13.217   9.910  71.522  1.00  0.00    -0.501 C  
BRANCH  18  19
HETATM   19  C   UNL     1     -12.290   8.903  72.201  1.00  0.00    -0.449 C  
BRANCH  19  20
HETATM   20  C   UNL     1     -12.135   7.687  71.299  1.00  0.00    -0.314 C  
BRANCH  20  21
HETATM   21  N   UNL     1     -11.036   6.837  71.749  1.00  0.00    -0.229 NA 
HETATM   22  H   UNL     1     -11.341   5.874  71.891  1.00  0.00     0.000 HD 
BRANCH  21  23
HETATM   23  C   UNL     1      -9.894   6.912  70.827  1.00  0.00    -0.182 C  
BRANCH  23  24
HETATM   24  C   UNL     1      -9.649   8.329  70.286  1.00  0.00    -0.169 C  
BRANCH  24  25
HETATM   25  C   UNL     1      -9.338   8.333  68.814  1.00  0.00    -0.143 A  
HETATM   26  C   UNL     1      -8.110   8.832  68.362  1.00  0.00    -0.117 A  
HETATM   27  C   UNL     1      -7.809   8.830  66.999  1.00  0.00    -0.095 A  
HETATM   28  C   UNL     1      -8.737   8.335  66.086  1.00  0.00    -0.174 A  
HETATM   29  C   UNL     1      -9.965   7.847  66.529  1.00  0.00    -0.267 A  
HETATM   30  C   UNL     1     -10.267   7.849  67.890  1.00  0.00    -0.263 A  
ENDBRANCH  24  25
ENDBRANCH  23  24
ENDBRANCH  21  23
ENDBRANCH  20  21
ENDBRANCH  19  20
ENDBRANCH  18  19
ENDBRANCH  17  18
ENDBRANCH  16  17
ENDBRANCH  15  16
ENDBRANCH  13  15
ENDBRANCH  12  13
ENDBRANCH  11  12
ENDBRANCH   8  11
TORSDOF 13
ENDMDL
MODEL      347
REMARK 921   NORMALIZED FREE ENERGY PREDICTED BY IDOCK:   -2.98 KCAL/MOL
REMARK 922        TOTAL FREE ENERGY PREDICTED BY IDOCK:   -8.00 KCAL/MOL
REMARK 923 INTER-LIGAND FREE ENERGY PREDICTED BY IDOCK:   -7.50 KCAL/MOL
REMARK 924 INTRA-LIGAND FREE ENERGY PREDICTED BY IDOCK:   -0.50 KCAL/MOL
REMARK 927      BINDING AFFINITY PREDICTED BY RF-SCORE:    0.00 PKD
ROOT
HETATM    1  O   UNL     1      -5.702  19.319  64.139  1.00  0.00    -0.266 OA 
HETATM    2  H   UNL     1      -4.919  18.935  63.764  1.00  0.00     0.000 HD 
HETATM    3  C   UNL     1      -6.329  18.820  65.248  1.00  0.00    -0.274 A  
HETATM    4  C   UNL     1      -7.477  19.383  65.798  1.00  0.00    -0.235 A  
HETATM    5  C   UNL     1      -8.040  18.840  66.954  1.00  0.00    -0.267 A  
HETATM    6  O   UNL     1      -8.100  20.470  65.255  1.00  0.00    -0.336 OA 
HETATM    7  H   UNL     1      -8.884  20.855  65.629  1.00  0.00     0.000 HD 
HETATM    8  C   UNL     1      -7.449  17.735  67.577  1.00  0.00    -0.213 A  
HETATM    9  C   UNL     1      -5.760  17.692  65.830  1.00  0.00    -0.176 A  
HETATM   10  C   UNL     1      -6.318  17.147  66.989  1.00  0.00    -0.220 A  
ENDROOT
BRANCH   8  11
HETATM   11  C   UNL     1      -8.021  17.170  68.853  1.00  0.00    -0.208 C  
BRANCH  11  12
HETATM   12  C   UNL     1      -8.681  15.809  68.622  1.00  0.00    -0.195 C  
BRANCH  12  13
HETATM   13  N   UNL     1      -9.074  15.202  69.899  1.00  0.00    -0.427 NA 
HETATM   14  H   UNL     1      -8.450  15.470  70.660  1.00  0.00     0.000 HD 
BRANCH  13  15
HETATM   15  C   UNL     1     -10.468  15.527  70.188  1.00  0.00    -0.301 C  
BRANCH  15  16
HETATM   16  C   UNL     1     -11.364  15.116  69.025  1.00  0.00    -0.307 C  
BRANCH  16  17
HETATM   17  C   UNL     1     -12.122  13.843  69.393  1.00  0.00    -0.384 C  
BRANCH  17  18
HETATM   18  C   UNL     1     -11.186  12.648  69.451  1.00  0.00    -0.205 C  
BRANCH  18  19
HETATM   19  C   UNL     1     -11.891  11.431  70.049  1.00  0.00    -0.440 C  
BRANCH  19  20
HETATM   20  C   UNL     1     -10.982  10.217  69.912  1.00  0.00    -0.303 C  
BRANCH  20  21
HETATM   21  N   UNL     1     -11.758   8.979  69.907  1.00  0.00    -0.413 NA 
HETATM   22  H   UNL     1     -11.250   8.220  69.454  1.00  0.00     0.000 HD 
BRANCH  21  23
HETATM   23  C   UNL     1     -12.181   8.612  71.266  1.00  0.00    -0.281 C  
BRANCH  23  24
HETATM   24  C   UNL     1     -12.184   7.095  71.506  1.00  0.00    -0.396 C  
BRANCH  24  25
HETATM   25  C   UNL     1     -11.136   6.671  72.499  1.00  0.00    -0.296 A  
HETATM   26  C   UNL     1     -10.983   5.316  72.816  1.00  0.00    -0.331 A  
HETATM   27  C   UNL     1     -10.006   4.913  73.727  1.00  0.00    -0.188 A  
HETATM   28  C   UNL     1      -9.185   5.864  74.329  1.00  0.00    -0.134 A  
HETATM   29  C   UNL     1      -9.342   7.216  74.026  1.00  0.00    -0.291 A  
HETATM   30  C   UNL     1     -10.317   7.620  73.116  1.00  0.00    -0.411 A  
ENDBRANCH  24  25
ENDBRANCH  23  24
ENDBRANCH  21  23
ENDBRANCH  20  21
ENDBRANCH  19  20
ENDBRANCH  18  19
ENDBRANCH  17  18
ENDBRANCH  16  17
ENDBRANCH  15  16
ENDBRANCH  13  15
ENDBRANCH  12  13
ENDBRANCH  11  12
ENDBRANCH   8  11
TORSDOF 13
ENDMDL
MODEL      348
REMARK 921   NORMALIZED FREE ENERGY PREDICTED BY IDOCK:   -2.97 KCAL/MOL
REMARK 922        TOTAL FREE ENERGY PREDICTED BY IDOCK:   -7.98 KCAL/MOL
REMARK 923 INTER-LIGAND FREE ENERGY PREDICTED BY IDOCK:   -6.75 KCAL/MOL
REMARK 924 INTRA-LIGAND FREE ENERGY PREDICTED BY IDOCK:   -1.23 KCAL/MOL
REMARK 927      BINDING AFFINITY PREDICTED BY RF-SCORE:    0.00 PKD
ROOT
HETATM    1  O   UNL     1     -10.908   4.802  66.433  1.00  0.00    -0.456 OA 
HETATM    2  H   UNL     1     -11.187   4.912  65.532  1.00  0.00     0.000 HD 
HETATM    3  C   UNL     1     -10.637   5.849  67.271  1.00  0.00    -0.291 A  
HETATM    4  C   UNL     1     -10.229   5.688  68.592  1.00  0.00    -0.200 A  
HETATM    5  C   UNL     1     -10.006   6.805  69.399  1.00  0.00    -0.167 A  
HETATM    6  O   UNL     1     -10.029   4.462  69.160  1.00  0.00    -0.162 OA 
HETATM    7  H   UNL     1      -9.750   4.351  70.061  1.00  0.00     0.000 HD 
HETATM    8  C   UNL     1     -10.205   8.094  68.892  1.00  0.00    -0.221 A  
HETATM    9  C   UNL     1     -10.791   7.126  66.742  1.00  0.00    -0.184 A  
HETATM   10  C   UNL     1     -10.573   8.247  67.546  1.00  0.00    -0.291 A  
ENDROOT
BRANCH   8  11
HETATM   11  C   UNL     1     -10.014   9.307  69.769  1.00  0.00    -0.213 C  
BRANCH  11  12
HETATM   12  C   UNL     1     -10.711  10.538  69.188  1.00  0.00    -0.231 C  
BRANCH  12  13
HETATM   13  N   UNL     1      -9.841  11.717  69.280  1.00  0.00    -0.385 NA 
HETATM   14  H   UNL     1      -9.147  11.624  70.023  1.00  0.00     0.000 HD 
BRANCH  13  15
HETATM   15  C   UNL     1      -9.226  11.976  67.981  1.00  0.00    -0.192 C  
BRANCH  15  16
HETATM   16  C   UNL     1     -10.184  12.752  67.083  1.00  0.00    -0.235 C  
BRANCH  16  17
HETATM   17  C   UNL     1      -9.654  14.168  66.878  1.00  0.00    -0.275 C  
BRANCH  17  18
HETATM   18  C   UNL     1      -8.400  14.407  67.701  1.00  0.00    -0.186 C  
BRANCH  18  19
HETATM   19  C   UNL     1      -8.582  15.596  68.643  1.00  0.00    -0.188 C  
BRANCH  19  20
HETATM   20  C   UNL     1     -10.070  15.811  68.884  1.00  0.00    -0.222 C  
BRANCH  20  21
HETATM   21  N   UNL     1     -10.362  17.220  69.134  1.00  0.00    -0.328 NA 
HETATM   22  H   UNL     1      -9.549  17.713  69.502  1.00  0.00     0.000 HD 
BRANCH  21  23
HETATM   23  C   UNL     1     -10.891  17.874  67.928  1.00  0.00    -0.210 C  
BRANCH  23  24
HETATM   24  C   UNL     1     -10.248  19.242  67.654  1.00  0.00    -0.507 C  
BRANCH  24  25
HETATM   25  C   UNL     1      -8.772  19.135  67.376  1.00  0.00    -0.317 A  
HETATM   26  C   UNL     1      -7.849  19.479  68.370  1.00  0.00    -0.374 A  
HETATM   27  C   UNL     1      -6.479  19.372  68.124  1.00  0.00    -0.260 A  
HETATM   28  C   UNL     1      -6.031  18.928  66.882  1.00  0.00    -0.171 A  
HETATM   29  C   UNL     1      -6.947  18.596  65.884  1.00  0.00    -0.305 A  
HETATM   30  C   UNL     1      -8.314  18.702  66.129  1.00  0.00    -0.174 A  
ENDBRANCH  24  25
ENDBRANCH  23  24
ENDBRANCH  21  23
ENDBRANCH  20  21
ENDBRANCH  19  20
ENDBRANCH  18  19
ENDBRANCH  17  18
ENDBRANCH  16  17
ENDBRANCH  15  16
ENDBRANCH  13  15
ENDBRANCH  12  13
ENDBRANCH  11  12
ENDBRANCH   8  11
TORSDOF 13
ENDMDL
MODEL      349
REMARK 921   NORMALIZED FREE ENERGY PREDICTED BY IDOCK:   -2.95 KCAL/MOL
REMARK 922        TOTAL FREE ENERGY PREDICTED BY IDOCK:   -7.95 KCAL/MOL
REMARK 923 INTER-LIGAND FREE ENERGY PREDICTED BY IDOCK:   -6.89 KCAL/MOL
REMARK 924 INTRA-LIGAND FREE ENERGY PREDICTED BY IDOCK:   -1.05 KCAL/MOL
REMARK 927      BINDING AFFINITY PREDICTED BY RF-SCORE:    0.00 PKD
ROOT
HETATM    1  O   UNL     1      -7.513  17.163  67.133  1.00  0.00    -0.152 OA 
HETATM    2  H   UNL     1      -7.506  18.101  66.983  1.00  0.00     0.000 HD 
HETATM    3  C   UNL     1      -8.475  16.525  67.869  1.00  0.00    -0.181 A  
HETATM    4  C   UNL     1      -8.486  15.151  68.089  1.00  0.00    -0.152 A  
HETATM    5  C   UNL     1      -9.522  14.566  68.820  1.00  0.00    -0.183 A  
HETATM    6  O   UNL     1      -7.513  14.319  67.614  1.00  0.00    -0.149 OA 
HETATM    7  H   UNL     1      -7.521  13.381  67.764  1.00  0.00     0.000 HD 
HETATM    8  C   UNL     1     -10.563  15.354  69.326  1.00  0.00    -0.252 A  
HETATM    9  C   UNL     1      -9.478  17.324  68.408  1.00  0.00    -0.283 A  
HETATM   10  C   UNL     1     -10.518  16.744  69.137  1.00  0.00    -0.343 A  
ENDROOT
BRANCH   8  11
HETATM   11  C   UNL     1     -11.711  14.726  70.075  1.00  0.00    -0.344 C  
BRANCH  11  12
HETATM   12  C   UNL     1     -12.133  13.395  69.450  1.00  0.00    -0.269 C  
BRANCH  12  13
HETATM   13  N   UNL     1     -11.845  12.281  70.361  1.00  0.00    -0.532 NA 
HETATM   14  H   UNL     1     -12.544  12.198  71.099  1.00  0.00     0.000 HD 
BRANCH  13  15
HETATM   15  C   UNL     1     -11.703  11.045  69.596  1.00  0.00    -0.329 C  
BRANCH  15  16
HETATM   16  C   UNL     1     -10.239  10.801  69.245  1.00  0.00    -0.217 C  
BRANCH  16  17
HETATM   17  C   UNL     1     -10.106  10.594  67.738  1.00  0.00    -0.203 C  
BRANCH  17  18
HETATM   18  C   UNL     1      -8.789   9.919  67.394  1.00  0.00    -0.137 C  
BRANCH  18  19
HETATM   19  C   UNL     1      -8.913   9.101  66.110  1.00  0.00    -0.211 C  
BRANCH  19  20
HETATM   20  C   UNL     1      -8.672   7.633  66.434  1.00  0.00    -0.151 C  
BRANCH  20  21
HETATM   21  N   UNL     1      -9.903   6.858  66.302  1.00  0.00    -0.410 NA 
HETATM   22  H   UNL     1      -9.969   6.412  65.388  1.00  0.00     0.000 HD 
BRANCH  21  23
HETATM   23  C   UNL     1     -10.033   5.880  67.392  1.00  0.00    -0.149 C  
BRANCH  23  24
HETATM   24  C   UNL     1     -11.143   6.238  68.393  1.00  0.00    -0.371 C  
BRANCH  24  25
HETATM   25  C   UNL     1     -10.876   5.681  69.765  1.00  0.00    -0.370 A  
HETATM   26  C   UNL     1     -11.509   6.244  70.881  1.00  0.00    -0.377 A  
HETATM   27  C   UNL     1     -11.276   5.726  72.156  1.00  0.00    -0.327 A  
HETATM   28  C   UNL     1     -10.406   4.651  72.319  1.00  0.00    -0.251 A  
HETATM   29  C   UNL     1      -9.764   4.095  71.213  1.00  0.00    -0.255 A  
HETATM   30  C   UNL     1      -9.996   4.610  69.939  1.00  0.00    -0.296 A  
ENDBRANCH  24  25
ENDBRANCH  23  24
ENDBRANCH  21  23
ENDBRANCH  20  21
ENDBRANCH  19  20
ENDBRANCH  18  19
ENDBRANCH  17  18
ENDBRANCH  16  17
ENDBRANCH  15  16
ENDBRANCH  13  15
ENDBRANCH  12  13
ENDBRANCH  11  12
ENDBRANCH   8  11
TORSDOF 13
ENDMDL
MODEL      350
REMARK 921   NORMALIZED FREE ENERGY PREDICTED BY IDOCK:   -2.94 KCAL/MOL
REMARK 922        TOTAL FREE ENERGY PREDICTED BY IDOCK:   -7.92 KCAL/MOL
REMARK 923 INTER-LIGAND FREE ENERGY PREDICTED BY IDOCK:   -6.18 KCAL/MOL
REMARK 924 INTRA-LIGAND FREE ENERGY PREDICTED BY IDOCK:   -1.74 KCAL/MOL
REMARK 927      BINDING AFFINITY PREDICTED BY RF-SCORE:    0.00 PKD
ROOT
HETATM    1  O   UNL     1      -6.492   3.768  70.532  1.00  0.00    -0.029 OA 
HETATM    2  H   UNL     1      -5.826   4.240  71.020  1.00  0.00     0.000 HD 
HETATM    3  C   UNL     1      -7.587   4.371  69.977  1.00  0.00    -0.050 A  
HETATM    4  C   UNL     1      -8.562   3.681  69.262  1.00  0.00    -0.072 A  
HETATM    5  C   UNL     1      -9.634   4.370  68.691  1.00  0.00    -0.216 A  
HETATM    6  O   UNL     1      -8.527   2.328  69.082  1.00  0.00    -0.051 OA 
HETATM    7  H   UNL     1      -9.192   1.856  68.595  1.00  0.00     0.000 HD 
HETATM    8  C   UNL     1      -9.729   5.761  68.821  1.00  0.00    -0.168 A  
HETATM    9  C   UNL     1      -7.697   5.747  70.152  1.00  0.00    -0.087 A  
HETATM   10  C   UNL     1      -8.765   6.441  69.580  1.00  0.00    -0.138 A  
ENDROOT
BRANCH   8  11
HETATM   11  C   UNL     1     -10.856   6.521  68.167  1.00  0.00    -0.370 C  
BRANCH  11  12
HETATM   12  C   UNL     1     -10.335   7.674  67.308  1.00  0.00    -0.297 C  
BRANCH  12  13
HETATM   13  N   UNL     1     -11.087   8.904  67.583  1.00  0.00    -0.417 NA 
HETATM   14  H   UNL     1     -12.069   8.717  67.786  1.00  0.00     0.000 HD 
BRANCH  13  15
HETATM   15  C   UNL     1     -10.435   9.649  68.656  1.00  0.00    -0.210 C  
BRANCH  15  16
HETATM   16  C   UNL     1      -9.016  10.036  68.252  1.00  0.00    -0.119 C  
BRANCH  16  17
HETATM   17  C   UNL     1      -9.065  11.243  67.319  1.00  0.00    -0.156 C  
BRANCH  17  18
HETATM   18  C   UNL     1      -9.675  12.447  68.015  1.00  0.00    -0.210 C  
BRANCH  18  19
HETATM   19  C   UNL     1      -8.705  13.628  68.012  1.00  0.00    -0.176 C  
BRANCH  19  20
HETATM   20  C   UNL     1      -9.344  14.794  68.754  1.00  0.00    -0.198 C  
BRANCH  20  21
HETATM   21  N   UNL     1      -9.593  15.916  67.853  1.00  0.00    -0.214 NA 
HETATM   22  H   UNL     1      -8.829  16.041  67.190  1.00  0.00     0.000 HD 
BRANCH  21  23
HETATM   23  C   UNL     1     -10.885  15.769  67.167  1.00  0.00    -0.289 C  
BRANCH  23  24
HETATM   24  C   UNL     1     -10.754  15.732  65.637  1.00  0.00    -0.360 C  
BRANCH  24  25
HETATM   25  C   UNL     1     -11.077  14.376  65.068  1.00  0.00    -0.385 A  
HETATM   26  C   UNL     1     -10.051  13.573  64.555  1.00  0.00    -0.179 A  
HETATM   27  C   UNL     1     -10.341  12.310  64.036  1.00  0.00    -0.423 A  
HETATM   28  C   UNL     1     -11.656  11.852  64.022  1.00  0.00    -0.476 A  
HETATM   29  C   UNL     1     -12.682  12.652  64.521  1.00  0.00    -0.439 A  
HETATM   30  C   UNL     1     -12.395  13.914  65.040  1.00  0.00    -0.452 A  
ENDBRANCH  24  25
ENDBRANCH  23  24
ENDBRANCH  21  23
ENDBRANCH  20  21
ENDBRANCH  19  20
ENDBRANCH  18  19
ENDBRANCH  17  18
ENDBRANCH  16  17
ENDBRANCH  15  16
ENDBRANCH  13  15
ENDBRANCH  12  13
ENDBRANCH  11  12
ENDBRANCH   8  11
TORSDOF 13
ENDMDL
MODEL      351
REMARK 921   NORMALIZED FREE ENERGY PREDICTED BY IDOCK:   -2.93 KCAL/MOL
REMARK 922        TOTAL FREE ENERGY PREDICTED BY IDOCK:   -7.91 KCAL/MOL
REMARK 923 INTER-LIGAND FREE ENERGY PREDICTED BY IDOCK:   -6.38 KCAL/MOL
REMARK 924 INTRA-LIGAND FREE ENERGY PREDICTED BY IDOCK:   -1.53 KCAL/MOL
REMARK 927      BINDING AFFINITY PREDICTED BY RF-SCORE:    0.00 PKD
ROOT
HETATM    1  O   UNL     1     -12.452  10.960  68.464  1.00  0.00    -0.742 OA 
HETATM    2  H   UNL     1     -12.845  10.257  68.967  1.00  0.00     0.000 HD 
HETATM    3  C   UNL     1     -11.285  10.823  67.762  1.00  0.00    -0.316 A  
HETATM    4  C   UNL     1     -10.710  11.854  67.024  1.00  0.00    -0.240 A  
HETATM    5  C   UNL     1      -9.536  11.629  66.302  1.00  0.00    -0.241 A  
HETATM    6  O   UNL     1     -11.246  13.108  66.964  1.00  0.00    -0.275 OA 
HETATM    7  H   UNL     1     -10.854  13.811  66.460  1.00  0.00     0.000 HD 
HETATM    8  C   UNL     1      -8.937  10.364  66.304  1.00  0.00    -0.172 A  
HETATM    9  C   UNL     1     -10.672   9.576  67.810  1.00  0.00    -0.302 A  
HETATM   10  C   UNL     1      -9.500   9.345  67.087  1.00  0.00    -0.185 A  
ENDROOT
BRANCH   8  11
HETATM   11  C   UNL     1      -7.696  10.097  65.489  1.00  0.00    -0.145 C  
BRANCH  11  12
HETATM   12  C   UNL     1      -7.155   8.687  65.730  1.00  0.00    -0.079 C  
BRANCH  12  13
HETATM   13  N   UNL     1      -7.562   7.785  64.647  1.00  0.00    -0.105 NA 
HETATM   14  H   UNL     1      -6.765   7.454  64.102  1.00  0.00     0.000 HD 
BRANCH  13  15
HETATM   15  C   UNL     1      -8.349   6.683  65.195  1.00  0.00    -0.088 C  
BRANCH  15  16
HETATM   16  C   UNL     1      -7.642   5.353  64.958  1.00  0.00    -0.080 C  
BRANCH  16  17
HETATM   17  C   UNL     1      -7.064   4.842  66.275  1.00  0.00    -0.072 C  
BRANCH  17  18
HETATM   18  C   UNL     1      -7.979   5.178  67.440  1.00  0.00    -0.100 C  
BRANCH  18  19
HETATM   19  C   UNL     1      -7.177   5.698  68.632  1.00  0.00    -0.078 C  
BRANCH  19  20
HETATM   20  C   UNL     1      -8.144   6.177  69.706  1.00  0.00    -0.119 C  
BRANCH  20  21
HETATM   21  N   UNL     1      -9.222   5.212  69.910  1.00  0.00    -0.121 NA 
HETATM   22  H   UNL     1      -8.858   4.281  70.109  1.00  0.00     0.000 HD 
BRANCH  21  23
HETATM   23  C   UNL     1     -10.150   5.666  70.955  1.00  0.00    -0.207 C  
BRANCH  23  24
HETATM   24  C   UNL     1     -10.051   7.173  71.236  1.00  0.00    -0.196 C  
BRANCH  24  25
HETATM   25  C   UNL     1     -11.403   7.818  71.379  1.00  0.00    -0.281 A  
HETATM   26  C   UNL     1     -12.556   7.024  71.391  1.00  0.00    -0.428 A  
HETATM   27  C   UNL     1     -13.814   7.613  71.534  1.00  0.00    -0.466 A  
HETATM   28  C   UNL     1     -13.921   8.996  71.659  1.00  0.00    -0.386 A  
HETATM   29  C   UNL     1     -12.777   9.792  71.635  1.00  0.00    -0.517 A  
HETATM   30  C   UNL     1     -11.520   9.205  71.492  1.00  0.00    -0.437 A  
ENDBRANCH  24  25
ENDBRANCH  23  24
ENDBRANCH  21  23
ENDBRANCH  20  21
ENDBRANCH  19  20
ENDBRANCH  18  19
ENDBRANCH  17  18
ENDBRANCH  16  17
ENDBRANCH  15  16
ENDBRANCH  13  15
ENDBRANCH  12  13
ENDBRANCH  11  12
ENDBRANCH   8  11
TORSDOF 13
ENDMDL
MODEL      352
REMARK 921   NORMALIZED FREE ENERGY PREDICTED BY IDOCK:   -2.93 KCAL/MOL
REMARK 922        TOTAL FREE ENERGY PREDICTED BY IDOCK:   -7.91 KCAL/MOL
REMARK 923 INTER-LIGAND FREE ENERGY PREDICTED BY IDOCK:   -7.02 KCAL/MOL
REMARK 924 INTRA-LIGAND FREE ENERGY PREDICTED BY IDOCK:   -0.89 KCAL/MOL
REMARK 927      BINDING AFFINITY PREDICTED BY RF-SCORE:    0.00 PKD
ROOT
HETATM    1  O   UNL     1     -14.030   6.287  71.842  1.00  0.00    -0.049 OA 
HETATM    2  H   UNL     1     -13.911   5.383  72.106  1.00  0.00     0.000 HD 
HETATM    3  C   UNL     1     -12.991   7.154  71.637  1.00  0.00    -0.370 A  
HETATM    4  C   UNL     1     -13.164   8.480  71.250  1.00  0.00    -0.132 A  
HETATM    5  C   UNL     1     -12.054   9.296  71.023  1.00  0.00    -0.349 A  
HETATM    6  O   UNL     1     -14.395   9.043  71.072  1.00  0.00    -0.500 OA 
HETATM    7  H   UNL     1     -14.514   9.948  70.808  1.00  0.00     0.000 HD 
HETATM    8  C   UNL     1     -10.759   8.784  71.170  1.00  0.00    -0.316 A  
HETATM    9  C   UNL     1     -11.710   6.649  71.833  1.00  0.00    -0.355 A  
HETATM   10  C   UNL     1     -10.596   7.459  71.604  1.00  0.00    -0.229 A  
ENDROOT
BRANCH   8  11
HETATM   11  C   UNL     1      -9.553   9.643  70.881  1.00  0.00    -0.085 C  
BRANCH  11  12
HETATM   12  C   UNL     1      -9.002   9.386  69.477  1.00  0.00    -0.164 C  
BRANCH  12  13
HETATM   13  N   UNL     1      -8.956  10.632  68.704  1.00  0.00    -0.162 NA 
HETATM   14  H   UNL     1      -9.734  11.253  68.929  1.00  0.00     0.000 HD 
BRANCH  13  15
HETATM   15  C   UNL     1      -7.662  11.281  68.893  1.00  0.00    -0.125 C  
BRANCH  15  16
HETATM   16  C   UNL     1      -7.610  12.602  68.133  1.00  0.00    -0.132 C  
BRANCH  16  17
HETATM   17  C   UNL     1      -8.631  12.575  66.998  1.00  0.00    -0.188 C  
BRANCH  17  18
HETATM   18  C   UNL     1      -9.702  13.632  67.202  1.00  0.00    -0.245 C  
BRANCH  18  19
HETATM   19  C   UNL     1      -9.370  14.904  66.422  1.00  0.00    -0.327 C  
BRANCH  19  20
HETATM   20  C   UNL     1     -10.291  14.996  65.213  1.00  0.00    -0.395 C  
BRANCH  20  21
HETATM   21  N   UNL     1     -11.692  15.035  65.623  1.00  0.00    -0.200 NA 
HETATM   22  H   UNL     1     -12.199  15.786  65.155  1.00  0.00     0.000 HD 
BRANCH  21  23
HETATM   23  C   UNL     1     -12.343  13.733  65.416  1.00  0.00    -0.475 C  
BRANCH  23  24
HETATM   24  C   UNL     1     -12.054  13.129  64.033  1.00  0.00    -0.511 C  
BRANCH  24  25
HETATM   25  C   UNL     1     -11.034  12.024  64.094  1.00  0.00    -0.418 A  
HETATM   26  C   UNL     1     -11.057  11.112  65.155  1.00  0.00    -0.079 A  
HETATM   27  C   UNL     1     -10.121  10.077  65.213  1.00  0.00    -0.299 A  
HETATM   28  C   UNL     1      -9.158   9.958  64.215  1.00  0.00    -0.297 A  
HETATM   29  C   UNL     1      -9.123  10.872  63.162  1.00  0.00    -0.277 A  
HETATM   30  C   UNL     1     -10.056  11.905  63.103  1.00  0.00    -0.341 A  
ENDBRANCH  24  25
ENDBRANCH  23  24
ENDBRANCH  21  23
ENDBRANCH  20  21
ENDBRANCH  19  20
ENDBRANCH  18  19
ENDBRANCH  17  18
ENDBRANCH  16  17
ENDBRANCH  15  16
ENDBRANCH  13  15
ENDBRANCH  12  13
ENDBRANCH  11  12
ENDBRANCH   8  11
TORSDOF 13
ENDMDL
MODEL      353
REMARK 921   NORMALIZED FREE ENERGY PREDICTED BY IDOCK:   -2.93 KCAL/MOL
REMARK 922        TOTAL FREE ENERGY PREDICTED BY IDOCK:   -7.90 KCAL/MOL
REMARK 923 INTER-LIGAND FREE ENERGY PREDICTED BY IDOCK:   -7.50 KCAL/MOL
REMARK 924 INTRA-LIGAND FREE ENERGY PREDICTED BY IDOCK:   -0.40 KCAL/MOL
REMARK 927      BINDING AFFINITY PREDICTED BY RF-SCORE:    0.00 PKD
ROOT
HETATM    1  O   UNL     1     -10.143   4.328  67.879  1.00  0.00    -0.046 OA 
HETATM    2  H   UNL     1      -9.882   4.104  66.994  1.00  0.00     0.000 HD 
HETATM    3  C   UNL     1     -10.324   5.616  68.307  1.00  0.00    -0.194 A  
HETATM    4  C   UNL     1     -10.707   5.945  69.604  1.00  0.00    -0.345 A  
HETATM    5  C   UNL     1     -10.909   7.281  69.958  1.00  0.00    -0.271 A  
HETATM    6  O   UNL     1     -10.903   5.008  70.578  1.00  0.00    -0.082 OA 
HETATM    7  H   UNL     1     -11.164   5.233  71.463  1.00  0.00     0.000 HD 
HETATM    8  C   UNL     1     -10.742   8.296  69.009  1.00  0.00    -0.098 A  
HETATM    9  C   UNL     1     -10.108   6.620  67.369  1.00  0.00    -0.211 A  
HETATM   10  C   UNL     1     -10.312   7.957  67.717  1.00  0.00    -0.289 A  
ENDROOT
BRANCH   8  11
HETATM   11  C   UNL     1     -11.004   9.738  69.368  1.00  0.00    -0.241 C  
BRANCH  11  12
HETATM   12  C   UNL     1     -11.235  10.596  68.123  1.00  0.00    -0.302 C  
BRANCH  12  13
HETATM   13  N   UNL     1     -10.392  11.796  68.158  1.00  0.00    -0.193 NA 
HETATM   14  H   UNL     1      -9.701  11.759  68.908  1.00  0.00     0.000 HD 
BRANCH  13  15
HETATM   15  C   UNL     1      -9.774  12.001  66.851  1.00  0.00    -0.203 C  
BRANCH  15  16
HETATM   16  C   UNL     1      -9.593  10.668  66.132  1.00  0.00    -0.232 C  
BRANCH  16  17
HETATM   17  C   UNL     1     -10.398  10.676  64.835  1.00  0.00    -0.347 C  
BRANCH  17  18
HETATM   18  C   UNL     1     -10.088  11.913  64.008  1.00  0.00    -0.361 C  
BRANCH  18  19
HETATM   19  C   UNL     1     -11.341  12.423  63.298  1.00  0.00    -0.399 C  
BRANCH  19  20
HETATM   20  C   UNL     1     -12.537  12.252  64.224  1.00  0.00    -0.372 C  
BRANCH  20  21
HETATM   21  N   UNL     1     -12.662  13.387  65.135  1.00  0.00    -0.675 NA 
HETATM   22  H   UNL     1     -12.212  13.201  66.031  1.00  0.00     0.000 HD 
BRANCH  21  23
HETATM   23  C   UNL     1     -12.150  14.620  64.520  1.00  0.00    -0.475 C  
BRANCH  23  24
HETATM   24  C   UNL     1     -10.725  14.972  64.972  1.00  0.00    -0.448 C  
BRANCH  24  25
HETATM   25  C   UNL     1     -10.712  15.977  66.092  1.00  0.00    -0.246 A  
HETATM   26  C   UNL     1     -10.620  17.343  65.803  1.00  0.00    -0.185 A  
HETATM   27  C   UNL     1     -10.619  18.282  66.835  1.00  0.00    -0.356 A  
HETATM   28  C   UNL     1     -10.701  17.856  68.159  1.00  0.00    -0.287 A  
HETATM   29  C   UNL     1     -10.781  16.496  68.453  1.00  0.00    -0.339 A  
HETATM   30  C   UNL     1     -10.783  15.557  67.423  1.00  0.00    -0.301 A  
ENDBRANCH  24  25
ENDBRANCH  23  24
ENDBRANCH  21  23
ENDBRANCH  20  21
ENDBRANCH  19  20
ENDBRANCH  18  19
ENDBRANCH  17  18
ENDBRANCH  16  17
ENDBRANCH  15  16
ENDBRANCH  13  15
ENDBRANCH  12  13
ENDBRANCH  11  12
ENDBRANCH   8  11
TORSDOF 13
ENDMDL
MODEL      354
REMARK 921   NORMALIZED FREE ENERGY PREDICTED BY IDOCK:   -2.92 KCAL/MOL
REMARK 922        TOTAL FREE ENERGY PREDICTED BY IDOCK:   -7.90 KCAL/MOL
REMARK 923 INTER-LIGAND FREE ENERGY PREDICTED BY IDOCK:   -6.60 KCAL/MOL
REMARK 924 INTRA-LIGAND FREE ENERGY PREDICTED BY IDOCK:   -1.29 KCAL/MOL
REMARK 927      BINDING AFFINITY PREDICTED BY RF-SCORE:    0.00 PKD
ROOT
HETATM    1  O   UNL     1      -6.102  12.907  70.929  1.00  0.00    -0.528 OA 
HETATM    2  H   UNL     1      -5.409  12.673  71.535  1.00  0.00     0.000 HD 
HETATM    3  C   UNL     1      -6.271  14.170  70.430  1.00  0.00    -0.149 A  
HETATM    4  C   UNL     1      -7.286  14.513  69.541  1.00  0.00    -0.063 A  
HETATM    5  C   UNL     1      -7.374  15.816  69.045  1.00  0.00    -0.177 A  
HETATM    6  O   UNL     1      -8.227  13.621  69.114  1.00  0.00    -0.335 OA 
HETATM    7  H   UNL     1      -8.920  13.854  68.508  1.00  0.00     0.000 HD 
HETATM    8  C   UNL     1      -6.436  16.782  69.427  1.00  0.00    -0.229 A  
HETATM    9  C   UNL     1      -5.362  15.134  70.853  1.00  0.00    -0.131 A  
HETATM   10  C   UNL     1      -5.444  16.437  70.358  1.00  0.00    -0.174 A  
ENDROOT
BRANCH   8  11
HETATM   11  C   UNL     1      -6.493  18.179  68.859  1.00  0.00    -0.230 C  
BRANCH  11  12
HETATM   12  C   UNL     1      -7.935  18.666  68.704  1.00  0.00    -0.327 C  
BRANCH  12  13
HETATM   13  N   UNL     1      -8.189  19.096  67.324  1.00  0.00    -0.272 NA 
HETATM   14  H   UNL     1      -7.356  19.491  66.885  1.00  0.00     0.000 HD 
BRANCH  13  15
HETATM   15  C   UNL     1      -8.741  17.984  66.557  1.00  0.00    -0.260 C  
BRANCH  15  16
HETATM   16  C   UNL     1     -10.262  18.084  66.491  1.00  0.00    -0.383 C  
BRANCH  16  17
HETATM   17  C   UNL     1     -10.865  17.505  67.767  1.00  0.00    -0.251 C  
BRANCH  17  18
HETATM   18  C   UNL     1     -10.789  15.987  67.767  1.00  0.00    -0.324 C  
BRANCH  18  19
HETATM   19  C   UNL     1     -11.212  15.420  66.413  1.00  0.00    -0.164 C  
BRANCH  19  20
HETATM   20  C   UNL     1     -11.852  14.055  66.628  1.00  0.00    -0.419 C  
BRANCH  20  21
HETATM   21  N   UNL     1     -11.086  13.261  67.585  1.00  0.00    -0.261 NA 
HETATM   22  H   UNL     1     -11.576  13.172  68.475  1.00  0.00     0.000 HD 
BRANCH  21  23
HETATM   23  C   UNL     1     -10.735  11.948  67.026  1.00  0.00    -0.240 C  
BRANCH  23  24
HETATM   24  C   UNL     1      -9.294  11.884  66.498  1.00  0.00    -0.222 C  
BRANCH  24  25
HETATM   25  C   UNL     1      -9.192  11.120  65.205  1.00  0.00    -0.218 A  
HETATM   26  C   UNL     1      -9.912  11.548  64.084  1.00  0.00    -0.327 A  
HETATM   27  C   UNL     1      -9.815  10.851  62.878  1.00  0.00    -0.313 A  
HETATM   28  C   UNL     1      -9.004   9.722  62.794  1.00  0.00    -0.274 A  
HETATM   29  C   UNL     1      -8.294   9.285  63.911  1.00  0.00    -0.179 A  
HETATM   30  C   UNL     1      -8.390   9.979  65.116  1.00  0.00    -0.156 A  
ENDBRANCH  24  25
ENDBRANCH  23  24
ENDBRANCH  21  23
ENDBRANCH  20  21
ENDBRANCH  19  20
ENDBRANCH  18  19
ENDBRANCH  17  18
ENDBRANCH  16  17
ENDBRANCH  15  16
ENDBRANCH  13  15
ENDBRANCH  12  13
ENDBRANCH  11  12
ENDBRANCH   8  11
TORSDOF 13
ENDMDL
MODEL      355
REMARK 921   NORMALIZED FREE ENERGY PREDICTED BY IDOCK:   -2.89 KCAL/MOL
REMARK 922        TOTAL FREE ENERGY PREDICTED BY IDOCK:   -7.84 KCAL/MOL
REMARK 923 INTER-LIGAND FREE ENERGY PREDICTED BY IDOCK:   -6.74 KCAL/MOL
REMARK 924 INTRA-LIGAND FREE ENERGY PREDICTED BY IDOCK:   -1.09 KCAL/MOL
REMARK 927      BINDING AFFINITY PREDICTED BY RF-SCORE:    0.00 PKD
ROOT
HETATM    1  O   UNL     1      -6.600   3.201  71.356  1.00  0.00    -0.022 OA 
HETATM    2  H   UNL     1      -6.093   3.487  72.106  1.00  0.00     0.000 HD 
HETATM    3  C   UNL     1      -7.730   3.841  70.922  1.00  0.00    -0.047 A  
HETATM    4  C   UNL     1      -8.472   3.423  69.822  1.00  0.00    -0.053 A  
HETATM    5  C   UNL     1      -9.594   4.150  69.415  1.00  0.00    -0.265 A  
HETATM    6  O   UNL     1      -8.156   2.311  69.096  1.00  0.00    -0.045 OA 
HETATM    7  H   UNL     1      -8.663   2.025  68.345  1.00  0.00     0.000 HD 
HETATM    8  C   UNL     1      -9.971   5.309  70.102  1.00  0.00    -0.313 A  
HETATM    9  C   UNL     1      -8.123   4.965  71.641  1.00  0.00    -0.112 A  
HETATM   10  C   UNL     1      -9.242   5.697  71.236  1.00  0.00    -0.164 A  
ENDROOT
BRANCH   8  11
HETATM   11  C   UNL     1     -11.152   6.128  69.642  1.00  0.00    -0.489 C  
BRANCH  11  12
HETATM   12  C   UNL     1     -10.944   7.619  69.912  1.00  0.00    -0.200 C  
BRANCH  12  13
HETATM   13  N   UNL     1     -12.177   8.229  70.422  1.00  0.00    -0.347 NA 
HETATM   14  H   UNL     1     -12.857   7.530  70.720  1.00  0.00     0.000 HD 
BRANCH  13  15
HETATM   15  C   UNL     1     -11.853   9.171  71.490  1.00  0.00    -0.358 C  
BRANCH  15  16
HETATM   16  C   UNL     1     -11.522  10.542  70.910  1.00  0.00    -0.304 C  
BRANCH  16  17
HETATM   17  C   UNL     1     -12.815  11.316  70.664  1.00  0.00    -0.226 C  
BRANCH  17  18
HETATM   18  C   UNL     1     -13.478  11.701  71.976  1.00  0.00    -0.304 C  
BRANCH  18  19
HETATM   19  C   UNL     1     -12.925  13.027  72.498  1.00  0.00    -0.132 C  
BRANCH  19  20
HETATM   20  C   UNL     1     -13.917  14.136  72.176  1.00  0.00    -0.531 C  
BRANCH  20  21
HETATM   21  N   UNL     1     -13.228  15.330  71.691  1.00  0.00    -0.409 NA 
HETATM   22  H   UNL     1     -12.326  15.454  72.148  1.00  0.00     0.000 HD 
BRANCH  21  23
HETATM   23  C   UNL     1     -13.095  15.308  70.227  1.00  0.00    -0.106 C  
BRANCH  23  24
HETATM   24  C   UNL     1     -11.658  15.567  69.749  1.00  0.00    -0.345 C  
BRANCH  24  25
HETATM   25  C   UNL     1     -11.325  14.802  68.497  1.00  0.00    -0.309 A  
HETATM   26  C   UNL     1     -12.028  13.631  68.188  1.00  0.00    -0.390 A  
HETATM   27  C   UNL     1     -11.733  12.921  67.023  1.00  0.00    -0.447 A  
HETATM   28  C   UNL     1     -10.731  13.376  66.169  1.00  0.00    -0.288 A  
HETATM   29  C   UNL     1     -10.020  14.535  66.478  1.00  0.00    -0.290 A  
HETATM   30  C   UNL     1     -10.314  15.245  67.641  1.00  0.00    -0.250 A  
ENDBRANCH  24  25
ENDBRANCH  23  24
ENDBRANCH  21  23
ENDBRANCH  20  21
ENDBRANCH  19  20
ENDBRANCH  18  19
ENDBRANCH  17  18
ENDBRANCH  16  17
ENDBRANCH  15  16
ENDBRANCH  13  15
ENDBRANCH  12  13
ENDBRANCH  11  12
ENDBRANCH   8  11
TORSDOF 13
ENDMDL
MODEL      356
REMARK 921   NORMALIZED FREE ENERGY PREDICTED BY IDOCK:   -2.88 KCAL/MOL
REMARK 922        TOTAL FREE ENERGY PREDICTED BY IDOCK:   -7.82 KCAL/MOL
REMARK 923 INTER-LIGAND FREE ENERGY PREDICTED BY IDOCK:   -6.30 KCAL/MOL
REMARK 924 INTRA-LIGAND FREE ENERGY PREDICTED BY IDOCK:   -1.51 KCAL/MOL
REMARK 927      BINDING AFFINITY PREDICTED BY RF-SCORE:    0.00 PKD
ROOT
HETATM    1  O   UNL     1     -11.426   7.041  67.700  1.00  0.00    -0.525 OA 
HETATM    2  H   UNL     1     -12.284   7.376  67.469  1.00  0.00     0.000 HD 
HETATM    3  C   UNL     1     -10.261   7.713  67.445  1.00  0.00    -0.251 A  
HETATM    4  C   UNL     1      -9.004   7.223  67.784  1.00  0.00    -0.126 A  
HETATM    5  C   UNL     1      -7.861   7.983  67.525  1.00  0.00    -0.118 A  
HETATM    6  O   UNL     1      -8.819   6.005  68.374  1.00  0.00    -0.113 OA 
HETATM    7  H   UNL     1      -7.961   5.670  68.605  1.00  0.00     0.000 HD 
HETATM    8  C   UNL     1      -7.972   9.247  66.936  1.00  0.00    -0.105 A  
HETATM    9  C   UNL     1     -10.380   8.948  66.815  1.00  0.00    -0.317 A  
HETATM   10  C   UNL     1      -9.241   9.713  66.558  1.00  0.00    -0.197 A  
ENDROOT
BRANCH   8  11
HETATM   11  C   UNL     1      -6.748  10.097  66.697  1.00  0.00    -0.079 C  
BRANCH  11  12
HETATM   12  C   UNL     1      -6.092  10.524  68.011  1.00  0.00    -0.047 C  
BRANCH  12  13
HETATM   13  N   UNL     1      -6.762  11.708  68.562  1.00  0.00    -0.064 NA 
HETATM   14  H   UNL     1      -6.204  12.163  69.285  1.00  0.00     0.000 HD 
BRANCH  13  15
HETATM   15  C   UNL     1      -7.111  12.623  67.479  1.00  0.00    -0.152 C  
BRANCH  15  16
HETATM   16  C   UNL     1      -7.867  13.831  68.023  1.00  0.00    -0.152 C  
BRANCH  16  17
HETATM   17  C   UNL     1      -7.677  15.016  67.081  1.00  0.00    -0.202 C  
BRANCH  17  18
HETATM   18  C   UNL     1      -8.098  16.315  67.746  1.00  0.00    -0.160 C  
BRANCH  18  19
HETATM   19  C   UNL     1      -9.570  16.619  67.468  1.00  0.00    -0.242 C  
BRANCH  19  20
HETATM   20  C   UNL     1     -10.199  17.203  68.725  1.00  0.00    -0.332 C  
BRANCH  20  21
HETATM   21  N   UNL     1     -11.509  16.609  68.981  1.00  0.00    -0.190 NA 
HETATM   22  H   UNL     1     -12.047  16.503  68.121  1.00  0.00     0.000 HD 
BRANCH  21  23
HETATM   23  C   UNL     1     -11.383  15.334  69.701  1.00  0.00    -0.290 C  
BRANCH  23  24
HETATM   24  C   UNL     1     -11.597  14.109  68.799  1.00  0.00    -0.362 C  
BRANCH  24  25
HETATM   25  C   UNL     1     -12.023  12.894  69.578  1.00  0.00    -0.346 A  
HETATM   26  C   UNL     1     -12.604  13.044  70.842  1.00  0.00    -0.364 A  
HETATM   27  C   UNL     1     -13.012  11.923  71.567  1.00  0.00    -0.427 A  
HETATM   28  C   UNL     1     -12.833  10.650  71.031  1.00  0.00    -0.496 A  
HETATM   29  C   UNL     1     -12.244  10.494  69.777  1.00  0.00    -0.252 A  
HETATM   30  C   UNL     1     -11.837  11.613  69.052  1.00  0.00    -0.391 A  
ENDBRANCH  24  25
ENDBRANCH  23  24
ENDBRANCH  21  23
ENDBRANCH  20  21
ENDBRANCH  19  20
ENDBRANCH  18  19
ENDBRANCH  17  18
ENDBRANCH  16  17
ENDBRANCH  15  16
ENDBRANCH  13  15
ENDBRANCH  12  13
ENDBRANCH  11  12
ENDBRANCH   8  11
TORSDOF 13
ENDMDL
MODEL      357
REMARK 921   NORMALIZED FREE ENERGY PREDICTED BY IDOCK:   -2.87 KCAL/MOL
REMARK 922        TOTAL FREE ENERGY PREDICTED BY IDOCK:   -7.80 KCAL/MOL
REMARK 923 INTER-LIGAND FREE ENERGY PREDICTED BY IDOCK:   -7.08 KCAL/MOL
REMARK 924 INTRA-LIGAND FREE ENERGY PREDICTED BY IDOCK:   -0.73 KCAL/MOL
REMARK 927      BINDING AFFINITY PREDICTED BY RF-SCORE:    0.00 PKD
ROOT
HETATM    1  O   UNL     1     -11.465   4.512  64.949  1.00  0.00    -1.056 OA 
HETATM    2  H   UNL     1     -12.150   5.151  64.790  1.00  0.00     0.000 HD 
HETATM    3  C   UNL     1     -10.536   4.636  65.946  1.00  0.00    -0.268 A  
HETATM    4  C   UNL     1      -9.532   3.701  66.179  1.00  0.00    -0.162 A  
HETATM    5  C   UNL     1      -8.642   3.876  67.240  1.00  0.00    -0.108 A  
HETATM    6  O   UNL     1      -9.365   2.588  65.405  1.00  0.00    -0.264 OA 
HETATM    7  H   UNL     1      -8.680   1.949  65.563  1.00  0.00     0.000 HD 
HETATM    8  C   UNL     1      -8.760   4.985  68.086  1.00  0.00    -0.106 A  
HETATM    9  C   UNL     1     -10.633   5.767  66.751  1.00  0.00    -0.373 A  
HETATM   10  C   UNL     1      -9.747   5.945  67.816  1.00  0.00    -0.124 A  
ENDROOT
BRANCH   8  11
HETATM   11  C   UNL     1      -7.834   5.158  69.264  1.00  0.00    -0.080 C  
BRANCH  11  12
HETATM   12  C   UNL     1      -8.230   6.363  70.119  1.00  0.00    -0.129 C  
BRANCH  12  13
HETATM   13  N   UNL     1      -8.872   5.925  71.365  1.00  0.00    -0.136 NA 
HETATM   14  H   UNL     1      -8.211   5.478  72.000  1.00  0.00     0.000 HD 
BRANCH  13  15
HETATM   15  C   UNL     1      -9.556   7.055  71.987  1.00  0.00    -0.138 C  
BRANCH  15  16
HETATM   16  C   UNL     1     -10.868   7.347  71.266  1.00  0.00    -0.258 C  
BRANCH  16  17
HETATM   17  C   UNL     1     -12.003   7.414  72.284  1.00  0.00    -0.277 C  
BRANCH  17  18
HETATM   18  C   UNL     1     -12.665   8.782  72.275  1.00  0.00    -0.466 C  
BRANCH  18  19
HETATM   19  C   UNL     1     -11.893   9.756  71.386  1.00  0.00    -0.488 C  
BRANCH  19  20
HETATM   20  C   UNL     1     -12.884  10.665  70.674  1.00  0.00    -0.320 C  
BRANCH  20  21
HETATM   21  N   UNL     1     -12.700  12.058  71.075  1.00  0.00    -0.304 NA 
HETATM   22  H   UNL     1     -12.311  12.129  72.015  1.00  0.00     0.000 HD 
BRANCH  21  23
HETATM   23  C   UNL     1     -11.885  12.790  70.095  1.00  0.00    -0.251 C  
BRANCH  23  24
HETATM   24  C   UNL     1     -12.274  14.272  69.976  1.00  0.00    -0.417 C  
BRANCH  24  25
HETATM   25  C   UNL     1     -11.194  15.096  69.329  1.00  0.00    -0.287 A  
HETATM   26  C   UNL     1      -9.862  14.669  69.388  1.00  0.00    -0.008 A  
HETATM   27  C   UNL     1      -8.855  15.422  68.782  1.00  0.00    -0.196 A  
HETATM   28  C   UNL     1      -9.177  16.604  68.120  1.00  0.00    -0.220 A  
HETATM   29  C   UNL     1     -10.501  17.040  68.068  1.00  0.00    -0.353 A  
HETATM   30  C   UNL     1     -11.507  16.289  68.673  1.00  0.00    -0.288 A  
ENDBRANCH  24  25
ENDBRANCH  23  24
ENDBRANCH  21  23
ENDBRANCH  20  21
ENDBRANCH  19  20
ENDBRANCH  18  19
ENDBRANCH  17  18
ENDBRANCH  16  17
ENDBRANCH  15  16
ENDBRANCH  13  15
ENDBRANCH  12  13
ENDBRANCH  11  12
ENDBRANCH   8  11
TORSDOF 13
ENDMDL
MODEL      358
REMARK 921   NORMALIZED FREE ENERGY PREDICTED BY IDOCK:   -2.86 KCAL/MOL
REMARK 922        TOTAL FREE ENERGY PREDICTED BY IDOCK:   -7.78 KCAL/MOL
REMARK 923 INTER-LIGAND FREE ENERGY PREDICTED BY IDOCK:   -5.97 KCAL/MOL
REMARK 924 INTRA-LIGAND FREE ENERGY PREDICTED BY IDOCK:   -1.81 KCAL/MOL
REMARK 927      BINDING AFFINITY PREDICTED BY RF-SCORE:    0.00 PKD
ROOT
HETATM    1  O   UNL     1      -8.440  16.236  65.730  1.00  0.00    -0.283 OA 
HETATM    2  H   UNL     1      -8.753  16.819  65.048  1.00  0.00     0.000 HD 
HETATM    3  C   UNL     1      -9.271  15.577  66.595  1.00  0.00    -0.271 A  
HETATM    4  C   UNL     1      -8.814  14.722  67.594  1.00  0.00    -0.179 A  
HETATM    5  C   UNL     1      -9.723  14.055  68.417  1.00  0.00    -0.223 A  
HETATM    6  O   UNL     1      -7.487  14.493  67.820  1.00  0.00    -0.134 OA 
HETATM    7  H   UNL     1      -7.174  13.910  68.502  1.00  0.00     0.000 HD 
HETATM    8  C   UNL     1     -11.100  14.229  68.235  1.00  0.00    -0.276 A  
HETATM    9  C   UNL     1     -10.635  15.795  66.436  1.00  0.00    -0.307 A  
HETATM   10  C   UNL     1     -11.549  15.127  67.254  1.00  0.00    -0.231 A  
ENDROOT
BRANCH   8  11
HETATM   11  C   UNL     1     -12.092  13.475  69.086  1.00  0.00    -0.331 C  
BRANCH  11  12
HETATM   12  C   UNL     1     -11.832  11.968  69.054  1.00  0.00    -0.315 C  
BRANCH  12  13
HETATM   13  N   UNL     1     -11.570  11.460  70.406  1.00  0.00    -0.490 NA 
HETATM   14  H   UNL     1     -12.265  11.785  71.079  1.00  0.00     0.000 HD 
BRANCH  13  15
HETATM   15  C   UNL     1     -11.475  10.003  70.373  1.00  0.00    -0.314 C  
BRANCH  15  16
HETATM   16  C   UNL     1     -10.414   9.560  69.372  1.00  0.00    -0.231 C  
BRANCH  16  17
HETATM   17  C   UNL     1      -9.148  10.389  69.573  1.00  0.00    -0.129 C  
BRANCH  17  18
HETATM   18  C   UNL     1      -8.016   9.879  68.697  1.00  0.00    -0.087 C  
BRANCH  18  19
HETATM   19  C   UNL     1      -6.981  10.976  68.449  1.00  0.00    -0.071 C  
BRANCH  19  20
HETATM   20  C   UNL     1      -6.700  11.059  66.955  1.00  0.00    -0.120 C  
BRANCH  20  21
HETATM   21  N   UNL     1      -7.855  11.586  66.232  1.00  0.00    -0.370 NA 
HETATM   22  H   UNL     1      -7.698  12.544  65.920  1.00  0.00     0.000 HD 
BRANCH  21  23
HETATM   23  C   UNL     1      -8.229  10.707  65.115  1.00  0.00    -0.092 C  
BRANCH  23  24
HETATM   24  C   UNL     1      -9.575   9.999  65.329  1.00  0.00    -0.355 C  
BRANCH  24  25
HETATM   25  C   UNL     1      -9.407   8.601  65.861  1.00  0.00    -0.262 A  
HETATM   26  C   UNL     1     -10.439   8.007  66.598  1.00  0.00    -0.199 A  
HETATM   27  C   UNL     1     -10.296   6.707  67.085  1.00  0.00    -0.319 A  
HETATM   28  C   UNL     1      -9.119   6.002  66.843  1.00  0.00    -0.126 A  
HETATM   29  C   UNL     1      -8.084   6.593  66.120  1.00  0.00    -0.118 A  
HETATM   30  C   UNL     1      -8.225   7.891  65.633  1.00  0.00    -0.137 A  
ENDBRANCH  24  25
ENDBRANCH  23  24
ENDBRANCH  21  23
ENDBRANCH  20  21
ENDBRANCH  19  20
ENDBRANCH  18  19
ENDBRANCH  17  18
ENDBRANCH  16  17
ENDBRANCH  15  16
ENDBRANCH  13  15
ENDBRANCH  12  13
ENDBRANCH  11  12
ENDBRANCH   8  11
TORSDOF 13
ENDMDL
MODEL      359
REMARK 921   NORMALIZED FREE ENERGY PREDICTED BY IDOCK:   -2.84 KCAL/MOL
REMARK 922        TOTAL FREE ENERGY PREDICTED BY IDOCK:   -7.76 KCAL/MOL
REMARK 923 INTER-LIGAND FREE ENERGY PREDICTED BY IDOCK:   -6.21 KCAL/MOL
REMARK 924 INTRA-LIGAND FREE ENERGY PREDICTED BY IDOCK:   -1.55 KCAL/MOL
REMARK 927      BINDING AFFINITY PREDICTED BY RF-SCORE:    0.00 PKD
ROOT
HETATM    1  O   UNL     1      -9.337   2.210  69.964  1.00  0.00    -0.114 OA 
HETATM    2  H   UNL     1      -9.700   1.773  70.725  1.00  0.00     0.000 HD 
HETATM    3  C   UNL     1      -9.393   3.564  69.775  1.00  0.00    -0.174 A  
HETATM    4  C   UNL     1      -8.861   4.205  68.659  1.00  0.00    -0.104 A  
HETATM    5  C   UNL     1      -8.923   5.596  68.553  1.00  0.00    -0.115 A  
HETATM    6  O   UNL     1      -8.264   3.529  67.633  1.00  0.00    -0.084 OA 
HETATM    7  H   UNL     1      -7.902   3.966  66.872  1.00  0.00     0.000 HD 
HETATM    8  C   UNL     1      -9.507   6.357  69.572  1.00  0.00    -0.151 A  
HETATM    9  C   UNL     1     -10.018   4.307  70.771  1.00  0.00    -0.224 A  
HETATM   10  C   UNL     1     -10.079   5.698  70.671  1.00  0.00    -0.274 A  
ENDROOT
BRANCH   8  11
HETATM   11  C   UNL     1      -9.536   7.863  69.490  1.00  0.00    -0.160 C  
BRANCH  11  12
HETATM   12  C   UNL     1     -10.024   8.344  68.122  1.00  0.00    -0.191 C  
BRANCH  12  13
HETATM   13  N   UNL     1      -9.074   9.298  67.540  1.00  0.00    -0.121 NA 
HETATM   14  H   UNL     1      -8.787   9.029  66.598  1.00  0.00     0.000 HD 
BRANCH  13  15
HETATM   15  C   UNL     1      -9.642  10.643  67.578  1.00  0.00    -0.161 C  
BRANCH  15  16
HETATM   16  C   UNL     1     -11.165  10.577  67.617  1.00  0.00    -0.338 C  
BRANCH  16  17
HETATM   17  C   UNL     1     -11.697  11.666  68.546  1.00  0.00    -0.378 C  
BRANCH  17  18
HETATM   18  C   UNL     1     -12.620  11.080  69.600  1.00  0.00    -0.084 C  
BRANCH  18  19
HETATM   19  C   UNL     1     -12.215  11.543  70.999  1.00  0.00    -0.368 C  
BRANCH  19  20
HETATM   20  C   UNL     1     -13.468  11.701  71.849  1.00  0.00    -0.166 C  
BRANCH  20  21
HETATM   21  N   UNL     1     -13.385  12.892  72.690  1.00  0.00    -0.498 NA 
HETATM   22  H   UNL     1     -12.417  13.149  72.882  1.00  0.00     0.000 HD 
BRANCH  21  23
HETATM   23  C   UNL     1     -14.134  14.012  72.102  1.00  0.00    -0.547 C  
BRANCH  23  24
HETATM   24  C   UNL     1     -13.300  15.296  71.979  1.00  0.00    -0.522 C  
BRANCH  24  25
HETATM   25  C   UNL     1     -12.321  15.236  70.838  1.00  0.00    -0.433 A  
HETATM   26  C   UNL     1     -10.957  15.443  71.077  1.00  0.00    -0.309 A  
HETATM   27  C   UNL     1     -10.041  15.378  70.026  1.00  0.00    -0.224 A  
HETATM   28  C   UNL     1     -10.488  15.114  68.734  1.00  0.00    -0.234 A  
HETATM   29  C   UNL     1     -11.847  14.919  68.488  1.00  0.00    -0.325 A  
HETATM   30  C   UNL     1     -12.762  14.983  69.537  1.00  0.00     0.088 A  
ENDBRANCH  24  25
ENDBRANCH  23  24
ENDBRANCH  21  23
ENDBRANCH  20  21
ENDBRANCH  19  20
ENDBRANCH  18  19
ENDBRANCH  17  18
ENDBRANCH  16  17
ENDBRANCH  15  16
ENDBRANCH  13  15
ENDBRANCH  12  13
ENDBRANCH  11  12
ENDBRANCH   8  11
TORSDOF 13
ENDMDL
MODEL      360
REMARK 921   NORMALIZED FREE ENERGY PREDICTED BY IDOCK:   -2.84 KCAL/MOL
REMARK 922        TOTAL FREE ENERGY PREDICTED BY IDOCK:   -7.75 KCAL/MOL
REMARK 923 INTER-LIGAND FREE ENERGY PREDICTED BY IDOCK:   -6.83 KCAL/MOL
REMARK 924 INTRA-LIGAND FREE ENERGY PREDICTED BY IDOCK:   -0.92 KCAL/MOL
REMARK 927      BINDING AFFINITY PREDICTED BY RF-SCORE:    0.00 PKD
ROOT
HETATM    1  O   UNL     1      -8.953   1.580  71.820  1.00  0.00    -0.061 OA 
HETATM    2  H   UNL     1      -8.923   1.160  72.671  1.00  0.00     0.000 HD 
HETATM    3  C   UNL     1      -9.464   2.833  71.617  1.00  0.00    -0.141 A  
HETATM    4  C   UNL     1      -9.507   3.450  70.370  1.00  0.00    -0.175 A  
HETATM    5  C   UNL     1     -10.009   4.747  70.245  1.00  0.00    -0.320 A  
HETATM    6  O   UNL     1      -9.073   2.840  69.228  1.00  0.00    -0.104 OA 
HETATM    7  H   UNL     1      -9.103   3.260  68.377  1.00  0.00     0.000 HD 
HETATM    8  C   UNL     1     -10.459   5.441  71.374  1.00  0.00    -0.294 A  
HETATM    9  C   UNL     1      -9.952   3.496  72.738  1.00  0.00    -0.218 A  
HETATM   10  C   UNL     1     -10.452   4.794  72.620  1.00  0.00    -0.260 A  
ENDROOT
BRANCH   8  11
HETATM   11  C   UNL     1     -10.958   6.861  71.259  1.00  0.00    -0.275 C  
BRANCH  11  12
HETATM   12  C   UNL     1     -10.612   7.471  69.900  1.00  0.00    -0.237 C  
BRANCH  12  13
HETATM   13  N   UNL     1      -9.391   8.281  69.993  1.00  0.00    -0.161 NA 
HETATM   14  H   UNL     1      -8.663   7.953  69.358  1.00  0.00     0.000 HD 
BRANCH  13  15
HETATM   15  C   UNL     1      -9.718   9.688  69.777  1.00  0.00    -0.224 C  
BRANCH  15  16
HETATM   16  C   UNL     1     -10.742   9.832  68.657  1.00  0.00    -0.247 C  
BRANCH  16  17
HETATM   17  C   UNL     1     -11.735  10.935  69.014  1.00  0.00    -0.391 C  
BRANCH  17  18
HETATM   18  C   UNL     1     -12.651  10.500  70.146  1.00  0.00    -0.246 C  
BRANCH  18  19
HETATM   19  C   UNL     1     -12.432  11.363  71.387  1.00  0.00    -0.370 C  
BRANCH  19  20
HETATM   20  C   UNL     1     -12.985  12.757  71.123  1.00  0.00    -0.157 C  
BRANCH  20  21
HETATM   21  N   UNL     1     -11.905  13.728  70.966  1.00  0.00    -0.477 NA 
HETATM   22  H   UNL     1     -11.034  13.278  70.685  1.00  0.00     0.000 HD 
BRANCH  21  23
HETATM   23  C   UNL     1     -12.286  14.799  70.033  1.00  0.00    -0.316 C  
BRANCH  23  24
HETATM   24  C   UNL     1     -12.153  14.389  68.559  1.00  0.00    -0.278 C  
BRANCH  24  25
HETATM   25  C   UNL     1     -11.173  15.253  67.811  1.00  0.00    -0.327 A  
HETATM   26  C   UNL     1     -10.462  16.249  68.491  1.00  0.00    -0.278 A  
HETATM   27  C   UNL     1      -9.543  17.048  67.808  1.00  0.00    -0.244 A  
HETATM   28  C   UNL     1      -9.340  16.857  66.444  1.00  0.00    -0.303 A  
HETATM   29  C   UNL     1     -10.055  15.875  65.759  1.00  0.00    -0.389 A  
HETATM   30  C   UNL     1     -10.972  15.077  66.440  1.00  0.00    -0.336 A  
ENDBRANCH  24  25
ENDBRANCH  23  24
ENDBRANCH  21  23
ENDBRANCH  20  21
ENDBRANCH  19  20
ENDBRANCH  18  19
ENDBRANCH  17  18
ENDBRANCH  16  17
ENDBRANCH  15  16
ENDBRANCH  13  15
ENDBRANCH  12  13
ENDBRANCH  11  12
ENDBRANCH   8  11
TORSDOF 13
ENDMDL
MODEL      361
REMARK 921   NORMALIZED FREE ENERGY PREDICTED BY IDOCK:   -2.82 KCAL/MOL
REMARK 922        TOTAL FREE ENERGY PREDICTED BY IDOCK:   -7.72 KCAL/MOL
REMARK 923 INTER-LIGAND FREE ENERGY PREDICTED BY IDOCK:   -6.52 KCAL/MOL
REMARK 924 INTRA-LIGAND FREE ENERGY PREDICTED BY IDOCK:   -1.20 KCAL/MOL
REMARK 927      BINDING AFFINITY PREDICTED BY RF-SCORE:    0.00 PKD
ROOT
HETATM    1  O   UNL     1      -6.093  12.902  70.924  1.00  0.00    -0.528 OA 
HETATM    2  H   UNL     1      -5.410  12.660  71.539  1.00  0.00     0.000 HD 
HETATM    3  C   UNL     1      -6.226  14.161  70.404  1.00  0.00    -0.149 A  
HETATM    4  C   UNL     1      -7.226  14.516  69.503  1.00  0.00    -0.095 A  
HETATM    5  C   UNL     1      -7.276  15.812  68.985  1.00  0.00    -0.168 A  
HETATM    6  O   UNL     1      -8.187  13.641  69.083  1.00  0.00    -0.335 OA 
HETATM    7  H   UNL     1      -8.869  13.883  68.468  1.00  0.00     0.000 HD 
HETATM    8  C   UNL     1      -6.316  16.759  69.358  1.00  0.00    -0.222 A  
HETATM    9  C   UNL     1      -5.295  15.108  70.818  1.00  0.00    -0.137 A  
HETATM   10  C   UNL     1      -5.339  16.404  70.301  1.00  0.00    -0.189 A  
ENDROOT
BRANCH   8  11
HETATM   11  C   UNL     1      -6.333  18.148  68.768  1.00  0.00    -0.216 C  
BRANCH  11  12
HETATM   12  C   UNL     1      -7.760  18.672  68.601  1.00  0.00    -0.317 C  
BRANCH  12  13
HETATM   13  N   UNL     1      -7.998  19.092  67.215  1.00  0.00    -0.252 NA 
HETATM   14  H   UNL     1      -7.156  19.466  66.777  1.00  0.00     0.000 HD 
BRANCH  13  15
HETATM   15  C   UNL     1      -8.566  17.980  66.457  1.00  0.00    -0.258 C  
BRANCH  15  16
HETATM   16  C   UNL     1     -10.087  18.078  66.425  1.00  0.00    -0.384 C  
BRANCH  16  17
HETATM   17  C   UNL     1     -10.660  17.506  67.719  1.00  0.00    -0.375 C  
BRANCH  17  18
HETATM   18  C   UNL     1     -10.572  15.990  67.732  1.00  0.00    -0.309 C  
BRANCH  18  19
HETATM   19  C   UNL     1     -11.051  15.404  66.405  1.00  0.00    -0.230 C  
BRANCH  19  20
HETATM   20  C   UNL     1     -11.642  14.024  66.659  1.00  0.00    -0.382 C  
BRANCH  20  21
HETATM   21  N   UNL     1     -10.787  13.243  67.548  1.00  0.00    -0.259 NA 
HETATM   22  H   UNL     1     -11.192  13.158  68.480  1.00  0.00     0.000 HD 
BRANCH  21  23
HETATM   23  C   UNL     1     -10.481  11.926  66.970  1.00  0.00    -0.224 C  
BRANCH  23  24
HETATM   24  C   UNL     1     -11.088  10.762  67.769  1.00  0.00    -0.381 C  
BRANCH  24  25
HETATM   25  C   UNL     1     -10.157   9.582  67.856  1.00  0.00    -0.234 A  
HETATM   26  C   UNL     1      -8.892   9.734  68.434  1.00  0.00    -0.120 A  
HETATM   27  C   UNL     1      -8.027   8.642  68.529  1.00  0.00    -0.116 A  
HETATM   28  C   UNL     1      -8.423   7.400  68.039  1.00  0.00    -0.123 A  
HETATM   29  C   UNL     1      -9.678   7.247  67.451  1.00  0.00    -0.191 A  
HETATM   30  C   UNL     1     -10.543   8.336  67.356  1.00  0.00    -0.324 A  
ENDBRANCH  24  25
ENDBRANCH  23  24
ENDBRANCH  21  23
ENDBRANCH  20  21
ENDBRANCH  19  20
ENDBRANCH  18  19
ENDBRANCH  17  18
ENDBRANCH  16  17
ENDBRANCH  15  16
ENDBRANCH  13  15
ENDBRANCH  12  13
ENDBRANCH  11  12
ENDBRANCH   8  11
TORSDOF 13
ENDMDL
MODEL      362
REMARK 921   NORMALIZED FREE ENERGY PREDICTED BY IDOCK:   -2.81 KCAL/MOL
REMARK 922        TOTAL FREE ENERGY PREDICTED BY IDOCK:   -7.69 KCAL/MOL
REMARK 923 INTER-LIGAND FREE ENERGY PREDICTED BY IDOCK:   -7.03 KCAL/MOL
REMARK 924 INTRA-LIGAND FREE ENERGY PREDICTED BY IDOCK:   -0.66 KCAL/MOL
REMARK 927      BINDING AFFINITY PREDICTED BY RF-SCORE:    0.00 PKD
ROOT
HETATM    1  O   UNL     1      -7.188   3.615  63.861  1.00  0.00    -0.049 OA 
HETATM    2  H   UNL     1      -6.308   3.850  63.591  1.00  0.00     0.000 HD 
HETATM    3  C   UNL     1      -7.987   4.431  64.615  1.00  0.00    -0.090 A  
HETATM    4  C   UNL     1      -9.276   4.087  65.010  1.00  0.00    -0.151 A  
HETATM    5  C   UNL     1     -10.048   4.988  65.748  1.00  0.00    -0.150 A  
HETATM    6  O   UNL     1      -9.847   2.885  64.707  1.00  0.00    -0.306 OA 
HETATM    7  H   UNL     1     -10.727   2.650  64.977  1.00  0.00     0.000 HD 
HETATM    8  C   UNL     1      -9.536   6.246  66.084  1.00  0.00    -0.092 A  
HETATM    9  C   UNL     1      -7.450   5.660  64.984  1.00  0.00    -0.078 A  
HETATM   10  C   UNL     1      -8.218   6.565  65.719  1.00  0.00    -0.135 A  
ENDROOT
BRANCH   8  11
HETATM   11  C   UNL     1     -10.377   7.245  66.840  1.00  0.00    -0.358 C  
BRANCH  11  12
HETATM   12  C   UNL     1     -10.043   7.250  68.332  1.00  0.00    -0.171 C  
BRANCH  12  13
HETATM   13  N   UNL     1     -11.128   6.636  69.107  1.00  0.00    -0.448 NA 
HETATM   14  H   UNL     1     -11.780   6.122  68.514  1.00  0.00     0.000 HD 
BRANCH  13  15
HETATM   15  C   UNL     1     -10.564   5.796  70.161  1.00  0.00    -0.307 C  
BRANCH  15  16
HETATM   16  C   UNL     1     -11.350   5.967  71.456  1.00  0.00    -0.256 C  
BRANCH  16  17
HETATM   17  C   UNL     1     -12.298   7.156  71.323  1.00  0.00    -0.418 C  
BRANCH  17  18
HETATM   18  C   UNL     1     -11.744   8.378  72.035  1.00  0.00    -0.417 C  
BRANCH  18  19
HETATM   19  C   UNL     1     -12.867   9.333  72.435  1.00  0.00    -0.418 C  
BRANCH  19  20
HETATM   20  C   UNL     1     -12.718  10.628  71.648  1.00  0.00    -0.426 C  
BRANCH  20  21
HETATM   21  N   UNL     1     -13.305  11.753  72.372  1.00  0.00    -0.507 NA 
HETATM   22  H   UNL     1     -12.759  11.992  73.199  1.00  0.00     0.000 HD 
BRANCH  21  23
HETATM   23  C   UNL     1     -13.488  12.915  71.490  1.00  0.00    -0.053 C  
BRANCH  23  24
HETATM   24  C   UNL     1     -12.412  13.994  71.685  1.00  0.00    -0.371 C  
BRANCH  24  25
HETATM   25  C   UNL     1     -11.736  14.367  70.394  1.00  0.00    -0.346 A  
HETATM   26  C   UNL     1     -11.258  15.670  70.208  1.00  0.00    -0.357 A  
HETATM   27  C   UNL     1     -10.620  16.022  69.018  1.00  0.00    -0.257 A  
HETATM   28  C   UNL     1     -10.466  15.074  68.009  1.00  0.00    -0.242 A  
HETATM   29  C   UNL     1     -10.951  13.779  68.183  1.00  0.00    -0.265 A  
HETATM   30  C   UNL     1     -11.588  13.426  69.372  1.00  0.00    -0.365 A  
ENDBRANCH  24  25
ENDBRANCH  23  24
ENDBRANCH  21  23
ENDBRANCH  20  21
ENDBRANCH  19  20
ENDBRANCH  18  19
ENDBRANCH  17  18
ENDBRANCH  16  17
ENDBRANCH  15  16
ENDBRANCH  13  15
ENDBRANCH  12  13
ENDBRANCH  11  12
ENDBRANCH   8  11
TORSDOF 13
ENDMDL
MODEL      363
REMARK 921   NORMALIZED FREE ENERGY PREDICTED BY IDOCK:   -2.81 KCAL/MOL
REMARK 922        TOTAL FREE ENERGY PREDICTED BY IDOCK:   -7.69 KCAL/MOL
REMARK 923 INTER-LIGAND FREE ENERGY PREDICTED BY IDOCK:   -5.88 KCAL/MOL
REMARK 924 INTRA-LIGAND FREE ENERGY PREDICTED BY IDOCK:   -1.81 KCAL/MOL
REMARK 927      BINDING AFFINITY PREDICTED BY RF-SCORE:    0.00 PKD
ROOT
HETATM    1  O   UNL     1      -9.021   2.012  69.070  1.00  0.00    -0.083 OA 
HETATM    2  H   UNL     1      -9.362   1.502  69.795  1.00  0.00     0.000 HD 
HETATM    3  C   UNL     1      -9.097   3.377  69.008  1.00  0.00    -0.143 A  
HETATM    4  C   UNL     1      -8.596   4.125  67.946  1.00  0.00    -0.096 A  
HETATM    5  C   UNL     1      -8.677   5.519  67.970  1.00  0.00    -0.106 A  
HETATM    6  O   UNL     1      -8.013   3.555  66.851  1.00  0.00    -0.080 OA 
HETATM    7  H   UNL     1      -7.672   4.065  66.126  1.00  0.00     0.000 HD 
HETATM    8  C   UNL     1      -9.248   6.175  69.067  1.00  0.00    -0.126 A  
HETATM    9  C   UNL     1      -9.709   4.016  70.081  1.00  0.00    -0.265 A  
HETATM   10  C   UNL     1      -9.789   5.410  70.111  1.00  0.00    -0.273 A  
ENDROOT
BRANCH   8  11
HETATM   11  C   UNL     1      -9.295   7.682  69.125  1.00  0.00    -0.147 C  
BRANCH  11  12
HETATM   12  C   UNL     1      -9.183   8.303  67.731  1.00  0.00    -0.134 C  
BRANCH  12  13
HETATM   13  N   UNL     1      -8.213   9.404  67.733  1.00  0.00    -0.114 NA 
HETATM   14  H   UNL     1      -7.527   9.313  66.983  1.00  0.00     0.000 HD 
BRANCH  13  15
HETATM   15  C   UNL     1      -8.919  10.681  67.682  1.00  0.00    -0.139 C  
BRANCH  15  16
HETATM   16  C   UNL     1     -10.292  10.506  67.043  1.00  0.00    -0.289 C  
BRANCH  16  17
HETATM   17  C   UNL     1     -11.280  11.475  67.688  1.00  0.00    -0.343 C  
BRANCH  17  18
HETATM   18  C   UNL     1     -11.965  10.840  68.886  1.00  0.00    -0.210 C  
BRANCH  18  19
HETATM   19  C   UNL     1     -11.443  11.436  70.192  1.00  0.00    -0.302 C  
BRANCH  19  20
HETATM   20  C   UNL     1     -12.509  12.353  70.777  1.00  0.00    -0.267 C  
BRANCH  20  21
HETATM   21  N   UNL     1     -11.940  13.645  71.152  1.00  0.00    -0.424 NA 
HETATM   22  H   UNL     1     -10.922  13.609  71.191  1.00  0.00     0.000 HD 
BRANCH  21  23
HETATM   23  C   UNL     1     -12.411  14.712  70.258  1.00  0.00    -0.346 C  
BRANCH  23  24
HETATM   24  C   UNL     1     -11.276  15.611  69.743  1.00  0.00    -0.322 C  
BRANCH  24  25
HETATM   25  C   UNL     1     -10.797  15.200  68.378  1.00  0.00    -0.255 A  
HETATM   26  C   UNL     1     -11.715  15.050  67.332  1.00  0.00    -0.255 A  
HETATM   27  C   UNL     1     -11.278  14.680  66.059  1.00  0.00    -0.342 A  
HETATM   28  C   UNL     1      -9.923  14.452  65.832  1.00  0.00    -0.350 A  
HETATM   29  C   UNL     1      -9.005  14.588  66.873  1.00  0.00    -0.267 A  
HETATM   30  C   UNL     1      -9.441  14.958  68.144  1.00  0.00    -0.202 A  
ENDBRANCH  24  25
ENDBRANCH  23  24
ENDBRANCH  21  23
ENDBRANCH  20  21
ENDBRANCH  19  20
ENDBRANCH  18  19
ENDBRANCH  17  18
ENDBRANCH  16  17
ENDBRANCH  15  16
ENDBRANCH  13  15
ENDBRANCH  12  13
ENDBRANCH  11  12
ENDBRANCH   8  11
TORSDOF 13
ENDMDL
MODEL      364
REMARK 921   NORMALIZED FREE ENERGY PREDICTED BY IDOCK:   -2.80 KCAL/MOL
REMARK 922        TOTAL FREE ENERGY PREDICTED BY IDOCK:   -7.67 KCAL/MOL
REMARK 923 INTER-LIGAND FREE ENERGY PREDICTED BY IDOCK:   -4.65 KCAL/MOL
REMARK 924 INTRA-LIGAND FREE ENERGY PREDICTED BY IDOCK:   -3.02 KCAL/MOL
REMARK 927      BINDING AFFINITY PREDICTED BY RF-SCORE:    0.00 PKD
ROOT
HETATM    1  O   UNL     1      -9.324   4.450  65.600  1.00  0.00    -0.140 OA 
HETATM    2  H   UNL     1     -10.034   4.679  65.012  1.00  0.00     0.000 HD 
HETATM    3  C   UNL     1      -8.586   5.377  66.286  1.00  0.00    -0.122 A  
HETATM    4  C   UNL     1      -7.546   5.041  67.147  1.00  0.00    -0.088 A  
HETATM    5  C   UNL     1      -6.860   6.040  67.842  1.00  0.00    -0.063 A  
HETATM    6  O   UNL     1      -7.147   3.752  67.359  1.00  0.00    -0.057 OA 
HETATM    7  H   UNL     1      -6.437   3.523  67.946  1.00  0.00     0.000 HD 
HETATM    8  C   UNL     1      -7.223   7.383  67.688  1.00  0.00    -0.094 A  
HETATM    9  C   UNL     1      -8.923   6.712  66.088  1.00  0.00    -0.157 A  
HETATM   10  C   UNL     1      -8.243   7.714  66.783  1.00  0.00    -0.124 A  
ENDROOT
BRANCH   8  11
HETATM   11  C   UNL     1      -6.521   8.466  68.471  1.00  0.00    -0.055 C  
BRANCH  11  12
HETATM   12  C   UNL     1      -7.303   8.848  69.729  1.00  0.00    -0.056 C  
BRANCH  12  13
HETATM   13  N   UNL     1      -6.780   8.133  70.899  1.00  0.00    -0.037 NA 
HETATM   14  H   UNL     1      -5.765   8.203  70.971  1.00  0.00     0.000 HD 
BRANCH  13  15
HETATM   15  C   UNL     1      -7.452   8.608  72.106  1.00  0.00    -0.014 C  
BRANCH  15  16
HETATM   16  C   UNL     1      -8.960   8.664  71.890  1.00  0.00    -0.301 C  
BRANCH  16  17
HETATM   17  C   UNL     1      -9.646   7.680  72.834  1.00  0.00    -0.274 C  
BRANCH  17  18
HETATM   18  C   UNL     1     -11.149   7.896  72.851  1.00  0.00    -0.442 C  
BRANCH  18  19
HETATM   19  C   UNL     1     -11.671   8.215  71.451  1.00  0.00    -0.321 C  
BRANCH  19  20
HETATM   20  C   UNL     1     -12.284   6.955  70.855  1.00  0.00    -0.353 C  
BRANCH  20  21
HETATM   21  N   UNL     1     -11.887   6.789  69.458  1.00  0.00    -0.633 NA 
HETATM   22  H   UNL     1     -12.088   7.625  68.910  1.00  0.00     0.000 HD 
BRANCH  21  23
HETATM   23  C   UNL     1     -10.474   6.398  69.351  1.00  0.00    -0.228 C  
BRANCH  23  24
HETATM   24  C   UNL     1     -10.244   4.899  69.593  1.00  0.00    -0.265 C  
BRANCH  24  25
HETATM   25  C   UNL     1      -9.518   4.632  70.884  1.00  0.00    -0.233 A  
HETATM   26  C   UNL     1     -10.210   4.090  71.973  1.00  0.00    -0.186 A  
HETATM   27  C   UNL     1      -9.542   3.829  73.171  1.00  0.00    -0.148 A  
HETATM   28  C   UNL     1      -8.184   4.116  73.283  1.00  0.00    -0.090 A  
HETATM   29  C   UNL     1      -7.493   4.667  72.205  1.00  0.00    -0.082 A  
HETATM   30  C   UNL     1      -8.159   4.928  71.008  1.00  0.00    -0.092 A  
ENDBRANCH  24  25
ENDBRANCH  23  24
ENDBRANCH  21  23
ENDBRANCH  20  21
ENDBRANCH  19  20
ENDBRANCH  18  19
ENDBRANCH  17  18
ENDBRANCH  16  17
ENDBRANCH  15  16
ENDBRANCH  13  15
ENDBRANCH  12  13
ENDBRANCH  11  12
ENDBRANCH   8  11
TORSDOF 13
ENDMDL
MODEL      365
REMARK 921   NORMALIZED FREE ENERGY PREDICTED BY IDOCK:   -2.77 KCAL/MOL
REMARK 922        TOTAL FREE ENERGY PREDICTED BY IDOCK:   -7.63 KCAL/MOL
REMARK 923 INTER-LIGAND FREE ENERGY PREDICTED BY IDOCK:   -6.57 KCAL/MOL
REMARK 924 INTRA-LIGAND FREE ENERGY PREDICTED BY IDOCK:   -1.06 KCAL/MOL
REMARK 927      BINDING AFFINITY PREDICTED BY RF-SCORE:    0.00 PKD
ROOT
HETATM    1  O   UNL     1     -12.932   6.562  72.013  1.00  0.00    -0.494 OA 
HETATM    2  H   UNL     1     -13.614   6.372  71.379  1.00  0.00     0.000 HD 
HETATM    3  C   UNL     1     -11.663   6.937  71.665  1.00  0.00    -0.304 A  
HETATM    4  C   UNL     1     -10.665   7.216  72.593  1.00  0.00    -0.268 A  
HETATM    5  C   UNL     1      -9.402   7.631  72.163  1.00  0.00    -0.188 A  
HETATM    6  O   UNL     1     -10.856   7.105  73.940  1.00  0.00    -0.510 OA 
HETATM    7  H   UNL     1     -10.175   7.295  74.574  1.00  0.00     0.000 HD 
HETATM    8  C   UNL     1      -9.136   7.782  70.797  1.00  0.00    -0.149 A  
HETATM    9  C   UNL     1     -11.395   7.038  70.303  1.00  0.00    -0.339 A  
HETATM   10  C   UNL     1     -10.136   7.455  69.868  1.00  0.00    -0.195 A  
ENDROOT
BRANCH   8  11
HETATM   11  C   UNL     1      -7.791   8.276  70.324  1.00  0.00    -0.092 C  
BRANCH  11  12
HETATM   12  C   UNL     1      -6.667   7.315  70.717  1.00  0.00    -0.048 C  
BRANCH  12  13
HETATM   13  N   UNL     1      -5.725   7.139  69.605  1.00  0.00    -0.022 NA 
HETATM   14  H   UNL     1      -5.674   6.168  69.295  1.00  0.00     0.000 HD 
BRANCH  13  15
HETATM   15  C   UNL     1      -6.075   8.047  68.517  1.00  0.00    -0.040 C  
BRANCH  15  16
HETATM   16  C   UNL     1      -6.211   7.280  67.205  1.00  0.00    -0.053 C  
BRANCH  16  17
HETATM   17  C   UNL     1      -6.746   8.214  66.123  1.00  0.00    -0.054 C  
BRANCH  17  18
HETATM   18  C   UNL     1      -7.553   9.348  66.732  1.00  0.00    -0.097 C  
BRANCH  18  19
HETATM   19  C   UNL     1      -7.782  10.464  65.712  1.00  0.00    -0.146 C  
BRANCH  19  20
HETATM   20  C   UNL     1      -8.313   9.853  64.423  1.00  0.00    -0.168 C  
BRANCH  20  21
HETATM   21  N   UNL     1      -7.903  10.640  63.262  1.00  0.00    -0.345 NA 
HETATM   22  H   UNL     1      -7.322  10.095  62.626  1.00  0.00     0.000 HD 
BRANCH  21  23
HETATM   23  C   UNL     1      -9.067  11.215  62.573  1.00  0.00    -0.303 C  
BRANCH  23  24
HETATM   24  C   UNL     1     -10.355  11.149  63.409  1.00  0.00    -0.419 C  
BRANCH  24  25
HETATM   25  C   UNL     1     -10.773  12.501  63.922  1.00  0.00    -0.473 A  
HETATM   26  C   UNL     1     -12.001  13.047  63.528  1.00  0.00    -0.615 A  
HETATM   27  C   UNL     1     -12.401  14.295  64.007  1.00  0.00    -0.283 A  
HETATM   28  C   UNL     1     -11.572  15.002  64.875  1.00  0.00    -0.374 A  
HETATM   29  C   UNL     1     -10.343  14.468  65.261  1.00  0.00    -0.435 A  
HETATM   30  C   UNL     1      -9.942  13.222  64.783  1.00  0.00    -0.150 A  
ENDBRANCH  24  25
ENDBRANCH  23  24
ENDBRANCH  21  23
ENDBRANCH  20  21
ENDBRANCH  19  20
ENDBRANCH  18  19
ENDBRANCH  17  18
ENDBRANCH  16  17
ENDBRANCH  15  16
ENDBRANCH  13  15
ENDBRANCH  12  13
ENDBRANCH  11  12
ENDBRANCH   8  11
TORSDOF 13
ENDMDL
MODEL      366
REMARK 921   NORMALIZED FREE ENERGY PREDICTED BY IDOCK:   -2.75 KCAL/MOL
REMARK 922        TOTAL FREE ENERGY PREDICTED BY IDOCK:   -7.59 KCAL/MOL
REMARK 923 INTER-LIGAND FREE ENERGY PREDICTED BY IDOCK:   -5.35 KCAL/MOL
REMARK 924 INTRA-LIGAND FREE ENERGY PREDICTED BY IDOCK:   -2.24 KCAL/MOL
REMARK 927      BINDING AFFINITY PREDICTED BY RF-SCORE:    0.00 PKD
ROOT
HETATM    1  O   UNL     1     -11.357   4.331  64.804  1.00  0.00    -0.954 OA 
HETATM    2  H   UNL     1     -11.842   5.139  64.689  1.00  0.00     0.000 HD 
HETATM    3  C   UNL     1     -10.075   4.283  65.281  1.00  0.00    -0.218 A  
HETATM    4  C   UNL     1      -9.365   3.098  65.450  1.00  0.00    -0.127 A  
HETATM    5  C   UNL     1      -8.072   3.125  65.979  1.00  0.00    -0.089 A  
HETATM    6  O   UNL     1      -9.876   1.876  65.121  1.00  0.00    -0.332 OA 
HETATM    7  H   UNL     1      -9.391   1.067  65.236  1.00  0.00     0.000 HD 
HETATM    8  C   UNL     1      -7.487   4.340  66.354  1.00  0.00    -0.085 A  
HETATM    9  C   UNL     1      -9.486   5.500  65.606  1.00  0.00    -0.018 A  
HETATM   10  C   UNL     1      -8.195   5.532  66.138  1.00  0.00    -0.112 A  
ENDROOT
BRANCH   8  11
HETATM   11  C   UNL     1      -6.110   4.375  66.970  1.00  0.00    -0.031 C  
BRANCH  11  12
HETATM   12  C   UNL     1      -5.837   5.711  67.663  1.00  0.00    -0.013 C  
BRANCH  12  13
HETATM   13  N   UNL     1      -6.118   5.614  69.101  1.00  0.00    -0.023 NA 
HETATM   14  H   UNL     1      -5.314   5.271  69.627  1.00  0.00     0.000 HD 
BRANCH  13  15
HETATM   15  C   UNL     1      -6.590   6.904  69.596  1.00  0.00    -0.048 C  
BRANCH  15  16
HETATM   16  C   UNL     1      -7.969   6.759  70.231  1.00  0.00    -0.115 C  
BRANCH  16  17
HETATM   17  C   UNL     1      -7.872   7.042  71.728  1.00  0.00    -0.094 C  
BRANCH  17  18
HETATM   18  C   UNL     1      -8.750   8.218  72.120  1.00  0.00    -0.259 C  
BRANCH  18  19
HETATM   19  C   UNL     1      -9.420   8.832  70.892  1.00  0.00    -0.269 C  
BRANCH  19  20
HETATM   20  C   UNL     1     -10.918   8.934  71.147  1.00  0.00    -0.286 C  
BRANCH  20  21
HETATM   21  N   UNL     1     -11.674   8.226  70.117  1.00  0.00    -0.452 NA 
HETATM   22  H   UNL     1     -11.344   8.460  69.181  1.00  0.00     0.000 HD 
BRANCH  21  23
HETATM   23  C   UNL     1     -11.659   6.775  70.350  1.00  0.00    -0.367 C  
BRANCH  23  24
HETATM   24  C   UNL     1     -11.951   6.396  71.810  1.00  0.00    -0.370 C  
BRANCH  24  25
HETATM   25  C   UNL     1     -11.063   5.285  72.301  1.00  0.00    -0.219 A  
HETATM   26  C   UNL     1     -10.491   4.394  71.386  1.00  0.00     0.024 A  
HETATM   27  C   UNL     1      -9.657   3.367  71.832  1.00  0.00    -0.220 A  
HETATM   28  C   UNL     1      -9.400   3.226  73.193  1.00  0.00    -0.118 A  
HETATM   29  C   UNL     1      -9.977   4.104  74.110  1.00  0.00    -0.186 A  
HETATM   30  C   UNL     1     -10.809   5.130  73.666  1.00  0.00    -0.363 A  
ENDBRANCH  24  25
ENDBRANCH  23  24
ENDBRANCH  21  23
ENDBRANCH  20  21
ENDBRANCH  19  20
ENDBRANCH  18  19
ENDBRANCH  17  18
ENDBRANCH  16  17
ENDBRANCH  15  16
ENDBRANCH  13  15
ENDBRANCH  12  13
ENDBRANCH  11  12
ENDBRANCH   8  11
TORSDOF 13
ENDMDL
MODEL      367
REMARK 921   NORMALIZED FREE ENERGY PREDICTED BY IDOCK:   -2.74 KCAL/MOL
REMARK 922        TOTAL FREE ENERGY PREDICTED BY IDOCK:   -7.58 KCAL/MOL
REMARK 923 INTER-LIGAND FREE ENERGY PREDICTED BY IDOCK:   -6.34 KCAL/MOL
REMARK 924 INTRA-LIGAND FREE ENERGY PREDICTED BY IDOCK:   -1.24 KCAL/MOL
REMARK 927      BINDING AFFINITY PREDICTED BY RF-SCORE:    0.00 PKD
ROOT
HETATM    1  O   UNL     1     -12.732   6.809  70.706  1.00  0.00    -0.460 OA 
HETATM    2  H   UNL     1     -13.142   6.177  70.128  1.00  0.00     0.000 HD 
HETATM    3  C   UNL     1     -11.549   7.435  70.420  1.00  0.00    -0.183 A  
HETATM    4  C   UNL     1     -10.948   8.362  71.267  1.00  0.00    -0.252 A  
HETATM    5  C   UNL     1      -9.758   8.989  70.890  1.00  0.00    -0.329 A  
HETATM    6  O   UNL     1     -11.473   8.704  72.480  1.00  0.00    -0.348 OA 
HETATM    7  H   UNL     1     -11.063   9.337  73.058  1.00  0.00     0.000 HD 
HETATM    8  C   UNL     1      -9.169   8.701  69.654  1.00  0.00    -0.157 A  
HETATM    9  C   UNL     1     -10.946   7.105  69.210  1.00  0.00    -0.163 A  
HETATM   10  C   UNL     1      -9.759   7.732  68.827  1.00  0.00    -0.157 A  
ENDROOT
BRANCH   8  11
HETATM   11  C   UNL     1      -7.910   9.408  69.216  1.00  0.00    -0.085 C  
BRANCH  11  12
HETATM   12  C   UNL     1      -8.189  10.855  68.807  1.00  0.00    -0.151 C  
BRANCH  12  13
HETATM   13  N   UNL     1      -7.189  11.758  69.388  1.00  0.00    -0.335 NA 
HETATM   14  H   UNL     1      -6.538  11.268  70.001  1.00  0.00     0.000 HD 
BRANCH  13  15
HETATM   15  C   UNL     1      -6.501  12.480  68.320  1.00  0.00    -0.067 C  
BRANCH  15  16
HETATM   16  C   UNL     1      -6.701  13.983  68.478  1.00  0.00    -0.099 C  
BRANCH  16  17
HETATM   17  C   UNL     1      -8.194  14.303  68.454  1.00  0.00    -0.144 C  
BRANCH  17  18
HETATM   18  C   UNL     1      -8.516  15.472  69.368  1.00  0.00    -0.256 C  
BRANCH  18  19
HETATM   19  C   UNL     1      -8.443  16.796  68.609  1.00  0.00    -0.259 C  
BRANCH  19  20
HETATM   20  C   UNL     1      -9.009  16.595  67.210  1.00  0.00    -0.200 C  
BRANCH  20  21
HETATM   21  N   UNL     1     -10.460  16.767  67.202  1.00  0.00    -0.317 NA 
HETATM   22  H   UNL     1     -10.720  17.749  67.112  1.00  0.00     0.000 HD 
BRANCH  21  23
HETATM   23  C   UNL     1     -11.086  15.943  66.158  1.00  0.00    -0.024 C  
BRANCH  23  24
HETATM   24  C   UNL     1     -10.064  15.218  65.269  1.00  0.00    -0.362 C  
BRANCH  24  25
HETATM   25  C   UNL     1     -10.387  13.758  65.100  1.00  0.00    -0.391 A  
HETATM   26  C   UNL     1     -11.170  13.337  64.019  1.00  0.00    -0.374 A  
HETATM   27  C   UNL     1     -11.465  11.984  63.849  1.00  0.00    -0.518 A  
HETATM   28  C   UNL     1     -10.983  11.050  64.763  1.00  0.00    -0.142 A  
HETATM   29  C   UNL     1     -10.212  11.465  65.849  1.00  0.00    -0.292 A  
HETATM   30  C   UNL     1      -9.917  12.816  66.019  1.00  0.00    -0.277 A  
ENDBRANCH  24  25
ENDBRANCH  23  24
ENDBRANCH  21  23
ENDBRANCH  20  21
ENDBRANCH  19  20
ENDBRANCH  18  19
ENDBRANCH  17  18
ENDBRANCH  16  17
ENDBRANCH  15  16
ENDBRANCH  13  15
ENDBRANCH  12  13
ENDBRANCH  11  12
ENDBRANCH   8  11
TORSDOF 13
ENDMDL
MODEL      368
REMARK 921   NORMALIZED FREE ENERGY PREDICTED BY IDOCK:   -2.73 KCAL/MOL
REMARK 922        TOTAL FREE ENERGY PREDICTED BY IDOCK:   -7.55 KCAL/MOL
REMARK 923 INTER-LIGAND FREE ENERGY PREDICTED BY IDOCK:   -6.30 KCAL/MOL
REMARK 924 INTRA-LIGAND FREE ENERGY PREDICTED BY IDOCK:   -1.25 KCAL/MOL
REMARK 927      BINDING AFFINITY PREDICTED BY RF-SCORE:    0.00 PKD
ROOT
HETATM    1  O   UNL     1     -13.870   9.838  70.746  1.00  0.00    -0.479 OA 
HETATM    2  H   UNL     1     -14.808   9.705  70.673  1.00  0.00     0.000 HD 
HETATM    3  C   UNL     1     -13.015   8.902  71.261  1.00  0.00    -0.211 A  
HETATM    4  C   UNL     1     -11.641   9.096  71.367  1.00  0.00    -0.341 A  
HETATM    5  C   UNL     1     -10.825   8.080  71.869  1.00  0.00    -0.316 A  
HETATM    6  O   UNL     1     -11.028  10.258  70.994  1.00  0.00    -0.326 OA 
HETATM    7  H   UNL     1     -10.090  10.391  71.067  1.00  0.00     0.000 HD 
HETATM    8  C   UNL     1     -11.380   6.855  72.257  1.00  0.00    -0.306 A  
HETATM    9  C   UNL     1     -13.584   7.707  71.688  1.00  0.00    -0.431 A  
HETATM   10  C   UNL     1     -12.772   6.686  72.188  1.00  0.00    -0.122 A  
ENDROOT
BRANCH   8  11
HETATM   11  C   UNL     1     -10.503   5.734  72.755  1.00  0.00    -0.242 C  
BRANCH  11  12
HETATM   12  C   UNL     1      -9.136   6.247  73.211  1.00  0.00    -0.128 C  
BRANCH  12  13
HETATM   13  N   UNL     1      -9.258   6.995  74.469  1.00  0.00    -0.366 NA 
HETATM   14  H   UNL     1      -9.166   6.391  75.286  1.00  0.00     0.000 HD 
BRANCH  13  15
HETATM   15  C   UNL     1      -8.294   8.091  74.483  1.00  0.00    -0.134 C  
BRANCH  15  16
HETATM   16  C   UNL     1      -7.095   7.759  73.601  1.00  0.00    -0.124 C  
BRANCH  16  17
HETATM   17  C   UNL     1      -6.865   8.895  72.607  1.00  0.00     0.144 C  
BRANCH  17  18
HETATM   18  C   UNL     1      -7.329   8.505  71.215  1.00  0.00    -0.095 C  
BRANCH  18  19
HETATM   19  C   UNL     1      -7.336   9.715  70.282  1.00  0.00    -0.153 C  
BRANCH  19  20
HETATM   20  C   UNL     1      -8.230   9.413  69.087  1.00  0.00    -0.112 C  
BRANCH  20  21
HETATM   21  N   UNL     1      -8.915  10.618  68.626  1.00  0.00    -0.162 NA 
HETATM   22  H   UNL     1      -8.255  11.317  68.286  1.00  0.00     0.000 HD 
BRANCH  21  23
HETATM   23  C   UNL     1      -9.933  10.297  67.616  1.00  0.00    -0.179 C  
BRANCH  23  24
HETATM   24  C   UNL     1      -9.550  10.769  66.205  1.00  0.00    -0.236 C  
BRANCH  24  25
HETATM   25  C   UNL     1     -10.397  11.924  65.740  1.00  0.00    -0.285 A  
HETATM   26  C   UNL     1      -9.969  13.237  65.966  1.00  0.00    -0.297 A  
HETATM   27  C   UNL     1     -10.743  14.314  65.529  1.00  0.00    -0.339 A  
HETATM   28  C   UNL     1     -11.947  14.078  64.870  1.00  0.00    -0.416 A  
HETATM   29  C   UNL     1     -12.383  12.772  64.652  1.00  0.00    -0.524 A  
HETATM   30  C   UNL     1     -11.612  11.696  65.089  1.00  0.00    -0.122 A  
ENDBRANCH  24  25
ENDBRANCH  23  24
ENDBRANCH  21  23
ENDBRANCH  20  21
ENDBRANCH  19  20
ENDBRANCH  18  19
ENDBRANCH  17  18
ENDBRANCH  16  17
ENDBRANCH  15  16
ENDBRANCH  13  15
ENDBRANCH  12  13
ENDBRANCH  11  12
ENDBRANCH   8  11
TORSDOF 13
ENDMDL
MODEL      369
REMARK 921   NORMALIZED FREE ENERGY PREDICTED BY IDOCK:   -2.70 KCAL/MOL
REMARK 922        TOTAL FREE ENERGY PREDICTED BY IDOCK:   -7.50 KCAL/MOL
REMARK 923 INTER-LIGAND FREE ENERGY PREDICTED BY IDOCK:   -6.20 KCAL/MOL
REMARK 924 INTRA-LIGAND FREE ENERGY PREDICTED BY IDOCK:   -1.31 KCAL/MOL
REMARK 927      BINDING AFFINITY PREDICTED BY RF-SCORE:    0.00 PKD
ROOT
HETATM    1  O   UNL     1     -10.831  20.040  66.165  1.00  0.00    -0.356 OA 
HETATM    2  H   UNL     1     -11.193  20.906  66.310  1.00  0.00     0.000 HD 
HETATM    3  C   UNL     1      -9.649  19.617  66.709  1.00  0.00    -0.371 A  
HETATM    4  C   UNL     1      -9.119  18.348  66.497  1.00  0.00    -0.290 A  
HETATM    5  C   UNL     1      -7.925  17.974  67.117  1.00  0.00    -0.224 A  
HETATM    6  O   UNL     1      -9.718  17.421  65.694  1.00  0.00    -0.533 OA 
HETATM    7  H   UNL     1      -9.356  16.555  65.548  1.00  0.00     0.000 HD 
HETATM    8  C   UNL     1      -7.260  18.866  67.967  1.00  0.00    -0.266 A  
HETATM    9  C   UNL     1      -8.973  20.528  67.514  1.00  0.00    -0.379 A  
HETATM   10  C   UNL     1      -7.780  20.158  68.139  1.00  0.00    -0.223 A  
ENDROOT
BRANCH   8  11
HETATM   11  C   UNL     1      -5.996  18.455  68.680  1.00  0.00    -0.198 C  
BRANCH  11  12
HETATM   12  C   UNL     1      -6.207  18.358  70.192  1.00  0.00     0.020 C  
BRANCH  12  13
HETATM   13  N   UNL     1      -5.226  17.448  70.794  1.00  0.00    -0.263 NA 
HETATM   14  H   UNL     1      -5.429  17.257  71.775  1.00  0.00     0.000 HD 
BRANCH  13  15
HETATM   15  C   UNL     1      -5.142  16.224  70.002  1.00  0.00    -0.142 C  
BRANCH  15  16
HETATM   16  C   UNL     1      -6.269  15.267  70.376  1.00  0.00    -0.042 C  
BRANCH  16  17
HETATM   17  C   UNL     1      -6.402  14.193  69.300  1.00  0.00    -0.112 C  
BRANCH  17  18
HETATM   18  C   UNL     1      -6.660  14.813  67.938  1.00  0.00    -0.175 C  
BRANCH  18  19
HETATM   19  C   UNL     1      -7.941  14.257  67.318  1.00  0.00    -0.191 C  
BRANCH  19  20
HETATM   20  C   UNL     1      -8.288  12.940  67.999  1.00  0.00    -0.169 C  
BRANCH  20  21
HETATM   21  N   UNL     1      -9.667  12.946  68.481  1.00  0.00    -0.370 NA 
HETATM   22  H   UNL     1     -10.297  13.382  67.808  1.00  0.00     0.000 HD 
BRANCH  21  23
HETATM   23  C   UNL     1     -10.110  11.591  68.839  1.00  0.00    -0.127 C  
BRANCH  23  24
HETATM   24  C   UNL     1     -11.067  10.978  67.805  1.00  0.00    -0.356 C  
BRANCH  24  25
HETATM   25  C   UNL     1     -10.359  10.069  66.837  1.00  0.00    -0.297 A  
HETATM   26  C   UNL     1      -9.967  10.555  65.584  1.00  0.00    -0.332 A  
HETATM   27  C   UNL     1      -9.300   9.723  64.684  1.00  0.00    -0.318 A  
HETATM   28  C   UNL     1      -9.028   8.402  65.034  1.00  0.00     0.058 A  
HETATM   29  C   UNL     1      -9.427   7.910  66.276  1.00  0.00    -0.220 A  
HETATM   30  C   UNL     1     -10.093   8.740  67.175  1.00  0.00    -0.320 A  
ENDBRANCH  24  25
ENDBRANCH  23  24
ENDBRANCH  21  23
ENDBRANCH  20  21
ENDBRANCH  19  20
ENDBRANCH  18  19
ENDBRANCH  17  18
ENDBRANCH  16  17
ENDBRANCH  15  16
ENDBRANCH  13  15
ENDBRANCH  12  13
ENDBRANCH  11  12
ENDBRANCH   8  11
TORSDOF 13
ENDMDL
MODEL      370
REMARK 921   NORMALIZED FREE ENERGY PREDICTED BY IDOCK:   -2.70 KCAL/MOL
REMARK 922        TOTAL FREE ENERGY PREDICTED BY IDOCK:   -7.50 KCAL/MOL
REMARK 923 INTER-LIGAND FREE ENERGY PREDICTED BY IDOCK:   -5.27 KCAL/MOL
REMARK 924 INTRA-LIGAND FREE ENERGY PREDICTED BY IDOCK:   -2.23 KCAL/MOL
REMARK 927      BINDING AFFINITY PREDICTED BY RF-SCORE:    0.00 PKD
ROOT
HETATM    1  O   UNL     1      -7.413  12.579  69.286  1.00  0.00    -0.326 OA 
HETATM    2  H   UNL     1      -8.072  12.763  69.944  1.00  0.00     0.000 HD 
HETATM    3  C   UNL     1      -7.194  11.331  68.768  1.00  0.00    -0.104 A  
HETATM    4  C   UNL     1      -6.229  11.060  67.802  1.00  0.00    -0.051 A  
HETATM    5  C   UNL     1      -6.089   9.767  67.293  1.00  0.00    -0.055 A  
HETATM    6  O   UNL     1      -5.388  12.017  67.310  1.00  0.00    -0.096 OA 
HETATM    7  H   UNL     1      -4.729  11.832  66.651  1.00  0.00     0.000 HD 
HETATM    8  C   UNL     1      -6.925   8.738  67.739  1.00  0.00    -0.075 A  
HETATM    9  C   UNL     1      -7.999  10.305  69.254  1.00  0.00    -0.149 A  
HETATM   10  C   UNL     1      -7.865   9.012  68.745  1.00  0.00    -0.096 A  
ENDROOT
BRANCH   8  11
HETATM   11  C   UNL     1      -6.814   7.349  67.161  1.00  0.00    -0.074 C  
BRANCH  11  12
HETATM   12  C   UNL     1      -7.768   7.151  65.982  1.00  0.00    -0.099 C  
BRANCH  12  13
HETATM   13  N   UNL     1      -7.138   7.584  64.729  1.00  0.00    -0.061 NA 
HETATM   14  H   UNL     1      -6.664   6.816  64.252  1.00  0.00     0.000 HD 
BRANCH  13  15
HETATM   15  C   UNL     1      -8.132   8.231  63.877  1.00  0.00    -0.124 C  
BRANCH  15  16
HETATM   16  C   UNL     1      -9.056   9.112  64.710  1.00  0.00    -0.157 C  
BRANCH  16  17
HETATM   17  C   UNL     1      -8.614  10.569  64.590  1.00  0.00    -0.167 C  
BRANCH  17  18
HETATM   18  C   UNL     1      -9.235  11.420  65.685  1.00  0.00    -0.209 C  
BRANCH  18  19
HETATM   19  C   UNL     1     -10.634  10.918  66.039  1.00  0.00    -0.254 C  
BRANCH  19  20
HETATM   20  C   UNL     1     -10.884  11.160  67.521  1.00  0.00    -0.254 C  
BRANCH  20  21
HETATM   21  N   UNL     1     -12.141  11.876  67.730  1.00  0.00    -0.527 NA 
HETATM   22  H   UNL     1     -12.399  11.899  68.716  1.00  0.00     0.000 HD 
BRANCH  21  23
HETATM   23  C   UNL     1     -12.084  13.228  67.155  1.00  0.00    -0.298 C  
BRANCH  23  24
HETATM   24  C   UNL     1     -11.673  14.300  68.175  1.00  0.00    -0.385 C  
BRANCH  24  25
HETATM   25  C   UNL     1     -10.661  15.264  67.617  1.00  0.00    -0.282 A  
HETATM   26  C   UNL     1      -9.675  14.806  66.735  1.00  0.00    -0.264 A  
HETATM   27  C   UNL     1      -8.739  15.695  66.204  1.00  0.00    -0.241 A  
HETATM   28  C   UNL     1      -8.784  17.041  66.558  1.00  0.00    -0.297 A  
HETATM   29  C   UNL     1      -9.757  17.500  67.444  1.00  0.00    -0.274 A  
HETATM   30  C   UNL     1     -10.692  16.614  67.976  1.00  0.00    -0.350 A  
ENDBRANCH  24  25
ENDBRANCH  23  24
ENDBRANCH  21  23
ENDBRANCH  20  21
ENDBRANCH  19  20
ENDBRANCH  18  19
ENDBRANCH  17  18
ENDBRANCH  16  17
ENDBRANCH  15  16
ENDBRANCH  13  15
ENDBRANCH  12  13
ENDBRANCH  11  12
ENDBRANCH   8  11
TORSDOF 13
ENDMDL
MODEL      371
REMARK 921   NORMALIZED FREE ENERGY PREDICTED BY IDOCK:   -2.69 KCAL/MOL
REMARK 922        TOTAL FREE ENERGY PREDICTED BY IDOCK:   -7.49 KCAL/MOL
REMARK 923 INTER-LIGAND FREE ENERGY PREDICTED BY IDOCK:   -6.76 KCAL/MOL
REMARK 924 INTRA-LIGAND FREE ENERGY PREDICTED BY IDOCK:   -0.73 KCAL/MOL
REMARK 927      BINDING AFFINITY PREDICTED BY RF-SCORE:    0.00 PKD
ROOT
HETATM    1  O   UNL     1     -13.160   6.776  72.098  1.00  0.00    -0.548 OA 
HETATM    2  H   UNL     1     -13.841   6.777  71.435  1.00  0.00     0.000 HD 
HETATM    3  C   UNL     1     -11.904   7.277  71.887  1.00  0.00    -0.297 A  
HETATM    4  C   UNL     1     -10.907   7.277  72.858  1.00  0.00    -0.337 A  
HETATM    5  C   UNL     1      -9.659   7.841  72.582  1.00  0.00    -0.261 A  
HETATM    6  O   UNL     1     -11.085   6.741  74.101  1.00  0.00    -0.292 OA 
HETATM    7  H   UNL     1     -10.404   6.740  74.763  1.00  0.00     0.000 HD 
HETATM    8  C   UNL     1      -9.407   8.423  71.334  1.00  0.00    -0.247 A  
HETATM    9  C   UNL     1     -11.649   7.810  70.628  1.00  0.00    -0.233 A  
HETATM   10  C   UNL     1     -10.405   8.378  70.348  1.00  0.00    -0.219 A  
ENDROOT
BRANCH   8  11
HETATM   11  C   UNL     1      -8.080   9.078  71.043  1.00  0.00    -0.199 C  
BRANCH  11  12
HETATM   12  C   UNL     1      -7.210   8.209  70.132  1.00  0.00    -0.056 C  
BRANCH  12  13
HETATM   13  N   UNL     1      -7.447   8.540  68.722  1.00  0.00    -0.090 NA 
HETATM   14  H   UNL     1      -8.372   8.245  68.408  1.00  0.00     0.000 HD 
BRANCH  13  15
HETATM   15  C   UNL     1      -7.222   9.966  68.508  1.00  0.00    -0.076 C  
BRANCH  15  16
HETATM   16  C   UNL     1      -8.432  10.602  67.834  1.00  0.00    -0.120 C  
BRANCH  16  17
HETATM   17  C   UNL     1      -7.992  11.848  67.069  1.00  0.00    -0.158 C  
BRANCH  17  18
HETATM   18  C   UNL     1      -6.570  12.238  67.433  1.00  0.00    -0.154 C  
BRANCH  18  19
HETATM   19  C   UNL     1      -6.483  13.722  67.783  1.00  0.00    -0.178 C  
BRANCH  19  20
HETATM   20  C   UNL     1      -7.131  13.948  69.142  1.00  0.00    -0.069 C  
BRANCH  20  21
HETATM   21  N   UNL     1      -8.504  14.424  68.995  1.00  0.00    -0.338 NA 
HETATM   22  H   UNL     1      -8.964  14.527  69.900  1.00  0.00     0.000 HD 
BRANCH  21  23
HETATM   23  C   UNL     1      -8.554  15.671  68.218  1.00  0.00    -0.158 C  
BRANCH  23  24
HETATM   24  C   UNL     1      -8.221  16.915  69.055  1.00  0.00    -0.153 C  
BRANCH  24  25
HETATM   25  C   UNL     1      -8.759  18.179  68.440  1.00  0.00    -0.302 A  
HETATM   26  C   UNL     1     -10.143  18.376  68.351  1.00  0.00    -0.418 A  
HETATM   27  C   UNL     1     -10.651  19.550  67.792  1.00  0.00    -0.542 A  
HETATM   28  C   UNL     1      -9.777  20.524  67.315  1.00  0.00    -0.600 A  
HETATM   29  C   UNL     1      -8.399  20.328  67.390  1.00  0.00    -0.396 A  
HETATM   30  C   UNL     1      -7.890  19.156  67.948  1.00  0.00    -0.318 A  
ENDBRANCH  24  25
ENDBRANCH  23  24
ENDBRANCH  21  23
ENDBRANCH  20  21
ENDBRANCH  19  20
ENDBRANCH  18  19
ENDBRANCH  17  18
ENDBRANCH  16  17
ENDBRANCH  15  16
ENDBRANCH  13  15
ENDBRANCH  12  13
ENDBRANCH  11  12
ENDBRANCH   8  11
TORSDOF 13
ENDMDL
MODEL      372
REMARK 921   NORMALIZED FREE ENERGY PREDICTED BY IDOCK:   -2.69 KCAL/MOL
REMARK 922        TOTAL FREE ENERGY PREDICTED BY IDOCK:   -7.49 KCAL/MOL
REMARK 923 INTER-LIGAND FREE ENERGY PREDICTED BY IDOCK:   -6.24 KCAL/MOL
REMARK 924 INTRA-LIGAND FREE ENERGY PREDICTED BY IDOCK:   -1.25 KCAL/MOL
REMARK 927      BINDING AFFINITY PREDICTED BY RF-SCORE:    0.00 PKD
ROOT
HETATM    1  O   UNL     1      -7.136   3.409  71.839  1.00  0.00    -0.036 OA 
HETATM    2  H   UNL     1      -6.535   3.685  72.521  1.00  0.00     0.000 HD 
HETATM    3  C   UNL     1      -8.170   4.183  71.386  1.00  0.00    -0.078 A  
HETATM    4  C   UNL     1      -9.050   3.778  70.387  1.00  0.00    -0.125 A  
HETATM    5  C   UNL     1     -10.059   4.639  69.949  1.00  0.00    -0.257 A  
HETATM    6  O   UNL     1      -8.979   2.551  69.792  1.00  0.00    -0.075 OA 
HETATM    7  H   UNL     1      -9.580   2.274  69.111  1.00  0.00     0.000 HD 
HETATM    8  C   UNL     1     -10.184   5.919  70.502  1.00  0.00    -0.271 A  
HETATM    9  C   UNL     1      -8.315   5.435  71.976  1.00  0.00    -0.122 A  
HETATM   10  C   UNL     1      -9.319   6.301  71.539  1.00  0.00    -0.155 A  
ENDROOT
BRANCH   8  11
HETATM   11  C   UNL     1     -11.239   6.875  70.003  1.00  0.00    -0.347 C  
BRANCH  11  12
HETATM   12  C   UNL     1     -10.632   8.211  69.572  1.00  0.00    -0.213 C  
BRANCH  12  13
HETATM   13  N   UNL     1     -11.565   9.312  69.839  1.00  0.00    -0.445 NA 
HETATM   14  H   UNL     1     -12.192   9.105  70.617  1.00  0.00     0.000 HD 
BRANCH  13  15
HETATM   15  C   UNL     1     -10.817  10.549  70.050  1.00  0.00    -0.259 C  
BRANCH  15  16
HETATM   16  C   UNL     1     -10.633  11.292  68.731  1.00  0.00    -0.234 C  
BRANCH  16  17
HETATM   17  C   UNL     1     -11.881  12.120  68.436  1.00  0.00    -0.360 C  
BRANCH  17  18
HETATM   18  C   UNL     1     -11.607  13.604  68.609  1.00  0.00    -0.364 C  
BRANCH  18  19
HETATM   19  C   UNL     1     -11.636  14.325  67.262  1.00  0.00    -0.401 C  
BRANCH  19  20
HETATM   20  C   UNL     1     -12.518  13.541  66.301  1.00  0.00    -0.326 C  
BRANCH  20  21
HETATM   21  N   UNL     1     -11.854  13.356  65.013  1.00  0.00    -0.337 NA 
HETATM   22  H   UNL     1     -11.132  14.059  64.859  1.00  0.00     0.000 HD 
BRANCH  21  23
HETATM   23  C   UNL     1     -11.320  11.993  64.881  1.00  0.00    -0.310 C  
BRANCH  23  24
HETATM   24  C   UNL     1      -9.800  11.919  65.092  1.00  0.00    -0.243 C  
BRANCH  24  25
HETATM   25  C   UNL     1      -9.304  10.502  65.192  1.00  0.00    -0.262 A  
HETATM   26  C   UNL     1      -9.970   9.588  66.018  1.00  0.00    -0.348 A  
HETATM   27  C   UNL     1      -9.524   8.269  66.109  1.00  0.00    -0.241 A  
HETATM   28  C   UNL     1      -8.408   7.863  65.381  1.00  0.00    -0.146 A  
HETATM   29  C   UNL     1      -7.734   8.772  64.566  1.00  0.00    -0.121 A  
HETATM   30  C   UNL     1      -8.179  10.090  64.474  1.00  0.00    -0.164 A  
ENDBRANCH  24  25
ENDBRANCH  23  24
ENDBRANCH  21  23
ENDBRANCH  20  21
ENDBRANCH  19  20
ENDBRANCH  18  19
ENDBRANCH  17  18
ENDBRANCH  16  17
ENDBRANCH  15  16
ENDBRANCH  13  15
ENDBRANCH  12  13
ENDBRANCH  11  12
ENDBRANCH   8  11
TORSDOF 13
ENDMDL
MODEL      373
REMARK 921   NORMALIZED FREE ENERGY PREDICTED BY IDOCK:   -2.69 KCAL/MOL
REMARK 922        TOTAL FREE ENERGY PREDICTED BY IDOCK:   -7.48 KCAL/MOL
REMARK 923 INTER-LIGAND FREE ENERGY PREDICTED BY IDOCK:   -5.92 KCAL/MOL
REMARK 924 INTRA-LIGAND FREE ENERGY PREDICTED BY IDOCK:   -1.56 KCAL/MOL
REMARK 927      BINDING AFFINITY PREDICTED BY RF-SCORE:    0.00 PKD
ROOT
HETATM    1  O   UNL     1      -7.644  19.926  67.652  1.00  0.00    -0.272 OA 
HETATM    2  H   UNL     1      -7.933  20.695  67.176  1.00  0.00     0.000 HD 
HETATM    3  C   UNL     1      -8.453  18.851  67.907  1.00  0.00    -0.290 A  
HETATM    4  C   UNL     1      -8.031  17.723  68.605  1.00  0.00    -0.276 A  
HETATM    5  C   UNL     1      -8.902  16.649  68.795  1.00  0.00    -0.264 A  
HETATM    6  O   UNL     1      -6.775  17.605  69.127  1.00  0.00    -0.241 OA 
HETATM    7  H   UNL     1      -6.486  16.835  69.603  1.00  0.00     0.000 HD 
HETATM    8  C   UNL     1     -10.201  16.692  68.274  1.00  0.00    -0.281 A  
HETATM    9  C   UNL     1      -9.757  18.925  67.428  1.00  0.00    -0.357 A  
HETATM   10  C   UNL     1     -10.631  17.852  67.612  1.00  0.00    -0.398 A  
ENDROOT
BRANCH   8  11
HETATM   11  C   UNL     1     -11.134  15.517  68.432  1.00  0.00    -0.315 C  
BRANCH  11  12
HETATM   12  C   UNL     1     -11.329  14.771  67.111  1.00  0.00    -0.356 C  
BRANCH  12  13
HETATM   13  N   UNL     1     -10.340  13.695  66.973  1.00  0.00    -0.258 NA 
HETATM   14  H   UNL     1      -9.398  14.057  66.821  1.00  0.00     0.000 HD 
BRANCH  13  15
HETATM   15  C   UNL     1     -10.410  12.813  68.135  1.00  0.00    -0.239 C  
BRANCH  15  16
HETATM   16  C   UNL     1      -9.571  11.561  67.905  1.00  0.00    -0.178 C  
BRANCH  16  17
HETATM   17  C   UNL     1     -10.423  10.498  67.216  1.00  0.00    -0.300 C  
BRANCH  17  18
HETATM   18  C   UNL     1     -10.044   9.104  67.687  1.00  0.00    -0.273 C  
BRANCH  18  19
HETATM   19  C   UNL     1     -10.767   8.036  66.868  1.00  0.00    -0.201 C  
BRANCH  19  20
HETATM   20  C   UNL     1      -9.887   6.796  66.787  1.00  0.00    -0.178 C  
BRANCH  20  21
HETATM   21  N   UNL     1     -10.283   5.805  67.785  1.00  0.00    -0.173 NA 
HETATM   22  H   UNL     1     -10.998   5.175  67.424  1.00  0.00     0.000 HD 
BRANCH  21  23
HETATM   23  C   UNL     1      -9.117   5.067  68.291  1.00  0.00    -0.115 C  
BRANCH  23  24
HETATM   24  C   UNL     1      -8.838   5.330  69.779  1.00  0.00    -0.123 C  
BRANCH  24  25
HETATM   25  C   UNL     1      -8.388   6.744  70.036  1.00  0.00    -0.135 A  
HETATM   26  C   UNL     1      -9.057   7.527  70.984  1.00  0.00    -0.148 A  
HETATM   27  C   UNL     1      -8.640   8.835  71.236  1.00  0.00    -0.258 A  
HETATM   28  C   UNL     1      -7.558   9.363  70.536  1.00  0.00    -0.162 A  
HETATM   29  C   UNL     1      -6.896   8.592  69.582  1.00  0.00    -0.043 A  
HETATM   30  C   UNL     1      -7.312   7.286  69.329  1.00  0.00    -0.087 A  
ENDBRANCH  24  25
ENDBRANCH  23  24
ENDBRANCH  21  23
ENDBRANCH  20  21
ENDBRANCH  19  20
ENDBRANCH  18  19
ENDBRANCH  17  18
ENDBRANCH  16  17
ENDBRANCH  15  16
ENDBRANCH  13  15
ENDBRANCH  12  13
ENDBRANCH  11  12
ENDBRANCH   8  11
TORSDOF 13
ENDMDL
MODEL      374
REMARK 921   NORMALIZED FREE ENERGY PREDICTED BY IDOCK:   -2.69 KCAL/MOL
REMARK 922        TOTAL FREE ENERGY PREDICTED BY IDOCK:   -7.48 KCAL/MOL
REMARK 923 INTER-LIGAND FREE ENERGY PREDICTED BY IDOCK:   -5.98 KCAL/MOL
REMARK 924 INTRA-LIGAND FREE ENERGY PREDICTED BY IDOCK:   -1.50 KCAL/MOL
REMARK 927      BINDING AFFINITY PREDICTED BY RF-SCORE:    0.00 PKD
ROOT
HETATM    1  O   UNL     1     -11.069  19.403  65.425  1.00  0.00    -0.402 OA 
HETATM    2  H   UNL     1     -11.002  20.222  65.902  1.00  0.00     0.000 HD 
HETATM    3  C   UNL     1     -10.440  18.251  65.814  1.00  0.00    -0.213 A  
HETATM    4  C   UNL     1     -10.539  17.051  65.116  1.00  0.00    -0.015 A  
HETATM    5  C   UNL     1      -9.897  15.906  65.595  1.00  0.00    -0.337 A  
HETATM    6  O   UNL     1     -11.249  16.926  63.957  1.00  0.00    -1.333 OA 
HETATM    7  H   UNL     1     -11.316  16.108  63.480  1.00  0.00     0.000 HD 
HETATM    8  C   UNL     1      -9.163  15.954  66.785  1.00  0.00    -0.264 A  
HETATM    9  C   UNL     1      -9.673  18.322  66.972  1.00  0.00    -0.305 A  
HETATM   10  C   UNL     1      -9.033  17.179  67.457  1.00  0.00    -0.221 A  
ENDROOT
BRANCH   8  11
HETATM   11  C   UNL     1      -8.507  14.712  67.336  1.00  0.00    -0.219 C  
BRANCH  11  12
HETATM   12  C   UNL     1      -8.820  14.521  68.821  1.00  0.00    -0.153 C  
BRANCH  12  13
HETATM   13  N   UNL     1      -7.583  14.349  69.593  1.00  0.00    -0.374 NA 
HETATM   14  H   UNL     1      -7.715  13.739  70.400  1.00  0.00     0.000 HD 
BRANCH  13  15
HETATM   15  C   UNL     1      -6.518  13.875  68.713  1.00  0.00    -0.094 C  
BRANCH  15  16
HETATM   16  C   UNL     1      -6.255  12.391  68.945  1.00  0.00    -0.079 C  
BRANCH  16  17
HETATM   17  C   UNL     1      -5.843  11.736  67.629  1.00  0.00    -0.068 C  
BRANCH  17  18
HETATM   18  C   UNL     1      -7.048  11.507  66.733  1.00  0.00    -0.112 C  
BRANCH  18  19
HETATM   19  C   UNL     1      -7.103  10.058  66.253  1.00  0.00    -0.105 C  
BRANCH  19  20
HETATM   20  C   UNL     1      -5.823   9.349  66.673  1.00  0.00    -0.055 C  
BRANCH  20  21
HETATM   21  N   UNL     1      -6.085   7.953  67.014  1.00  0.00    -0.051 NA 
HETATM   22  H   UNL     1      -5.556   7.663  67.836  1.00  0.00     0.000 HD 
BRANCH  21  23
HETATM   23  C   UNL     1      -7.524   7.708  67.182  1.00  0.00    -0.096 C  
BRANCH  23  24
HETATM   24  C   UNL     1      -7.879   7.123  68.558  1.00  0.00    -0.122 C  
BRANCH  24  25
HETATM   25  C   UNL     1      -8.946   7.918  69.260  1.00  0.00    -0.145 A  
HETATM   26  C   UNL     1      -9.958   7.256  69.966  1.00  0.00    -0.184 A  
HETATM   27  C   UNL     1     -10.946   7.986  70.629  1.00  0.00    -0.250 A  
HETATM   28  C   UNL     1     -10.928   9.378  70.580  1.00  0.00    -0.352 A  
HETATM   29  C   UNL     1      -9.931  10.042  69.868  1.00  0.00    -0.280 A  
HETATM   30  C   UNL     1      -8.943   9.314  69.206  1.00  0.00    -0.147 A  
ENDBRANCH  24  25
ENDBRANCH  23  24
ENDBRANCH  21  23
ENDBRANCH  20  21
ENDBRANCH  19  20
ENDBRANCH  18  19
ENDBRANCH  17  18
ENDBRANCH  16  17
ENDBRANCH  15  16
ENDBRANCH  13  15
ENDBRANCH  12  13
ENDBRANCH  11  12
ENDBRANCH   8  11
TORSDOF 13
ENDMDL
MODEL      375
REMARK 921   NORMALIZED FREE ENERGY PREDICTED BY IDOCK:   -2.67 KCAL/MOL
REMARK 922        TOTAL FREE ENERGY PREDICTED BY IDOCK:   -7.46 KCAL/MOL
REMARK 923 INTER-LIGAND FREE ENERGY PREDICTED BY IDOCK:   -6.67 KCAL/MOL
REMARK 924 INTRA-LIGAND FREE ENERGY PREDICTED BY IDOCK:   -0.79 KCAL/MOL
REMARK 927      BINDING AFFINITY PREDICTED BY RF-SCORE:    0.00 PKD
ROOT
HETATM    1  O   UNL     1      -9.102   7.594  74.437  1.00  0.00    -0.430 OA 
HETATM    2  H   UNL     1      -9.342   7.175  75.255  1.00  0.00     0.000 HD 
HETATM    3  C   UNL     1      -8.592   6.913  73.365  1.00  0.00    -0.125 A  
HETATM    4  C   UNL     1      -8.240   7.526  72.166  1.00  0.00    -0.103 A  
HETATM    5  C   UNL     1      -7.760   6.760  71.101  1.00  0.00    -0.093 A  
HETATM    6  O   UNL     1      -8.342   8.873  71.966  1.00  0.00    -0.367 OA 
HETATM    7  H   UNL     1      -8.102   9.291  71.148  1.00  0.00     0.000 HD 
HETATM    8  C   UNL     1      -7.643   5.371  71.226  1.00  0.00    -0.101 A  
HETATM    9  C   UNL     1      -8.434   5.540  73.517  1.00  0.00    -0.112 A  
HETATM   10  C   UNL     1      -7.958   4.769  72.454  1.00  0.00    -0.099 A  
ENDROOT
BRANCH   8  11
HETATM   11  C   UNL     1      -7.172   4.529  70.066  1.00  0.00    -0.050 C  
BRANCH  11  12
HETATM   12  C   UNL     1      -8.089   3.328  69.833  1.00  0.00    -0.045 C  
BRANCH  12  13
HETATM   13  N   UNL     1      -9.481   3.764  69.670  1.00  0.00    -0.180 NA 
HETATM   14  H   UNL     1      -9.811   4.304  70.470  1.00  0.00     0.000 HD 
BRANCH  13  15
HETATM   15  C   UNL     1      -9.622   4.497  68.415  1.00  0.00    -0.145 C  
BRANCH  15  16
HETATM   16  C   UNL     1     -10.356   5.814  68.646  1.00  0.00    -0.283 C  
BRANCH  16  17
HETATM   17  C   UNL     1     -10.860   6.355  67.310  1.00  0.00    -0.463 C  
BRANCH  17  18
HETATM   18  C   UNL     1     -10.627   7.853  67.206  1.00  0.00    -0.365 C  
BRANCH  18  19
HETATM   19  C   UNL     1      -9.400   8.156  66.346  1.00  0.00    -0.269 C  
BRANCH  19  20
HETATM   20  C   UNL     1      -9.622   9.472  65.615  1.00  0.00    -0.277 C  
BRANCH  20  21
HETATM   21  N   UNL     1      -9.231   9.366  64.212  1.00  0.00    -0.427 NA 
HETATM   22  H   UNL     1      -9.770   8.650  63.726  1.00  0.00     0.000 HD 
BRANCH  21  23
HETATM   23  C   UNL     1      -9.324  10.667  63.534  1.00  0.00    -0.290 C  
BRANCH  23  24
HETATM   24  C   UNL     1     -10.773  11.114  63.286  1.00  0.00    -0.199 C  
BRANCH  24  25
HETATM   25  C   UNL     1     -11.078  12.443  63.923  1.00  0.00    -0.475 A  
HETATM   26  C   UNL     1     -10.219  12.962  64.899  1.00  0.00    -0.296 A  
HETATM   27  C   UNL     1     -10.488  14.199  65.486  1.00  0.00    -0.352 A  
HETATM   28  C   UNL     1     -11.619  14.916  65.104  1.00  0.00    -0.330 A  
HETATM   29  C   UNL     1     -12.484  14.399  64.140  1.00  0.00    -0.236 A  
HETATM   30  C   UNL     1     -12.217  13.164  63.553  1.00  0.00    -0.552 A  
ENDBRANCH  24  25
ENDBRANCH  23  24
ENDBRANCH  21  23
ENDBRANCH  20  21
ENDBRANCH  19  20
ENDBRANCH  18  19
ENDBRANCH  17  18
ENDBRANCH  16  17
ENDBRANCH  15  16
ENDBRANCH  13  15
ENDBRANCH  12  13
ENDBRANCH  11  12
ENDBRANCH   8  11
TORSDOF 13
ENDMDL
MODEL      376
REMARK 921   NORMALIZED FREE ENERGY PREDICTED BY IDOCK:   -2.67 KCAL/MOL
REMARK 922        TOTAL FREE ENERGY PREDICTED BY IDOCK:   -7.45 KCAL/MOL
REMARK 923 INTER-LIGAND FREE ENERGY PREDICTED BY IDOCK:   -5.91 KCAL/MOL
REMARK 924 INTRA-LIGAND FREE ENERGY PREDICTED BY IDOCK:   -1.55 KCAL/MOL
REMARK 927      BINDING AFFINITY PREDICTED BY RF-SCORE:    0.00 PKD
ROOT
HETATM    1  O   UNL     1      -7.792   3.442  72.106  1.00  0.00    -0.057 OA 
HETATM    2  H   UNL     1      -7.385   3.326  72.956  1.00  0.00     0.000 HD 
HETATM    3  C   UNL     1      -8.906   4.210  71.903  1.00  0.00    -0.114 A  
HETATM    4  C   UNL     1      -9.502   4.381  70.656  1.00  0.00    -0.172 A  
HETATM    5  C   UNL     1     -10.616   5.211  70.519  1.00  0.00    -0.221 A  
HETATM    6  O   UNL     1      -9.043   3.766  69.527  1.00  0.00    -0.105 OA 
HETATM    7  H   UNL     1      -9.449   3.882  68.676  1.00  0.00     0.000 HD 
HETATM    8  C   UNL     1     -11.134   5.887  71.630  1.00  0.00    -0.319 A  
HETATM    9  C   UNL     1      -9.441   4.839  73.022  1.00  0.00    -0.146 A  
HETATM   10  C   UNL     1     -10.554   5.673  72.890  1.00  0.00    -0.268 A  
ENDROOT
BRANCH   8  11
HETATM   11  C   UNL     1     -12.308   6.824  71.484  1.00  0.00    -0.407 C  
BRANCH  11  12
HETATM   12  C   UNL     1     -11.857   8.282  71.379  1.00  0.00    -0.293 C  
BRANCH  12  13
HETATM   13  N   UNL     1     -12.983   9.191  71.620  1.00  0.00    -0.345 NA 
HETATM   14  H   UNL     1     -13.427   9.021  72.523  1.00  0.00     0.000 HD 
BRANCH  13  15
HETATM   15  C   UNL     1     -12.537  10.574  71.476  1.00  0.00    -0.424 C  
BRANCH  15  16
HETATM   16  C   UNL     1     -12.373  10.931  70.003  1.00  0.00    -0.385 C  
BRANCH  16  17
HETATM   17  C   UNL     1     -10.919  11.306  69.729  1.00  0.00    -0.170 C  
BRANCH  17  18
HETATM   18  C   UNL     1     -10.230  10.245  68.889  1.00  0.00    -0.220 C  
BRANCH  18  19
HETATM   19  C   UNL     1      -9.002  10.819  68.184  1.00  0.00    -0.140 C  
BRANCH  19  20
HETATM   20  C   UNL     1      -9.449  11.532  66.916  1.00  0.00    -0.182 C  
BRANCH  20  21
HETATM   21  N   UNL     1      -8.701  11.056  65.755  1.00  0.00    -0.206 NA 
HETATM   22  H   UNL     1      -7.703  10.991  65.953  1.00  0.00     0.000 HD 
BRANCH  21  23
HETATM   23  C   UNL     1      -9.239   9.780  65.262  1.00  0.00    -0.238 C  
BRANCH  23  24
HETATM   24  C   UNL     1      -8.278   8.600  65.474  1.00  0.00    -0.135 C  
BRANCH  24  25
HETATM   25  C   UNL     1      -9.005   7.325  65.808  1.00  0.00    -0.052 A  
HETATM   26  C   UNL     1     -10.077   7.349  66.708  1.00  0.00    -0.305 A  
HETATM   27  C   UNL     1     -10.763   6.173  67.015  1.00  0.00    -0.423 A  
HETATM   28  C   UNL     1     -10.374   4.971  66.429  1.00  0.00    -0.335 A  
HETATM   29  C   UNL     1      -9.299   4.939  65.542  1.00  0.00    -0.163 A  
HETATM   30  C   UNL     1      -8.613   6.113  65.234  1.00  0.00    -0.082 A  
ENDBRANCH  24  25
ENDBRANCH  23  24
ENDBRANCH  21  23
ENDBRANCH  20  21
ENDBRANCH  19  20
ENDBRANCH  18  19
ENDBRANCH  17  18
ENDBRANCH  16  17
ENDBRANCH  15  16
ENDBRANCH  13  15
ENDBRANCH  12  13
ENDBRANCH  11  12
ENDBRANCH   8  11
TORSDOF 13
ENDMDL
MODEL      377
REMARK 921   NORMALIZED FREE ENERGY PREDICTED BY IDOCK:   -2.67 KCAL/MOL
REMARK 922        TOTAL FREE ENERGY PREDICTED BY IDOCK:   -7.45 KCAL/MOL
REMARK 923 INTER-LIGAND FREE ENERGY PREDICTED BY IDOCK:   -5.70 KCAL/MOL
REMARK 924 INTRA-LIGAND FREE ENERGY PREDICTED BY IDOCK:   -1.74 KCAL/MOL
REMARK 927      BINDING AFFINITY PREDICTED BY RF-SCORE:    0.00 PKD
ROOT
HETATM    1  O   UNL     1     -11.689   4.773  64.953  1.00  0.00    -0.877 OA 
HETATM    2  H   UNL     1     -12.239   5.547  64.932  1.00  0.00     0.000 HD 
HETATM    3  C   UNL     1     -10.630   4.625  65.808  1.00  0.00    -0.223 A  
HETATM    4  C   UNL     1      -9.825   3.490  65.841  1.00  0.00     0.045 A  
HETATM    5  C   UNL     1      -8.785   3.395  66.767  1.00  0.00    -0.128 A  
HETATM    6  O   UNL     1     -10.002   2.434  64.994  1.00  0.00    -0.347 OA 
HETATM    7  H   UNL     1      -9.452   1.659  65.015  1.00  0.00     0.000 HD 
HETATM    8  C   UNL     1      -8.552   4.431  67.678  1.00  0.00    -0.108 A  
HETATM    9  C   UNL     1     -10.378   5.682  66.676  1.00  0.00    -0.311 A  
HETATM   10  C   UNL     1      -9.342   5.590  67.607  1.00  0.00    -0.116 A  
ENDROOT
BRANCH   8  11
HETATM   11  C   UNL     1      -7.462   4.318  68.715  1.00  0.00    -0.056 C  
BRANCH  11  12
HETATM   12  C   UNL     1      -7.559   5.431  69.759  1.00  0.00    -0.070 C  
BRANCH  12  13
HETATM   13  N   UNL     1      -8.116   4.915  71.015  1.00  0.00    -0.090 NA 
HETATM   14  H   UNL     1      -7.447   4.333  71.521  1.00  0.00     0.000 HD 
BRANCH  13  15
HETATM   15  C   UNL     1      -8.606   6.025  71.828  1.00  0.00    -0.134 C  
BRANCH  15  16
HETATM   16  C   UNL     1      -9.887   6.598  71.231  1.00  0.00    -0.190 C  
BRANCH  16  17
HETATM   17  C   UNL     1     -10.815   7.049  72.356  1.00  0.00    -0.272 C  
BRANCH  17  18
HETATM   18  C   UNL     1     -11.229   8.499  72.174  1.00  0.00    -0.432 C  
BRANCH  18  19
HETATM   19  C   UNL     1     -10.655   9.072  70.879  1.00  0.00    -0.316 C  
BRANCH  19  20
HETATM   20  C   UNL     1     -11.680  10.011  70.258  1.00  0.00    -0.251 C  
BRANCH  20  21
HETATM   21  N   UNL     1     -11.211  11.395  70.291  1.00  0.00    -0.466 NA 
HETATM   22  H   UNL     1     -10.212  11.447  70.484  1.00  0.00     0.000 HD 
BRANCH  21  23
HETATM   23  C   UNL     1     -11.561  12.103  69.052  1.00  0.00    -0.319 C  
BRANCH  23  24
HETATM   24  C   UNL     1     -10.346  12.377  68.151  1.00  0.00    -0.231 C  
BRANCH  24  25
HETATM   25  C   UNL     1      -9.962  11.176  67.329  1.00  0.00    -0.211 A  
HETATM   26  C   UNL     1     -10.719  10.833  66.202  1.00  0.00    -0.187 A  
HETATM   27  C   UNL     1     -10.364   9.727  65.427  1.00  0.00     0.127 A  
HETATM   28  C   UNL     1      -9.257   8.961  65.781  1.00  0.00    -0.283 A  
HETATM   29  C   UNL     1      -8.506   9.291  66.909  1.00  0.00    -0.128 A  
HETATM   30  C   UNL     1      -8.860  10.395  67.684  1.00  0.00    -0.124 A  
ENDBRANCH  24  25
ENDBRANCH  23  24
ENDBRANCH  21  23
ENDBRANCH  20  21
ENDBRANCH  19  20
ENDBRANCH  18  19
ENDBRANCH  17  18
ENDBRANCH  16  17
ENDBRANCH  15  16
ENDBRANCH  13  15
ENDBRANCH  12  13
ENDBRANCH  11  12
ENDBRANCH   8  11
TORSDOF 13
ENDMDL
MODEL      378
REMARK 921   NORMALIZED FREE ENERGY PREDICTED BY IDOCK:   -2.65 KCAL/MOL
REMARK 922        TOTAL FREE ENERGY PREDICTED BY IDOCK:   -7.42 KCAL/MOL
REMARK 923 INTER-LIGAND FREE ENERGY PREDICTED BY IDOCK:   -6.55 KCAL/MOL
REMARK 924 INTRA-LIGAND FREE ENERGY PREDICTED BY IDOCK:   -0.86 KCAL/MOL
REMARK 927      BINDING AFFINITY PREDICTED BY RF-SCORE:    0.00 PKD
ROOT
HETATM    1  O   UNL     1      -5.516  17.492  69.214  1.00  0.00    -0.175 OA 
HETATM    2  H   UNL     1      -4.908  16.773  69.341  1.00  0.00     0.000 HD 
HETATM    3  C   UNL     1      -6.808  17.320  68.794  1.00  0.00    -0.219 A  
HETATM    4  C   UNL     1      -7.699  18.373  68.608  1.00  0.00    -0.301 A  
HETATM    5  C   UNL     1      -9.014  18.118  68.214  1.00  0.00    -0.306 A  
HETATM    6  O   UNL     1      -7.349  19.680  68.795  1.00  0.00    -0.332 OA 
HETATM    7  H   UNL     1      -7.957  20.398  68.667  1.00  0.00     0.000 HD 
HETATM    8  C   UNL     1      -9.450  16.802  68.017  1.00  0.00    -0.233 A  
HETATM    9  C   UNL     1      -7.216  16.012  68.556  1.00  0.00    -0.138 A  
HETATM   10  C   UNL     1      -8.531  15.751  68.165  1.00  0.00    -0.162 A  
ENDROOT
BRANCH   8  11
HETATM   11  C   UNL     1     -10.881  16.512  67.639  1.00  0.00    -0.269 C  
BRANCH  11  12
HETATM   12  C   UNL     1     -11.658  15.895  68.803  1.00  0.00    -0.386 C  
BRANCH  12  13
HETATM   13  N   UNL     1     -12.361  14.682  68.370  1.00  0.00    -0.606 NA 
HETATM   14  H   UNL     1     -12.040  14.357  67.458  1.00  0.00     0.000 HD 
BRANCH  13  15
HETATM   15  C   UNL     1     -12.237  13.650  69.396  1.00  0.00    -0.259 C  
BRANCH  15  16
HETATM   16  C   UNL     1     -11.000  12.794  69.145  1.00  0.00    -0.185 C  
BRANCH  16  17
HETATM   17  C   UNL     1     -11.407  11.325  69.064  1.00  0.00    -0.344 C  
BRANCH  17  18
HETATM   18  C   UNL     1     -12.660  11.059  69.882  1.00  0.00    -0.202 C  
BRANCH  18  19
HETATM   19  C   UNL     1     -12.303  10.539  71.274  1.00  0.00    -0.502 C  
BRANCH  19  20
HETATM   20  C   UNL     1     -11.779   9.115  71.150  1.00  0.00    -0.313 C  
BRANCH  20  21
HETATM   21  N   UNL     1     -11.264   8.633  72.429  1.00  0.00    -0.331 NA 
HETATM   22  H   UNL     1     -12.016   8.315  73.040  1.00  0.00     0.000 HD 
BRANCH  21  23
HETATM   23  C   UNL     1     -10.249   7.589  72.233  1.00  0.00    -0.206 C  
BRANCH  23  24
HETATM   24  C   UNL     1      -9.341   7.852  71.022  1.00  0.00    -0.167 C  
BRANCH  24  25
HETATM   25  C   UNL     1      -8.942   6.582  70.319  1.00  0.00    -0.155 A  
HETATM   26  C   UNL     1      -9.820   5.492  70.299  1.00  0.00    -0.260 A  
HETATM   27  C   UNL     1      -9.464   4.314  69.640  1.00  0.00    -0.258 A  
HETATM   28  C   UNL     1      -8.227   4.222  69.007  1.00  0.00    -0.077 A  
HETATM   29  C   UNL     1      -7.344   5.301  69.034  1.00  0.00    -0.066 A  
HETATM   30  C   UNL     1      -7.699   6.478  69.691  1.00  0.00    -0.103 A  
ENDBRANCH  24  25
ENDBRANCH  23  24
ENDBRANCH  21  23
ENDBRANCH  20  21
ENDBRANCH  19  20
ENDBRANCH  18  19
ENDBRANCH  17  18
ENDBRANCH  16  17
ENDBRANCH  15  16
ENDBRANCH  13  15
ENDBRANCH  12  13
ENDBRANCH  11  12
ENDBRANCH   8  11
TORSDOF 13
ENDMDL
MODEL      379
REMARK 921   NORMALIZED FREE ENERGY PREDICTED BY IDOCK:   -2.65 KCAL/MOL
REMARK 922        TOTAL FREE ENERGY PREDICTED BY IDOCK:   -7.42 KCAL/MOL
REMARK 923 INTER-LIGAND FREE ENERGY PREDICTED BY IDOCK:   -5.93 KCAL/MOL
REMARK 924 INTRA-LIGAND FREE ENERGY PREDICTED BY IDOCK:   -1.48 KCAL/MOL
REMARK 927      BINDING AFFINITY PREDICTED BY RF-SCORE:    0.00 PKD
ROOT
HETATM    1  O   UNL     1      -6.389  13.223  70.853  1.00  0.00    -0.495 OA 
HETATM    2  H   UNL     1      -6.194  12.801  71.681  1.00  0.00     0.000 HD 
HETATM    3  C   UNL     1      -6.536  12.540  69.676  1.00  0.00    -0.057 A  
HETATM    4  C   UNL     1      -6.823  13.158  68.462  1.00  0.00    -0.099 A  
HETATM    5  C   UNL     1      -6.996  12.391  67.308  1.00  0.00    -0.129 A  
HETATM    6  O   UNL     1      -6.950  14.511  68.334  1.00  0.00    -0.094 OA 
HETATM    7  H   UNL     1      -7.146  14.933  67.506  1.00  0.00     0.000 HD 
HETATM    8  C   UNL     1      -6.895  10.996  67.365  1.00  0.00    -0.082 A  
HETATM    9  C   UNL     1      -6.386  11.158  69.735  1.00  0.00    -0.130 A  
HETATM   10  C   UNL     1      -6.561  10.387  68.584  1.00  0.00    -0.052 A  
ENDROOT
BRANCH   8  11
HETATM   11  C   UNL     1      -7.128  10.155  66.134  1.00  0.00    -0.114 C  
BRANCH  11  12
HETATM   12  C   UNL     1      -8.472   9.426  66.195  1.00  0.00    -0.120 C  
BRANCH  12  13
HETATM   13  N   UNL     1      -8.304   8.079  66.753  1.00  0.00    -0.114 NA 
HETATM   14  H   UNL     1      -8.409   8.068  67.768  1.00  0.00     0.000 HD 
BRANCH  13  15
HETATM   15  C   UNL     1      -9.225   7.157  66.094  1.00  0.00    -0.082 C  
BRANCH  15  16
HETATM   16  C   UNL     1     -10.358   6.770  67.038  1.00  0.00    -0.338 C  
BRANCH  16  17
HETATM   17  C   UNL     1     -10.051   7.287  68.441  1.00  0.00    -0.188 C  
BRANCH  17  18
HETATM   18  C   UNL     1     -10.464   6.277  69.498  1.00  0.00    -0.293 C  
BRANCH  18  19
HETATM   19  C   UNL     1      -9.239   5.623  70.135  1.00  0.00    -0.170 C  
BRANCH  19  20
HETATM   20  C   UNL     1      -9.268   5.878  71.636  1.00  0.00    -0.146 C  
BRANCH  20  21
HETATM   21  N   UNL     1     -10.366   5.154  72.270  1.00  0.00    -0.205 NA 
HETATM   22  H   UNL     1     -10.027   4.364  72.819  1.00  0.00     0.000 HD 
BRANCH  21  23
HETATM   23  C   UNL     1     -11.200   6.056  73.078  1.00  0.00    -0.197 C  
BRANCH  23  24
HETATM   24  C   UNL     1     -10.667   7.496  73.116  1.00  0.00    -0.452 C  
BRANCH  24  25
HETATM   25  C   UNL     1     -11.479   8.429  72.258  1.00  0.00    -0.454 A  
HETATM   26  C   UNL     1     -10.833   9.345  71.420  1.00  0.00    -0.430 A  
HETATM   27  C   UNL     1     -11.578  10.206  70.612  1.00  0.00    -0.429 A  
HETATM   28  C   UNL     1     -12.969  10.157  70.647  1.00  0.00    -0.296 A  
HETATM   29  C   UNL     1     -13.618   9.254  71.488  1.00  0.00    -0.412 A  
HETATM   30  C   UNL     1     -12.875   8.394  72.295  1.00  0.00    -0.359 A  
ENDBRANCH  24  25
ENDBRANCH  23  24
ENDBRANCH  21  23
ENDBRANCH  20  21
ENDBRANCH  19  20
ENDBRANCH  18  19
ENDBRANCH  17  18
ENDBRANCH  16  17
ENDBRANCH  15  16
ENDBRANCH  13  15
ENDBRANCH  12  13
ENDBRANCH  11  12
ENDBRANCH   8  11
TORSDOF 13
ENDMDL
MODEL      380
REMARK 921   NORMALIZED FREE ENERGY PREDICTED BY IDOCK:   -2.61 KCAL/MOL
REMARK 922        TOTAL FREE ENERGY PREDICTED BY IDOCK:   -7.35 KCAL/MOL
REMARK 923 INTER-LIGAND FREE ENERGY PREDICTED BY IDOCK:   -6.20 KCAL/MOL
REMARK 924 INTRA-LIGAND FREE ENERGY PREDICTED BY IDOCK:   -1.15 KCAL/MOL
REMARK 927      BINDING AFFINITY PREDICTED BY RF-SCORE:    0.00 PKD
ROOT
HETATM    1  O   UNL     1      -8.186  17.854  68.442  1.00  0.00    -0.283 OA 
HETATM    2  H   UNL     1      -8.695  18.485  68.938  1.00  0.00     0.000 HD 
HETATM    3  C   UNL     1      -8.632  16.595  68.144  1.00  0.00    -0.200 A  
HETATM    4  C   UNL     1      -7.887  15.670  67.418  1.00  0.00    -0.182 A  
HETATM    5  C   UNL     1      -8.424  14.416  67.119  1.00  0.00    -0.229 A  
HETATM    6  O   UNL     1      -6.625  15.929  66.966  1.00  0.00    -0.269 OA 
HETATM    7  H   UNL     1      -6.116  15.299  66.471  1.00  0.00     0.000 HD 
HETATM    8  C   UNL     1      -9.718  14.084  67.535  1.00  0.00    -0.232 A  
HETATM    9  C   UNL     1      -9.901  16.258  68.604  1.00  0.00    -0.230 A  
HETATM   10  C   UNL     1     -10.444  15.007  68.305  1.00  0.00    -0.237 A  
ENDROOT
BRANCH   8  11
HETATM   11  C   UNL     1     -10.326  12.750  67.177  1.00  0.00    -0.237 C  
BRANCH  11  12
HETATM   12  C   UNL     1     -11.811  12.693  67.537  1.00  0.00    -0.334 C  
BRANCH  12  13
HETATM   13  N   UNL     1     -12.122  11.448  68.250  1.00  0.00    -0.608 NA 
HETATM   14  H   UNL     1     -11.555  10.666  67.923  1.00  0.00     0.000 HD 
BRANCH  13  15
HETATM   15  C   UNL     1     -11.991  11.661  69.688  1.00  0.00    -0.324 C  
BRANCH  15  16
HETATM   16  C   UNL     1     -11.291  10.473  70.341  1.00  0.00    -0.411 C  
BRANCH  16  17
HETATM   17  C   UNL     1     -10.765   9.535  69.258  1.00  0.00    -0.240 C  
BRANCH  17  18
HETATM   18  C   UNL     1     -10.445   8.165  69.831  1.00  0.00    -0.226 C  
BRANCH  18  19
HETATM   19  C   UNL     1      -9.120   8.187  70.592  1.00  0.00    -0.156 C  
BRANCH  19  20
HETATM   20  C   UNL     1      -8.075   7.430  69.784  1.00  0.00    -0.127 C  
BRANCH  20  21
HETATM   21  N   UNL     1      -7.020   6.909  70.650  1.00  0.00    -0.062 NA 
HETATM   22  H   UNL     1      -6.481   7.660  71.079  1.00  0.00     0.000 HD 
BRANCH  21  23
HETATM   23  C   UNL     1      -7.567   5.991  71.660  1.00  0.00    -0.100 C  
BRANCH  23  24
HETATM   24  C   UNL     1      -8.254   4.761  71.047  1.00  0.00    -0.096 C  
BRANCH  24  25
HETATM   25  C   UNL     1      -9.383   4.252  71.902  1.00  0.00    -0.186 A  
HETATM   26  C   UNL     1     -10.303   5.153  72.450  1.00  0.00    -0.257 A  
HETATM   27  C   UNL     1     -11.360   4.688  73.235  1.00  0.00    -0.393 A  
HETATM   28  C   UNL     1     -11.494   3.323  73.479  1.00  0.00    -0.151 A  
HETATM   29  C   UNL     1     -10.573   2.423  72.945  1.00  0.00    -0.231 A  
HETATM   30  C   UNL     1      -9.518   2.886  72.161  1.00  0.00    -0.196 A  
ENDBRANCH  24  25
ENDBRANCH  23  24
ENDBRANCH  21  23
ENDBRANCH  20  21
ENDBRANCH  19  20
ENDBRANCH  18  19
ENDBRANCH  17  18
ENDBRANCH  16  17
ENDBRANCH  15  16
ENDBRANCH  13  15
ENDBRANCH  12  13
ENDBRANCH  11  12
ENDBRANCH   8  11
TORSDOF 13
ENDMDL
MODEL      381
REMARK 921   NORMALIZED FREE ENERGY PREDICTED BY IDOCK:   -2.58 KCAL/MOL
REMARK 922        TOTAL FREE ENERGY PREDICTED BY IDOCK:   -7.30 KCAL/MOL
REMARK 923 INTER-LIGAND FREE ENERGY PREDICTED BY IDOCK:   -5.84 KCAL/MOL
REMARK 924 INTRA-LIGAND FREE ENERGY PREDICTED BY IDOCK:   -1.46 KCAL/MOL
REMARK 927      BINDING AFFINITY PREDICTED BY RF-SCORE:    0.00 PKD
ROOT
HETATM    1  O   UNL     1      -7.160   8.719  68.023  1.00  0.00    -0.077 OA 
HETATM    2  H   UNL     1      -7.136   8.286  67.179  1.00  0.00     0.000 HD 
HETATM    3  C   UNL     1      -6.935  10.059  68.189  1.00  0.00    -0.075 A  
HETATM    4  C   UNL     1      -6.972  10.695  69.426  1.00  0.00    -0.106 A  
HETATM    5  C   UNL     1      -6.769  12.074  69.513  1.00  0.00    -0.035 A  
HETATM    6  O   UNL     1      -7.202  10.026  70.594  1.00  0.00    -0.298 OA 
HETATM    7  H   UNL     1      -7.227  10.460  71.439  1.00  0.00     0.000 HD 
HETATM    8  C   UNL     1      -6.542  12.829  68.357  1.00  0.00    -0.083 A  
HETATM    9  C   UNL     1      -6.662  10.792  67.038  1.00  0.00    -0.090 A  
HETATM   10  C   UNL     1      -6.463  12.171  67.119  1.00  0.00    -0.135 A  
ENDROOT
BRANCH   8  11
HETATM   11  C   UNL     1      -6.370  14.326  68.434  1.00  0.00    -0.101 C  
BRANCH  11  12
HETATM   12  C   UNL     1      -7.326  15.052  67.487  1.00  0.00    -0.202 C  
BRANCH  12  13
HETATM   13  N   UNL     1      -7.919  16.221  68.147  1.00  0.00    -0.154 NA 
HETATM   14  H   UNL     1      -7.564  17.099  67.767  1.00  0.00     0.000 HD 
BRANCH  13  15
HETATM   15  C   UNL     1      -9.375  16.139  68.077  1.00  0.00    -0.203 C  
BRANCH  15  16
HETATM   16  C   UNL     1      -9.813  14.719  67.732  1.00  0.00    -0.214 C  
BRANCH  16  17
HETATM   17  C   UNL     1     -11.272  14.732  67.284  1.00  0.00    -0.351 C  
BRANCH  17  18
HETATM   18  C   UNL     1     -12.004  13.493  67.770  1.00  0.00    -0.369 C  
BRANCH  18  19
HETATM   19  C   UNL     1     -11.202  12.776  68.855  1.00  0.00    -0.332 C  
BRANCH  19  20
HETATM   20  C   UNL     1     -12.136  11.865  69.639  1.00  0.00    -0.239 C  
BRANCH  20  21
HETATM   21  N   UNL     1     -12.027  10.482  69.179  1.00  0.00    -0.585 NA 
HETATM   22  H   UNL     1     -12.426  10.364  68.249  1.00  0.00     0.000 HD 
BRANCH  21  23
HETATM   23  C   UNL     1     -10.636  10.012  69.236  1.00  0.00    -0.227 C  
BRANCH  23  24
HETATM   24  C   UNL     1     -10.508   8.490  69.068  1.00  0.00    -0.216 C  
BRANCH  24  25
HETATM   25  C   UNL     1     -10.735   7.751  70.359  1.00  0.00    -0.238 A  
HETATM   26  C   UNL     1     -11.321   6.480  70.342  1.00  0.00    -0.443 A  
HETATM   27  C   UNL     1     -11.526   5.783  71.534  1.00  0.00    -0.128 A  
HETATM   28  C   UNL     1     -11.150   6.359  72.745  1.00  0.00    -0.281 A  
HETATM   29  C   UNL     1     -10.576   7.630  72.769  1.00  0.00    -0.381 A  
HETATM   30  C   UNL     1     -10.372   8.326  71.580  1.00  0.00    -0.276 A  
ENDBRANCH  24  25
ENDBRANCH  23  24
ENDBRANCH  21  23
ENDBRANCH  20  21
ENDBRANCH  19  20
ENDBRANCH  18  19
ENDBRANCH  17  18
ENDBRANCH  16  17
ENDBRANCH  15  16
ENDBRANCH  13  15
ENDBRANCH  12  13
ENDBRANCH  11  12
ENDBRANCH   8  11
TORSDOF 13
ENDMDL
MODEL      382
REMARK 921   NORMALIZED FREE ENERGY PREDICTED BY IDOCK:   -2.56 KCAL/MOL
REMARK 922        TOTAL FREE ENERGY PREDICTED BY IDOCK:   -7.26 KCAL/MOL
REMARK 923 INTER-LIGAND FREE ENERGY PREDICTED BY IDOCK:   -6.67 KCAL/MOL
REMARK 924 INTRA-LIGAND FREE ENERGY PREDICTED BY IDOCK:   -0.59 KCAL/MOL
REMARK 927      BINDING AFFINITY PREDICTED BY RF-SCORE:    0.00 PKD
ROOT
HETATM    1  O   UNL     1     -10.220   4.125  66.734  1.00  0.00    -0.308 OA 
HETATM    2  H   UNL     1     -10.262   3.986  65.795  1.00  0.00     0.000 HD 
HETATM    3  C   UNL     1     -10.246   5.364  67.313  1.00  0.00    -0.214 A  
HETATM    4  C   UNL     1     -10.186   5.568  68.689  1.00  0.00    -0.193 A  
HETATM    5  C   UNL     1     -10.255   6.862  69.210  1.00  0.00    -0.197 A  
HETATM    6  O   UNL     1     -10.060   4.544  69.583  1.00  0.00    -0.221 OA 
HETATM    7  H   UNL     1     -10.019   4.683  70.522  1.00  0.00     0.000 HD 
HETATM    8  C   UNL     1     -10.400   7.961  68.356  1.00  0.00    -0.235 A  
HETATM    9  C   UNL     1     -10.341   6.452  66.452  1.00  0.00    -0.048 A  
HETATM   10  C   UNL     1     -10.415   7.748  66.969  1.00  0.00    -0.419 A  
ENDROOT
BRANCH   8  11
HETATM   11  C   UNL     1     -10.524   9.358  68.911  1.00  0.00    -0.236 C  
BRANCH  11  12
HETATM   12  C   UNL     1     -11.054  10.337  67.861  1.00  0.00    -0.276 C  
BRANCH  12  13
HETATM   13  N   UNL     1     -10.176  11.507  67.755  1.00  0.00    -0.179 NA 
HETATM   14  H   UNL     1      -9.425  11.488  68.446  1.00  0.00     0.000 HD 
BRANCH  13  15
HETATM   15  C   UNL     1      -9.666  11.617  66.392  1.00  0.00    -0.214 C  
BRANCH  15  16
HETATM   16  C   UNL     1     -10.712  11.138  65.391  1.00  0.00    -0.259 C  
BRANCH  16  17
HETATM   17  C   UNL     1     -11.552  12.325  64.927  1.00  0.00    -0.395 C  
BRANCH  17  18
HETATM   18  C   UNL     1     -10.678  13.534  64.640  1.00  0.00    -0.429 C  
BRANCH  18  19
HETATM   19  C   UNL     1     -11.256  14.792  65.287  1.00  0.00    -0.366 C  
BRANCH  19  20
HETATM   20  C   UNL     1     -12.247  14.380  66.367  1.00  0.00    -0.340 C  
BRANCH  20  21
HETATM   21  N   UNL     1     -11.634  14.443  67.692  1.00  0.00    -0.352 NA 
HETATM   22  H   UNL     1     -10.803  13.856  67.749  1.00  0.00     0.000 HD 
BRANCH  21  23
HETATM   23  C   UNL     1     -11.342  15.832  68.076  1.00  0.00    -0.310 C  
BRANCH  23  24
HETATM   24  C   UNL     1     -10.255  16.482  67.207  1.00  0.00    -0.287 C  
BRANCH  24  25
HETATM   25  C   UNL     1      -8.868  16.087  67.636  1.00  0.00    -0.190 A  
HETATM   26  C   UNL     1      -7.771  16.401  66.824  1.00  0.00    -0.298 A  
HETATM   27  C   UNL     1      -6.480  16.049  67.219  1.00  0.00    -0.200 A  
HETATM   28  C   UNL     1      -6.284  15.376  68.423  1.00  0.00    -0.109 A  
HETATM   29  C   UNL     1      -7.373  15.051  69.230  1.00  0.00    -0.184 A  
HETATM   30  C   UNL     1      -8.663  15.402  68.836  1.00  0.00    -0.208 A  
ENDBRANCH  24  25
ENDBRANCH  23  24
ENDBRANCH  21  23
ENDBRANCH  20  21
ENDBRANCH  19  20
ENDBRANCH  18  19
ENDBRANCH  17  18
ENDBRANCH  16  17
ENDBRANCH  15  16
ENDBRANCH  13  15
ENDBRANCH  12  13
ENDBRANCH  11  12
ENDBRANCH   8  11
TORSDOF 13
ENDMDL
MODEL      383
REMARK 921   NORMALIZED FREE ENERGY PREDICTED BY IDOCK:   -2.54 KCAL/MOL
REMARK 922        TOTAL FREE ENERGY PREDICTED BY IDOCK:   -7.22 KCAL/MOL
REMARK 923 INTER-LIGAND FREE ENERGY PREDICTED BY IDOCK:   -6.53 KCAL/MOL
REMARK 924 INTRA-LIGAND FREE ENERGY PREDICTED BY IDOCK:   -0.69 KCAL/MOL
REMARK 927      BINDING AFFINITY PREDICTED BY RF-SCORE:    0.00 PKD
ROOT
HETATM    1  O   UNL     1      -6.201   3.199  63.930  1.00  0.00    -0.018 OA 
HETATM    2  H   UNL     1      -5.268   3.366  63.869  1.00  0.00     0.000 HD 
HETATM    3  C   UNL     1      -7.077   4.037  64.566  1.00  0.00    -0.054 A  
HETATM    4  C   UNL     1      -8.444   3.792  64.655  1.00  0.00    -0.097 A  
HETATM    5  C   UNL     1      -9.282   4.712  65.288  1.00  0.00    -0.156 A  
HETATM    6  O   UNL     1      -9.029   2.669  64.142  1.00  0.00    -0.101 OA 
HETATM    7  H   UNL     1      -9.962   2.501  64.204  1.00  0.00     0.000 HD 
HETATM    8  C   UNL     1      -8.757   5.893  65.825  1.00  0.00    -0.153 A  
HETATM    9  C   UNL     1      -6.537   5.184  65.138  1.00  0.00    -0.040 A  
HETATM   10  C   UNL     1      -7.371   6.109  65.768  1.00  0.00    -0.080 A  
ENDROOT
BRANCH   8  11
HETATM   11  C   UNL     1      -9.660   6.917  66.467  1.00  0.00    -0.197 C  
BRANCH  11  12
HETATM   12  C   UNL     1      -9.326   7.114  67.947  1.00  0.00    -0.128 C  
BRANCH  12  13
HETATM   13  N   UNL     1     -10.548   7.096  68.760  1.00  0.00    -0.243 NA 
HETATM   14  H   UNL     1     -11.354   7.457  68.249  1.00  0.00     0.000 HD 
BRANCH  13  15
HETATM   15  C   UNL     1     -10.778   5.748  69.271  1.00  0.00    -0.316 C  
BRANCH  15  16
HETATM   16  C   UNL     1     -10.655   5.725  70.791  1.00  0.00    -0.337 C  
BRANCH  16  17
HETATM   17  C   UNL     1     -10.535   7.155  71.312  1.00  0.00    -0.219 C  
BRANCH  17  18
HETATM   18  C   UNL     1     -11.491   7.397  72.468  1.00  0.00    -0.346 C  
BRANCH  18  19
HETATM   19  C   UNL     1     -12.241   8.716  72.289  1.00  0.00    -0.447 C  
BRANCH  19  20
HETATM   20  C   UNL     1     -11.981   9.245  70.885  1.00  0.00    -0.257 C  
BRANCH  20  21
HETATM   21  N   UNL     1     -11.400  10.585  70.929  1.00  0.00    -0.352 NA 
HETATM   22  H   UNL     1     -10.551  10.607  71.493  1.00  0.00     0.000 HD 
BRANCH  21  23
HETATM   23  C   UNL     1     -11.163  11.105  69.575  1.00  0.00    -0.277 C  
BRANCH  23  24
HETATM   24  C   UNL     1     -11.668  12.544  69.386  1.00  0.00    -0.383 C  
BRANCH  24  25
HETATM   25  C   UNL     1     -11.711  12.949  67.937  1.00  0.00    -0.405 A  
HETATM   26  C   UNL     1     -11.649  11.971  66.937  1.00  0.00    -0.389 A  
HETATM   27  C   UNL     1     -11.698  12.338  65.592  1.00  0.00    -0.440 A  
HETATM   28  C   UNL     1     -11.803  13.682  65.243  1.00  0.00    -0.365 A  
HETATM   29  C   UNL     1     -11.853  14.661  66.235  1.00  0.00    -0.299 A  
HETATM   30  C   UNL     1     -11.804  14.297  67.579  1.00  0.00    -0.429 A  
ENDBRANCH  24  25
ENDBRANCH  23  24
ENDBRANCH  21  23
ENDBRANCH  20  21
ENDBRANCH  19  20
ENDBRANCH  18  19
ENDBRANCH  17  18
ENDBRANCH  16  17
ENDBRANCH  15  16
ENDBRANCH  13  15
ENDBRANCH  12  13
ENDBRANCH  11  12
ENDBRANCH   8  11
TORSDOF 13
ENDMDL
MODEL      384
REMARK 921   NORMALIZED FREE ENERGY PREDICTED BY IDOCK:   -2.53 KCAL/MOL
REMARK 922        TOTAL FREE ENERGY PREDICTED BY IDOCK:   -7.20 KCAL/MOL
REMARK 923 INTER-LIGAND FREE ENERGY PREDICTED BY IDOCK:   -5.18 KCAL/MOL
REMARK 924 INTRA-LIGAND FREE ENERGY PREDICTED BY IDOCK:   -2.02 KCAL/MOL
REMARK 927      BINDING AFFINITY PREDICTED BY RF-SCORE:    0.00 PKD
ROOT
HETATM    1  O   UNL     1      -5.937   8.927  68.503  1.00  0.00    -0.044 OA 
HETATM    2  H   UNL     1      -5.916   8.434  67.691  1.00  0.00     0.000 HD 
HETATM    3  C   UNL     1      -5.885  10.293  68.556  1.00  0.00    -0.040 A  
HETATM    4  C   UNL     1      -5.916  11.016  69.745  1.00  0.00    -0.086 A  
HETATM    5  C   UNL     1      -5.897  12.412  69.719  1.00  0.00    -0.123 A  
HETATM    6  O   UNL     1      -5.965  10.418  70.972  1.00  0.00    -0.240 OA 
HETATM    7  H   UNL     1      -5.985  10.911  71.784  1.00  0.00     0.000 HD 
HETATM    8  C   UNL     1      -5.862  13.095  68.498  1.00  0.00    -0.081 A  
HETATM    9  C   UNL     1      -5.802  10.961  67.338  1.00  0.00    -0.046 A  
HETATM   10  C   UNL     1      -5.787  12.357  67.306  1.00  0.00    -0.125 A  
ENDROOT
BRANCH   8  11
HETATM   11  C   UNL     1      -5.891  14.603  68.456  1.00  0.00    -0.098 C  
BRANCH  11  12
HETATM   12  C   UNL     1      -7.083  15.122  67.649  1.00  0.00    -0.186 C  
BRANCH  12  13
HETATM   13  N   UNL     1      -8.051  15.790  68.527  1.00  0.00    -0.146 NA 
HETATM   14  H   UNL     1      -7.789  16.757  68.722  1.00  0.00     0.000 HD 
BRANCH  13  15
HETATM   15  C   UNL     1      -9.388  15.686  67.951  1.00  0.00    -0.195 C  
BRANCH  15  16
HETATM   16  C   UNL     1      -9.305  15.415  66.453  1.00  0.00    -0.331 C  
BRANCH  16  17
HETATM   17  C   UNL     1     -10.449  16.134  65.742  1.00  0.00    -0.384 C  
BRANCH  17  18
HETATM   18  C   UNL     1     -10.869  15.385  64.489  1.00  0.00    -0.140 C  
BRANCH  18  19
HETATM   19  C   UNL     1     -10.482  13.909  64.579  1.00  0.00    -0.334 C  
BRANCH  19  20
HETATM   20  C   UNL     1     -11.312  13.119  63.578  1.00  0.00    -0.165 C  
BRANCH  20  21
HETATM   21  N   UNL     1     -10.552  11.994  63.038  1.00  0.00    -0.619 NA 
HETATM   22  H   UNL     1      -9.971  12.277  62.250  1.00  0.00     0.000 HD 
BRANCH  21  23
HETATM   23  C   UNL     1      -9.760  11.337  64.087  1.00  0.00    -0.261 C  
BRANCH  23  24
HETATM   24  C   UNL     1     -10.624  10.615  65.132  1.00  0.00    -0.190 C  
BRANCH  24  25
HETATM   25  C   UNL     1     -10.613  11.315  66.465  1.00  0.00    -0.315 A  
HETATM   26  C   UNL     1      -9.400  11.533  67.128  1.00  0.00    -0.177 A  
HETATM   27  C   UNL     1      -9.379  12.191  68.358  1.00  0.00    -0.170 A  
HETATM   28  C   UNL     1     -10.572  12.627  68.931  1.00  0.00    -0.157 A  
HETATM   29  C   UNL     1     -11.785  12.402  68.280  1.00  0.00    -0.398 A  
HETATM   30  C   UNL     1     -11.806  11.745  67.051  1.00  0.00    -0.126 A  
ENDBRANCH  24  25
ENDBRANCH  23  24
ENDBRANCH  21  23
ENDBRANCH  20  21
ENDBRANCH  19  20
ENDBRANCH  18  19
ENDBRANCH  17  18
ENDBRANCH  16  17
ENDBRANCH  15  16
ENDBRANCH  13  15
ENDBRANCH  12  13
ENDBRANCH  11  12
ENDBRANCH   8  11
TORSDOF 13
ENDMDL
MODEL      385
REMARK 921   NORMALIZED FREE ENERGY PREDICTED BY IDOCK:   -2.53 KCAL/MOL
REMARK 922        TOTAL FREE ENERGY PREDICTED BY IDOCK:   -7.20 KCAL/MOL
REMARK 923 INTER-LIGAND FREE ENERGY PREDICTED BY IDOCK:   -5.95 KCAL/MOL
REMARK 924 INTRA-LIGAND FREE ENERGY PREDICTED BY IDOCK:   -1.25 KCAL/MOL
REMARK 927      BINDING AFFINITY PREDICTED BY RF-SCORE:    0.00 PKD
ROOT
HETATM    1  O   UNL     1     -13.488  10.212  70.502  1.00  0.00    -0.527 OA 
HETATM    2  H   UNL     1     -14.396   9.957  70.610  1.00  0.00     0.000 HD 
HETATM    3  C   UNL     1     -12.437   9.467  70.964  1.00  0.00    -0.239 A  
HETATM    4  C   UNL     1     -11.105   9.839  70.804  1.00  0.00    -0.345 A  
HETATM    5  C   UNL     1     -10.083   9.009  71.270  1.00  0.00    -0.384 A  
HETATM    6  O   UNL     1     -10.731  11.005  70.199  1.00  0.00    -0.454 OA 
HETATM    7  H   UNL     1      -9.822  11.259  70.090  1.00  0.00     0.000 HD 
HETATM    8  C   UNL     1     -10.390   7.791  71.888  1.00  0.00    -0.256 A  
HETATM    9  C   UNL     1     -12.754   8.281  71.619  1.00  0.00    -0.351 A  
HETATM   10  C   UNL     1     -11.736   7.446  72.083  1.00  0.00    -0.328 A  
ENDROOT
BRANCH   8  11
HETATM   11  C   UNL     1      -9.293   6.864  72.351  1.00  0.00    -0.149 C  
BRANCH  11  12
HETATM   12  C   UNL     1      -7.961   7.181  71.669  1.00  0.00    -0.097 C  
BRANCH  12  13
HETATM   13  N   UNL     1      -7.068   7.897  72.587  1.00  0.00    -0.077 NA 
HETATM   14  H   UNL     1      -6.546   7.261  73.191  1.00  0.00     0.000 HD 
BRANCH  13  15
HETATM   15  C   UNL     1      -6.188   8.781  71.827  1.00  0.00    -0.073 C  
BRANCH  15  16
HETATM   16  C   UNL     1      -6.565   8.766  70.350  1.00  0.00    -0.042 C  
BRANCH  16  17
HETATM   17  C   UNL     1      -6.362  10.159  69.759  1.00  0.00    -0.064 C  
BRANCH  17  18
HETATM   18  C   UNL     1      -7.623  10.649  69.069  1.00  0.00    -0.122 C  
BRANCH  18  19
HETATM   19  C   UNL     1      -7.681  10.157  67.624  1.00  0.00    -0.091 C  
BRANCH  19  20
HETATM   20  C   UNL     1      -8.305  11.242  66.757  1.00  0.00    -0.156 C  
BRANCH  20  21
HETATM   21  N   UNL     1      -8.311  12.528  67.451  1.00  0.00    -0.173 NA 
HETATM   22  H   UNL     1      -7.666  13.189  67.019  1.00  0.00     0.000 HD 
BRANCH  21  23
HETATM   23  C   UNL     1      -9.671  13.077  67.538  1.00  0.00    -0.206 C  
BRANCH  23  24
HETATM   24  C   UNL     1      -9.817  14.151  68.627  1.00  0.00    -0.206 C  
BRANCH  24  25
HETATM   25  C   UNL     1      -9.730  15.546  68.070  1.00  0.00    -0.207 A  
HETATM   26  C   UNL     1      -9.356  16.608  68.903  1.00  0.00    -0.244 A  
HETATM   27  C   UNL     1      -9.261  17.903  68.392  1.00  0.00    -0.289 A  
HETATM   28  C   UNL     1      -9.547  18.140  67.049  1.00  0.00    -0.287 A  
HETATM   29  C   UNL     1      -9.932  17.089  66.218  1.00  0.00    -0.324 A  
HETATM   30  C   UNL     1     -10.026  15.795  66.727  1.00  0.00    -0.260 A  
ENDBRANCH  24  25
ENDBRANCH  23  24
ENDBRANCH  21  23
ENDBRANCH  20  21
ENDBRANCH  19  20
ENDBRANCH  18  19
ENDBRANCH  17  18
ENDBRANCH  16  17
ENDBRANCH  15  16
ENDBRANCH  13  15
ENDBRANCH  12  13
ENDBRANCH  11  12
ENDBRANCH   8  11
TORSDOF 13
ENDMDL
MODEL      386
REMARK 921   NORMALIZED FREE ENERGY PREDICTED BY IDOCK:   -2.53 KCAL/MOL
REMARK 922        TOTAL FREE ENERGY PREDICTED BY IDOCK:   -7.20 KCAL/MOL
REMARK 923 INTER-LIGAND FREE ENERGY PREDICTED BY IDOCK:   -6.36 KCAL/MOL
REMARK 924 INTRA-LIGAND FREE ENERGY PREDICTED BY IDOCK:   -0.84 KCAL/MOL
REMARK 927      BINDING AFFINITY PREDICTED BY RF-SCORE:    0.00 PKD
ROOT
HETATM    1  O   UNL     1     -12.430  16.503  73.205  1.00  0.00    -0.402 OA 
HETATM    2  H   UNL     1     -12.870  16.599  74.041  1.00  0.00     0.000 HD 
HETATM    3  C   UNL     1     -12.442  15.345  72.476  1.00  0.00    -0.377 A  
HETATM    4  C   UNL     1     -11.798  15.204  71.251  1.00  0.00    -0.350 A  
HETATM    5  C   UNL     1     -11.885  14.001  70.546  1.00  0.00    -0.339 A  
HETATM    6  O   UNL     1     -11.065  16.205  70.682  1.00  0.00    -0.349 OA 
HETATM    7  H   UNL     1     -10.624  16.109  69.845  1.00  0.00     0.000 HD 
HETATM    8  C   UNL     1     -12.631  12.934  71.059  1.00  0.00    -0.376 A  
HETATM    9  C   UNL     1     -13.147  14.275  73.019  1.00  0.00    -0.526 A  
HETATM   10  C   UNL     1     -13.240  13.072  72.317  1.00  0.00    -0.539 A  
ENDROOT
BRANCH   8  11
HETATM   11  C   UNL     1     -12.773  11.648  70.284  1.00  0.00    -0.043 C  
BRANCH  11  12
HETATM   12  C   UNL     1     -12.921  10.443  71.214  1.00  0.00    -0.419 C  
BRANCH  12  13
HETATM   13  N   UNL     1     -12.165   9.295  70.698  1.00  0.00    -0.483 NA 
HETATM   14  H   UNL     1     -12.772   8.594  70.273  1.00  0.00     0.000 HD 
BRANCH  13  15
HETATM   15  C   UNL     1     -11.133   9.762  69.776  1.00  0.00    -0.237 C  
BRANCH  15  16
HETATM   16  C   UNL     1      -9.759   9.273  70.221  1.00  0.00    -0.274 C  
BRANCH  16  17
HETATM   17  C   UNL     1      -9.733   7.747  70.208  1.00  0.00    -0.179 C  
BRANCH  17  18
HETATM   18  C   UNL     1      -8.313   7.224  70.336  1.00  0.00    -0.130 C  
BRANCH  18  19
HETATM   19  C   UNL     1      -8.309   5.744  70.717  1.00  0.00    -0.124 C  
BRANCH  19  20
HETATM   20  C   UNL     1      -7.204   5.038  69.943  1.00  0.00    -0.055 C  
BRANCH  20  21
HETATM   21  N   UNL     1      -7.108   5.552  68.579  1.00  0.00    -0.064 NA 
HETATM   22  H   UNL     1      -6.159   5.849  68.356  1.00  0.00     0.000 HD 
BRANCH  21  23
HETATM   23  C   UNL     1      -7.612   4.573  67.606  1.00  0.00    -0.078 C  
BRANCH  23  24
HETATM   24  C   UNL     1      -8.935   5.000  66.952  1.00  0.00    -0.112 C  
BRANCH  24  25
HETATM   25  C   UNL     1      -9.070   4.483  65.545  1.00  0.00    -0.143 A  
HETATM   26  C   UNL     1     -10.335   4.165  65.037  1.00  0.00    -0.209 A  
HETATM   27  C   UNL     1     -10.471   3.695  63.730  1.00  0.00    -0.272 A  
HETATM   28  C   UNL     1      -9.342   3.538  62.930  1.00  0.00    -0.097 A  
HETATM   29  C   UNL     1      -8.078   3.843  63.434  1.00  0.00    -0.088 A  
HETATM   30  C   UNL     1      -7.941   4.311  64.740  1.00  0.00    -0.090 A  
ENDBRANCH  24  25
ENDBRANCH  23  24
ENDBRANCH  21  23
ENDBRANCH  20  21
ENDBRANCH  19  20
ENDBRANCH  18  19
ENDBRANCH  17  18
ENDBRANCH  16  17
ENDBRANCH  15  16
ENDBRANCH  13  15
ENDBRANCH  12  13
ENDBRANCH  11  12
ENDBRANCH   8  11
TORSDOF 13
ENDMDL
MODEL      387
REMARK 921   NORMALIZED FREE ENERGY PREDICTED BY IDOCK:   -2.52 KCAL/MOL
REMARK 922        TOTAL FREE ENERGY PREDICTED BY IDOCK:   -7.19 KCAL/MOL
REMARK 923 INTER-LIGAND FREE ENERGY PREDICTED BY IDOCK:   -5.70 KCAL/MOL
REMARK 924 INTRA-LIGAND FREE ENERGY PREDICTED BY IDOCK:   -1.49 KCAL/MOL
REMARK 927      BINDING AFFINITY PREDICTED BY RF-SCORE:    0.00 PKD
ROOT
HETATM    1  O   UNL     1      -8.006  19.445  68.110  1.00  0.00    -0.296 OA 
HETATM    2  H   UNL     1      -8.332  20.258  67.743  1.00  0.00     0.000 HD 
HETATM    3  C   UNL     1      -8.748  18.297  68.173  1.00  0.00    -0.281 A  
HETATM    4  C   UNL     1      -8.271  17.104  68.709  1.00  0.00    -0.238 A  
HETATM    5  C   UNL     1      -9.074  15.962  68.705  1.00  0.00    -0.206 A  
HETATM    6  O   UNL     1      -7.024  16.985  69.253  1.00  0.00    -0.235 OA 
HETATM    7  H   UNL     1      -6.698  16.172  69.619  1.00  0.00     0.000 HD 
HETATM    8  C   UNL     1     -10.358  16.003  68.150  1.00  0.00    -0.260 A  
HETATM    9  C   UNL     1     -10.041  18.362  67.662  1.00  0.00    -0.378 A  
HETATM   10  C   UNL     1     -10.846  17.222  67.653  1.00  0.00    -0.238 A  
ENDROOT
BRANCH   8  11
HETATM   11  C   UNL     1     -11.216  14.763  68.097  1.00  0.00    -0.307 C  
BRANCH  11  12
HETATM   12  C   UNL     1     -11.377  14.250  66.665  1.00  0.00    -0.349 C  
BRANCH  12  13
HETATM   13  N   UNL     1     -10.255  13.378  66.298  1.00  0.00    -0.291 NA 
HETATM   14  H   UNL     1      -9.387  13.901  66.172  1.00  0.00     0.000 HD 
BRANCH  13  15
HETATM   15  C   UNL     1     -10.117  12.314  67.289  1.00  0.00    -0.204 C  
BRANCH  15  16
HETATM   16  C   UNL     1      -9.355  11.132  66.699  1.00  0.00    -0.194 C  
BRANCH  16  17
HETATM   17  C   UNL     1     -10.348  10.096  66.179  1.00  0.00    -0.237 C  
BRANCH  17  18
HETATM   18  C   UNL     1      -9.815   8.686  66.369  1.00  0.00    -0.341 C  
BRANCH  18  19
HETATM   19  C   UNL     1     -10.598   7.948  67.453  1.00  0.00    -0.342 C  
BRANCH  19  20
HETATM   20  C   UNL     1     -11.008   6.581  66.923  1.00  0.00    -0.338 C  
BRANCH  20  21
HETATM   21  N   UNL     1     -10.344   5.511  67.663  1.00  0.00    -0.203 NA 
HETATM   22  H   UNL     1     -10.959   5.104  68.367  1.00  0.00     0.000 HD 
BRANCH  21  23
HETATM   23  C   UNL     1      -9.813   4.486  66.752  1.00  0.00    -0.221 C  
BRANCH  23  24
HETATM   24  C   UNL     1      -8.278   4.424  66.746  1.00  0.00    -0.102 C  
BRANCH  24  25
HETATM   25  C   UNL     1      -7.660   5.599  66.038  1.00  0.00    -0.087 A  
HETATM   26  C   UNL     1      -6.837   6.484  66.744  1.00  0.00    -0.066 A  
HETATM   27  C   UNL     1      -6.251   7.571  66.093  1.00  0.00    -0.041 A  
HETATM   28  C   UNL     1      -6.494   7.779  64.737  1.00  0.00    -0.044 A  
HETATM   29  C   UNL     1      -7.322   6.907  64.032  1.00  0.00    -0.087 A  
HETATM   30  C   UNL     1      -7.908   5.821  64.681  1.00  0.00    -0.116 A  
ENDBRANCH  24  25
ENDBRANCH  23  24
ENDBRANCH  21  23
ENDBRANCH  20  21
ENDBRANCH  19  20
ENDBRANCH  18  19
ENDBRANCH  17  18
ENDBRANCH  16  17
ENDBRANCH  15  16
ENDBRANCH  13  15
ENDBRANCH  12  13
ENDBRANCH  11  12
ENDBRANCH   8  11
TORSDOF 13
ENDMDL
MODEL      388
REMARK 921   NORMALIZED FREE ENERGY PREDICTED BY IDOCK:   -2.52 KCAL/MOL
REMARK 922        TOTAL FREE ENERGY PREDICTED BY IDOCK:   -7.19 KCAL/MOL
REMARK 923 INTER-LIGAND FREE ENERGY PREDICTED BY IDOCK:   -5.54 KCAL/MOL
REMARK 924 INTRA-LIGAND FREE ENERGY PREDICTED BY IDOCK:   -1.65 KCAL/MOL
REMARK 927      BINDING AFFINITY PREDICTED BY RF-SCORE:    0.00 PKD
ROOT
HETATM    1  O   UNL     1      -6.565  11.383  70.794  1.00  0.00    -0.450 OA 
HETATM    2  H   UNL     1      -6.850  12.213  70.430  1.00  0.00     0.000 HD 
HETATM    3  C   UNL     1      -7.044  10.173  70.371  1.00  0.00    -0.088 A  
HETATM    4  C   UNL     1      -6.627   8.956  70.904  1.00  0.00    -0.061 A  
HETATM    5  C   UNL     1      -7.132   7.758  70.396  1.00  0.00    -0.050 A  
HETATM    6  O   UNL     1      -5.724   8.867  71.925  1.00  0.00    -0.052 OA 
HETATM    7  H   UNL     1      -5.440   8.037  72.289  1.00  0.00     0.000 HD 
HETATM    8  C   UNL     1      -8.049   7.769  69.339  1.00  0.00    -0.126 A  
HETATM    9  C   UNL     1      -7.991  10.198  69.353  1.00  0.00    -0.155 A  
HETATM   10  C   UNL     1      -8.497   9.002  68.839  1.00  0.00    -0.130 A  
ENDROOT
BRANCH   8  11
HETATM   11  C   UNL     1      -8.565   6.479  68.751  1.00  0.00    -0.121 C  
BRANCH  11  12
HETATM   12  C   UNL     1      -8.804   6.602  67.245  1.00  0.00    -0.116 C  
BRANCH  12  13
HETATM   13  N   UNL     1      -7.538   6.828  66.537  1.00  0.00    -0.088 NA 
HETATM   14  H   UNL     1      -6.838   6.123  66.768  1.00  0.00     0.000 HD 
BRANCH  13  15
HETATM   15  C   UNL     1      -7.787   6.908  65.100  1.00  0.00    -0.120 C  
BRANCH  15  16
HETATM   16  C   UNL     1      -8.476   8.223  64.751  1.00  0.00    -0.089 C  
BRANCH  16  17
HETATM   17  C   UNL     1      -7.591   9.390  65.180  1.00  0.00    -0.108 C  
BRANCH  17  18
HETATM   18  C   UNL     1      -8.428  10.605  65.544  1.00  0.00    -0.177 C  
BRANCH  18  19
HETATM   19  C   UNL     1      -9.916  10.259  65.555  1.00  0.00    -0.364 C  
BRANCH  19  20
HETATM   20  C   UNL     1     -10.579  10.968  66.728  1.00  0.00    -0.266 C  
BRANCH  20  21
HETATM   21  N   UNL     1     -11.895  11.481  66.355  1.00  0.00    -0.306 NA 
HETATM   22  H   UNL     1     -12.392  11.860  67.161  1.00  0.00     0.000 HD 
BRANCH  21  23
HETATM   23  C   UNL     1     -11.793  12.466  65.269  1.00  0.00    -0.399 C  
BRANCH  23  24
HETATM   24  C   UNL     1     -12.241  13.874  65.690  1.00  0.00    -0.477 C  
BRANCH  24  25
HETATM   25  C   UNL     1     -11.142  14.645  66.369  1.00  0.00    -0.334 A  
HETATM   26  C   UNL     1     -11.404  15.330  67.562  1.00  0.00    -0.300 A  
HETATM   27  C   UNL     1     -10.388  16.039  68.204  1.00  0.00    -0.260 A  
HETATM   28  C   UNL     1      -9.109  16.069  67.652  1.00  0.00    -0.200 A  
HETATM   29  C   UNL     1      -8.845  15.398  66.459  1.00  0.00    -0.347 A  
HETATM   30  C   UNL     1      -9.859  14.690  65.816  1.00  0.00    -0.359 A  
ENDBRANCH  24  25
ENDBRANCH  23  24
ENDBRANCH  21  23
ENDBRANCH  20  21
ENDBRANCH  19  20
ENDBRANCH  18  19
ENDBRANCH  17  18
ENDBRANCH  16  17
ENDBRANCH  15  16
ENDBRANCH  13  15
ENDBRANCH  12  13
ENDBRANCH  11  12
ENDBRANCH   8  11
TORSDOF 13
ENDMDL
MODEL      389
REMARK 921   NORMALIZED FREE ENERGY PREDICTED BY IDOCK:   -2.52 KCAL/MOL
REMARK 922        TOTAL FREE ENERGY PREDICTED BY IDOCK:   -7.18 KCAL/MOL
REMARK 923 INTER-LIGAND FREE ENERGY PREDICTED BY IDOCK:   -5.72 KCAL/MOL
REMARK 924 INTRA-LIGAND FREE ENERGY PREDICTED BY IDOCK:   -1.46 KCAL/MOL
REMARK 927      BINDING AFFINITY PREDICTED BY RF-SCORE:    0.00 PKD
ROOT
HETATM    1  O   UNL     1      -9.740   4.273  66.719  1.00  0.00    -0.196 OA 
HETATM    2  H   UNL     1      -9.767   4.631  65.840  1.00  0.00     0.000 HD 
HETATM    3  C   UNL     1      -9.867   5.039  67.847  1.00  0.00    -0.151 A  
HETATM    4  C   UNL     1      -9.829   4.516  69.136  1.00  0.00    -0.152 A  
HETATM    5  C   UNL     1     -10.003   5.355  70.239  1.00  0.00    -0.298 A  
HETATM    6  O   UNL     1      -9.627   3.190  69.390  1.00  0.00    -0.150 OA 
HETATM    7  H   UNL     1      -9.600   2.832  70.270  1.00  0.00     0.000 HD 
HETATM    8  C   UNL     1     -10.230   6.724  70.056  1.00  0.00    -0.211 A  
HETATM    9  C   UNL     1     -10.044   6.405  67.655  1.00  0.00    -0.181 A  
HETATM   10  C   UNL     1     -10.222   7.248  68.754  1.00  0.00    -0.188 A  
ENDROOT
BRANCH   8  11
HETATM   11  C   UNL     1     -10.467   7.631  71.239  1.00  0.00    -0.223 C  
BRANCH  11  12
HETATM   12  C   UNL     1     -10.669   9.083  70.803  1.00  0.00    -0.241 C  
BRANCH  12  13
HETATM   13  N   UNL     1     -11.649   9.751  71.669  1.00  0.00    -0.351 NA 
HETATM   14  H   UNL     1     -11.275  10.604  72.085  1.00  0.00     0.000 HD 
BRANCH  13  15
HETATM   15  C   UNL     1     -12.879   9.995  70.921  1.00  0.00    -0.324 C  
BRANCH  15  16
HETATM   16  C   UNL     1     -12.783  11.309  70.152  1.00  0.00    -0.109 C  
BRANCH  16  17
HETATM   17  C   UNL     1     -12.518  12.452  71.128  1.00  0.00    -0.323 C  
BRANCH  17  18
HETATM   18  C   UNL     1     -11.958  13.667  70.408  1.00  0.00    -0.372 C  
BRANCH  18  19
HETATM   19  C   UNL     1     -12.029  13.484  68.893  1.00  0.00    -0.378 C  
BRANCH  19  20
HETATM   20  C   UNL     1     -10.744  14.011  68.271  1.00  0.00    -0.254 C  
BRANCH  20  21
HETATM   21  N   UNL     1      -9.782  12.931  68.060  1.00  0.00    -0.218 NA 
HETATM   22  H   UNL     1      -9.364  12.624  68.938  1.00  0.00     0.000 HD 
BRANCH  21  23
HETATM   23  C   UNL     1     -10.394  11.811  67.331  1.00  0.00    -0.204 C  
BRANCH  23  24
HETATM   24  C   UNL     1      -9.878  11.677  65.890  1.00  0.00    -0.262 C  
BRANCH  24  25
HETATM   25  C   UNL     1      -8.855  10.582  65.748  1.00  0.00    -0.190 A  
HETATM   26  C   UNL     1      -9.261   9.292  65.385  1.00  0.00    -0.284 A  
HETATM   27  C   UNL     1      -8.317   8.274  65.241  1.00  0.00    -0.175 A  
HETATM   28  C   UNL     1      -6.969   8.541  65.466  1.00  0.00    -0.074 A  
HETATM   29  C   UNL     1      -6.562   9.821  65.840  1.00  0.00    -0.083 A  
HETATM   30  C   UNL     1      -7.503  10.839  65.984  1.00  0.00    -0.125 A  
ENDBRANCH  24  25
ENDBRANCH  23  24
ENDBRANCH  21  23
ENDBRANCH  20  21
ENDBRANCH  19  20
ENDBRANCH  18  19
ENDBRANCH  17  18
ENDBRANCH  16  17
ENDBRANCH  15  16
ENDBRANCH  13  15
ENDBRANCH  12  13
ENDBRANCH  11  12
ENDBRANCH   8  11
TORSDOF 13
ENDMDL
MODEL      390
REMARK 921   NORMALIZED FREE ENERGY PREDICTED BY IDOCK:   -2.47 KCAL/MOL
REMARK 922        TOTAL FREE ENERGY PREDICTED BY IDOCK:   -7.10 KCAL/MOL
REMARK 923 INTER-LIGAND FREE ENERGY PREDICTED BY IDOCK:   -6.00 KCAL/MOL
REMARK 924 INTRA-LIGAND FREE ENERGY PREDICTED BY IDOCK:   -1.11 KCAL/MOL
REMARK 927      BINDING AFFINITY PREDICTED BY RF-SCORE:    0.00 PKD
ROOT
HETATM    1  O   UNL     1     -12.971   6.597  72.154  1.00  0.00    -0.551 OA 
HETATM    2  H   UNL     1     -13.688   6.597  71.532  1.00  0.00     0.000 HD 
HETATM    3  C   UNL     1     -11.703   7.008  71.842  1.00  0.00    -0.296 A  
HETATM    4  C   UNL     1     -10.652   7.010  72.754  1.00  0.00    -0.254 A  
HETATM    5  C   UNL     1      -9.393   7.479  72.373  1.00  0.00    -0.192 A  
HETATM    6  O   UNL     1     -10.787   6.567  74.039  1.00  0.00    -0.444 OA 
HETATM    7  H   UNL     1     -10.069   6.568  74.661  1.00  0.00     0.000 HD 
HETATM    8  C   UNL     1      -9.182   7.963  71.077  1.00  0.00    -0.164 A  
HETATM    9  C   UNL     1     -11.493   7.441  70.537  1.00  0.00    -0.281 A  
HETATM   10  C   UNL     1     -10.237   7.915  70.152  1.00  0.00    -0.202 A  
ENDROOT
BRANCH   8  11
HETATM   11  C   UNL     1      -7.839   8.516  70.669  1.00  0.00    -0.091 C  
BRANCH  11  12
HETATM   12  C   UNL     1      -6.776   7.419  70.595  1.00  0.00    -0.047 C  
BRANCH  12  13
HETATM   13  N   UNL     1      -5.880   7.644  69.454  1.00  0.00    -0.026 NA 
HETATM   14  H   UNL     1      -5.834   6.833  68.836  1.00  0.00     0.000 HD 
BRANCH  13  15
HETATM   15  C   UNL     1      -6.283   8.855  68.744  1.00  0.00    -0.045 C  
BRANCH  15  16
HETATM   16  C   UNL     1      -6.184   8.647  67.237  1.00  0.00    -0.056 C  
BRANCH  16  17
HETATM   17  C   UNL     1      -7.085   9.653  66.525  1.00  0.00    -0.089 C  
BRANCH  17  18
HETATM   18  C   UNL     1      -8.177  10.159  67.451  1.00  0.00    -0.114 C  
BRANCH  18  19
HETATM   19  C   UNL     1      -8.942  11.318  66.813  1.00  0.00    -0.173 C  
BRANCH  19  20
HETATM   20  C   UNL     1     -10.354  10.856  66.484  1.00  0.00    -0.247 C  
BRANCH  20  21
HETATM   21  N   UNL     1     -11.066  11.861  65.698  1.00  0.00    -0.313 NA 
HETATM   22  H   UNL     1     -11.510  11.450  64.878  1.00  0.00     0.000 HD 
BRANCH  21  23
HETATM   23  C   UNL     1     -12.032  12.597  66.526  1.00  0.00    -0.331 C  
BRANCH  23  24
HETATM   24  C   UNL     1     -11.778  12.437  68.033  1.00  0.00    -0.414 C  
BRANCH  24  25
HETATM   25  C   UNL     1     -11.187  13.677  68.647  1.00  0.00    -0.308 A  
HETATM   26  C   UNL     1     -11.750  14.215  69.810  1.00  0.00    -0.370 A  
HETATM   27  C   UNL     1     -11.201  15.359  70.393  1.00  0.00    -0.345 A  
HETATM   28  C   UNL     1     -10.093  15.969  69.810  1.00  0.00    -0.212 A  
HETATM   29  C   UNL     1      -9.536  15.444  68.645  1.00  0.00    -0.205 A  
HETATM   30  C   UNL     1     -10.083  14.303  68.062  1.00  0.00    -0.227 A  
ENDBRANCH  24  25
ENDBRANCH  23  24
ENDBRANCH  21  23
ENDBRANCH  20  21
ENDBRANCH  19  20
ENDBRANCH  18  19
ENDBRANCH  17  18
ENDBRANCH  16  17
ENDBRANCH  15  16
ENDBRANCH  13  15
ENDBRANCH  12  13
ENDBRANCH  11  12
ENDBRANCH   8  11
TORSDOF 13
ENDMDL
MODEL      391
REMARK 921   NORMALIZED FREE ENERGY PREDICTED BY IDOCK:   -2.46 KCAL/MOL
REMARK 922        TOTAL FREE ENERGY PREDICTED BY IDOCK:   -7.09 KCAL/MOL
REMARK 923 INTER-LIGAND FREE ENERGY PREDICTED BY IDOCK:   -6.51 KCAL/MOL
REMARK 924 INTRA-LIGAND FREE ENERGY PREDICTED BY IDOCK:   -0.58 KCAL/MOL
REMARK 927      BINDING AFFINITY PREDICTED BY RF-SCORE:    0.00 PKD
ROOT
HETATM    1  O   UNL     1      -8.569  18.492  68.713  1.00  0.00    -0.311 OA 
HETATM    2  H   UNL     1      -9.044  19.006  69.354  1.00  0.00     0.000 HD 
HETATM    3  C   UNL     1      -8.990  17.269  68.266  1.00  0.00    -0.262 A  
HETATM    4  C   UNL     1      -8.294  16.515  67.325  1.00  0.00    -0.174 A  
HETATM    5  C   UNL     1      -8.806  15.291  66.888  1.00  0.00    -0.281 A  
HETATM    6  O   UNL     1      -7.105  16.918  66.788  1.00  0.00    -0.190 OA 
HETATM    7  H   UNL     1      -6.630  16.404  66.146  1.00  0.00     0.000 HD 
HETATM    8  C   UNL     1     -10.028  14.820  67.382  1.00  0.00    -0.223 A  
HETATM    9  C   UNL     1     -10.181  16.787  68.799  1.00  0.00    -0.299 A  
HETATM   10  C   UNL     1     -10.699  15.566  68.363  1.00  0.00    -0.263 A  
ENDROOT
BRANCH   8  11
HETATM   11  C   UNL     1     -10.613  13.523  66.882  1.00  0.00    -0.270 C  
BRANCH  11  12
HETATM   12  C   UNL     1     -12.031  13.302  67.412  1.00  0.00    -0.335 C  
BRANCH  12  13
HETATM   13  N   UNL     1     -12.111  12.047  68.168  1.00  0.00    -0.448 NA 
HETATM   14  H   UNL     1     -12.030  11.228  67.563  1.00  0.00     0.000 HD 
BRANCH  13  15
HETATM   15  C   UNL     1     -11.107  12.048  69.229  1.00  0.00    -0.185 C  
BRANCH  15  16
HETATM   16  C   UNL     1     -11.743  11.676  70.564  1.00  0.00    -0.196 C  
BRANCH  16  17
HETATM   17  C   UNL     1     -12.703  10.507  70.362  1.00  0.00    -0.325 C  
BRANCH  17  18
HETATM   18  C   UNL     1     -13.310  10.063  71.682  1.00  0.00    -0.468 C  
BRANCH  18  19
HETATM   19  C   UNL     1     -12.391   9.076  72.400  1.00  0.00    -0.350 C  
BRANCH  19  20
HETATM   20  C   UNL     1     -12.238   7.829  71.541  1.00  0.00    -0.318 C  
BRANCH  20  21
HETATM   21  N   UNL     1     -12.832   6.665  72.195  1.00  0.00    -0.554 NA 
HETATM   22  H   UNL     1     -13.510   6.201  71.592  1.00  0.00     0.000 HD 
BRANCH  21  23
HETATM   23  C   UNL     1     -11.797   5.733  72.664  1.00  0.00    -0.142 C  
BRANCH  23  24
HETATM   24  C   UNL     1     -10.565   6.445  73.244  1.00  0.00    -0.291 C  
BRANCH  24  25
HETATM   25  C   UNL     1      -9.275   5.813  72.794  1.00  0.00    -0.136 A  
HETATM   26  C   UNL     1      -8.394   5.276  73.740  1.00  0.00    -0.111 A  
HETATM   27  C   UNL     1      -7.201   4.679  73.330  1.00  0.00    -0.080 A  
HETATM   28  C   UNL     1      -6.884   4.624  71.975  1.00  0.00    -0.054 A  
HETATM   29  C   UNL     1      -7.752   5.167  71.030  1.00  0.00    -0.095 A  
HETATM   30  C   UNL     1      -8.944   5.764  71.437  1.00  0.00    -0.147 A  
ENDBRANCH  24  25
ENDBRANCH  23  24
ENDBRANCH  21  23
ENDBRANCH  20  21
ENDBRANCH  19  20
ENDBRANCH  18  19
ENDBRANCH  17  18
ENDBRANCH  16  17
ENDBRANCH  15  16
ENDBRANCH  13  15
ENDBRANCH  12  13
ENDBRANCH  11  12
ENDBRANCH   8  11
TORSDOF 13
ENDMDL
MODEL      392
REMARK 921   NORMALIZED FREE ENERGY PREDICTED BY IDOCK:   -2.41 KCAL/MOL
REMARK 922        TOTAL FREE ENERGY PREDICTED BY IDOCK:   -7.00 KCAL/MOL
REMARK 923 INTER-LIGAND FREE ENERGY PREDICTED BY IDOCK:   -6.37 KCAL/MOL
REMARK 924 INTRA-LIGAND FREE ENERGY PREDICTED BY IDOCK:   -0.63 KCAL/MOL
REMARK 927      BINDING AFFINITY PREDICTED BY RF-SCORE:    0.00 PKD
ROOT
HETATM    1  O   UNL     1      -7.552   3.791  69.977  1.00  0.00    -0.048 OA 
HETATM    2  H   UNL     1      -6.888   3.554  69.341  1.00  0.00     0.000 HD 
HETATM    3  C   UNL     1      -7.916   5.084  70.240  1.00  0.00    -0.078 A  
HETATM    4  C   UNL     1      -8.889   5.431  71.173  1.00  0.00    -0.136 A  
HETATM    5  C   UNL     1      -9.234   6.771  71.361  1.00  0.00    -0.153 A  
HETATM    6  O   UNL     1      -9.545   4.508  71.936  1.00  0.00    -0.140 OA 
HETATM    7  H   UNL     1     -10.209   4.745  72.572  1.00  0.00     0.000 HD 
HETATM    8  C   UNL     1      -8.615   7.773  70.604  1.00  0.00    -0.127 A  
HETATM    9  C   UNL     1      -7.260   6.075  69.517  1.00  0.00    -0.070 A  
HETATM   10  C   UNL     1      -7.604   7.416  69.699  1.00  0.00    -0.095 A  
ENDROOT
BRANCH   8  11
HETATM   11  C   UNL     1      -9.015   9.219  70.765  1.00  0.00    -0.292 C  
BRANCH  11  12
HETATM   12  C   UNL     1     -10.496   9.358  71.118  1.00  0.00    -0.322 C  
BRANCH  12  13
HETATM   13  N   UNL     1     -11.100  10.477  70.385  1.00  0.00    -0.409 NA 
HETATM   14  H   UNL     1     -10.980  11.366  70.873  1.00  0.00     0.000 HD 
BRANCH  13  15
HETATM   15  C   UNL     1     -10.566  10.519  69.027  1.00  0.00    -0.222 C  
BRANCH  15  16
HETATM   16  C   UNL     1     -11.621  11.034  68.054  1.00  0.00    -0.326 C  
BRANCH  16  17
HETATM   17  C   UNL     1     -11.054  12.210  67.264  1.00  0.00    -0.341 C  
BRANCH  17  18
HETATM   18  C   UNL     1     -11.595  13.530  67.785  1.00  0.00    -0.374 C  
BRANCH  18  19
HETATM   19  C   UNL     1     -10.756  14.702  67.279  1.00  0.00    -0.290 C  
BRANCH  19  20
HETATM   20  C   UNL     1     -10.626  15.733  68.391  1.00  0.00    -0.264 C  
BRANCH  20  21
HETATM   21  N   UNL     1     -10.995  17.065  67.918  1.00  0.00    -0.298 NA 
HETATM   22  H   UNL     1     -11.925  17.333  68.240  1.00  0.00     0.000 HD 
BRANCH  21  23
HETATM   23  C   UNL     1      -9.984  18.063  68.295  1.00  0.00    -0.371 C  
BRANCH  23  24
HETATM   24  C   UNL     1      -8.596  17.765  67.708  1.00  0.00    -0.237 C  
BRANCH  24  25
HETATM   25  C   UNL     1      -7.483  18.205  68.620  1.00  0.00    -0.300 A  
HETATM   26  C   UNL     1      -7.218  19.569  68.788  1.00  0.00    -0.391 A  
HETATM   27  C   UNL     1      -6.195  19.987  69.641  1.00  0.00    -0.383 A  
HETATM   28  C   UNL     1      -5.431  19.042  70.321  1.00  0.00    -0.246 A  
HETATM   29  C   UNL     1      -5.682  17.681  70.148  1.00  0.00    -0.227 A  
HETATM   30  C   UNL     1      -6.704  17.263  69.297  1.00  0.00    -0.230 A  
ENDBRANCH  24  25
ENDBRANCH  23  24
ENDBRANCH  21  23
ENDBRANCH  20  21
ENDBRANCH  19  20
ENDBRANCH  18  19
ENDBRANCH  17  18
ENDBRANCH  16  17
ENDBRANCH  15  16
ENDBRANCH  13  15
ENDBRANCH  12  13
ENDBRANCH  11  12
ENDBRANCH   8  11
TORSDOF 13
ENDMDL
MODEL      393
REMARK 921   NORMALIZED FREE ENERGY PREDICTED BY IDOCK:   -2.38 KCAL/MOL
REMARK 922        TOTAL FREE ENERGY PREDICTED BY IDOCK:   -6.95 KCAL/MOL
REMARK 923 INTER-LIGAND FREE ENERGY PREDICTED BY IDOCK:   -5.24 KCAL/MOL
REMARK 924 INTRA-LIGAND FREE ENERGY PREDICTED BY IDOCK:   -1.71 KCAL/MOL
REMARK 927      BINDING AFFINITY PREDICTED BY RF-SCORE:    0.00 PKD
ROOT
HETATM    1  O   UNL     1      -6.296   8.046  68.750  1.00  0.00    -0.042 OA 
HETATM    2  H   UNL     1      -6.198   7.444  68.022  1.00  0.00     0.000 HD 
HETATM    3  C   UNL     1      -6.380   9.403  68.600  1.00  0.00    -0.048 A  
HETATM    4  C   UNL     1      -6.525  10.285  69.668  1.00  0.00    -0.069 A  
HETATM    5  C   UNL     1      -6.642  11.657  69.434  1.00  0.00    -0.115 A  
HETATM    6  O   UNL     1      -6.562   9.871  70.968  1.00  0.00    -0.277 OA 
HETATM    7  H   UNL     1      -6.661  10.472  71.697  1.00  0.00     0.000 HD 
HETATM    8  C   UNL     1      -6.628  12.154  68.126  1.00  0.00    -0.061 A  
HETATM    9  C   UNL     1      -6.317   9.891  67.299  1.00  0.00    -0.068 A  
HETATM   10  C   UNL     1      -6.436  11.262  67.060  1.00  0.00    -0.114 A  
ENDROOT
BRANCH   8  11
HETATM   11  C   UNL     1      -6.802  13.629  67.860  1.00  0.00    -0.155 C  
BRANCH  11  12
HETATM   12  C   UNL     1      -8.246  13.968  67.488  1.00  0.00    -0.186 C  
BRANCH  12  13
HETATM   13  N   UNL     1      -9.049  14.203  68.694  1.00  0.00    -0.302 NA 
HETATM   14  H   UNL     1      -8.758  15.045  69.192  1.00  0.00     0.000 HD 
BRANCH  13  15
HETATM   15  C   UNL     1     -10.466  14.233  68.343  1.00  0.00    -0.249 C  
BRANCH  15  16
HETATM   16  C   UNL     1     -10.654  13.939  66.858  1.00  0.00    -0.280 C  
BRANCH  16  17
HETATM   17  C   UNL     1     -12.138  13.742  66.563  1.00  0.00    -0.483 C  
BRANCH  17  18
HETATM   18  C   UNL     1     -12.353  13.268  65.136  1.00  0.00    -0.516 C  
BRANCH  18  19
HETATM   19  C   UNL     1     -11.090  12.609  64.583  1.00  0.00    -0.348 C  
BRANCH  19  20
HETATM   20  C   UNL     1     -11.376  12.090  63.181  1.00  0.00    -0.169 C  
BRANCH  20  21
HETATM   21  N   UNL     1     -10.564  10.914  62.881  1.00  0.00    -0.776 NA 
HETATM   22  H   UNL     1     -10.040  11.031  62.014  1.00  0.00     0.000 HD 
BRANCH  21  23
HETATM   23  C   UNL     1      -9.679  10.578  64.006  1.00  0.00    -0.323 C  
BRANCH  23  24
HETATM   24  C   UNL     1      -8.218  10.366  63.581  1.00  0.00    -0.129 C  
BRANCH  24  25
HETATM   25  C   UNL     1      -7.736   8.970  63.869  1.00  0.00    -0.125 A  
HETATM   26  C   UNL     1      -8.402   8.185  64.818  1.00  0.00    -0.113 A  
HETATM   27  C   UNL     1      -7.968   6.885  65.084  1.00  0.00    -0.125 A  
HETATM   28  C   UNL     1      -6.864   6.371  64.408  1.00  0.00    -0.042 A  
HETATM   29  C   UNL     1      -6.190   7.153  63.470  1.00  0.00    -0.044 A  
HETATM   30  C   UNL     1      -6.622   8.451  63.204  1.00  0.00    -0.086 A  
ENDBRANCH  24  25
ENDBRANCH  23  24
ENDBRANCH  21  23
ENDBRANCH  20  21
ENDBRANCH  19  20
ENDBRANCH  18  19
ENDBRANCH  17  18
ENDBRANCH  16  17
ENDBRANCH  15  16
ENDBRANCH  13  15
ENDBRANCH  12  13
ENDBRANCH  11  12
ENDBRANCH   8  11
TORSDOF 13
ENDMDL
MODEL      394
REMARK 921   NORMALIZED FREE ENERGY PREDICTED BY IDOCK:   -2.38 KCAL/MOL
REMARK 922        TOTAL FREE ENERGY PREDICTED BY IDOCK:   -6.94 KCAL/MOL
REMARK 923 INTER-LIGAND FREE ENERGY PREDICTED BY IDOCK:   -6.80 KCAL/MOL
REMARK 924 INTRA-LIGAND FREE ENERGY PREDICTED BY IDOCK:   -0.13 KCAL/MOL
REMARK 927      BINDING AFFINITY PREDICTED BY RF-SCORE:    0.00 PKD
ROOT
HETATM    1  O   UNL     1     -10.840  14.303  63.847  1.00  0.00    -0.306 OA 
HETATM    2  H   UNL     1     -11.301  14.794  63.178  1.00  0.00     0.000 HD 
HETATM    3  C   UNL     1     -10.573  14.797  65.095  1.00  0.00    -0.417 A  
HETATM    4  C   UNL     1      -9.897  14.078  66.076  1.00  0.00    -0.297 A  
HETATM    5  C   UNL     1      -9.694  14.635  67.340  1.00  0.00    -0.218 A  
HETATM    6  O   UNL     1      -9.408  12.820  65.865  1.00  0.00    -0.442 OA 
HETATM    7  H   UNL     1      -8.946  12.329  66.534  1.00  0.00     0.000 HD 
HETATM    8  C   UNL     1     -10.179  15.914  67.635  1.00  0.00    -0.263 A  
HETATM    9  C   UNL     1     -11.018  16.088  65.361  1.00  0.00    -0.261 A  
HETATM   10  C   UNL     1     -10.821  16.648  66.625  1.00  0.00    -0.024 A  
ENDROOT
BRANCH   8  11
HETATM   11  C   UNL     1     -10.008  16.506  69.012  1.00  0.00    -0.275 C  
BRANCH  11  12
HETATM   12  C   UNL     1     -11.350  16.666  69.728  1.00  0.00     0.092 C  
BRANCH  12  13
HETATM   13  N   UNL     1     -11.909  15.355  70.077  1.00  0.00    -0.318 NA 
HETATM   14  H   UNL     1     -11.181  14.669  70.282  1.00  0.00     0.000 HD 
BRANCH  13  15
HETATM   15  C   UNL     1     -12.854  15.502  71.181  1.00  0.00    -0.489 C  
BRANCH  15  16
HETATM   16  C   UNL     1     -12.749  14.316  72.134  1.00  0.00    -0.388 C  
BRANCH  16  17
HETATM   17  C   UNL     1     -13.212  13.048  71.421  1.00  0.00    -0.276 C  
BRANCH  17  18
HETATM   18  C   UNL     1     -12.215  12.625  70.357  1.00  0.00    -0.368 C  
BRANCH  18  19
HETATM   19  C   UNL     1     -12.154  11.103  70.239  1.00  0.00    -0.462 C  
BRANCH  19  20
HETATM   20  C   UNL     1     -11.280  10.734  69.049  1.00  0.00    -0.262 C  
BRANCH  20  21
HETATM   21  N   UNL     1      -9.898  10.505  69.464  1.00  0.00    -0.383 NA 
HETATM   22  H   UNL     1      -9.807  10.506  70.480  1.00  0.00     0.000 HD 
BRANCH  21  23
HETATM   23  C   UNL     1      -9.365   9.269  68.875  1.00  0.00    -0.150 C  
BRANCH  23  24
HETATM   24  C   UNL     1      -8.434   8.500  69.826  1.00  0.00    -0.129 C  
BRANCH  24  25
HETATM   25  C   UNL     1      -9.008   7.172  70.238  1.00  0.00    -0.152 A  
HETATM   26  C   UNL     1      -8.403   6.439  71.266  1.00  0.00    -0.123 A  
HETATM   27  C   UNL     1      -8.935   5.211  71.662  1.00  0.00    -0.149 A  
HETATM   28  C   UNL     1     -10.069   4.711  71.026  1.00  0.00    -0.246 A  
HETATM   29  C   UNL     1     -10.669   5.430  69.994  1.00  0.00    -0.296 A  
HETATM   30  C   UNL     1     -10.139   6.657  69.598  1.00  0.00    -0.202 A  
ENDBRANCH  24  25
ENDBRANCH  23  24
ENDBRANCH  21  23
ENDBRANCH  20  21
ENDBRANCH  19  20
ENDBRANCH  18  19
ENDBRANCH  17  18
ENDBRANCH  16  17
ENDBRANCH  15  16
ENDBRANCH  13  15
ENDBRANCH  12  13
ENDBRANCH  11  12
ENDBRANCH   8  11
TORSDOF 13
ENDMDL
MODEL      395
REMARK 921   NORMALIZED FREE ENERGY PREDICTED BY IDOCK:   -2.37 KCAL/MOL
REMARK 922        TOTAL FREE ENERGY PREDICTED BY IDOCK:   -6.93 KCAL/MOL
REMARK 923 INTER-LIGAND FREE ENERGY PREDICTED BY IDOCK:   -6.10 KCAL/MOL
REMARK 924 INTRA-LIGAND FREE ENERGY PREDICTED BY IDOCK:   -0.83 KCAL/MOL
REMARK 927      BINDING AFFINITY PREDICTED BY RF-SCORE:    0.00 PKD
ROOT
HETATM    1  O   UNL     1     -13.338  14.769  65.065  1.00  0.00    -0.139 OA 
HETATM    2  H   UNL     1     -13.415  15.668  65.362  1.00  0.00     0.000 HD 
HETATM    3  C   UNL     1     -12.298  13.949  65.410  1.00  0.00    -0.470 A  
HETATM    4  C   UNL     1     -12.184  12.632  64.976  1.00  0.00    -0.476 A  
HETATM    5  C   UNL     1     -11.112  11.843  65.400  1.00  0.00    -0.360 A  
HETATM    6  O   UNL     1     -13.089  12.050  64.135  1.00  0.00    -0.661 OA 
HETATM    7  H   UNL     1     -13.011  11.151  63.838  1.00  0.00     0.000 HD 
HETATM    8  C   UNL     1     -10.153  12.366  66.275  1.00  0.00    -0.257 A  
HETATM    9  C   UNL     1     -11.324  14.494  66.241  1.00  0.00    -0.352 A  
HETATM   10  C   UNL     1     -10.253  13.709  66.671  1.00  0.00    -0.276 A  
ENDROOT
BRANCH   8  11
HETATM   11  C   UNL     1      -9.018  11.508  66.778  1.00  0.00    -0.181 C  
BRANCH  11  12
HETATM   12  C   UNL     1      -7.871  12.357  67.329  1.00  0.00    -0.166 C  
BRANCH  12  13
HETATM   13  N   UNL     1      -7.962  12.462  68.790  1.00  0.00    -0.322 NA 
HETATM   14  H   UNL     1      -8.779  11.976  69.161  1.00  0.00     0.000 HD 
BRANCH  13  15
HETATM   15  C   UNL     1      -6.719  11.988  69.394  1.00  0.00    -0.070 C  
BRANCH  15  16
HETATM   16  C   UNL     1      -6.524  10.502  69.116  1.00  0.00    -0.054 C  
BRANCH  16  17
HETATM   17  C   UNL     1      -7.098   9.689  70.274  1.00  0.00    -0.127 C  
BRANCH  17  18
HETATM   18  C   UNL     1      -8.593   9.476  70.103  1.00  0.00    -0.250 C  
BRANCH  18  19
HETATM   19  C   UNL     1      -8.874   8.274  69.203  1.00  0.00    -0.143 C  
BRANCH  19  20
HETATM   20  C   UNL     1      -7.896   7.159  69.548  1.00  0.00    -0.119 C  
BRANCH  20  21
HETATM   21  N   UNL     1      -8.402   6.339  70.646  1.00  0.00    -0.131 NA 
HETATM   22  H   UNL     1      -8.454   6.868  71.515  1.00  0.00     0.000 HD 
BRANCH  21  23
HETATM   23  C   UNL     1      -9.696   5.732  70.302  1.00  0.00    -0.175 C  
BRANCH  23  24
HETATM   24  C   UNL     1      -9.692   4.200  70.419  1.00  0.00    -0.271 C  
BRANCH  24  25
HETATM   25  C   UNL     1      -9.462   3.527  69.093  1.00  0.00    -0.224 A  
HETATM   26  C   UNL     1      -9.173   2.157  69.048  1.00  0.00    -0.201 A  
HETATM   27  C   UNL     1      -8.969   1.522  67.822  1.00  0.00    -0.162 A  
HETATM   28  C   UNL     1      -9.046   2.256  66.640  1.00  0.00    -0.092 A  
HETATM   29  C   UNL     1      -9.321   3.622  66.681  1.00  0.00    -0.206 A  
HETATM   30  C   UNL     1      -9.526   4.258  67.904  1.00  0.00    -0.216 A  
ENDBRANCH  24  25
ENDBRANCH  23  24
ENDBRANCH  21  23
ENDBRANCH  20  21
ENDBRANCH  19  20
ENDBRANCH  18  19
ENDBRANCH  17  18
ENDBRANCH  16  17
ENDBRANCH  15  16
ENDBRANCH  13  15
ENDBRANCH  12  13
ENDBRANCH  11  12
ENDBRANCH   8  11
TORSDOF 13
ENDMDL
MODEL      396
REMARK 921   NORMALIZED FREE ENERGY PREDICTED BY IDOCK:   -2.36 KCAL/MOL
REMARK 922        TOTAL FREE ENERGY PREDICTED BY IDOCK:   -6.92 KCAL/MOL
REMARK 923 INTER-LIGAND FREE ENERGY PREDICTED BY IDOCK:   -4.66 KCAL/MOL
REMARK 924 INTRA-LIGAND FREE ENERGY PREDICTED BY IDOCK:   -2.26 KCAL/MOL
REMARK 927      BINDING AFFINITY PREDICTED BY RF-SCORE:    0.00 PKD
ROOT
HETATM    1  O   UNL     1      -6.496  12.887  70.478  1.00  0.00    -0.446 OA 
HETATM    2  H   UNL     1      -6.684  12.870  71.409  1.00  0.00     0.000 HD 
HETATM    3  C   UNL     1      -6.487  11.767  69.692  1.00  0.00    -0.113 A  
HETATM    4  C   UNL     1      -6.212  11.790  68.328  1.00  0.00    -0.050 A  
HETATM    5  C   UNL     1      -6.258  10.610  67.582  1.00  0.00    -0.055 A  
HETATM    6  O   UNL     1      -5.893  12.937  67.658  1.00  0.00    -0.125 OA 
HETATM    7  H   UNL     1      -5.705  12.953  66.727  1.00  0.00     0.000 HD 
HETATM    8  C   UNL     1      -6.593   9.399  68.197  1.00  0.00    -0.059 A  
HETATM    9  C   UNL     1      -6.774  10.561  70.323  1.00  0.00    -0.127 A  
HETATM   10  C   UNL     1      -6.824   9.379  69.581  1.00  0.00    -0.056 A  
ENDROOT
BRANCH   8  11
HETATM   11  C   UNL     1      -6.693   8.127  67.392  1.00  0.00    -0.066 C  
BRANCH  11  12
HETATM   12  C   UNL     1      -8.145   7.788  67.050  1.00  0.00    -0.117 C  
BRANCH  12  13
HETATM   13  N   UNL     1      -8.640   6.707  67.911  1.00  0.00    -0.118 NA 
HETATM   14  H   UNL     1      -8.816   7.024  68.864  1.00  0.00     0.000 HD 
BRANCH  13  15
HETATM   15  C   UNL     1      -9.821   6.099  67.305  1.00  0.00    -0.134 C  
BRANCH  15  16
HETATM   16  C   UNL     1     -11.091   6.651  67.944  1.00  0.00    -0.310 C  
BRANCH  16  17
HETATM   17  C   UNL     1     -10.964   6.591  69.464  1.00  0.00    -0.398 C  
BRANCH  17  18
HETATM   18  C   UNL     1     -10.971   7.985  70.068  1.00  0.00    -0.202 C  
BRANCH  18  19
HETATM   19  C   UNL     1     -11.955   8.070  71.233  1.00  0.00    -0.321 C  
BRANCH  19  20
HETATM   20  C   UNL     1     -11.189   8.420  72.502  1.00  0.00    -0.336 C  
BRANCH  20  21
HETATM   21  N   UNL     1      -9.804   8.771  72.198  1.00  0.00    -0.314 NA 
HETATM   22  H   UNL     1      -9.666   9.781  72.191  1.00  0.00     0.000 HD 
BRANCH  21  23
HETATM   23  C   UNL     1      -8.873   8.104  73.120  1.00  0.00    -0.257 C  
BRANCH  23  24
HETATM   24  C   UNL     1      -9.333   6.695  73.525  1.00  0.00    -0.165 C  
BRANCH  24  25
HETATM   25  C   UNL     1      -9.043   5.671  72.461  1.00  0.00    -0.138 A  
HETATM   26  C   UNL     1      -9.874   4.553  72.325  1.00  0.00    -0.227 A  
HETATM   27  C   UNL     1      -9.620   3.604  71.334  1.00  0.00    -0.237 A  
HETATM   28  C   UNL     1      -8.531   3.768  70.482  1.00  0.00    -0.100 A  
HETATM   29  C   UNL     1      -7.693   4.874  70.620  1.00  0.00    -0.066 A  
HETATM   30  C   UNL     1      -7.946   5.822  71.609  1.00  0.00    -0.117 A  
ENDBRANCH  24  25
ENDBRANCH  23  24
ENDBRANCH  21  23
ENDBRANCH  20  21
ENDBRANCH  19  20
ENDBRANCH  18  19
ENDBRANCH  17  18
ENDBRANCH  16  17
ENDBRANCH  15  16
ENDBRANCH  13  15
ENDBRANCH  12  13
ENDBRANCH  11  12
ENDBRANCH   8  11
TORSDOF 13
ENDMDL
MODEL      397
REMARK 921   NORMALIZED FREE ENERGY PREDICTED BY IDOCK:   -2.28 KCAL/MOL
REMARK 922        TOTAL FREE ENERGY PREDICTED BY IDOCK:   -6.77 KCAL/MOL
REMARK 923 INTER-LIGAND FREE ENERGY PREDICTED BY IDOCK:   -5.33 KCAL/MOL
REMARK 924 INTRA-LIGAND FREE ENERGY PREDICTED BY IDOCK:   -1.44 KCAL/MOL
REMARK 927      BINDING AFFINITY PREDICTED BY RF-SCORE:    0.00 PKD
ROOT
HETATM    1  O   UNL     1      -6.293  13.224  70.831  1.00  0.00    -0.495 OA 
HETATM    2  H   UNL     1      -6.507  13.062  71.742  1.00  0.00     0.000 HD 
HETATM    3  C   UNL     1      -6.161  12.229  69.901  1.00  0.00    -0.110 A  
HETATM    4  C   UNL     1      -5.847  12.465  68.566  1.00  0.00    -0.054 A  
HETATM    5  C   UNL     1      -5.767  11.401  67.665  1.00  0.00    -0.050 A  
HETATM    6  O   UNL     1      -5.608  13.716  68.073  1.00  0.00    -0.107 OA 
HETATM    7  H   UNL     1      -5.393  13.878  67.162  1.00  0.00     0.000 HD 
HETATM    8  C   UNL     1      -6.015  10.092  68.093  1.00  0.00    -0.041 A  
HETATM    9  C   UNL     1      -6.362  10.927  70.348  1.00  0.00    -0.090 A  
HETATM   10  C   UNL     1      -6.287   9.860  69.451  1.00  0.00    -0.045 A  
ENDROOT
BRANCH   8  11
HETATM   11  C   UNL     1      -5.978   8.941  67.119  1.00  0.00    -0.057 C  
BRANCH  11  12
HETATM   12  C   UNL     1      -7.383   8.552  66.654  1.00  0.00    -0.081 C  
BRANCH  12  13
HETATM   13  N   UNL     1      -7.772   7.253  67.217  1.00  0.00    -0.107 NA 
HETATM   14  H   UNL     1      -8.044   7.326  68.197  1.00  0.00     0.000 HD 
BRANCH  13  15
HETATM   15  C   UNL     1      -8.822   6.657  66.396  1.00  0.00    -0.144 C  
BRANCH  15  16
HETATM   16  C   UNL     1     -10.172   6.765  67.096  1.00  0.00    -0.291 C  
BRANCH  16  17
HETATM   17  C   UNL     1     -10.100   6.065  68.450  1.00  0.00    -0.198 C  
BRANCH  17  18
HETATM   18  C   UNL     1     -10.364   7.040  69.584  1.00  0.00    -0.222 C  
BRANCH  18  19
HETATM   19  C   UNL     1     -11.491   6.537  70.485  1.00  0.00    -0.448 C  
BRANCH  19  20
HETATM   20  C   UNL     1     -11.891   7.651  71.443  1.00  0.00    -0.293 C  
BRANCH  20  21
HETATM   21  N   UNL     1     -13.136   8.287  71.018  1.00  0.00    -0.507 NA 
HETATM   22  H   UNL     1     -13.948   7.845  71.447  1.00  0.00     0.000 HD 
BRANCH  21  23
HETATM   23  C   UNL     1     -13.107   9.734  71.276  1.00  0.00    -0.381 C  
BRANCH  23  24
HETATM   24  C   UNL     1     -11.717  10.355  71.069  1.00  0.00    -0.430 C  
BRANCH  24  25
HETATM   25  C   UNL     1     -11.548  10.931  69.689  1.00  0.00    -0.394 A  
HETATM   26  C   UNL     1     -11.656  10.100  68.568  1.00  0.00     0.013 A  
HETATM   27  C   UNL     1     -11.511  10.628  67.284  1.00  0.00     0.046 A  
HETATM   28  C   UNL     1     -11.252  11.986  67.120  1.00  0.00    -0.374 A  
HETATM   29  C   UNL     1     -11.132  12.817  68.233  1.00  0.00    -0.288 A  
HETATM   30  C   UNL     1     -11.276  12.291  69.516  1.00  0.00    -0.185 A  
ENDBRANCH  24  25
ENDBRANCH  23  24
ENDBRANCH  21  23
ENDBRANCH  20  21
ENDBRANCH  19  20
ENDBRANCH  18  19
ENDBRANCH  17  18
ENDBRANCH  16  17
ENDBRANCH  15  16
ENDBRANCH  13  15
ENDBRANCH  12  13
ENDBRANCH  11  12
ENDBRANCH   8  11
TORSDOF 13
ENDMDL
MODEL      398
REMARK 921   NORMALIZED FREE ENERGY PREDICTED BY IDOCK:   -2.28 KCAL/MOL
REMARK 922        TOTAL FREE ENERGY PREDICTED BY IDOCK:   -6.77 KCAL/MOL
REMARK 923 INTER-LIGAND FREE ENERGY PREDICTED BY IDOCK:   -5.85 KCAL/MOL
REMARK 924 INTRA-LIGAND FREE ENERGY PREDICTED BY IDOCK:   -0.92 KCAL/MOL
REMARK 927      BINDING AFFINITY PREDICTED BY RF-SCORE:    0.00 PKD
ROOT
HETATM    1  O   UNL     1     -12.486  16.467  73.077  1.00  0.00    -0.444 OA 
HETATM    2  H   UNL     1     -12.995  16.642  73.860  1.00  0.00     0.000 HD 
HETATM    3  C   UNL     1     -12.496  15.263  72.426  1.00  0.00    -0.362 A  
HETATM    4  C   UNL     1     -11.751  15.006  71.279  1.00  0.00    -0.347 A  
HETATM    5  C   UNL     1     -11.841  13.764  70.647  1.00  0.00    -0.261 A  
HETATM    6  O   UNL     1     -10.913  15.928  70.720  1.00  0.00    -0.320 OA 
HETATM    7  H   UNL     1     -10.404  15.753  69.937  1.00  0.00     0.000 HD 
HETATM    8  C   UNL     1     -12.691  12.774  71.153  1.00  0.00    -0.355 A  
HETATM    9  C   UNL     1     -13.307  14.270  72.965  1.00  0.00    -0.437 A  
HETATM   10  C   UNL     1     -13.404  13.028  72.335  1.00  0.00    -0.563 A  
ENDROOT
BRANCH   8  11
HETATM   11  C   UNL     1     -12.832  11.446  70.451  1.00  0.00    -0.067 C  
BRANCH  11  12
HETATM   12  C   UNL     1     -13.365  10.365  71.392  1.00  0.00    -0.280 C  
BRANCH  12  13
HETATM   13  N   UNL     1     -12.758   9.065  71.082  1.00  0.00    -0.482 NA 
HETATM   14  H   UNL     1     -13.347   8.503  70.467  1.00  0.00     0.000 HD 
BRANCH  13  15
HETATM   15  C   UNL     1     -11.421   9.267  70.531  1.00  0.00    -0.248 C  
BRANCH  15  16
HETATM   16  C   UNL     1     -10.381   8.536  71.374  1.00  0.00    -0.307 C  
BRANCH  16  17
HETATM   17  C   UNL     1     -10.768   7.065  71.497  1.00  0.00    -0.244 C  
BRANCH  17  18
HETATM   18  C   UNL     1      -9.633   6.249  72.090  1.00  0.00    -0.158 C  
BRANCH  18  19
HETATM   19  C   UNL     1     -10.145   4.917  72.636  1.00  0.00    -0.222 C  
BRANCH  19  20
HETATM   20  C   UNL     1      -9.178   3.813  72.231  1.00  0.00    -0.117 C  
BRANCH  20  21
HETATM   21  N   UNL     1      -8.153   4.321  71.321  1.00  0.00    -0.080 NA 
HETATM   22  H   UNL     1      -7.215   4.162  71.687  1.00  0.00     0.000 HD 
BRANCH  21  23
HETATM   23  C   UNL     1      -8.312   3.756  69.974  1.00  0.00    -0.055 C  
BRANCH  23  24
HETATM   24  C   UNL     1      -8.859   4.768  68.956  1.00  0.00    -0.121 C  
BRANCH  24  25
HETATM   25  C   UNL     1      -7.824   5.779  68.542  1.00  0.00    -0.097 A  
HETATM   26  C   UNL     1      -7.379   6.738  69.459  1.00  0.00    -0.091 A  
HETATM   27  C   UNL     1      -6.412   7.672  69.086  1.00  0.00    -0.040 A  
HETATM   28  C   UNL     1      -5.892   7.653  67.794  1.00  0.00    -0.036 A  
HETATM   29  C   UNL     1      -6.340   6.707  66.873  1.00  0.00    -0.042 A  
HETATM   30  C   UNL     1      -7.306   5.774  67.244  1.00  0.00    -0.077 A  
ENDBRANCH  24  25
ENDBRANCH  23  24
ENDBRANCH  21  23
ENDBRANCH  20  21
ENDBRANCH  19  20
ENDBRANCH  18  19
ENDBRANCH  17  18
ENDBRANCH  16  17
ENDBRANCH  15  16
ENDBRANCH  13  15
ENDBRANCH  12  13
ENDBRANCH  11  12
ENDBRANCH   8  11
TORSDOF 13
ENDMDL
MODEL      399
REMARK 921   NORMALIZED FREE ENERGY PREDICTED BY IDOCK:   -2.25 KCAL/MOL
REMARK 922        TOTAL FREE ENERGY PREDICTED BY IDOCK:   -6.71 KCAL/MOL
REMARK 923 INTER-LIGAND FREE ENERGY PREDICTED BY IDOCK:   -5.74 KCAL/MOL
REMARK 924 INTRA-LIGAND FREE ENERGY PREDICTED BY IDOCK:   -0.98 KCAL/MOL
REMARK 927      BINDING AFFINITY PREDICTED BY RF-SCORE:    0.00 PKD
ROOT
HETATM    1  O   UNL     1      -7.904   5.554  68.528  1.00  0.00    -0.087 OA 
HETATM    2  H   UNL     1      -7.297   6.191  68.173  1.00  0.00     0.000 HD 
HETATM    3  C   UNL     1      -8.802   5.841  69.520  1.00  0.00    -0.117 A  
HETATM    4  C   UNL     1      -9.693   4.907  70.041  1.00  0.00    -0.215 A  
HETATM    5  C   UNL     1     -10.607   5.283  71.027  1.00  0.00    -0.240 A  
HETATM    6  O   UNL     1      -9.724   3.605  69.629  1.00  0.00    -0.188 OA 
HETATM    7  H   UNL     1     -10.332   2.967  69.984  1.00  0.00     0.000 HD 
HETATM    8  C   UNL     1     -10.645   6.604  71.489  1.00  0.00    -0.251 A  
HETATM    9  C   UNL     1      -8.798   7.144  70.006  1.00  0.00    -0.142 A  
HETATM   10  C   UNL     1      -9.713   7.526  70.990  1.00  0.00    -0.170 A  
ENDROOT
BRANCH   8  11
HETATM   11  C   UNL     1     -11.660   7.032  72.519  1.00  0.00    -0.245 C  
BRANCH  11  12
HETATM   12  C   UNL     1     -13.022   7.316  71.883  1.00  0.00    -0.250 C  
BRANCH  12  13
HETATM   13  N   UNL     1     -13.604   8.546  72.435  1.00  0.00    -0.586 NA 
HETATM   14  H   UNL     1     -13.641   8.530  73.454  1.00  0.00     0.000 HD 
BRANCH  13  15
HETATM   15  C   UNL     1     -12.873   9.704  71.929  1.00  0.00    -0.425 C  
BRANCH  15  16
HETATM   16  C   UNL     1     -12.741   9.631  70.411  1.00  0.00     0.146 C  
BRANCH  16  17
HETATM   17  C   UNL     1     -11.364  10.143  69.996  1.00  0.00    -0.351 C  
BRANCH  17  18
HETATM   18  C   UNL     1     -11.395  10.709  68.586  1.00  0.00    -0.345 C  
BRANCH  18  19
HETATM   19  C   UNL     1      -9.989  11.074  68.114  1.00  0.00    -0.190 C  
BRANCH  19  20
HETATM   20  C   UNL     1      -9.704  12.524  68.482  1.00  0.00    -0.129 C  
BRANCH  20  21
HETATM   21  N   UNL     1     -10.549  13.436  67.714  1.00  0.00    -0.242 NA 
HETATM   22  H   UNL     1     -11.419  13.642  68.203  1.00  0.00     0.000 HD 
BRANCH  21  23
HETATM   23  C   UNL     1      -9.821  14.664  67.363  1.00  0.00    -0.222 C  
BRANCH  23  24
HETATM   24  C   UNL     1      -8.296  14.479  67.354  1.00  0.00    -0.217 C  
BRANCH  24  25
HETATM   25  C   UNL     1      -7.561  15.788  67.454  1.00  0.00    -0.220 A  
HETATM   26  C   UNL     1      -6.717  16.032  68.544  1.00  0.00    -0.124 A  
HETATM   27  C   UNL     1      -6.023  17.239  68.639  1.00  0.00    -0.163 A  
HETATM   28  C   UNL     1      -6.176  18.206  67.648  1.00  0.00    -0.174 A  
HETATM   29  C   UNL     1      -7.024  17.973  66.566  1.00  0.00    -0.255 A  
HETATM   30  C   UNL     1      -7.718  16.768  66.470  1.00  0.00    -0.334 A  
ENDBRANCH  24  25
ENDBRANCH  23  24
ENDBRANCH  21  23
ENDBRANCH  20  21
ENDBRANCH  19  20
ENDBRANCH  18  19
ENDBRANCH  17  18
ENDBRANCH  16  17
ENDBRANCH  15  16
ENDBRANCH  13  15
ENDBRANCH  12  13
ENDBRANCH  11  12
ENDBRANCH   8  11
TORSDOF 13
ENDMDL
MODEL      400
REMARK 921   NORMALIZED FREE ENERGY PREDICTED BY IDOCK:   -2.25 KCAL/MOL
REMARK 922        TOTAL FREE ENERGY PREDICTED BY IDOCK:   -6.71 KCAL/MOL
REMARK 923 INTER-LIGAND FREE ENERGY PREDICTED BY IDOCK:   -5.57 KCAL/MOL
REMARK 924 INTRA-LIGAND FREE ENERGY PREDICTED BY IDOCK:   -1.14 KCAL/MOL
REMARK 927      BINDING AFFINITY PREDICTED BY RF-SCORE:    0.00 PKD
ROOT
HETATM    1  O   UNL     1      -8.636  15.347  66.093  1.00  0.00    -0.418 OA 
HETATM    2  H   UNL     1      -7.746  15.137  65.835  1.00  0.00     0.000 HD 
HETATM    3  C   UNL     1      -9.513  14.422  66.592  1.00  0.00    -0.283 A  
HETATM    4  C   UNL     1     -10.816  14.729  66.970  1.00  0.00    -0.315 A  
HETATM    5  C   UNL     1     -11.643  13.739  67.507  1.00  0.00    -0.387 A  
HETATM    6  O   UNL     1     -11.348  15.981  66.844  1.00  0.00    -0.028 OA 
HETATM    7  H   UNL     1     -12.238  16.190  67.102  1.00  0.00     0.000 HD 
HETATM    8  C   UNL     1     -11.163  12.436  67.681  1.00  0.00    -0.340 A  
HETATM    9  C   UNL     1      -9.041  13.120  66.716  1.00  0.00    -0.214 A  
HETATM   10  C   UNL     1      -9.862  12.127  67.255  1.00  0.00    -0.202 A  
ENDROOT
BRANCH   8  11
HETATM   11  C   UNL     1     -12.031  11.371  68.305  1.00  0.00    -0.234 C  
BRANCH  11  12
HETATM   12  C   UNL     1     -11.923  11.378  69.831  1.00  0.00    -0.359 C  
BRANCH  12  13
HETATM   13  N   UNL     1     -12.131  10.029  70.370  1.00  0.00    -0.418 NA 
HETATM   14  H   UNL     1     -11.268   9.485  70.387  1.00  0.00     0.000 HD 
BRANCH  13  15
HETATM   15  C   UNL     1     -12.753  10.118  71.688  1.00  0.00    -0.447 C  
BRANCH  15  16
HETATM   16  C   UNL     1     -12.791   8.747  72.354  1.00  0.00    -0.434 C  
BRANCH  16  17
HETATM   17  C   UNL     1     -12.365   7.681  71.347  1.00  0.00    -0.358 C  
BRANCH  17  18
HETATM   18  C   UNL     1     -11.755   6.480  72.048  1.00  0.00    -0.367 C  
BRANCH  18  19
HETATM   19  C   UNL     1     -10.492   6.010  71.328  1.00  0.00    -0.283 C  
BRANCH  19  20
HETATM   20  C   UNL     1     -10.885   5.029  70.233  1.00  0.00     0.294 C  
BRANCH  20  21
HETATM   21  N   UNL     1     -10.193   5.333  68.982  1.00  0.00    -0.209 NA 
HETATM   22  H   UNL     1     -10.779   5.880  68.353  1.00  0.00     0.000 HD 
BRANCH  21  23
HETATM   23  C   UNL     1      -8.905   5.996  69.236  1.00  0.00    -0.123 C  
BRANCH  23  24
HETATM   24  C   UNL     1      -8.855   7.436  68.703  1.00  0.00    -0.126 C  
BRANCH  24  25
HETATM   25  C   UNL     1      -7.633   8.178  69.176  1.00  0.00    -0.096 A  
HETATM   26  C   UNL     1      -7.109   9.221  68.404  1.00  0.00    -0.072 A  
HETATM   27  C   UNL     1      -5.983   9.921  68.839  1.00  0.00    -0.037 A  
HETATM   28  C   UNL     1      -5.376   9.575  70.044  1.00  0.00    -0.032 A  
HETATM   29  C   UNL     1      -5.886   8.529  70.811  1.00  0.00    -0.032 A  
HETATM   30  C   UNL     1      -7.011   7.829  70.377  1.00  0.00    -0.046 A  
ENDBRANCH  24  25
ENDBRANCH  23  24
ENDBRANCH  21  23
ENDBRANCH  20  21
ENDBRANCH  19  20
ENDBRANCH  18  19
ENDBRANCH  17  18
ENDBRANCH  16  17
ENDBRANCH  15  16
ENDBRANCH  13  15
ENDBRANCH  12  13
ENDBRANCH  11  12
ENDBRANCH   8  11
TORSDOF 13
ENDMDL
MODEL      401
REMARK 921   NORMALIZED FREE ENERGY PREDICTED BY IDOCK:   -2.24 KCAL/MOL
REMARK 922        TOTAL FREE ENERGY PREDICTED BY IDOCK:   -6.69 KCAL/MOL
REMARK 923 INTER-LIGAND FREE ENERGY PREDICTED BY IDOCK:   -5.17 KCAL/MOL
REMARK 924 INTRA-LIGAND FREE ENERGY PREDICTED BY IDOCK:   -1.52 KCAL/MOL
REMARK 927      BINDING AFFINITY PREDICTED BY RF-SCORE:    0.00 PKD
ROOT
HETATM    1  O   UNL     1     -12.130  10.993  67.852  1.00  0.00    -0.721 OA 
HETATM    2  H   UNL     1     -12.792  10.442  68.254  1.00  0.00     0.000 HD 
HETATM    3  C   UNL     1     -10.922  10.521  67.415  1.00  0.00    -0.288 A  
HETATM    4  C   UNL     1      -9.952  11.327  66.826  1.00  0.00    -0.206 A  
HETATM    5  C   UNL     1      -8.757  10.767  66.370  1.00  0.00    -0.163 A  
HETATM    6  O   UNL     1     -10.109  12.674  66.665  1.00  0.00    -0.232 OA 
HETATM    7  H   UNL     1      -9.447  13.224  66.263  1.00  0.00     0.000 HD 
HETATM    8  C   UNL     1      -8.531   9.391  66.488  1.00  0.00    -0.137 A  
HETATM    9  C   UNL     1     -10.688   9.160  67.581  1.00  0.00    -0.257 A  
HETATM   10  C   UNL     1      -9.496   8.594  67.123  1.00  0.00    -0.207 A  
ENDROOT
BRANCH   8  11
HETATM   11  C   UNL     1      -7.264   8.769  65.954  1.00  0.00    -0.084 C  
BRANCH  11  12
HETATM   12  C   UNL     1      -7.369   7.244  65.889  1.00  0.00    -0.075 C  
BRANCH  12  13
HETATM   13  N   UNL     1      -7.777   6.811  64.547  1.00  0.00    -0.107 NA 
HETATM   14  H   UNL     1      -6.992   6.784  63.896  1.00  0.00     0.000 HD 
BRANCH  13  15
HETATM   15  C   UNL     1      -8.465   5.526  64.634  1.00  0.00    -0.108 C  
BRANCH  15  16
HETATM   16  C   UNL     1      -7.762   4.485  63.769  1.00  0.00    -0.072 C  
BRANCH  16  17
HETATM   17  C   UNL     1      -6.798   3.674  64.632  1.00  0.00    -0.049 C  
BRANCH  17  18
HETATM   18  C   UNL     1      -7.411   3.357  65.986  1.00  0.00    -0.072 C  
BRANCH  18  19
HETATM   19  C   UNL     1      -6.389   3.546  67.106  1.00  0.00    -0.036 C  
BRANCH  19  20
HETATM   20  C   UNL     1      -7.116   3.537  68.443  1.00  0.00    -0.050 C  
BRANCH  20  21
HETATM   21  N   UNL     1      -8.018   2.393  68.542  1.00  0.00    -0.053 NA 
HETATM   22  H   UNL     1      -7.505   1.518  68.641  1.00  0.00     0.000 HD 
BRANCH  21  23
HETATM   23  C   UNL     1      -8.991   2.575  69.629  1.00  0.00    -0.104 C  
BRANCH  23  24
HETATM   24  C   UNL     1      -8.625   3.728  70.577  1.00  0.00    -0.110 C  
BRANCH  24  25
HETATM   25  C   UNL     1      -9.712   4.765  70.663  1.00  0.00    -0.271 A  
HETATM   26  C   UNL     1     -10.327   5.228  69.493  1.00  0.00    -0.333 A  
HETATM   27  C   UNL     1     -11.344   6.182  69.564  1.00  0.00    -0.426 A  
HETATM   28  C   UNL     1     -11.743   6.678  70.803  1.00  0.00    -0.445 A  
HETATM   29  C   UNL     1     -11.125   6.229  71.970  1.00  0.00    -0.313 A  
HETATM   30  C   UNL     1     -10.110   5.277  71.900  1.00  0.00    -0.252 A  
ENDBRANCH  24  25
ENDBRANCH  23  24
ENDBRANCH  21  23
ENDBRANCH  20  21
ENDBRANCH  19  20
ENDBRANCH  18  19
ENDBRANCH  17  18
ENDBRANCH  16  17
ENDBRANCH  15  16
ENDBRANCH  13  15
ENDBRANCH  12  13
ENDBRANCH  11  12
ENDBRANCH   8  11
TORSDOF 13
ENDMDL
MODEL      402
REMARK 921   NORMALIZED FREE ENERGY PREDICTED BY IDOCK:   -2.19 KCAL/MOL
REMARK 922        TOTAL FREE ENERGY PREDICTED BY IDOCK:   -6.60 KCAL/MOL
REMARK 923 INTER-LIGAND FREE ENERGY PREDICTED BY IDOCK:   -5.94 KCAL/MOL
REMARK 924 INTRA-LIGAND FREE ENERGY PREDICTED BY IDOCK:   -0.67 KCAL/MOL
REMARK 927      BINDING AFFINITY PREDICTED BY RF-SCORE:    0.00 PKD
ROOT
HETATM    1  O   UNL     1      -8.551   2.596  63.759  1.00  0.00    -0.086 OA 
HETATM    2  H   UNL     1      -8.498   2.181  62.906  1.00  0.00     0.000 HD 
HETATM    3  C   UNL     1      -8.392   3.942  63.953  1.00  0.00    -0.092 A  
HETATM    4  C   UNL     1      -8.471   4.550  65.202  1.00  0.00    -0.126 A  
HETATM    5  C   UNL     1      -8.335   5.935  65.318  1.00  0.00    -0.146 A  
HETATM    6  O   UNL     1      -8.681   3.848  66.355  1.00  0.00    -0.109 OA 
HETATM    7  H   UNL     1      -8.734   4.263  67.207  1.00  0.00     0.000 HD 
HETATM    8  C   UNL     1      -8.132   6.723  64.179  1.00  0.00    -0.029 A  
HETATM    9  C   UNL     1      -8.143   4.709  62.820  1.00  0.00    -0.076 A  
HETATM   10  C   UNL     1      -8.010   6.095  62.930  1.00  0.00    -0.101 A  
ENDROOT
BRANCH   8  11
HETATM   11  C   UNL     1      -8.032   8.225  64.287  1.00  0.00    -0.148 C  
BRANCH  11  12
HETATM   12  C   UNL     1      -8.814   8.756  65.490  1.00  0.00    -0.188 C  
BRANCH  12  13
HETATM   13  N   UNL     1      -9.157  10.170  65.299  1.00  0.00    -0.179 NA 
HETATM   14  H   UNL     1      -8.564  10.788  65.853  1.00  0.00     0.000 HD 
BRANCH  13  15
HETATM   15  C   UNL     1      -9.116  10.498  63.876  1.00  0.00    -0.233 C  
BRANCH  15  16
HETATM   16  C   UNL     1      -9.862  11.800  63.607  1.00  0.00    -0.357 C  
BRANCH  16  17
HETATM   17  C   UNL     1     -11.347  11.505  63.413  1.00  0.00    -0.303 C  
BRANCH  17  18
HETATM   18  C   UNL     1     -12.206  12.523  64.143  1.00  0.00    -0.552 C  
BRANCH  18  19
HETATM   19  C   UNL     1     -11.730  13.946  63.854  1.00  0.00    -0.241 C  
BRANCH  19  20
HETATM   20  C   UNL     1     -11.748  14.745  65.150  1.00  0.00    -0.337 C  
BRANCH  20  21
HETATM   21  N   UNL     1     -10.682  14.308  66.050  1.00  0.00    -0.298 NA 
HETATM   22  H   UNL     1      -9.889  13.927  65.534  1.00  0.00     0.000 HD 
BRANCH  21  23
HETATM   23  C   UNL     1     -10.271  15.393  66.952  1.00  0.00    -0.273 C  
BRANCH  23  24
HETATM   24  C   UNL     1      -9.627  14.885  68.251  1.00  0.00    -0.214 C  
BRANCH  24  25
HETATM   25  C   UNL     1     -10.562  14.020  69.052  1.00  0.00    -0.205 A  
HETATM   26  C   UNL     1     -11.360  14.593  70.049  1.00  0.00    -0.288 A  
HETATM   27  C   UNL     1     -12.238  13.801  70.790  1.00  0.00    -0.437 A  
HETATM   28  C   UNL     1     -12.315  12.433  70.539  1.00  0.00    -0.346 A  
HETATM   29  C   UNL     1     -11.515  11.854  69.554  1.00  0.00    -0.357 A  
HETATM   30  C   UNL     1     -10.638  12.645  68.814  1.00  0.00    -0.214 A  
ENDBRANCH  24  25
ENDBRANCH  23  24
ENDBRANCH  21  23
ENDBRANCH  20  21
ENDBRANCH  19  20
ENDBRANCH  18  19
ENDBRANCH  17  18
ENDBRANCH  16  17
ENDBRANCH  15  16
ENDBRANCH  13  15
ENDBRANCH  12  13
ENDBRANCH  11  12
ENDBRANCH   8  11
TORSDOF 13
ENDMDL
MODEL      403
REMARK 921   NORMALIZED FREE ENERGY PREDICTED BY IDOCK:   -2.18 KCAL/MOL
REMARK 922        TOTAL FREE ENERGY PREDICTED BY IDOCK:   -6.59 KCAL/MOL
REMARK 923 INTER-LIGAND FREE ENERGY PREDICTED BY IDOCK:   -5.24 KCAL/MOL
REMARK 924 INTRA-LIGAND FREE ENERGY PREDICTED BY IDOCK:   -1.35 KCAL/MOL
REMARK 927      BINDING AFFINITY PREDICTED BY RF-SCORE:    0.00 PKD
ROOT
HETATM    1  O   UNL     1      -9.660  11.909  68.987  1.00  0.00    -0.409 OA 
HETATM    2  H   UNL     1     -10.379  11.560  69.501  1.00  0.00     0.000 HD 
HETATM    3  C   UNL     1      -8.567  11.169  68.623  1.00  0.00    -0.151 A  
HETATM    4  C   UNL     1      -7.514  11.679  67.871  1.00  0.00    -0.105 A  
HETATM    5  C   UNL     1      -6.448  10.854  67.505  1.00  0.00    -0.058 A  
HETATM    6  O   UNL     1      -7.462  12.980  67.457  1.00  0.00    -0.141 OA 
HETATM    7  H   UNL     1      -6.743  13.328  66.943  1.00  0.00     0.000 HD 
HETATM    8  C   UNL     1      -6.439   9.505  67.880  1.00  0.00    -0.062 A  
HETATM    9  C   UNL     1      -8.545   9.843  69.042  1.00  0.00    -0.149 A  
HETATM   10  C   UNL     1      -7.484   9.012  68.676  1.00  0.00    -0.084 A  
ENDROOT
BRANCH   8  11
HETATM   11  C   UNL     1      -5.317   8.593  67.449  1.00  0.00    -0.034 C  
BRANCH  11  12
HETATM   12  C   UNL     1      -5.815   7.490  66.514  1.00  0.00    -0.036 C  
BRANCH  12  13
HETATM   13  N   UNL     1      -6.276   8.059  65.242  1.00  0.00    -0.045 NA 
HETATM   14  H   UNL     1      -5.762   7.685  64.444  1.00  0.00     0.000 HD 
BRANCH  13  15
HETATM   15  C   UNL     1      -7.717   7.861  65.109  1.00  0.00    -0.103 C  
BRANCH  15  16
HETATM   16  C   UNL     1      -8.012   6.701  64.164  1.00  0.00    -0.084 C  
BRANCH  16  17
HETATM   17  C   UNL     1      -7.946   5.387  64.937  1.00  0.00    -0.108 C  
BRANCH  17  18
HETATM   18  C   UNL     1      -8.863   5.419  66.148  1.00  0.00    -0.139 C  
BRANCH  18  19
HETATM   19  C   UNL     1      -8.199   4.756  67.354  1.00  0.00    -0.105 C  
BRANCH  19  20
HETATM   20  C   UNL     1      -9.125   4.879  68.556  1.00  0.00    -0.114 C  
BRANCH  20  21
HETATM   21  N   UNL     1     -10.109   5.940  68.354  1.00  0.00    -0.154 NA 
HETATM   22  H   UNL     1     -10.605   5.827  67.471  1.00  0.00     0.000 HD 
BRANCH  21  23
HETATM   23  C   UNL     1     -11.038   6.025  69.490  1.00  0.00    -0.398 C  
BRANCH  23  24
HETATM   24  C   UNL     1     -10.604   7.052  70.547  1.00  0.00    -0.245 C  
BRANCH  24  25
HETATM   25  C   UNL     1     -11.759   7.872  71.056  1.00  0.00    -0.293 A  
HETATM   26  C   UNL     1     -12.941   7.238  71.456  1.00  0.00    -0.434 A  
HETATM   27  C   UNL     1     -14.013   7.990  71.939  1.00  0.00    -0.445 A  
HETATM   28  C   UNL     1     -13.907   9.376  72.017  1.00  0.00    -0.409 A  
HETATM   29  C   UNL     1     -12.736  10.014  71.609  1.00  0.00    -0.535 A  
HETATM   30  C   UNL     1     -11.665   9.264  71.126  1.00  0.00    -0.394 A  
ENDBRANCH  24  25
ENDBRANCH  23  24
ENDBRANCH  21  23
ENDBRANCH  20  21
ENDBRANCH  19  20
ENDBRANCH  18  19
ENDBRANCH  17  18
ENDBRANCH  16  17
ENDBRANCH  15  16
ENDBRANCH  13  15
ENDBRANCH  12  13
ENDBRANCH  11  12
ENDBRANCH   8  11
TORSDOF 13
ENDMDL
MODEL      404
REMARK 921   NORMALIZED FREE ENERGY PREDICTED BY IDOCK:   -2.17 KCAL/MOL
REMARK 922        TOTAL FREE ENERGY PREDICTED BY IDOCK:   -6.57 KCAL/MOL
REMARK 923 INTER-LIGAND FREE ENERGY PREDICTED BY IDOCK:   -5.13 KCAL/MOL
REMARK 924 INTRA-LIGAND FREE ENERGY PREDICTED BY IDOCK:   -1.45 KCAL/MOL
REMARK 927      BINDING AFFINITY PREDICTED BY RF-SCORE:    0.00 PKD
ROOT
HETATM    1  O   UNL     1      -6.825  11.438  66.728  1.00  0.00    -0.132 OA 
HETATM    2  H   UNL     1      -6.571  11.980  67.466  1.00  0.00     0.000 HD 
HETATM    3  C   UNL     1      -7.766  10.448  66.811  1.00  0.00    -0.114 A  
HETATM    4  C   UNL     1      -8.140   9.654  65.730  1.00  0.00    -0.113 A  
HETATM    5  C   UNL     1      -9.136   8.687  65.881  1.00  0.00    -0.259 A  
HETATM    6  O   UNL     1      -7.571   9.773  64.495  1.00  0.00    -0.122 OA 
HETATM    7  H   UNL     1      -7.826   9.231  63.757  1.00  0.00     0.000 HD 
HETATM    8  C   UNL     1      -9.775   8.518  67.115  1.00  0.00    -0.251 A  
HETATM    9  C   UNL     1      -8.361  10.256  68.054  1.00  0.00    -0.114 A  
HETATM   10  C   UNL     1      -9.360   9.293  68.209  1.00  0.00    -0.141 A  
ENDROOT
BRANCH   8  11
HETATM   11  C   UNL     1     -10.886   7.510  67.276  1.00  0.00    -0.297 C  
BRANCH  11  12
HETATM   12  C   UNL     1     -10.339   6.098  67.491  1.00  0.00    -0.208 C  
BRANCH  12  13
HETATM   13  N   UNL     1     -10.956   5.156  66.550  1.00  0.00    -0.449 NA 
HETATM   14  H   UNL     1     -11.808   5.531  66.133  1.00  0.00     0.000 HD 
BRANCH  13  15
HETATM   15  C   UNL     1      -9.978   4.759  65.540  1.00  0.00    -0.136 C  
BRANCH  15  16
HETATM   16  C   UNL     1      -9.308   3.447  65.934  1.00  0.00    -0.145 C  
BRANCH  16  17
HETATM   17  C   UNL     1      -7.792   3.603  65.843  1.00  0.00    -0.089 C  
BRANCH  17  18
HETATM   18  C   UNL     1      -7.114   3.094  67.103  1.00  0.00    -0.058 C  
BRANCH  18  19
HETATM   19  C   UNL     1      -8.067   2.225  67.923  1.00  0.00    -0.066 C  
BRANCH  19  20
HETATM   20  C   UNL     1      -8.124   2.761  69.346  1.00  0.00    -0.047 C  
BRANCH  20  21
HETATM   21  N   UNL     1      -9.306   3.596  69.545  1.00  0.00    -0.164 NA 
HETATM   22  H   UNL     1     -10.094   3.271  68.986  1.00  0.00     0.000 HD 
BRANCH  21  23
HETATM   23  C   UNL     1      -9.656   3.691  70.970  1.00  0.00    -0.176 C  
BRANCH  23  24
HETATM   24  C   UNL     1      -9.022   4.905  71.666  1.00  0.00    -0.161 C  
BRANCH  24  25
HETATM   25  C   UNL     1      -9.964   6.076  71.742  1.00  0.00    -0.199 A  
HETATM   26  C   UNL     1      -9.612   7.206  72.490  1.00  0.00    -0.172 A  
HETATM   27  C   UNL     1     -10.475   8.302  72.557  1.00  0.00    -0.406 A  
HETATM   28  C   UNL     1     -11.693   8.266  71.882  1.00  0.00    -0.381 A  
HETATM   29  C   UNL     1     -12.053   7.138  71.146  1.00  0.00    -0.397 A  
HETATM   30  C   UNL     1     -11.193   6.044  71.078  1.00  0.00    -0.332 A  
ENDBRANCH  24  25
ENDBRANCH  23  24
ENDBRANCH  21  23
ENDBRANCH  20  21
ENDBRANCH  19  20
ENDBRANCH  18  19
ENDBRANCH  17  18
ENDBRANCH  16  17
ENDBRANCH  15  16
ENDBRANCH  13  15
ENDBRANCH  12  13
ENDBRANCH  11  12
ENDBRANCH   8  11
TORSDOF 13
ENDMDL
MODEL      405
REMARK 921   NORMALIZED FREE ENERGY PREDICTED BY IDOCK:   -2.16 KCAL/MOL
REMARK 922        TOTAL FREE ENERGY PREDICTED BY IDOCK:   -6.56 KCAL/MOL
REMARK 923 INTER-LIGAND FREE ENERGY PREDICTED BY IDOCK:   -5.47 KCAL/MOL
REMARK 924 INTRA-LIGAND FREE ENERGY PREDICTED BY IDOCK:   -1.09 KCAL/MOL
REMARK 927      BINDING AFFINITY PREDICTED BY RF-SCORE:    0.00 PKD
ROOT
HETATM    1  O   UNL     1     -11.655   6.052  67.989  1.00  0.00    -0.188 OA 
HETATM    2  H   UNL     1     -12.081   6.013  67.141  1.00  0.00     0.000 HD 
HETATM    3  C   UNL     1     -10.408   6.583  68.181  1.00  0.00    -0.187 A  
HETATM    4  C   UNL     1      -9.783   6.641  69.423  1.00  0.00    -0.147 A  
HETATM    5  C   UNL     1      -8.524   7.232  69.549  1.00  0.00    -0.133 A  
HETATM    6  O   UNL     1     -10.350   6.139  70.560  1.00  0.00    -0.196 OA 
HETATM    7  H   UNL     1      -9.923   6.178  71.408  1.00  0.00     0.000 HD 
HETATM    8  C   UNL     1      -7.887   7.781  68.430  1.00  0.00    -0.121 A  
HETATM    9  C   UNL     1      -9.764   7.083  67.054  1.00  0.00    -0.216 A  
HETATM   10  C   UNL     1      -8.506   7.678  67.175  1.00  0.00    -0.121 A  
ENDROOT
BRANCH   8  11
HETATM   11  C   UNL     1      -6.549   8.465  68.563  1.00  0.00    -0.059 C  
BRANCH  11  12
HETATM   12  C   UNL     1      -6.518   9.416  69.761  1.00  0.00    -0.041 C  
BRANCH  12  13
HETATM   13  N   UNL     1      -7.624  10.377  69.686  1.00  0.00    -0.187 NA 
HETATM   14  H   UNL     1      -7.717  10.923  70.543  1.00  0.00     0.000 HD 
BRANCH  13  15
HETATM   15  C   UNL     1      -7.460  11.225  68.509  1.00  0.00    -0.115 C  
BRANCH  15  16
HETATM   16  C   UNL     1      -7.346  12.690  68.917  1.00  0.00    -0.016 C  
BRANCH  16  17
HETATM   17  C   UNL     1      -7.306  13.565  67.667  1.00  0.00    -0.180 C  
BRANCH  17  18
HETATM   18  C   UNL     1      -6.398  14.765  67.870  1.00  0.00    -0.175 C  
BRANCH  18  19
HETATM   19  C   UNL     1      -7.079  16.050  67.403  1.00  0.00    -0.222 C  
BRANCH  19  20
HETATM   20  C   UNL     1      -7.282  16.965  68.603  1.00  0.00    -0.215 C  
BRANCH  20  21
HETATM   21  N   UNL     1      -8.546  17.690  68.501  1.00  0.00    -0.286 NA 
HETATM   22  H   UNL     1      -8.431  18.678  68.725  1.00  0.00     0.000 HD 
BRANCH  21  23
HETATM   23  C   UNL     1      -9.161  17.503  67.179  1.00  0.00    -0.243 C  
BRANCH  23  24
HETATM   24  C   UNL     1     -10.638  17.086  67.256  1.00  0.00    -0.267 C  
BRANCH  24  25
HETATM   25  C   UNL     1     -10.888  15.749  66.613  1.00  0.00    -0.241 A  
HETATM   26  C   UNL     1     -11.368  14.684  67.384  1.00  0.00    -0.368 A  
HETATM   27  C   UNL     1     -11.613  13.443  66.794  1.00  0.00    -0.404 A  
HETATM   28  C   UNL     1     -11.373  13.264  65.434  1.00  0.00    -0.317 A  
HETATM   29  C   UNL     1     -10.885  14.318  64.663  1.00  0.00    -0.384 A  
HETATM   30  C   UNL     1     -10.639  15.557  65.251  1.00  0.00    -0.446 A  
ENDBRANCH  24  25
ENDBRANCH  23  24
ENDBRANCH  21  23
ENDBRANCH  20  21
ENDBRANCH  19  20
ENDBRANCH  18  19
ENDBRANCH  17  18
ENDBRANCH  16  17
ENDBRANCH  15  16
ENDBRANCH  13  15
ENDBRANCH  12  13
ENDBRANCH  11  12
ENDBRANCH   8  11
TORSDOF 13
ENDMDL
MODEL      406
REMARK 921   NORMALIZED FREE ENERGY PREDICTED BY IDOCK:   -2.16 KCAL/MOL
REMARK 922        TOTAL FREE ENERGY PREDICTED BY IDOCK:   -6.55 KCAL/MOL
REMARK 923 INTER-LIGAND FREE ENERGY PREDICTED BY IDOCK:   -5.91 KCAL/MOL
REMARK 924 INTRA-LIGAND FREE ENERGY PREDICTED BY IDOCK:   -0.65 KCAL/MOL
REMARK 927      BINDING AFFINITY PREDICTED BY RF-SCORE:    0.00 PKD
ROOT
HETATM    1  O   UNL     1     -12.403  15.475  69.058  1.00  0.00    -0.607 OA 
HETATM    2  H   UNL     1     -12.760  15.906  69.825  1.00  0.00     0.000 HD 
HETATM    3  C   UNL     1     -11.306  15.932  68.379  1.00  0.00    -0.361 A  
HETATM    4  C   UNL     1     -10.783  15.300  67.255  1.00  0.00    -0.311 A  
HETATM    5  C   UNL     1      -9.637  15.804  66.636  1.00  0.00    -0.266 A  
HETATM    6  O   UNL     1     -11.343  14.181  66.708  1.00  0.00    -0.319 OA 
HETATM    7  H   UNL     1     -10.987  13.750  65.941  1.00  0.00     0.000 HD 
HETATM    8  C   UNL     1      -8.999  16.939  67.149  1.00  0.00    -0.219 A  
HETATM    9  C   UNL     1     -10.708  17.088  68.869  1.00  0.00    -0.300 A  
HETATM   10  C   UNL     1      -9.560  17.595  68.256  1.00  0.00    -0.306 A  
ENDROOT
BRANCH   8  11
HETATM   11  C   UNL     1      -7.733  17.464  66.517  1.00  0.00    -0.319 C  
BRANCH  11  12
HETATM   12  C   UNL     1      -6.502  16.694  66.999  1.00  0.00    -0.196 C  
BRANCH  12  13
HETATM   13  N   UNL     1      -6.304  16.886  68.440  1.00  0.00    -0.138 NA 
HETATM   14  H   UNL     1      -7.156  16.705  68.972  1.00  0.00     0.000 HD 
BRANCH  13  15
HETATM   15  C   UNL     1      -5.186  16.065  68.896  1.00  0.00    -0.107 C  
BRANCH  15  16
HETATM   16  C   UNL     1      -5.141  14.750  68.125  1.00  0.00    -0.117 C  
BRANCH  16  17
HETATM   17  C   UNL     1      -6.301  13.861  68.567  1.00  0.00    -0.093 C  
BRANCH  17  18
HETATM   18  C   UNL     1      -6.700  12.896  67.464  1.00  0.00    -0.156 C  
BRANCH  18  19
HETATM   19  C   UNL     1      -6.854  11.477  68.010  1.00  0.00    -0.064 C  
BRANCH  19  20
HETATM   20  C   UNL     1      -7.969  11.465  69.046  1.00  0.00    -0.024 C  
BRANCH  20  21
HETATM   21  N   UNL     1      -7.697  10.489  70.099  1.00  0.00    -0.421 NA 
HETATM   22  H   UNL     1      -7.496  10.945  70.989  1.00  0.00     0.000 HD 
BRANCH  21  23
HETATM   23  C   UNL     1      -8.795   9.520  70.223  1.00  0.00    -0.243 C  
BRANCH  23  24
HETATM   24  C   UNL     1      -8.537   8.451  71.296  1.00  0.00    -0.198 C  
BRANCH  24  25
HETATM   25  C   UNL     1      -9.089   7.106  70.908  1.00  0.00    -0.152 A  
HETATM   26  C   UNL     1      -8.409   6.317  69.973  1.00  0.00    -0.129 A  
HETATM   27  C   UNL     1      -8.908   5.064  69.615  1.00  0.00    -0.121 A  
HETATM   28  C   UNL     1     -10.091   4.601  70.186  1.00  0.00    -0.283 A  
HETATM   29  C   UNL     1     -10.779   5.388  71.108  1.00  0.00    -0.239 A  
HETATM   30  C   UNL     1     -10.281   6.640  71.467  1.00  0.00    -0.218 A  
ENDBRANCH  24  25
ENDBRANCH  23  24
ENDBRANCH  21  23
ENDBRANCH  20  21
ENDBRANCH  19  20
ENDBRANCH  18  19
ENDBRANCH  17  18
ENDBRANCH  16  17
ENDBRANCH  15  16
ENDBRANCH  13  15
ENDBRANCH  12  13
ENDBRANCH  11  12
ENDBRANCH   8  11
TORSDOF 13
ENDMDL
MODEL      407
REMARK 921   NORMALIZED FREE ENERGY PREDICTED BY IDOCK:   -2.14 KCAL/MOL
REMARK 922        TOTAL FREE ENERGY PREDICTED BY IDOCK:   -6.52 KCAL/MOL
REMARK 923 INTER-LIGAND FREE ENERGY PREDICTED BY IDOCK:   -5.50 KCAL/MOL
REMARK 924 INTRA-LIGAND FREE ENERGY PREDICTED BY IDOCK:   -1.02 KCAL/MOL
REMARK 927      BINDING AFFINITY PREDICTED BY RF-SCORE:    0.00 PKD
ROOT
HETATM    1  O   UNL     1     -12.966  15.019  70.406  1.00  0.00    -0.560 OA 
HETATM    2  H   UNL     1     -13.225  15.670  71.048  1.00  0.00     0.000 HD 
HETATM    3  C   UNL     1     -11.975  15.224  69.484  1.00  0.00    -0.330 A  
HETATM    4  C   UNL     1     -11.595  14.270  68.544  1.00  0.00    -0.320 A  
HETATM    5  C   UNL     1     -10.548  14.537  67.658  1.00  0.00    -0.251 A  
HETATM    6  O   UNL     1     -12.204  13.053  68.438  1.00  0.00    -0.223 OA 
HETATM    7  H   UNL     1     -11.945  12.402  67.797  1.00  0.00     0.000 HD 
HETATM    8  C   UNL     1      -9.866  15.757  67.717  1.00  0.00    -0.224 A  
HETATM    9  C   UNL     1     -11.336  16.459  69.520  1.00  0.00    -0.192 A  
HETATM   10  C   UNL     1     -10.287  16.729  68.639  1.00  0.00    -0.318 A  
ENDROOT
BRANCH   8  11
HETATM   11  C   UNL     1      -8.703  16.036  66.797  1.00  0.00    -0.287 C  
BRANCH  11  12
HETATM   12  C   UNL     1      -7.747  14.845  66.720  1.00  0.00     0.284 C  
BRANCH  12  13
HETATM   13  N   UNL     1      -7.088  14.626  68.014  1.00  0.00    -0.121 NA 
HETATM   14  H   UNL     1      -7.758  14.576  68.782  1.00  0.00     0.000 HD 
BRANCH  13  15
HETATM   15  C   UNL     1      -6.245  13.437  67.940  1.00  0.00    -0.147 C  
BRANCH  15  16
HETATM   16  C   UNL     1      -6.996  12.290  67.273  1.00  0.00    -0.142 C  
BRANCH  16  17
HETATM   17  C   UNL     1      -7.824  11.548  68.319  1.00  0.00    -0.138 C  
BRANCH  17  18
HETATM   18  C   UNL     1      -9.063  10.928  67.696  1.00  0.00    -0.148 C  
BRANCH  18  19
HETATM   19  C   UNL     1      -9.174   9.448  68.057  1.00  0.00    -0.137 C  
BRANCH  19  20
HETATM   20  C   UNL     1      -9.236   9.312  69.572  1.00  0.00    -0.165 C  
BRANCH  20  21
HETATM   21  N   UNL     1      -8.127   8.502  70.072  1.00  0.00    -0.107 NA 
HETATM   22  H   UNL     1      -7.674   8.941  70.873  1.00  0.00     0.000 HD 
BRANCH  21  23
HETATM   23  C   UNL     1      -8.567   7.134  70.382  1.00  0.00    -0.142 C  
BRANCH  23  24
HETATM   24  C   UNL     1      -9.975   7.079  70.995  1.00  0.00    -0.196 C  
BRANCH  24  25
HETATM   25  C   UNL     1     -10.206   5.817  71.782  1.00  0.00    -0.245 A  
HETATM   26  C   UNL     1     -10.821   5.881  73.038  1.00  0.00    -0.300 A  
HETATM   27  C   UNL     1     -11.050   4.715  73.770  1.00  0.00    -0.333 A  
HETATM   28  C   UNL     1     -10.658   3.484  73.250  1.00  0.00    -0.277 A  
HETATM   29  C   UNL     1     -10.034   3.415  72.005  1.00  0.00    -0.222 A  
HETATM   30  C   UNL     1      -9.805   4.579  71.274  1.00  0.00    -0.260 A  
ENDBRANCH  24  25
ENDBRANCH  23  24
ENDBRANCH  21  23
ENDBRANCH  20  21
ENDBRANCH  19  20
ENDBRANCH  18  19
ENDBRANCH  17  18
ENDBRANCH  16  17
ENDBRANCH  15  16
ENDBRANCH  13  15
ENDBRANCH  12  13
ENDBRANCH  11  12
ENDBRANCH   8  11
TORSDOF 13
ENDMDL
MODEL      408
REMARK 921   NORMALIZED FREE ENERGY PREDICTED BY IDOCK:   -2.12 KCAL/MOL
REMARK 922        TOTAL FREE ENERGY PREDICTED BY IDOCK:   -6.48 KCAL/MOL
REMARK 923 INTER-LIGAND FREE ENERGY PREDICTED BY IDOCK:   -5.79 KCAL/MOL
REMARK 924 INTRA-LIGAND FREE ENERGY PREDICTED BY IDOCK:   -0.69 KCAL/MOL
REMARK 927      BINDING AFFINITY PREDICTED BY RF-SCORE:    0.00 PKD
ROOT
HETATM    1  O   UNL     1     -13.496  14.693  64.966  1.00  0.00    -0.084 OA 
HETATM    2  H   UNL     1     -13.565  15.616  65.178  1.00  0.00     0.000 HD 
HETATM    3  C   UNL     1     -12.434  13.913  65.336  1.00  0.00    -0.501 A  
HETATM    4  C   UNL     1     -12.333  12.560  65.026  1.00  0.00    -0.453 A  
HETATM    5  C   UNL     1     -11.236  11.819  65.470  1.00  0.00    -0.316 A  
HETATM    6  O   UNL     1     -13.274  11.897  64.292  1.00  0.00    -0.618 OA 
HETATM    7  H   UNL     1     -13.205  10.974  64.080  1.00  0.00     0.000 HD 
HETATM    8  C   UNL     1     -10.238  12.426  66.241  1.00  0.00    -0.258 A  
HETATM    9  C   UNL     1     -11.425  14.538  66.061  1.00  0.00    -0.348 A  
HETATM   10  C   UNL     1     -10.327  13.801  66.510  1.00  0.00    -0.286 A  
ENDROOT
BRANCH   8  11
HETATM   11  C   UNL     1      -9.073  11.624  66.767  1.00  0.00    -0.186 C  
BRANCH  11  12
HETATM   12  C   UNL     1      -7.915  12.526  67.196  1.00  0.00    -0.140 C  
BRANCH  12  13
HETATM   13  N   UNL     1      -7.942  12.746  68.647  1.00  0.00    -0.301 NA 
HETATM   14  H   UNL     1      -8.674  12.203  69.105  1.00  0.00     0.000 HD 
BRANCH  13  15
HETATM   15  C   UNL     1      -6.622  12.473  69.209  1.00  0.00    -0.089 C  
BRANCH  15  16
HETATM   16  C   UNL     1      -6.199  11.039  68.907  1.00  0.00    -0.042 C  
BRANCH  16  17
HETATM   17  C   UNL     1      -6.656  10.125  70.041  1.00  0.00    -0.117 C  
BRANCH  17  18
HETATM   18  C   UNL     1      -8.117   9.743  69.879  1.00  0.00    -0.192 C  
BRANCH  18  19
HETATM   19  C   UNL     1      -8.278   8.618  68.857  1.00  0.00    -0.123 C  
BRANCH  19  20
HETATM   20  C   UNL     1      -7.221   7.555  69.123  1.00  0.00    -0.084 C  
BRANCH  20  21
HETATM   21  N   UNL     1      -7.695   6.575  70.097  1.00  0.00    -0.100 NA 
HETATM   22  H   UNL     1      -7.910   7.012  70.993  1.00  0.00     0.000 HD 
BRANCH  21  23
HETATM   23  C   UNL     1      -8.842   5.820  69.574  1.00  0.00    -0.117 C  
BRANCH  23  24
HETATM   24  C   UNL     1      -8.659   4.298  69.677  1.00  0.00    -0.103 C  
BRANCH  24  25
HETATM   25  C   UNL     1      -9.427   3.706  70.828  1.00  0.00    -0.238 A  
HETATM   26  C   UNL     1      -9.577   2.317  70.926  1.00  0.00    -0.185 A  
HETATM   27  C   UNL     1     -10.279   1.759  71.995  1.00  0.00    -0.215 A  
HETATM   28  C   UNL     1     -10.838   2.589  72.964  1.00  0.00    -0.209 A  
HETATM   29  C   UNL     1     -10.702   3.973  72.866  1.00  0.00    -0.217 A  
HETATM   30  C   UNL     1     -10.001   4.531  71.798  1.00  0.00    -0.264 A  
ENDBRANCH  24  25
ENDBRANCH  23  24
ENDBRANCH  21  23
ENDBRANCH  20  21
ENDBRANCH  19  20
ENDBRANCH  18  19
ENDBRANCH  17  18
ENDBRANCH  16  17
ENDBRANCH  15  16
ENDBRANCH  13  15
ENDBRANCH  12  13
ENDBRANCH  11  12
ENDBRANCH   8  11
TORSDOF 13
ENDMDL
MODEL      409
REMARK 921   NORMALIZED FREE ENERGY PREDICTED BY IDOCK:   -2.12 KCAL/MOL
REMARK 922        TOTAL FREE ENERGY PREDICTED BY IDOCK:   -6.48 KCAL/MOL
REMARK 923 INTER-LIGAND FREE ENERGY PREDICTED BY IDOCK:   -5.16 KCAL/MOL
REMARK 924 INTRA-LIGAND FREE ENERGY PREDICTED BY IDOCK:   -1.32 KCAL/MOL
REMARK 927      BINDING AFFINITY PREDICTED BY RF-SCORE:    0.00 PKD
ROOT
HETATM    1  O   UNL     1      -6.412   4.175  69.731  1.00  0.00    -0.031 OA 
HETATM    2  H   UNL     1      -6.284   4.308  70.663  1.00  0.00     0.000 HD 
HETATM    3  C   UNL     1      -7.126   5.032  68.938  1.00  0.00    -0.053 A  
HETATM    4  C   UNL     1      -7.312   4.837  67.573  1.00  0.00    -0.074 A  
HETATM    5  C   UNL     1      -8.022   5.776  66.820  1.00  0.00    -0.102 A  
HETATM    6  O   UNL     1      -6.826   3.747  66.909  1.00  0.00    -0.049 OA 
HETATM    7  H   UNL     1      -6.954   3.614  65.977  1.00  0.00     0.000 HD 
HETATM    8  C   UNL     1      -8.537   6.925  67.429  1.00  0.00    -0.121 A  
HETATM    9  C   UNL     1      -7.675   6.147  69.563  1.00  0.00    -0.099 A  
HETATM   10  C   UNL     1      -8.381   7.090  68.815  1.00  0.00    -0.122 A  
ENDROOT
BRANCH   8  11
HETATM   11  C   UNL     1      -9.263   7.969  66.617  1.00  0.00    -0.225 C  
BRANCH  11  12
HETATM   12  C   UNL     1      -8.494   9.291  66.581  1.00  0.00    -0.126 C  
BRANCH  12  13
HETATM   13  N   UNL     1      -9.362  10.406  66.977  1.00  0.00    -0.153 NA 
HETATM   14  H   UNL     1     -10.348  10.205  66.805  1.00  0.00     0.000 HD 
BRANCH  13  15
HETATM   15  C   UNL     1      -9.108  10.755  68.372  1.00  0.00    -0.164 C  
BRANCH  15  16
HETATM   16  C   UNL     1      -7.666  11.217  68.552  1.00  0.00    -0.131 C  
BRANCH  16  17
HETATM   17  C   UNL     1      -7.362  12.333  67.555  1.00  0.00    -0.137 C  
BRANCH  17  18
HETATM   18  C   UNL     1      -8.230  13.551  67.818  1.00  0.00    -0.176 C  
BRANCH  18  19
HETATM   19  C   UNL     1      -7.441  14.638  68.546  1.00  0.00    -0.120 C  
BRANCH  19  20
HETATM   20  C   UNL     1      -8.363  15.342  69.531  1.00  0.00    -0.204 C  
BRANCH  20  21
HETATM   21  N   UNL     1      -8.854  16.603  68.979  1.00  0.00    -0.239 NA 
HETATM   22  H   UNL     1      -8.304  16.899  68.173  1.00  0.00     0.000 HD 
BRANCH  21  23
HETATM   23  C   UNL     1     -10.286  16.521  68.657  1.00  0.00    -0.264 C  
BRANCH  23  24
HETATM   24  C   UNL     1     -10.576  16.690  67.158  1.00  0.00    -0.264 C  
BRANCH  24  25
HETATM   25  C   UNL     1     -11.093  15.424  66.529  1.00  0.00    -0.227 A  
HETATM   26  C   UNL     1     -11.716  14.455  67.325  1.00  0.00    -0.429 A  
HETATM   27  C   UNL     1     -12.208  13.283  66.749  1.00  0.00    -0.340 A  
HETATM   28  C   UNL     1     -12.073  13.075  65.378  1.00  0.00    -0.490 A  
HETATM   29  C   UNL     1     -11.443  14.032  64.583  1.00  0.00    -0.389 A  
HETATM   30  C   UNL     1     -10.952  15.203  65.157  1.00  0.00    -0.428 A  
ENDBRANCH  24  25
ENDBRANCH  23  24
ENDBRANCH  21  23
ENDBRANCH  20  21
ENDBRANCH  19  20
ENDBRANCH  18  19
ENDBRANCH  17  18
ENDBRANCH  16  17
ENDBRANCH  15  16
ENDBRANCH  13  15
ENDBRANCH  12  13
ENDBRANCH  11  12
ENDBRANCH   8  11
TORSDOF 13
ENDMDL
MODEL      410
REMARK 921   NORMALIZED FREE ENERGY PREDICTED BY IDOCK:   -2.10 KCAL/MOL
REMARK 922        TOTAL FREE ENERGY PREDICTED BY IDOCK:   -6.45 KCAL/MOL
REMARK 923 INTER-LIGAND FREE ENERGY PREDICTED BY IDOCK:   -5.43 KCAL/MOL
REMARK 924 INTRA-LIGAND FREE ENERGY PREDICTED BY IDOCK:   -1.02 KCAL/MOL
REMARK 927      BINDING AFFINITY PREDICTED BY RF-SCORE:    0.00 PKD
ROOT
HETATM    1  O   UNL     1      -5.877  10.968  63.007  1.00  0.00    -0.364 OA 
HETATM    2  H   UNL     1      -5.006  10.893  62.636  1.00  0.00     0.000 HD 
HETATM    3  C   UNL     1      -6.545   9.918  63.577  1.00  0.00    -0.124 A  
HETATM    4  C   UNL     1      -7.821  10.027  64.121  1.00  0.00    -0.144 A  
HETATM    5  C   UNL     1      -8.425   8.919  64.720  1.00  0.00    -0.193 A  
HETATM    6  O   UNL     1      -8.535  11.191  64.104  1.00  0.00    -0.368 OA 
HETATM    7  H   UNL     1      -9.406  11.265  64.476  1.00  0.00     0.000 HD 
HETATM    8  C   UNL     1      -7.749   7.696  64.789  1.00  0.00    -0.116 A  
HETATM    9  C   UNL     1      -5.882   8.695  63.596  1.00  0.00    -0.072 A  
HETATM   10  C   UNL     1      -6.481   7.586  64.197  1.00  0.00    -0.048 A  
ENDROOT
BRANCH   8  11
HETATM   11  C   UNL     1      -8.372   6.507  65.476  1.00  0.00    -0.146 C  
BRANCH  11  12
HETATM   12  C   UNL     1      -8.249   5.238  64.630  1.00  0.00    -0.134 C  
BRANCH  12  13
HETATM   13  N   UNL     1      -8.084   4.059  65.487  1.00  0.00    -0.100 NA 
HETATM   14  H   UNL     1      -7.171   4.040  65.943  1.00  0.00     0.000 HD 
BRANCH  13  15
HETATM   15  C   UNL     1      -9.181   3.994  66.449  1.00  0.00    -0.164 C  
BRANCH  15  16
HETATM   16  C   UNL     1      -9.156   2.665  67.197  1.00  0.00    -0.181 C  
BRANCH  16  17
HETATM   17  C   UNL     1      -9.377   2.915  68.686  1.00  0.00    -0.239 C  
BRANCH  17  18
HETATM   18  C   UNL     1      -8.604   4.136  69.155  1.00  0.00    -0.112 C  
BRANCH  18  19
HETATM   19  C   UNL     1      -9.275   4.774  70.370  1.00  0.00    -0.195 C  
BRANCH  19  20
HETATM   20  C   UNL     1      -8.719   4.132  71.634  1.00  0.00    -0.111 C  
BRANCH  20  21
HETATM   21  N   UNL     1      -9.782   3.497  72.410  1.00  0.00    -0.144 NA 
HETATM   22  H   UNL     1      -9.510   2.566  72.726  1.00  0.00     0.000 HD 
BRANCH  21  23
HETATM   23  C   UNL     1     -10.201   4.348  73.533  1.00  0.00    -0.164 C  
BRANCH  23  24
HETATM   24  C   UNL     1     -11.492   5.130  73.246  1.00  0.00    -0.302 C  
BRANCH  24  25
HETATM   25  C   UNL     1     -11.219   6.482  72.642  1.00  0.00    -0.284 A  
HETATM   26  C   UNL     1     -12.091   7.005  71.680  1.00  0.00    -0.384 A  
HETATM   27  C   UNL     1     -11.852   8.262  71.124  1.00  0.00    -0.302 A  
HETATM   28  C   UNL     1     -10.736   8.995  71.523  1.00  0.00    -0.421 A  
HETATM   29  C   UNL     1      -9.858   8.474  72.472  1.00  0.00    -0.324 A  
HETATM   30  C   UNL     1     -10.096   7.218  73.028  1.00  0.00    -0.294 A  
ENDBRANCH  24  25
ENDBRANCH  23  24
ENDBRANCH  21  23
ENDBRANCH  20  21
ENDBRANCH  19  20
ENDBRANCH  18  19
ENDBRANCH  17  18
ENDBRANCH  16  17
ENDBRANCH  15  16
ENDBRANCH  13  15
ENDBRANCH  12  13
ENDBRANCH  11  12
ENDBRANCH   8  11
TORSDOF 13
ENDMDL
MODEL      411
REMARK 921   NORMALIZED FREE ENERGY PREDICTED BY IDOCK:   -2.10 KCAL/MOL
REMARK 922        TOTAL FREE ENERGY PREDICTED BY IDOCK:   -6.45 KCAL/MOL
REMARK 923 INTER-LIGAND FREE ENERGY PREDICTED BY IDOCK:   -5.87 KCAL/MOL
REMARK 924 INTRA-LIGAND FREE ENERGY PREDICTED BY IDOCK:   -0.58 KCAL/MOL
REMARK 927      BINDING AFFINITY PREDICTED BY RF-SCORE:    0.00 PKD
ROOT
HETATM    1  O   UNL     1      -9.193  17.897  68.174  1.00  0.00    -0.264 OA 
HETATM    2  H   UNL     1      -8.609  18.605  67.929  1.00  0.00     0.000 HD 
HETATM    3  C   UNL     1      -8.858  16.575  68.073  1.00  0.00    -0.197 A  
HETATM    4  C   UNL     1      -9.713  15.537  68.433  1.00  0.00    -0.203 A  
HETATM    5  C   UNL     1      -9.287  14.211  68.338  1.00  0.00    -0.208 A  
HETATM    6  O   UNL     1     -10.983  15.751  68.888  1.00  0.00    -0.248 OA 
HETATM    7  H   UNL     1     -11.567  15.043  69.134  1.00  0.00     0.000 HD 
HETATM    8  C   UNL     1      -7.993  13.915  67.893  1.00  0.00    -0.160 A  
HETATM    9  C   UNL     1      -7.587  16.290  67.585  1.00  0.00    -0.161 A  
HETATM   10  C   UNL     1      -7.154  14.966  67.491  1.00  0.00    -0.215 A  
ENDROOT
BRANCH   8  11
HETATM   11  C   UNL     1      -7.506  12.488  67.833  1.00  0.00    -0.120 C  
BRANCH  11  12
HETATM   12  C   UNL     1      -8.172  11.713  66.695  1.00  0.00    -0.140 C  
BRANCH  12  13
HETATM   13  N   UNL     1      -9.099  12.577  65.954  1.00  0.00    -0.432 NA 
HETATM   14  H   UNL     1      -8.745  12.815  65.027  1.00  0.00     0.000 HD 
BRANCH  13  15
HETATM   15  C   UNL     1     -10.415  11.948  65.896  1.00  0.00    -0.258 C  
BRANCH  15  16
HETATM   16  C   UNL     1     -10.357  10.535  66.467  1.00  0.00    -0.294 C  
BRANCH  16  17
HETATM   17  C   UNL     1     -11.379  10.399  67.592  1.00  0.00    -0.162 C  
BRANCH  17  18
HETATM   18  C   UNL     1     -10.803  10.877  68.914  1.00  0.00    -0.262 C  
BRANCH  18  19
HETATM   19  C   UNL     1     -10.984   9.820  70.003  1.00  0.00    -0.319 C  
BRANCH  19  20
HETATM   20  C   UNL     1     -10.438   8.492  69.496  1.00  0.00    -0.220 C  
BRANCH  20  21
HETATM   21  N   UNL     1     -11.427   7.427  69.648  1.00  0.00    -0.478 NA 
HETATM   22  H   UNL     1     -12.249   7.593  69.068  1.00  0.00     0.000 HD 
BRANCH  21  23
HETATM   23  C   UNL     1     -10.833   6.109  69.381  1.00  0.00    -0.353 C  
BRANCH  23  24
HETATM   24  C   UNL     1      -9.441   5.938  70.007  1.00  0.00    -0.189 C  
BRANCH  24  25
HETATM   25  C   UNL     1      -9.511   5.489  71.442  1.00  0.00    -0.182 A  
HETATM   26  C   UNL     1      -8.874   6.238  72.439  1.00  0.00    -0.131 A  
HETATM   27  C   UNL     1      -8.943   5.835  73.773  1.00  0.00    -0.127 A  
HETATM   28  C   UNL     1      -9.642   4.679  74.112  1.00  0.00    -0.138 A  
HETATM   29  C   UNL     1     -10.268   3.923  73.122  1.00  0.00    -0.224 A  
HETATM   30  C   UNL     1     -10.200   4.325  71.789  1.00  0.00    -0.182 A  
ENDBRANCH  24  25
ENDBRANCH  23  24
ENDBRANCH  21  23
ENDBRANCH  20  21
ENDBRANCH  19  20
ENDBRANCH  18  19
ENDBRANCH  17  18
ENDBRANCH  16  17
ENDBRANCH  15  16
ENDBRANCH  13  15
ENDBRANCH  12  13
ENDBRANCH  11  12
ENDBRANCH   8  11
TORSDOF 13
ENDMDL
MODEL      412
REMARK 921   NORMALIZED FREE ENERGY PREDICTED BY IDOCK:   -2.05 KCAL/MOL
REMARK 922        TOTAL FREE ENERGY PREDICTED BY IDOCK:   -6.36 KCAL/MOL
REMARK 923 INTER-LIGAND FREE ENERGY PREDICTED BY IDOCK:   -5.52 KCAL/MOL
REMARK 924 INTRA-LIGAND FREE ENERGY PREDICTED BY IDOCK:   -0.84 KCAL/MOL
REMARK 927      BINDING AFFINITY PREDICTED BY RF-SCORE:    0.00 PKD
ROOT
HETATM    1  O   UNL     1     -11.096  19.457  65.528  1.00  0.00    -0.374 OA 
HETATM    2  H   UNL     1     -10.925  20.307  65.917  1.00  0.00     0.000 HD 
HETATM    3  C   UNL     1     -10.387  18.329  65.842  1.00  0.00    -0.284 A  
HETATM    4  C   UNL     1     -10.639  17.084  65.273  1.00  0.00    -0.080 A  
HETATM    5  C   UNL     1      -9.898  15.969  65.670  1.00  0.00    -0.309 A  
HETATM    6  O   UNL     1     -11.597  16.886  64.321  1.00  0.00    -1.060 OA 
HETATM    7  H   UNL     1     -11.768  16.037  63.932  1.00  0.00     0.000 HD 
HETATM    8  C   UNL     1      -8.909  16.091  66.652  1.00  0.00    -0.307 A  
HETATM    9  C   UNL     1      -9.374  18.472  66.784  1.00  0.00    -0.297 A  
HETATM   10  C   UNL     1      -8.633  17.359  67.187  1.00  0.00    -0.233 A  
ENDROOT
BRANCH   8  11
HETATM   11  C   UNL     1      -8.136  14.884  67.124  1.00  0.00    -0.239 C  
BRANCH  11  12
HETATM   12  C   UNL     1      -8.050  14.830  68.650  1.00  0.00    -0.153 C  
BRANCH  12  13
HETATM   13  N   UNL     1      -6.932  13.979  69.075  1.00  0.00    -0.110 NA 
HETATM   14  H   UNL     1      -7.126  13.501  69.955  1.00  0.00     0.000 HD 
BRANCH  13  15
HETATM   15  C   UNL     1      -6.592  13.046  68.005  1.00  0.00    -0.116 C  
BRANCH  15  16
HETATM   16  C   UNL     1      -7.154  11.661  68.306  1.00  0.00    -0.078 C  
BRANCH  16  17
HETATM   17  C   UNL     1      -7.512  10.962  66.998  1.00  0.00    -0.122 C  
BRANCH  17  18
HETATM   18  C   UNL     1      -8.783  11.541  66.400  1.00  0.00    -0.179 C  
BRANCH  18  19
HETATM   19  C   UNL     1      -9.788  10.435  66.077  1.00  0.00    -0.289 C  
BRANCH  19  20
HETATM   20  C   UNL     1      -9.124   9.084  66.305  1.00  0.00    -0.179 C  
BRANCH  20  21
HETATM   21  N   UNL     1     -10.088   8.103  66.797  1.00  0.00    -0.279 NA 
HETATM   22  H   UNL     1     -10.914   8.056  66.200  1.00  0.00     0.000 HD 
BRANCH  21  23
HETATM   23  C   UNL     1      -9.465   6.782  66.961  1.00  0.00    -0.146 C  
BRANCH  23  24
HETATM   24  C   UNL     1     -10.108   5.699  66.082  1.00  0.00    -0.096 C  
BRANCH  24  25
HETATM   25  C   UNL     1      -9.105   5.015  65.192  1.00  0.00    -0.127 A  
HETATM   26  C   UNL     1      -9.168   3.629  65.008  1.00  0.00    -0.149 A  
HETATM   27  C   UNL     1      -8.248   2.988  64.175  1.00  0.00    -0.083 A  
HETATM   28  C   UNL     1      -7.262   3.731  63.532  1.00  0.00    -0.050 A  
HETATM   29  C   UNL     1      -7.188   5.110  63.721  1.00  0.00    -0.050 A  
HETATM   30  C   UNL     1      -8.105   5.751  64.552  1.00  0.00    -0.132 A  
ENDBRANCH  24  25
ENDBRANCH  23  24
ENDBRANCH  21  23
ENDBRANCH  20  21
ENDBRANCH  19  20
ENDBRANCH  18  19
ENDBRANCH  17  18
ENDBRANCH  16  17
ENDBRANCH  15  16
ENDBRANCH  13  15
ENDBRANCH  12  13
ENDBRANCH  11  12
ENDBRANCH   8  11
TORSDOF 13
ENDMDL
MODEL      413
REMARK 921   NORMALIZED FREE ENERGY PREDICTED BY IDOCK:   -2.04 KCAL/MOL
REMARK 922        TOTAL FREE ENERGY PREDICTED BY IDOCK:   -6.35 KCAL/MOL
REMARK 923 INTER-LIGAND FREE ENERGY PREDICTED BY IDOCK:   -4.93 KCAL/MOL
REMARK 924 INTRA-LIGAND FREE ENERGY PREDICTED BY IDOCK:   -1.42 KCAL/MOL
REMARK 927      BINDING AFFINITY PREDICTED BY RF-SCORE:    0.00 PKD
ROOT
HETATM    1  O   UNL     1     -13.624  10.017  70.463  1.00  0.00    -0.520 OA 
HETATM    2  H   UNL     1     -14.552  10.092  70.274  1.00  0.00     0.000 HD 
HETATM    3  C   UNL     1     -13.070   8.943  71.106  1.00  0.00    -0.102 A  
HETATM    4  C   UNL     1     -11.711   8.833  71.381  1.00  0.00    -0.305 A  
HETATM    5  C   UNL     1     -11.212   7.689  72.008  1.00  0.00    -0.317 A  
HETATM    6  O   UNL     1     -10.810   9.808  71.062  1.00  0.00    -0.326 OA 
HETATM    7  H   UNL     1      -9.882   9.733  71.250  1.00  0.00     0.000 HD 
HETATM    8  C   UNL     1     -12.073   6.640  72.352  1.00  0.00    -0.132 A  
HETATM    9  C   UNL     1     -13.942   7.928  71.486  1.00  0.00    -0.450 A  
HETATM   10  C   UNL     1     -13.449   6.781  72.110  1.00  0.00     0.045 A  
ENDROOT
BRANCH   8  11
HETATM   11  C   UNL     1     -11.538   5.379  72.985  1.00  0.00    -0.268 C  
BRANCH  11  12
HETATM   12  C   UNL     1     -10.041   5.487  73.278  1.00  0.00    -0.184 C  
BRANCH  12  13
HETATM   13  N   UNL     1      -9.810   6.218  74.529  1.00  0.00    -0.290 NA 
HETATM   14  H   UNL     1      -9.845   5.606  75.344  1.00  0.00     0.000 HD 
BRANCH  13  15
HETATM   15  C   UNL     1      -8.548   6.949  74.443  1.00  0.00    -0.173 C  
BRANCH  15  16
HETATM   16  C   UNL     1      -7.704   6.424  73.287  1.00  0.00    -0.097 C  
BRANCH  16  17
HETATM   17  C   UNL     1      -7.394   7.567  72.324  1.00  0.00    -0.072 C  
BRANCH  17  18
HETATM   18  C   UNL     1      -7.721   7.179  70.892  1.00  0.00    -0.094 C  
BRANCH  18  19
HETATM   19  C   UNL     1      -7.920   8.419  70.022  1.00  0.00    -0.109 C  
BRANCH  19  20
HETATM   20  C   UNL     1      -8.806   8.054  68.839  1.00  0.00    -0.141 C  
BRANCH  20  21
HETATM   21  N   UNL     1      -9.756   9.125  68.545  1.00  0.00    -0.152 NA 
HETATM   22  H   UNL     1      -9.312  10.042  68.592  1.00  0.00     0.000 HD 
BRANCH  21  23
HETATM   23  C   UNL     1     -10.417   8.908  67.251  1.00  0.00    -0.277 C  
BRANCH  23  24
HETATM   24  C   UNL     1     -10.057   9.975  66.205  1.00  0.00    -0.317 C  
BRANCH  24  25
HETATM   25  C   UNL     1      -8.814   9.622  65.433  1.00  0.00    -0.204 A  
HETATM   26  C   UNL     1      -7.619  10.305  65.686  1.00  0.00    -0.148 A  
HETATM   27  C   UNL     1      -6.459   9.977  64.982  1.00  0.00    -0.117 A  
HETATM   28  C   UNL     1      -6.494   8.971  64.020  1.00  0.00    -0.087 A  
HETATM   29  C   UNL     1      -7.685   8.295  63.756  1.00  0.00    -0.145 A  
HETATM   30  C   UNL     1      -8.844   8.621  64.458  1.00  0.00     0.049 A  
ENDBRANCH  24  25
ENDBRANCH  23  24
ENDBRANCH  21  23
ENDBRANCH  20  21
ENDBRANCH  19  20
ENDBRANCH  18  19
ENDBRANCH  17  18
ENDBRANCH  16  17
ENDBRANCH  15  16
ENDBRANCH  13  15
ENDBRANCH  12  13
ENDBRANCH  11  12
ENDBRANCH   8  11
TORSDOF 13
ENDMDL
MODEL      414
REMARK 921   NORMALIZED FREE ENERGY PREDICTED BY IDOCK:   -2.01 KCAL/MOL
REMARK 922        TOTAL FREE ENERGY PREDICTED BY IDOCK:   -6.30 KCAL/MOL
REMARK 923 INTER-LIGAND FREE ENERGY PREDICTED BY IDOCK:   -3.35 KCAL/MOL
REMARK 924 INTRA-LIGAND FREE ENERGY PREDICTED BY IDOCK:   -2.95 KCAL/MOL
REMARK 927      BINDING AFFINITY PREDICTED BY RF-SCORE:    0.00 PKD
ROOT
HETATM    1  O   UNL     1      -9.517  12.890  65.933  1.00  0.00    -0.431 OA 
HETATM    2  H   UNL     1      -8.765  13.346  65.573  1.00  0.00     0.000 HD 
HETATM    3  C   UNL     1      -9.594  11.528  66.034  1.00  0.00    -0.228 A  
HETATM    4  C   UNL     1     -10.695  10.860  66.562  1.00  0.00    -0.209 A  
HETATM    5  C   UNL     1     -10.686   9.467  66.668  1.00  0.00    -0.086 A  
HETATM    6  O   UNL     1     -11.815  11.509  66.996  1.00  0.00    -0.568 OA 
HETATM    7  H   UNL     1     -12.567  11.053  67.356  1.00  0.00     0.000 HD 
HETATM    8  C   UNL     1      -9.567   8.734  66.257  1.00  0.00    -0.328 A  
HETATM    9  C   UNL     1      -8.496  10.806  65.578  1.00  0.00    -0.153 A  
HETATM   10  C   UNL     1      -8.481   9.414  65.685  1.00  0.00    -0.145 A  
ENDROOT
BRANCH   8  11
HETATM   11  C   UNL     1      -9.528   7.234  66.411  1.00  0.00    -0.185 C  
BRANCH  11  12
HETATM   12  C   UNL     1     -10.564   6.745  67.425  1.00  0.00    -0.302 C  
BRANCH  12  13
HETATM   13  N   UNL     1     -10.047   5.598  68.180  1.00  0.00    -0.155 NA 
HETATM   14  H   UNL     1      -9.050   5.687  68.380  1.00  0.00     0.000 HD 
BRANCH  13  15
HETATM   15  C   UNL     1     -10.837   5.412  69.393  1.00  0.00    -0.033 C  
BRANCH  15  16
HETATM   16  C   UNL     1     -10.065   4.580  70.411  1.00  0.00    -0.229 C  
BRANCH  16  17
HETATM   17  C   UNL     1      -9.157   3.595  69.679  1.00  0.00    -0.197 C  
BRANCH  17  18
HETATM   18  C   UNL     1      -8.011   3.144  70.568  1.00  0.00    -0.049 C  
BRANCH  18  19
HETATM   19  C   UNL     1      -7.112   4.322  70.940  1.00  0.00    -0.037 C  
BRANCH  19  20
HETATM   20  C   UNL     1      -5.921   4.354  69.992  1.00  0.00    -0.018 C  
BRANCH  20  21
HETATM   21  N   UNL     1      -5.414   5.714  69.831  1.00  0.00    -0.004 NA 
HETATM   22  H   UNL     1      -5.010   5.857  68.907  1.00  0.00     0.000 HD 
BRANCH  21  23
HETATM   23  C   UNL     1      -6.458   6.708  70.124  1.00  0.00    -0.040 C  
BRANCH  23  24
HETATM   24  C   UNL     1      -6.333   7.980  69.273  1.00  0.00    -0.035 C  
BRANCH  24  25
HETATM   25  C   UNL     1      -7.472   8.937  69.505  1.00  0.00    -0.075 A  
HETATM   26  C   UNL     1      -8.671   8.472  70.057  1.00  0.00    -0.136 A  
HETATM   27  C   UNL     1      -9.728   9.355  70.286  1.00  0.00    -0.292 A  
HETATM   28  C   UNL     1      -9.590  10.701  69.957  1.00  0.00     0.465 A  
HETATM   29  C   UNL     1      -8.402  11.167  69.396  1.00  0.00     0.215 A  
HETATM   30  C   UNL     1      -7.345  10.287  69.167  1.00  0.00    -0.096 A  
ENDBRANCH  24  25
ENDBRANCH  23  24
ENDBRANCH  21  23
ENDBRANCH  20  21
ENDBRANCH  19  20
ENDBRANCH  18  19
ENDBRANCH  17  18
ENDBRANCH  16  17
ENDBRANCH  15  16
ENDBRANCH  13  15
ENDBRANCH  12  13
ENDBRANCH  11  12
ENDBRANCH   8  11
TORSDOF 13
ENDMDL
MODEL      415
REMARK 921   NORMALIZED FREE ENERGY PREDICTED BY IDOCK:   -1.98 KCAL/MOL
REMARK 922        TOTAL FREE ENERGY PREDICTED BY IDOCK:   -6.24 KCAL/MOL
REMARK 923 INTER-LIGAND FREE ENERGY PREDICTED BY IDOCK:   -5.19 KCAL/MOL
REMARK 924 INTRA-LIGAND FREE ENERGY PREDICTED BY IDOCK:   -1.06 KCAL/MOL
REMARK 927      BINDING AFFINITY PREDICTED BY RF-SCORE:    0.00 PKD
ROOT
HETATM    1  O   UNL     1      -8.468  11.275  64.903  1.00  0.00    -0.372 OA 
HETATM    2  H   UNL     1      -7.874  11.787  64.367  1.00  0.00     0.000 HD 
HETATM    3  C   UNL     1      -8.110  10.103  65.513  1.00  0.00    -0.147 A  
HETATM    4  C   UNL     1      -8.979   9.353  66.300  1.00  0.00    -0.156 A  
HETATM    5  C   UNL     1      -8.531   8.185  66.922  1.00  0.00    -0.119 A  
HETATM    6  O   UNL     1     -10.282   9.705  66.504  1.00  0.00    -0.239 OA 
HETATM    7  H   UNL     1     -10.875   9.192  67.040  1.00  0.00     0.000 HD 
HETATM    8  C   UNL     1      -7.203   7.769  66.771  1.00  0.00    -0.088 A  
HETATM    9  C   UNL     1      -6.801   9.674  65.317  1.00  0.00    -0.096 A  
HETATM   10  C   UNL     1      -6.348   8.509  65.940  1.00  0.00    -0.053 A  
ENDROOT
BRANCH   8  11
HETATM   11  C   UNL     1      -6.696   6.536  67.478  1.00  0.00    -0.067 C  
BRANCH  11  12
HETATM   12  C   UNL     1      -7.836   5.578  67.829  1.00  0.00    -0.097 C  
BRANCH  12  13
HETATM   13  N   UNL     1      -7.996   5.476  69.284  1.00  0.00    -0.093 NA 
HETATM   14  H   UNL     1      -7.373   6.110  69.785  1.00  0.00     0.000 HD 
BRANCH  13  15
HETATM   15  C   UNL     1      -9.397   5.685  69.639  1.00  0.00    -0.138 C  
BRANCH  15  16
HETATM   16  C   UNL     1     -10.035   4.375  70.089  1.00  0.00    -0.249 C  
BRANCH  16  17
HETATM   17  C   UNL     1      -8.940   3.368  70.433  1.00  0.00    -0.167 C  
BRANCH  17  18
HETATM   18  C   UNL     1      -9.346   2.502  71.613  1.00  0.00    -0.190 C  
BRANCH  18  19
HETATM   19  C   UNL     1     -10.319   3.246  72.527  1.00  0.00    -0.186 C  
BRANCH  19  20
HETATM   20  C   UNL     1      -9.526   4.151  73.460  1.00  0.00    -0.103 C  
BRANCH  20  21
HETATM   21  N   UNL     1      -9.747   5.559  73.138  1.00  0.00    -0.149 NA 
HETATM   22  H   UNL     1     -10.641   5.890  73.499  1.00  0.00     0.000 HD 
BRANCH  21  23
HETATM   23  C   UNL     1      -8.631   6.392  73.607  1.00  0.00    -0.123 C  
BRANCH  23  24
HETATM   24  C   UNL     1      -8.990   7.883  73.698  1.00  0.00    -0.337 C  
BRANCH  24  25
HETATM   25  C   UNL     1      -9.775   8.356  72.505  1.00  0.00    -0.359 A  
HETATM   26  C   UNL     1     -11.174   8.308  72.527  1.00  0.00    -0.446 A  
HETATM   27  C   UNL     1     -11.910   8.754  71.428  1.00  0.00    -0.369 A  
HETATM   28  C   UNL     1     -11.249   9.243  70.304  1.00  0.00    -0.267 A  
HETATM   29  C   UNL     1      -9.856   9.283  70.272  1.00  0.00    -0.265 A  
HETATM   30  C   UNL     1      -9.119   8.837  71.368  1.00  0.00    -0.313 A  
ENDBRANCH  24  25
ENDBRANCH  23  24
ENDBRANCH  21  23
ENDBRANCH  20  21
ENDBRANCH  19  20
ENDBRANCH  18  19
ENDBRANCH  17  18
ENDBRANCH  16  17
ENDBRANCH  15  16
ENDBRANCH  13  15
ENDBRANCH  12  13
ENDBRANCH  11  12
ENDBRANCH   8  11
TORSDOF 13
ENDMDL
MODEL      416
REMARK 921   NORMALIZED FREE ENERGY PREDICTED BY IDOCK:   -1.97 KCAL/MOL
REMARK 922        TOTAL FREE ENERGY PREDICTED BY IDOCK:   -6.22 KCAL/MOL
REMARK 923 INTER-LIGAND FREE ENERGY PREDICTED BY IDOCK:   -4.80 KCAL/MOL
REMARK 924 INTRA-LIGAND FREE ENERGY PREDICTED BY IDOCK:   -1.42 KCAL/MOL
REMARK 927      BINDING AFFINITY PREDICTED BY RF-SCORE:    0.00 PKD
ROOT
HETATM    1  O   UNL     1      -9.416  12.979  65.698  1.00  0.00    -0.466 OA 
HETATM    2  H   UNL     1      -8.729  13.298  65.125  1.00  0.00     0.000 HD 
HETATM    3  C   UNL     1      -9.569  11.659  66.028  1.00  0.00    -0.228 A  
HETATM    4  C   UNL     1     -10.575  11.192  66.869  1.00  0.00    -0.258 A  
HETATM    5  C   UNL     1     -10.646   9.835  67.191  1.00  0.00    -0.298 A  
HETATM    6  O   UNL     1     -11.523  12.010  67.414  1.00  0.00    -0.306 OA 
HETATM    7  H   UNL     1     -12.210  11.692  67.987  1.00  0.00     0.000 HD 
HETATM    8  C   UNL     1      -9.700   8.938  66.683  1.00  0.00    -0.303 A  
HETATM    9  C   UNL     1      -8.652  10.769  65.479  1.00  0.00    -0.181 A  
HETATM   10  C   UNL     1      -8.717   9.412  65.800  1.00  0.00    -0.183 A  
ENDROOT
BRANCH   8  11
HETATM   11  C   UNL     1      -9.739   7.478  67.063  1.00  0.00    -0.257 C  
BRANCH  11  12
HETATM   12  C   UNL     1     -10.951   7.155  67.938  1.00  0.00    -0.084 C  
BRANCH  12  13
HETATM   13  N   UNL     1     -10.544   6.402  69.129  1.00  0.00    -0.227 NA 
HETATM   14  H   UNL     1      -9.602   6.647  69.435  1.00  0.00     0.000 HD 
BRANCH  13  15
HETATM   15  C   UNL     1     -11.532   6.586  70.188  1.00  0.00    -0.415 C  
BRANCH  15  16
HETATM   16  C   UNL     1     -11.038   5.968  71.492  1.00  0.00    -0.336 C  
BRANCH  16  17
HETATM   17  C   UNL     1     -10.310   4.660  71.191  1.00  0.00    -0.142 C  
BRANCH  17  18
HETATM   18  C   UNL     1      -9.490   4.205  72.385  1.00  0.00    -0.179 C  
BRANCH  18  19
HETATM   19  C   UNL     1      -8.055   3.881  71.971  1.00  0.00    -0.080 C  
BRANCH  19  20
HETATM   20  C   UNL     1      -7.943   2.385  71.709  1.00  0.00    -0.048 C  
BRANCH  20  21
HETATM   21  N   UNL     1      -7.011   2.113  70.617  1.00  0.00    -0.033 NA 
HETATM   22  H   UNL     1      -7.393   1.435  69.958  1.00  0.00     0.000 HD 
BRANCH  21  23
HETATM   23  C   UNL     1      -6.607   3.354  69.942  1.00  0.00    -0.033 C  
BRANCH  23  24
HETATM   24  C   UNL     1      -6.172   3.133  68.485  1.00  0.00    -0.029 C  
BRANCH  24  25
HETATM   25  C   UNL     1      -7.297   3.366  67.512  1.00  0.00    -0.059 A  
HETATM   26  C   UNL     1      -8.595   3.585  67.986  1.00  0.00    -0.118 A  
HETATM   27  C   UNL     1      -9.642   3.813  67.091  1.00  0.00    -0.218 A  
HETATM   28  C   UNL     1      -9.393   3.815  65.721  1.00  0.00    -0.164 A  
HETATM   29  C   UNL     1      -8.103   3.586  65.242  1.00  0.00    -0.097 A  
HETATM   30  C   UNL     1      -7.058   3.358  66.135  1.00  0.00    -0.063 A  
ENDBRANCH  24  25
ENDBRANCH  23  24
ENDBRANCH  21  23
ENDBRANCH  20  21
ENDBRANCH  19  20
ENDBRANCH  18  19
ENDBRANCH  17  18
ENDBRANCH  16  17
ENDBRANCH  15  16
ENDBRANCH  13  15
ENDBRANCH  12  13
ENDBRANCH  11  12
ENDBRANCH   8  11
TORSDOF 13
ENDMDL
MODEL      417
REMARK 921   NORMALIZED FREE ENERGY PREDICTED BY IDOCK:   -1.96 KCAL/MOL
REMARK 922        TOTAL FREE ENERGY PREDICTED BY IDOCK:   -6.20 KCAL/MOL
REMARK 923 INTER-LIGAND FREE ENERGY PREDICTED BY IDOCK:   -5.21 KCAL/MOL
REMARK 924 INTRA-LIGAND FREE ENERGY PREDICTED BY IDOCK:   -0.98 KCAL/MOL
REMARK 927      BINDING AFFINITY PREDICTED BY RF-SCORE:    0.00 PKD
ROOT
HETATM    1  O   UNL     1      -9.280   8.235  73.835  1.00  0.00    -0.245 OA 
HETATM    2  H   UNL     1      -9.730   7.862  74.584  1.00  0.00     0.000 HD 
HETATM    3  C   UNL     1      -8.985   7.523  72.704  1.00  0.00    -0.144 A  
HETATM    4  C   UNL     1      -8.327   8.069  71.606  1.00  0.00    -0.124 A  
HETATM    5  C   UNL     1      -8.093   7.291  70.470  1.00  0.00    -0.109 A  
HETATM    6  O   UNL     1      -7.885   9.361  71.576  1.00  0.00    -0.308 OA 
HETATM    7  H   UNL     1      -7.436   9.733  70.826  1.00  0.00     0.000 HD 
HETATM    8  C   UNL     1      -8.529   5.962  70.422  1.00  0.00    -0.131 A  
HETATM    9  C   UNL     1      -9.381   6.190  72.686  1.00  0.00    -0.146 A  
HETATM   10  C   UNL     1      -9.152   5.408  71.551  1.00  0.00    -0.158 A  
ENDROOT
BRANCH   8  11
HETATM   11  C   UNL     1      -8.325   5.127  69.182  1.00  0.00    -0.087 C  
BRANCH  11  12
HETATM   12  C   UNL     1      -9.555   4.275  68.867  1.00  0.00    -0.157 C  
BRANCH  12  13
HETATM   13  N   UNL     1     -10.645   5.111  68.349  1.00  0.00    -0.015 NA 
HETATM   14  H   UNL     1     -11.148   5.592  69.095  1.00  0.00     0.000 HD 
BRANCH  13  15
HETATM   15  C   UNL     1     -10.119   6.039  67.351  1.00  0.00    -0.163 C  
BRANCH  15  16
HETATM   16  C   UNL     1     -10.746   7.418  67.523  1.00  0.00    -0.310 C  
BRANCH  16  17
HETATM   17  C   UNL     1     -10.138   8.383  66.508  1.00  0.00    -0.317 C  
BRANCH  17  18
HETATM   18  C   UNL     1     -10.302   9.824  66.958  1.00  0.00    -0.305 C  
BRANCH  18  19
HETATM   19  C   UNL     1      -8.967  10.566  66.913  1.00  0.00    -0.151 C  
BRANCH  19  20
HETATM   20  C   UNL     1      -9.220  12.052  67.127  1.00  0.00    -0.190 C  
BRANCH  20  21
HETATM   21  N   UNL     1     -10.636  12.312  67.378  1.00  0.00    -0.219 NA 
HETATM   22  H   UNL     1     -10.944  11.892  68.255  1.00  0.00     0.000 HD 
BRANCH  21  23
HETATM   23  C   UNL     1     -10.927  13.752  67.336  1.00  0.00    -0.284 C  
BRANCH  23  24
HETATM   24  C   UNL     1     -10.622  14.467  68.661  1.00  0.00    -0.255 C  
BRANCH  24  25
HETATM   25  C   UNL     1      -9.680  15.627  68.482  1.00  0.00    -0.202 A  
HETATM   26  C   UNL     1      -8.313  15.459  68.730  1.00  0.00    -0.182 A  
HETATM   27  C   UNL     1      -7.430  16.526  68.556  1.00  0.00    -0.193 A  
HETATM   28  C   UNL     1      -7.914  17.764  68.141  1.00  0.00    -0.263 A  
HETATM   29  C   UNL     1      -9.277  17.940  67.904  1.00  0.00    -0.263 A  
HETATM   30  C   UNL     1     -10.159  16.875  68.077  1.00  0.00    -0.293 A  
ENDBRANCH  24  25
ENDBRANCH  23  24
ENDBRANCH  21  23
ENDBRANCH  20  21
ENDBRANCH  19  20
ENDBRANCH  18  19
ENDBRANCH  17  18
ENDBRANCH  16  17
ENDBRANCH  15  16
ENDBRANCH  13  15
ENDBRANCH  12  13
ENDBRANCH  11  12
ENDBRANCH   8  11
TORSDOF 13
ENDMDL
MODEL      418
REMARK 921   NORMALIZED FREE ENERGY PREDICTED BY IDOCK:   -1.90 KCAL/MOL
REMARK 922        TOTAL FREE ENERGY PREDICTED BY IDOCK:   -6.09 KCAL/MOL
REMARK 923 INTER-LIGAND FREE ENERGY PREDICTED BY IDOCK:   -5.27 KCAL/MOL
REMARK 924 INTRA-LIGAND FREE ENERGY PREDICTED BY IDOCK:   -0.83 KCAL/MOL
REMARK 927      BINDING AFFINITY PREDICTED BY RF-SCORE:    0.00 PKD
ROOT
HETATM    1  O   UNL     1     -14.323  15.487  71.480  1.00  0.00    -0.497 OA 
HETATM    2  H   UNL     1     -14.904  15.387  72.225  1.00  0.00     0.000 HD 
HETATM    3  C   UNL     1     -13.476  14.502  71.049  1.00  0.00    -0.289 A  
HETATM    4  C   UNL     1     -12.625  14.648  69.957  1.00  0.00    -0.230 A  
HETATM    5  C   UNL     1     -11.814  13.585  69.552  1.00  0.00    -0.392 A  
HETATM    6  O   UNL     1     -12.537  15.806  69.238  1.00  0.00    -0.526 OA 
HETATM    7  H   UNL     1     -11.956  15.906  68.493  1.00  0.00     0.000 HD 
HETATM    8  C   UNL     1     -11.861  12.363  70.231  1.00  0.00    -0.315 A  
HETATM    9  C   UNL     1     -13.496  13.307  71.760  1.00  0.00    -0.438 A  
HETATM   10  C   UNL     1     -12.690  12.241  71.358  1.00  0.00    -0.351 A  
ENDROOT
BRANCH   8  11
HETATM   11  C   UNL     1     -11.026  11.193  69.773  1.00  0.00    -0.216 C  
BRANCH  11  12
HETATM   12  C   UNL     1     -11.846  10.207  68.939  1.00  0.00     0.236 C  
BRANCH  12  13
HETATM   13  N   UNL     1     -11.118   9.826  67.724  1.00  0.00    -0.486 NA 
HETATM   14  H   UNL     1     -11.419   8.920  67.363  1.00  0.00     0.000 HD 
BRANCH  13  15
HETATM   15  C   UNL     1     -11.241  10.884  66.726  1.00  0.00    -0.033 C  
BRANCH  15  16
HETATM   16  C   UNL     1      -9.938  11.040  65.949  1.00  0.00    -0.289 C  
BRANCH  16  17
HETATM   17  C   UNL     1      -9.806   9.898  64.944  1.00  0.00    -0.282 C  
BRANCH  17  18
HETATM   18  C   UNL     1      -8.954   8.773  65.506  1.00  0.00    -0.231 C  
BRANCH  18  19
HETATM   19  C   UNL     1      -7.723   8.532  64.633  1.00  0.00    -0.116 C  
BRANCH  19  20
HETATM   20  C   UNL     1      -6.962   9.842  64.480  1.00  0.00    -0.125 C  
BRANCH  20  21
HETATM   21  N   UNL     1      -5.629   9.747  65.070  1.00  0.00    -0.061 NA 
HETATM   22  H   UNL     1      -4.942   9.419  64.392  1.00  0.00     0.000 HD 
BRANCH  21  23
HETATM   23  C   UNL     1      -5.225  11.023  65.677  1.00  0.00    -0.110 C  
BRANCH  23  24
HETATM   24  C   UNL     1      -6.268  11.581  66.656  1.00  0.00    -0.113 C  
BRANCH  24  25
HETATM   25  C   UNL     1      -6.582  10.617  67.768  1.00  0.00    -0.060 A  
HETATM   26  C   UNL     1      -5.568   9.810  68.298  1.00  0.00    -0.039 A  
HETATM   27  C   UNL     1      -5.848   8.921  69.337  1.00  0.00    -0.034 A  
HETATM   28  C   UNL     1      -7.143   8.833  69.843  1.00  0.00    -0.051 A  
HETATM   29  C   UNL     1      -8.159   9.625  69.311  1.00  0.00    -0.107 A  
HETATM   30  C   UNL     1      -7.881  10.514  68.273  1.00  0.00    -0.111 A  
ENDBRANCH  24  25
ENDBRANCH  23  24
ENDBRANCH  21  23
ENDBRANCH  20  21
ENDBRANCH  19  20
ENDBRANCH  18  19
ENDBRANCH  17  18
ENDBRANCH  16  17
ENDBRANCH  15  16
ENDBRANCH  13  15
ENDBRANCH  12  13
ENDBRANCH  11  12
ENDBRANCH   8  11
TORSDOF 13
ENDMDL
MODEL      419
REMARK 921   NORMALIZED FREE ENERGY PREDICTED BY IDOCK:   -1.86 KCAL/MOL
REMARK 922        TOTAL FREE ENERGY PREDICTED BY IDOCK:   -6.03 KCAL/MOL
REMARK 923 INTER-LIGAND FREE ENERGY PREDICTED BY IDOCK:   -4.71 KCAL/MOL
REMARK 924 INTRA-LIGAND FREE ENERGY PREDICTED BY IDOCK:   -1.31 KCAL/MOL
REMARK 927      BINDING AFFINITY PREDICTED BY RF-SCORE:    0.00 PKD
ROOT
HETATM    1  O   UNL     1     -11.767  11.018  67.041  1.00  0.00    -0.399 OA 
HETATM    2  H   UNL     1     -12.448  10.735  67.640  1.00  0.00     0.000 HD 
HETATM    3  C   UNL     1     -10.603  10.326  66.842  1.00  0.00    -0.217 A  
HETATM    4  C   UNL     1      -9.606  10.740  65.965  1.00  0.00    -0.201 A  
HETATM    5  C   UNL     1      -8.461   9.961  65.786  1.00  0.00    -0.142 A  
HETATM    6  O   UNL     1      -9.687  11.899  65.247  1.00  0.00    -0.267 OA 
HETATM    7  H   UNL     1      -9.006  12.182  64.648  1.00  0.00     0.000 HD 
HETATM    8  C   UNL     1      -8.314   8.752  66.476  1.00  0.00    -0.112 A  
HETATM    9  C   UNL     1     -10.446   9.151  67.570  1.00  0.00    -0.335 A  
HETATM   10  C   UNL     1      -9.305   8.366  67.392  1.00  0.00    -0.178 A  
ENDROOT
BRANCH   8  11
HETATM   11  C   UNL     1      -7.103   7.879  66.254  1.00  0.00    -0.063 C  
BRANCH  11  12
HETATM   12  C   UNL     1      -7.469   6.394  66.269  1.00  0.00    -0.085 C  
BRANCH  12  13
HETATM   13  N   UNL     1      -7.929   5.961  64.944  1.00  0.00    -0.119 NA 
HETATM   14  H   UNL     1      -7.254   5.351  64.483  1.00  0.00     0.000 HD 
BRANCH  13  15
HETATM   15  C   UNL     1      -9.245   5.339  65.061  1.00  0.00     0.040 C  
BRANCH  15  16
HETATM   16  C   UNL     1      -9.198   3.896  64.568  1.00  0.00    -0.147 C  
BRANCH  16  17
HETATM   17  C   UNL     1      -8.778   2.981  65.715  1.00  0.00    -0.130 C  
BRANCH  17  18
HETATM   18  C   UNL     1      -9.500   3.349  67.000  1.00  0.00    -0.188 C  
BRANCH  18  19
HETATM   19  C   UNL     1      -8.643   3.020  68.221  1.00  0.00    -0.118 C  
BRANCH  19  20
HETATM   20  C   UNL     1      -9.214   3.742  69.434  1.00  0.00    -0.156 C  
BRANCH  20  21
HETATM   21  N   UNL     1     -10.110   4.822  69.027  1.00  0.00    -0.147 NA 
HETATM   22  H   UNL     1     -10.870   4.477  68.441  1.00  0.00     0.000 HD 
BRANCH  21  23
HETATM   23  C   UNL     1     -10.618   5.558  70.194  1.00  0.00    -0.297 C  
BRANCH  23  24
HETATM   24  C   UNL     1     -10.114   4.991  71.530  1.00  0.00    -0.263 C  
BRANCH  24  25
HETATM   25  C   UNL     1      -9.540   6.056  72.423  1.00  0.00    -0.162 A  
HETATM   26  C   UNL     1      -8.999   5.707  73.667  1.00  0.00    -0.124 A  
HETATM   27  C   UNL     1      -8.454   6.687  74.497  1.00  0.00    -0.169 A  
HETATM   28  C   UNL     1      -8.455   8.019  74.089  1.00  0.00    -0.293 A  
HETATM   29  C   UNL     1      -9.002   8.374  72.857  1.00  0.00    -0.266 A  
HETATM   30  C   UNL     1      -9.547   7.396  72.027  1.00  0.00    -0.177 A  
ENDBRANCH  24  25
ENDBRANCH  23  24
ENDBRANCH  21  23
ENDBRANCH  20  21
ENDBRANCH  19  20
ENDBRANCH  18  19
ENDBRANCH  17  18
ENDBRANCH  16  17
ENDBRANCH  15  16
ENDBRANCH  13  15
ENDBRANCH  12  13
ENDBRANCH  11  12
ENDBRANCH   8  11
TORSDOF 13
ENDMDL
MODEL      420
REMARK 921   NORMALIZED FREE ENERGY PREDICTED BY IDOCK:   -1.85 KCAL/MOL
REMARK 922        TOTAL FREE ENERGY PREDICTED BY IDOCK:   -6.00 KCAL/MOL
REMARK 923 INTER-LIGAND FREE ENERGY PREDICTED BY IDOCK:   -5.07 KCAL/MOL
REMARK 924 INTRA-LIGAND FREE ENERGY PREDICTED BY IDOCK:   -0.93 KCAL/MOL
REMARK 927      BINDING AFFINITY PREDICTED BY RF-SCORE:    0.00 PKD
ROOT
HETATM    1  O   UNL     1     -11.441  19.482  65.554  1.00  0.00     0.134 OA 
HETATM    2  H   UNL     1     -11.588  20.350  65.912  1.00  0.00     0.000 HD 
HETATM    3  C   UNL     1     -10.438  18.653  65.977  1.00  0.00    -0.414 A  
HETATM    4  C   UNL     1     -10.222  17.382  65.453  1.00  0.00     0.175 A  
HETATM    5  C   UNL     1      -9.200  16.577  65.961  1.00  0.00    -0.295 A  
HETATM    6  O   UNL     1     -10.978  16.862  64.441  1.00  0.00    -1.091 OA 
HETATM    7  H   UNL     1     -10.831  15.995  64.083  1.00  0.00     0.000 HD 
HETATM    8  C   UNL     1      -8.394  17.037  67.008  1.00  0.00    -0.229 A  
HETATM    9  C   UNL     1      -9.612  19.139  66.985  1.00  0.00    -0.378 A  
HETATM   10  C   UNL     1      -8.591  18.337  67.499  1.00  0.00    -0.253 A  
ENDROOT
BRANCH   8  11
HETATM   11  C   UNL     1      -7.319  16.157  67.597  1.00  0.00    -0.164 C  
BRANCH  11  12
HETATM   12  C   UNL     1      -7.285  16.254  69.124  1.00  0.00    -0.213 C  
BRANCH  12  13
HETATM   13  N   UNL     1      -6.126  15.532  69.661  1.00  0.00    -0.141 NA 
HETATM   14  H   UNL     1      -6.207  15.368  70.665  1.00  0.00     0.000 HD 
BRANCH  13  15
HETATM   15  C   UNL     1      -5.931  14.292  68.915  1.00  0.00    -0.086 C  
BRANCH  15  16
HETATM   16  C   UNL     1      -6.487  13.106  69.695  1.00  0.00    -0.047 C  
BRANCH  16  17
HETATM   17  C   UNL     1      -6.752  11.947  68.738  1.00  0.00    -0.088 C  
BRANCH  17  18
HETATM   18  C   UNL     1      -7.999  12.198  67.908  1.00  0.00    -0.150 C  
BRANCH  18  19
HETATM   19  C   UNL     1      -9.135  11.269  68.333  1.00  0.00    -0.170 C  
BRANCH  19  20
HETATM   20  C   UNL     1      -8.567  10.167  69.216  1.00  0.00    -0.174 C  
BRANCH  20  21
HETATM   21  N   UNL     1      -9.450   9.893  70.347  1.00  0.00    -0.372 NA 
HETATM   22  H   UNL     1     -10.420   9.793  70.049  1.00  0.00     0.000 HD 
BRANCH  21  23
HETATM   23  C   UNL     1      -8.993   8.719  71.105  1.00  0.00    -0.222 C  
BRANCH  23  24
HETATM   24  C   UNL     1      -9.907   7.497  70.932  1.00  0.00    -0.177 C  
BRANCH  24  25
HETATM   25  C   UNL     1      -9.431   6.577  69.841  1.00  0.00    -0.161 A  
HETATM   26  C   UNL     1      -9.924   6.727  68.539  1.00  0.00    -0.149 A  
HETATM   27  C   UNL     1      -9.479   5.884  67.518  1.00  0.00    -0.110 A  
HETATM   28  C   UNL     1      -8.548   4.888  67.799  1.00  0.00    -0.103 A  
HETATM   29  C   UNL     1      -8.064   4.726  69.096  1.00  0.00    -0.074 A  
HETATM   30  C   UNL     1      -8.506   5.567  70.116  1.00  0.00    -0.117 A  
ENDBRANCH  24  25
ENDBRANCH  23  24
ENDBRANCH  21  23
ENDBRANCH  20  21
ENDBRANCH  19  20
ENDBRANCH  18  19
ENDBRANCH  17  18
ENDBRANCH  16  17
ENDBRANCH  15  16
ENDBRANCH  13  15
ENDBRANCH  12  13
ENDBRANCH  11  12
ENDBRANCH   8  11
TORSDOF 13
ENDMDL
MODEL      421
REMARK 921   NORMALIZED FREE ENERGY PREDICTED BY IDOCK:   -1.84 KCAL/MOL
REMARK 922        TOTAL FREE ENERGY PREDICTED BY IDOCK:   -5.99 KCAL/MOL
REMARK 923 INTER-LIGAND FREE ENERGY PREDICTED BY IDOCK:   -5.08 KCAL/MOL
REMARK 924 INTRA-LIGAND FREE ENERGY PREDICTED BY IDOCK:   -0.90 KCAL/MOL
REMARK 927      BINDING AFFINITY PREDICTED BY RF-SCORE:    0.00 PKD
ROOT
HETATM    1  O   UNL     1      -9.258   8.294  73.836  1.00  0.00    -0.245 OA 
HETATM    2  H   UNL     1      -9.876   8.068  74.521  1.00  0.00     0.000 HD 
HETATM    3  C   UNL     1      -8.827   7.406  72.888  1.00  0.00    -0.134 A  
HETATM    4  C   UNL     1      -7.921   7.736  71.885  1.00  0.00    -0.103 A  
HETATM    5  C   UNL     1      -7.556   6.786  70.928  1.00  0.00    -0.088 A  
HETATM    6  O   UNL     1      -7.354   8.974  71.779  1.00  0.00    -0.301 OA 
HETATM    7  H   UNL     1      -6.735   9.199  71.094  1.00  0.00     0.000 HD 
HETATM    8  C   UNL     1      -8.108   5.500  70.963  1.00  0.00    -0.118 A  
HETATM    9  C   UNL     1      -9.345   6.117  72.961  1.00  0.00    -0.139 A  
HETATM   10  C   UNL     1      -8.986   5.164  72.005  1.00  0.00    -0.145 A  
ENDROOT
BRANCH   8  11
HETATM   11  C   UNL     1      -7.757   4.481  69.907  1.00  0.00    -0.057 C  
BRANCH  11  12
HETATM   12  C   UNL     1      -9.008   3.819  69.326  1.00  0.00    -0.113 C  
BRANCH  12  13
HETATM   13  N   UNL     1      -9.547   4.614  68.217  1.00  0.00    -0.147 NA 
HETATM   14  H   UNL     1     -10.089   5.414  68.545  1.00  0.00     0.000 HD 
BRANCH  13  15
HETATM   15  C   UNL     1      -8.460   5.014  67.327  1.00  0.00    -0.105 C  
BRANCH  15  16
HETATM   16  C   UNL     1      -8.707   6.416  66.781  1.00  0.00    -0.119 C  
BRANCH  16  17
HETATM   17  C   UNL     1      -7.469   6.892  66.025  1.00  0.00    -0.080 C  
BRANCH  17  18
HETATM   18  C   UNL     1      -7.460   8.405  65.888  1.00  0.00    -0.081 C  
BRANCH  18  19
HETATM   19  C   UNL     1      -8.512   8.869  64.881  1.00  0.00    -0.195 C  
BRANCH  19  20
HETATM   20  C   UNL     1      -8.697  10.373  65.018  1.00  0.00    -0.182 C  
BRANCH  20  21
HETATM   21  N   UNL     1      -7.656  10.956  65.861  1.00  0.00    -0.302 NA 
HETATM   22  H   UNL     1      -7.028  11.552  65.323  1.00  0.00     0.000 HD 
BRANCH  21  23
HETATM   23  C   UNL     1      -8.238  11.674  67.004  1.00  0.00    -0.170 C  
BRANCH  23  24
HETATM   24  C   UNL     1      -8.497  13.160  66.713  1.00  0.00     0.001 C  
BRANCH  24  25
HETATM   25  C   UNL     1      -9.938  13.433  66.377  1.00  0.00    -0.293 A  
HETATM   26  C   UNL     1     -10.318  13.626  65.043  1.00  0.00    -0.393 A  
HETATM   27  C   UNL     1     -11.654  13.869  64.721  1.00  0.00    -0.383 A  
HETATM   28  C   UNL     1     -12.611  13.927  65.732  1.00  0.00    -0.533 A  
HETATM   29  C   UNL     1     -12.236  13.748  67.063  1.00  0.00    -0.381 A  
HETATM   30  C   UNL     1     -10.902  13.505  67.386  1.00  0.00    -0.279 A  
ENDBRANCH  24  25
ENDBRANCH  23  24
ENDBRANCH  21  23
ENDBRANCH  20  21
ENDBRANCH  19  20
ENDBRANCH  18  19
ENDBRANCH  17  18
ENDBRANCH  16  17
ENDBRANCH  15  16
ENDBRANCH  13  15
ENDBRANCH  12  13
ENDBRANCH  11  12
ENDBRANCH   8  11
TORSDOF 13
ENDMDL
MODEL      422
REMARK 921   NORMALIZED FREE ENERGY PREDICTED BY IDOCK:   -1.81 KCAL/MOL
REMARK 922        TOTAL FREE ENERGY PREDICTED BY IDOCK:   -5.94 KCAL/MOL
REMARK 923 INTER-LIGAND FREE ENERGY PREDICTED BY IDOCK:   -4.25 KCAL/MOL
REMARK 924 INTRA-LIGAND FREE ENERGY PREDICTED BY IDOCK:   -1.70 KCAL/MOL
REMARK 927      BINDING AFFINITY PREDICTED BY RF-SCORE:    0.00 PKD
ROOT
HETATM    1  O   UNL     1      -6.046  13.769  71.752  1.00  0.00    -0.566 OA 
HETATM    2  H   UNL     1      -6.068  13.248  72.546  1.00  0.00     0.000 HD 
HETATM    3  C   UNL     1      -6.022  13.226  70.496  1.00  0.00    -0.110 A  
HETATM    4  C   UNL     1      -5.991  13.989  69.332  1.00  0.00    -0.097 A  
HETATM    5  C   UNL     1      -6.006  13.365  68.083  1.00  0.00    -0.112 A  
HETATM    6  O   UNL     1      -5.947  15.354  69.344  1.00  0.00    -0.104 OA 
HETATM    7  H   UNL     1      -5.925  15.875  68.550  1.00  0.00     0.000 HD 
HETATM    8  C   UNL     1      -6.067  11.970  67.992  1.00  0.00    -0.058 A  
HETATM    9  C   UNL     1      -6.034  11.837  70.417  1.00  0.00    -0.123 A  
HETATM   10  C   UNL     1      -6.052  11.208  69.171  1.00  0.00    -0.047 A  
ENDROOT
BRANCH   8  11
HETATM   11  C   UNL     1      -6.132  11.287  66.648  1.00  0.00    -0.143 C  
BRANCH  11  12
HETATM   12  C   UNL     1      -7.547  10.800  66.331  1.00  0.00    -0.141 C  
BRANCH  12  13
HETATM   13  N   UNL     1      -7.599   9.334  66.321  1.00  0.00    -0.096 NA 
HETATM   14  H   UNL     1      -7.835   8.951  67.237  1.00  0.00     0.000 HD 
BRANCH  13  15
HETATM   15  C   UNL     1      -8.521   8.882  65.282  1.00  0.00    -0.169 C  
BRANCH  15  16
HETATM   16  C   UNL     1      -9.844   8.440  65.898  1.00  0.00     0.051 C  
BRANCH  16  17
HETATM   17  C   UNL     1      -9.629   8.093  67.369  1.00  0.00    -0.204 C  
BRANCH  17  18
HETATM   18  C   UNL     1      -9.826   6.607  67.613  1.00  0.00    -0.150 C  
BRANCH  18  19
HETATM   19  C   UNL     1      -8.486   5.873  67.619  1.00  0.00    -0.103 C  
BRANCH  19  20
HETATM   20  C   UNL     1      -8.295   5.204  68.973  1.00  0.00    -0.087 C  
BRANCH  20  21
HETATM   21  N   UNL     1      -9.402   4.299  69.272  1.00  0.00    -0.147 NA 
HETATM   22  H   UNL     1      -9.086   3.332  69.345  1.00  0.00     0.000 HD 
BRANCH  21  23
HETATM   23  C   UNL     1     -10.125   4.724  70.478  1.00  0.00    -0.220 C  
BRANCH  23  24
HETATM   24  C   UNL     1      -9.370   5.788  71.290  1.00  0.00    -0.166 C  
BRANCH  24  25
HETATM   25  C   UNL     1     -10.029   7.139  71.216  1.00  0.00    -0.192 A  
HETATM   26  C   UNL     1      -9.262   8.299  71.374  1.00  0.00    -0.218 A  
HETATM   27  C   UNL     1      -9.864   9.556  71.296  1.00  0.00    -0.095 A  
HETATM   28  C   UNL     1     -11.234   9.655  71.066  1.00  0.00    -0.445 A  
HETATM   29  C   UNL     1     -12.005   8.502  70.919  1.00  0.00    -0.204 A  
HETATM   30  C   UNL     1     -11.405   7.247  70.997  1.00  0.00    -0.301 A  
ENDBRANCH  24  25
ENDBRANCH  23  24
ENDBRANCH  21  23
ENDBRANCH  20  21
ENDBRANCH  19  20
ENDBRANCH  18  19
ENDBRANCH  17  18
ENDBRANCH  16  17
ENDBRANCH  15  16
ENDBRANCH  13  15
ENDBRANCH  12  13
ENDBRANCH  11  12
ENDBRANCH   8  11
TORSDOF 13
ENDMDL
MODEL      423
REMARK 921   NORMALIZED FREE ENERGY PREDICTED BY IDOCK:   -1.81 KCAL/MOL
REMARK 922        TOTAL FREE ENERGY PREDICTED BY IDOCK:   -5.93 KCAL/MOL
REMARK 923 INTER-LIGAND FREE ENERGY PREDICTED BY IDOCK:   -5.06 KCAL/MOL
REMARK 924 INTRA-LIGAND FREE ENERGY PREDICTED BY IDOCK:   -0.87 KCAL/MOL
REMARK 927      BINDING AFFINITY PREDICTED BY RF-SCORE:    0.00 PKD
ROOT
HETATM    1  O   UNL     1      -9.142  16.063  66.002  1.00  0.00    -0.331 OA 
HETATM    2  H   UNL     1      -8.631  16.832  65.778  1.00  0.00     0.000 HD 
HETATM    3  C   UNL     1      -8.668  15.046  66.785  1.00  0.00    -0.260 A  
HETATM    4  C   UNL     1      -9.416  13.919  67.113  1.00  0.00    -0.246 A  
HETATM    5  C   UNL     1      -8.877  12.938  67.949  1.00  0.00    -0.190 A  
HETATM    6  O   UNL     1     -10.684  13.713  66.651  1.00  0.00    -0.278 OA 
HETATM    7  H   UNL     1     -11.195  12.944  66.874  1.00  0.00     0.000 HD 
HETATM    8  C   UNL     1      -7.588  13.087  68.474  1.00  0.00    -0.121 A  
HETATM    9  C   UNL     1      -7.368  15.181  67.262  1.00  0.00    -0.216 A  
HETATM   10  C   UNL     1      -6.826  14.205  68.101  1.00  0.00    -0.129 A  
ENDROOT
BRANCH   8  11
HETATM   11  C   UNL     1      -7.016  12.058  69.417  1.00  0.00     0.024 C  
BRANCH  11  12
HETATM   12  C   UNL     1      -6.786  10.717  68.716  1.00  0.00    -0.067 C  
BRANCH  12  13
HETATM   13  N   UNL     1      -6.494  10.922  67.292  1.00  0.00    -0.068 NA 
HETATM   14  H   UNL     1      -5.532  10.675  67.058  1.00  0.00     0.000 HD 
BRANCH  13  15
HETATM   15  C   UNL     1      -7.464  10.189  66.483  1.00  0.00    -0.109 C  
BRANCH  15  16
HETATM   16  C   UNL     1      -8.157   9.119  67.319  1.00  0.00    -0.106 C  
BRANCH  16  17
HETATM   17  C   UNL     1      -7.872   7.743  66.722  1.00  0.00    -0.106 C  
BRANCH  17  18
HETATM   18  C   UNL     1      -9.130   7.136  66.125  1.00  0.00    -0.155 C  
BRANCH  18  19
HETATM   19  C   UNL     1     -10.374   7.605  66.880  1.00  0.00    -0.388 C  
BRANCH  19  20
HETATM   20  C   UNL     1     -11.000   6.412  67.588  1.00  0.00    -0.349 C  
BRANCH  20  21
HETATM   21  N   UNL     1     -11.374   6.754  68.959  1.00  0.00    -0.558 NA 
HETATM   22  H   UNL     1     -11.892   5.998  69.406  1.00  0.00     0.000 HD 
BRANCH  21  23
HETATM   23  C   UNL     1     -10.198   7.144  69.749  1.00  0.00    -0.208 C  
BRANCH  23  24
HETATM   24  C   UNL     1      -9.265   5.965  70.063  1.00  0.00    -0.164 C  
BRANCH  24  25
HETATM   25  C   UNL     1      -9.324   5.559  71.511  1.00  0.00    -0.172 A  
HETATM   26  C   UNL     1      -8.297   5.938  72.383  1.00  0.00    -0.117 A  
HETATM   27  C   UNL     1      -8.350   5.575  73.730  1.00  0.00    -0.111 A  
HETATM   28  C   UNL     1      -9.425   4.827  74.204  1.00  0.00    -0.131 A  
HETATM   29  C   UNL     1     -10.444   4.437  73.337  1.00  0.00    -0.262 A  
HETATM   30  C   UNL     1     -10.393   4.799  71.992  1.00  0.00    -0.247 A  
ENDBRANCH  24  25
ENDBRANCH  23  24
ENDBRANCH  21  23
ENDBRANCH  20  21
ENDBRANCH  19  20
ENDBRANCH  18  19
ENDBRANCH  17  18
ENDBRANCH  16  17
ENDBRANCH  15  16
ENDBRANCH  13  15
ENDBRANCH  12  13
ENDBRANCH  11  12
ENDBRANCH   8  11
TORSDOF 13
ENDMDL
MODEL      424
REMARK 921   NORMALIZED FREE ENERGY PREDICTED BY IDOCK:   -1.72 KCAL/MOL
REMARK 922        TOTAL FREE ENERGY PREDICTED BY IDOCK:   -5.77 KCAL/MOL
REMARK 923 INTER-LIGAND FREE ENERGY PREDICTED BY IDOCK:   -4.32 KCAL/MOL
REMARK 924 INTRA-LIGAND FREE ENERGY PREDICTED BY IDOCK:   -1.45 KCAL/MOL
REMARK 927      BINDING AFFINITY PREDICTED BY RF-SCORE:    0.00 PKD
ROOT
HETATM    1  O   UNL     1      -8.915  11.734  65.677  1.00  0.00    -0.390 OA 
HETATM    2  H   UNL     1      -8.349  12.351  65.228  1.00  0.00     0.000 HD 
HETATM    3  C   UNL     1      -8.671  10.389  65.731  1.00  0.00    -0.168 A  
HETATM    4  C   UNL     1      -9.500   9.486  66.389  1.00  0.00    -0.195 A  
HETATM    5  C   UNL     1      -9.167   8.130  66.434  1.00  0.00    -0.250 A  
HETATM    6  O   UNL     1     -10.655   9.862  67.014  1.00  0.00    -0.238 OA 
HETATM    7  H   UNL     1     -11.221   9.246  67.463  1.00  0.00     0.000 HD 
HETATM    8  C   UNL     1      -7.991   7.672  65.829  1.00  0.00    -0.116 A  
HETATM    9  C   UNL     1      -7.525   9.937  65.085  1.00  0.00    -0.133 A  
HETATM   10  C   UNL     1      -7.185   8.584  65.129  1.00  0.00    -0.080 A  
ENDROOT
BRANCH   8  11
HETATM   11  C   UNL     1      -7.596   6.218  65.912  1.00  0.00    -0.084 C  
BRANCH  11  12
HETATM   12  C   UNL     1      -8.785   5.332  66.289  1.00  0.00    -0.122 C  
BRANCH  12  13
HETATM   13  N   UNL     1      -8.395   4.352  67.310  1.00  0.00    -0.100 NA 
HETATM   14  H   UNL     1      -7.549   4.630  67.807  1.00  0.00     0.000 HD 
BRANCH  13  15
HETATM   15  C   UNL     1      -9.515   4.116  68.217  1.00  0.00    -0.154 C  
BRANCH  15  16
HETATM   16  C   UNL     1      -9.265   2.871  69.061  1.00  0.00    -0.222 C  
BRANCH  16  17
HETATM   17  C   UNL     1      -7.849   2.361  68.808  1.00  0.00    -0.058 C  
BRANCH  17  18
HETATM   18  C   UNL     1      -7.186   1.924  70.103  1.00  0.00    -0.033 C  
BRANCH  18  19
HETATM   19  C   UNL     1      -7.633   2.804  71.269  1.00  0.00    -0.040 C  
BRANCH  19  20
HETATM   20  C   UNL     1      -6.791   4.071  71.282  1.00  0.00    -0.031 C  
BRANCH  20  21
HETATM   21  N   UNL     1      -7.628   5.256  71.455  1.00  0.00    -0.099 NA 
HETATM   22  H   UNL     1      -7.777   5.469  72.441  1.00  0.00     0.000 HD 
BRANCH  21  23
HETATM   23  C   UNL     1      -7.074   6.408  70.730  1.00  0.00    -0.069 C  
BRANCH  23  24
HETATM   24  C   UNL     1      -7.563   7.757  71.280  1.00  0.00    -0.080 C  
BRANCH  24  25
HETATM   25  C   UNL     1      -9.063   7.875  71.256  1.00  0.00    -0.161 A  
HETATM   26  C   UNL     1      -9.763   7.619  70.072  1.00  0.00    -0.172 A  
HETATM   27  C   UNL     1     -11.156   7.715  70.044  1.00  0.00    -0.201 A  
HETATM   28  C   UNL     1     -11.848   8.074  71.197  1.00  0.00    -0.307 A  
HETATM   29  C   UNL     1     -11.155   8.342  72.377  1.00  0.00    -0.447 A  
HETATM   30  C   UNL     1      -9.765   8.246  72.406  1.00  0.00    -0.373 A  
ENDBRANCH  24  25
ENDBRANCH  23  24
ENDBRANCH  21  23
ENDBRANCH  20  21
ENDBRANCH  19  20
ENDBRANCH  18  19
ENDBRANCH  17  18
ENDBRANCH  16  17
ENDBRANCH  15  16
ENDBRANCH  13  15
ENDBRANCH  12  13
ENDBRANCH  11  12
ENDBRANCH   8  11
TORSDOF 13
ENDMDL
MODEL      425
REMARK 921   NORMALIZED FREE ENERGY PREDICTED BY IDOCK:   -1.68 KCAL/MOL
REMARK 922        TOTAL FREE ENERGY PREDICTED BY IDOCK:   -5.71 KCAL/MOL
REMARK 923 INTER-LIGAND FREE ENERGY PREDICTED BY IDOCK:   -4.30 KCAL/MOL
REMARK 924 INTRA-LIGAND FREE ENERGY PREDICTED BY IDOCK:   -1.41 KCAL/MOL
REMARK 927      BINDING AFFINITY PREDICTED BY RF-SCORE:    0.00 PKD
ROOT
HETATM    1  O   UNL     1     -13.446  14.594  65.050  1.00  0.00    -0.084 OA 
HETATM    2  H   UNL     1     -13.475  15.468  65.420  1.00  0.00     0.000 HD 
HETATM    3  C   UNL     1     -12.440  13.701  65.306  1.00  0.00    -0.479 A  
HETATM    4  C   UNL     1     -12.397  12.420  64.765  1.00  0.00    -0.423 A  
HETATM    5  C   UNL     1     -11.357  11.550  65.102  1.00  0.00    -0.156 A  
HETATM    6  O   UNL     1     -13.343  11.951  63.899  1.00  0.00    -0.600 OA 
HETATM    7  H   UNL     1     -13.313  11.077  63.529  1.00  0.00     0.000 HD 
HETATM    8  C   UNL     1     -10.360  11.955  65.996  1.00  0.00    -0.268 A  
HETATM    9  C   UNL     1     -11.428  14.131  66.159  1.00  0.00    -0.350 A  
HETATM   10  C   UNL     1     -10.388  13.264  66.501  1.00  0.00    -0.285 A  
ENDROOT
BRANCH   8  11
HETATM   11  C   UNL     1      -9.259  11.007  66.405  1.00  0.00    -0.192 C  
BRANCH  11  12
HETATM   12  C   UNL     1      -8.113  11.742  67.102  1.00  0.00    -0.169 C  
BRANCH  12  13
HETATM   13  N   UNL     1      -8.021  11.337  68.510  1.00  0.00    -0.138 NA 
HETATM   14  H   UNL     1      -8.649  10.564  68.730  1.00  0.00     0.000 HD 
BRANCH  13  15
HETATM   15  C   UNL     1      -6.633  11.031  68.843  1.00  0.00    -0.058 C  
BRANCH  15  16
HETATM   16  C   UNL     1      -6.037  10.073  67.817  1.00  0.00    -0.053 C  
BRANCH  16  17
HETATM   17  C   UNL     1      -6.063   8.652  68.372  1.00  0.00    -0.050 C  
BRANCH  17  18
HETATM   18  C   UNL     1      -7.308   7.910  67.916  1.00  0.00    -0.092 C  
BRANCH  18  19
HETATM   19  C   UNL     1      -7.019   7.072  66.671  1.00  0.00    -0.073 C  
BRANCH  19  20
HETATM   20  C   UNL     1      -5.624   6.474  66.791  1.00  0.00    -0.013 C  
BRANCH  20  21
HETATM   21  N   UNL     1      -5.633   5.294  67.653  1.00  0.00    -0.012 NA 
HETATM   22  H   UNL     1      -6.339   5.368  68.384  1.00  0.00     0.000 HD 
BRANCH  21  23
HETATM   23  C   UNL     1      -5.796   4.063  66.866  1.00  0.00    -0.023 C  
BRANCH  23  24
HETATM   24  C   UNL     1      -6.813   3.087  67.478  1.00  0.00    -0.045 C  
BRANCH  24  25
HETATM   25  C   UNL     1      -8.020   3.794  68.034  1.00  0.00    -0.076 A  
HETATM   26  C   UNL     1      -8.031   4.208  69.372  1.00  0.00    -0.056 A  
HETATM   27  C   UNL     1      -9.142   4.873  69.892  1.00  0.00    -0.164 A  
HETATM   28  C   UNL     1     -10.245   5.120  69.079  1.00  0.00    -0.241 A  
HETATM   29  C   UNL     1     -10.244   4.699  67.750  1.00  0.00    -0.027 A  
HETATM   30  C   UNL     1      -9.136   4.035  67.229  1.00  0.00    -0.169 A  
ENDBRANCH  24  25
ENDBRANCH  23  24
ENDBRANCH  21  23
ENDBRANCH  20  21
ENDBRANCH  19  20
ENDBRANCH  18  19
ENDBRANCH  17  18
ENDBRANCH  16  17
ENDBRANCH  15  16
ENDBRANCH  13  15
ENDBRANCH  12  13
ENDBRANCH  11  12
ENDBRANCH   8  11
TORSDOF 13
ENDMDL
MODEL      426
REMARK 921   NORMALIZED FREE ENERGY PREDICTED BY IDOCK:   -1.54 KCAL/MOL
REMARK 922        TOTAL FREE ENERGY PREDICTED BY IDOCK:   -5.46 KCAL/MOL
REMARK 923 INTER-LIGAND FREE ENERGY PREDICTED BY IDOCK:   -5.21 KCAL/MOL
REMARK 924 INTRA-LIGAND FREE ENERGY PREDICTED BY IDOCK:   -0.25 KCAL/MOL
REMARK 927      BINDING AFFINITY PREDICTED BY RF-SCORE:    0.00 PKD
ROOT
HETATM    1  O   UNL     1     -14.411  15.059  71.927  1.00  0.00    -0.482 OA 
HETATM    2  H   UNL     1     -14.910  14.725  72.663  1.00  0.00     0.000 HD 
HETATM    3  C   UNL     1     -13.477  14.321  71.253  1.00  0.00    -0.311 A  
HETATM    4  C   UNL     1     -12.746  14.810  70.174  1.00  0.00    -0.219 A  
HETATM    5  C   UNL     1     -11.835  13.985  69.511  1.00  0.00    -0.378 A  
HETATM    6  O   UNL     1     -12.873  16.090  69.715  1.00  0.00    -0.562 OA 
HETATM    7  H   UNL     1     -12.374  16.424  68.979  1.00  0.00     0.000 HD 
HETATM    8  C   UNL     1     -11.661  12.656  69.916  1.00  0.00    -0.320 A  
HETATM    9  C   UNL     1     -13.277  13.016  71.694  1.00  0.00    -0.426 A  
HETATM   10  C   UNL     1     -12.371  12.186  71.032  1.00  0.00    -0.331 A  
ENDROOT
BRANCH   8  11
HETATM   11  C   UNL     1     -10.717  11.742  69.176  1.00  0.00    -0.169 C  
BRANCH  11  12
HETATM   12  C   UNL     1     -11.454  10.881  68.149  1.00  0.00    -0.295 C  
BRANCH  12  13
HETATM   13  N   UNL     1     -10.624   9.742  67.738  1.00  0.00    -0.250 NA 
HETATM   14  H   UNL     1     -10.416   9.759  66.739  1.00  0.00     0.000 HD 
BRANCH  13  15
HETATM   15  C   UNL     1      -9.414   9.697  68.553  1.00  0.00    -0.141 C  
BRANCH  15  16
HETATM   16  C   UNL     1      -8.972   8.255  68.774  1.00  0.00    -0.144 C  
BRANCH  16  17
HETATM   17  C   UNL     1      -8.644   8.044  70.250  1.00  0.00    -0.132 C  
BRANCH  17  18
HETATM   18  C   UNL     1      -7.216   8.464  70.557  1.00  0.00    -0.042 C  
BRANCH  18  19
HETATM   19  C   UNL     1      -6.793   7.986  71.945  1.00  0.00    -0.070 C  
BRANCH  19  20
HETATM   20  C   UNL     1      -7.685   6.824  72.361  1.00  0.00    -0.093 C  
BRANCH  20  21
HETATM   21  N   UNL     1      -7.465   6.469  73.760  1.00  0.00    -0.085 NA 
HETATM   22  H   UNL     1      -8.087   6.987  74.381  1.00  0.00     0.000 HD 
BRANCH  21  23
HETATM   23  C   UNL     1      -7.583   5.018  73.965  1.00  0.00    -0.094 C  
BRANCH  23  24
HETATM   24  C   UNL     1      -6.645   4.205  73.061  1.00  0.00    -0.042 C  
BRANCH  24  25
HETATM   25  C   UNL     1      -7.332   3.720  71.813  1.00  0.00    -0.055 A  
HETATM   26  C   UNL     1      -6.615   2.980  70.864  1.00  0.00    -0.031 A  
HETATM   27  C   UNL     1      -7.247   2.517  69.709  1.00  0.00    -0.043 A  
HETATM   28  C   UNL     1      -8.594   2.799  69.497  1.00  0.00    -0.115 A  
HETATM   29  C   UNL     1      -9.310   3.545  70.432  1.00  0.00    -0.239 A  
HETATM   30  C   UNL     1      -8.680   4.007  71.586  1.00  0.00    -0.135 A  
ENDBRANCH  24  25
ENDBRANCH  23  24
ENDBRANCH  21  23
ENDBRANCH  20  21
ENDBRANCH  19  20
ENDBRANCH  18  19
ENDBRANCH  17  18
ENDBRANCH  16  17
ENDBRANCH  15  16
ENDBRANCH  13  15
ENDBRANCH  12  13
ENDBRANCH  11  12
ENDBRANCH   8  11
TORSDOF 13
ENDMDL
MODEL      427
REMARK 921   NORMALIZED FREE ENERGY PREDICTED BY IDOCK:   -1.46 KCAL/MOL
REMARK 922        TOTAL FREE ENERGY PREDICTED BY IDOCK:   -5.33 KCAL/MOL
REMARK 923 INTER-LIGAND FREE ENERGY PREDICTED BY IDOCK:   -3.91 KCAL/MOL
REMARK 924 INTRA-LIGAND FREE ENERGY PREDICTED BY IDOCK:   -1.42 KCAL/MOL
REMARK 927      BINDING AFFINITY PREDICTED BY RF-SCORE:    0.00 PKD
ROOT
HETATM    1  O   UNL     1     -11.096  19.460  65.526  1.00  0.00    -0.374 OA 
HETATM    2  H   UNL     1     -10.942  20.315  65.910  1.00  0.00     0.000 HD 
HETATM    3  C   UNL     1     -10.372  18.346  65.854  1.00  0.00    -0.301 A  
HETATM    4  C   UNL     1     -10.598  17.093  65.293  1.00  0.00    -0.043 A  
HETATM    5  C   UNL     1      -9.842  15.993  65.705  1.00  0.00    -0.357 A  
HETATM    6  O   UNL     1     -11.545  16.872  64.335  1.00  0.00    -0.916 OA 
HETATM    7  H   UNL     1     -11.699  16.017  63.951  1.00  0.00     0.000 HD 
HETATM    8  C   UNL     1      -8.863  16.139  66.695  1.00  0.00    -0.298 A  
HETATM    9  C   UNL     1      -9.369  18.513  66.804  1.00  0.00    -0.297 A  
HETATM   10  C   UNL     1      -8.613  17.415  67.222  1.00  0.00    -0.223 A  
ENDROOT
BRANCH   8  11
HETATM   11  C   UNL     1      -8.075  14.948  67.182  1.00  0.00    -0.239 C  
BRANCH  11  12
HETATM   12  C   UNL     1      -8.003  14.907  68.709  1.00  0.00    -0.156 C  
BRANCH  12  13
HETATM   13  N   UNL     1      -6.866  14.091  69.151  1.00  0.00    -0.111 NA 
HETATM   14  H   UNL     1      -7.056  13.612  70.032  1.00  0.00     0.000 HD 
BRANCH  13  15
HETATM   15  C   UNL     1      -6.488  13.161  68.090  1.00  0.00    -0.105 C  
BRANCH  15  16
HETATM   16  C   UNL     1      -7.005  11.760  68.399  1.00  0.00    -0.080 C  
BRANCH  16  17
HETATM   17  C   UNL     1      -7.321  11.036  67.094  1.00  0.00    -0.116 C  
BRANCH  17  18
HETATM   18  C   UNL     1      -8.608  11.558  66.477  1.00  0.00    -0.172 C  
BRANCH  18  19
HETATM   19  C   UNL     1      -9.567  10.412  66.160  1.00  0.00    -0.245 C  
BRANCH  19  20
HETATM   20  C   UNL     1      -8.857   9.090  66.416  1.00  0.00    -0.146 C  
BRANCH  20  21
HETATM   21  N   UNL     1      -9.788   8.083  66.918  1.00  0.00    -0.224 NA 
HETATM   22  H   UNL     1      -9.399   7.574  67.711  1.00  0.00     0.000 HD 
BRANCH  21  23
HETATM   23  C   UNL     1     -11.091   8.681  67.246  1.00  0.00     0.454 C  
BRANCH  23  24
HETATM   24  C   UNL     1     -11.463   8.537  68.729  1.00  0.00     0.912 C  
BRANCH  24  25
HETATM   25  C   UNL     1     -11.770   9.863  69.373  1.00  0.00     0.073 A  
HETATM   26  C   UNL     1     -12.842   9.972  70.265  1.00  0.00     0.008 A  
HETATM   27  C   UNL     1     -13.127  11.195  70.875  1.00  0.00    -0.148 A  
HETATM   28  C   UNL     1     -12.345  12.311  70.588  1.00  0.00    -0.375 A  
HETATM   29  C   UNL     1     -11.282  12.210  69.690  1.00  0.00    -0.137 A  
HETATM   30  C   UNL     1     -10.997  10.989  69.081  1.00  0.00    -0.289 A  
ENDBRANCH  24  25
ENDBRANCH  23  24
ENDBRANCH  21  23
ENDBRANCH  20  21
ENDBRANCH  19  20
ENDBRANCH  18  19
ENDBRANCH  17  18
ENDBRANCH  16  17
ENDBRANCH  15  16
ENDBRANCH  13  15
ENDBRANCH  12  13
ENDBRANCH  11  12
ENDBRANCH   8  11
TORSDOF 13
ENDMDL
MODEL      428
REMARK 921   NORMALIZED FREE ENERGY PREDICTED BY IDOCK:   -1.45 KCAL/MOL
REMARK 922        TOTAL FREE ENERGY PREDICTED BY IDOCK:   -5.31 KCAL/MOL
REMARK 923 INTER-LIGAND FREE ENERGY PREDICTED BY IDOCK:   -4.44 KCAL/MOL
REMARK 924 INTRA-LIGAND FREE ENERGY PREDICTED BY IDOCK:   -0.87 KCAL/MOL
REMARK 927      BINDING AFFINITY PREDICTED BY RF-SCORE:    0.00 PKD
ROOT
HETATM    1  O   UNL     1     -12.147  15.286  70.862  1.00  0.00    -0.289 OA 
HETATM    2  H   UNL     1     -12.855  15.753  71.291  1.00  0.00     0.000 HD 
HETATM    3  C   UNL     1     -11.135  15.911  70.185  1.00  0.00    -0.365 A  
HETATM    4  C   UNL     1     -10.098  15.228  69.556  1.00  0.00    -0.256 A  
HETATM    5  C   UNL     1      -9.078  15.935  68.916  1.00  0.00    -0.233 A  
HETATM    6  O   UNL     1     -10.020  13.865  69.531  1.00  0.00    -0.311 OA 
HETATM    7  H   UNL     1      -9.312  13.398  69.101  1.00  0.00     0.000 HD 
HETATM    8  C   UNL     1      -9.083  17.334  68.914  1.00  0.00    -0.172 A  
HETATM    9  C   UNL     1     -11.175  17.301  70.148  1.00  0.00     1.073 A  
HETATM   10  C   UNL     1     -10.156  18.013  69.512  1.00  0.00     0.185 A  
ENDROOT
BRANCH   8  11
HETATM   11  C   UNL     1      -7.961  18.108  68.267  1.00  0.00    -0.304 C  
BRANCH  11  12
HETATM   12  C   UNL     1      -6.900  17.177  67.678  1.00  0.00    -0.142 C  
BRANCH  12  13
HETATM   13  N   UNL     1      -6.133  16.526  68.747  1.00  0.00    -0.131 NA 
HETATM   14  H   UNL     1      -6.737  16.063  69.426  1.00  0.00     0.000 HD 
BRANCH  13  15
HETATM   15  C   UNL     1      -5.158  15.609  68.162  1.00  0.00    -0.116 C  
BRANCH  15  16
HETATM   16  C   UNL     1      -5.854  14.366  67.619  1.00  0.00    -0.014 C  
BRANCH  16  17
HETATM   17  C   UNL     1      -6.056  13.362  68.752  1.00  0.00    -0.086 C  
BRANCH  17  18
HETATM   18  C   UNL     1      -7.074  12.302  68.366  1.00  0.00    -0.094 C  
BRANCH  18  19
HETATM   19  C   UNL     1      -6.519  10.899  68.607  1.00  0.00    -0.055 C  
BRANCH  19  20
HETATM   20  C   UNL     1      -7.193  10.306  69.836  1.00  0.00    -0.159 C  
BRANCH  20  21
HETATM   21  N   UNL     1      -7.525   8.899  69.624  1.00  0.00    -0.069 NA 
HETATM   22  H   UNL     1      -6.968   8.288  70.221  1.00  0.00     0.000 HD 
BRANCH  21  23
HETATM   23  C   UNL     1      -8.965   8.661  69.802  1.00  0.00    -0.145 C  
BRANCH  23  24
HETATM   24  C   UNL     1      -9.747   9.936  70.151  1.00  0.00    -0.255 C  
BRANCH  24  25
HETATM   25  C   UNL     1     -11.044   9.637  70.853  1.00  0.00    -0.422 A  
HETATM   26  C   UNL     1     -11.088   8.651  71.847  1.00  0.00    -0.416 A  
HETATM   27  C   UNL     1     -12.284   8.375  72.510  1.00  0.00    -0.381 A  
HETATM   28  C   UNL     1     -13.439   9.078  72.178  1.00  0.00    -0.514 A  
HETATM   29  C   UNL     1     -13.404  10.052  71.181  1.00  0.00    -0.379 A  
HETATM   30  C   UNL     1     -12.210  10.330  70.518  1.00  0.00    -0.390 A  
ENDBRANCH  24  25
ENDBRANCH  23  24
ENDBRANCH  21  23
ENDBRANCH  20  21
ENDBRANCH  19  20
ENDBRANCH  18  19
ENDBRANCH  17  18
ENDBRANCH  16  17
ENDBRANCH  15  16
ENDBRANCH  13  15
ENDBRANCH  12  13
ENDBRANCH  11  12
ENDBRANCH   8  11
TORSDOF 13
ENDMDL
MODEL      429
REMARK 921   NORMALIZED FREE ENERGY PREDICTED BY IDOCK:   -1.39 KCAL/MOL
REMARK 922        TOTAL FREE ENERGY PREDICTED BY IDOCK:   -5.20 KCAL/MOL
REMARK 923 INTER-LIGAND FREE ENERGY PREDICTED BY IDOCK:   -4.90 KCAL/MOL
REMARK 924 INTRA-LIGAND FREE ENERGY PREDICTED BY IDOCK:   -0.30 KCAL/MOL
REMARK 927      BINDING AFFINITY PREDICTED BY RF-SCORE:    0.00 PKD
ROOT
HETATM    1  O   UNL     1     -14.411  15.732  72.129  1.00  0.00    -0.462 OA 
HETATM    2  H   UNL     1     -14.859  15.626  72.960  1.00  0.00     0.000 HD 
HETATM    3  C   UNL     1     -13.566  14.793  71.603  1.00  0.00    -0.405 A  
HETATM    4  C   UNL     1     -12.910  14.948  70.385  1.00  0.00    -0.280 A  
HETATM    5  C   UNL     1     -12.092  13.928  69.894  1.00  0.00    -0.406 A  
HETATM    6  O   UNL     1     -13.027  16.073  69.621  1.00  0.00    -0.484 OA 
HETATM    7  H   UNL     1     -12.579  16.180  68.790  1.00  0.00     0.000 HD 
HETATM    8  C   UNL     1     -11.936  12.739  70.615  1.00  0.00    -0.199 A  
HETATM    9  C   UNL     1     -13.381  13.634  72.351  1.00  0.00    -0.641 A  
HETATM   10  C   UNL     1     -12.566  12.611  71.862  1.00  0.00    -0.044 A  
ENDROOT
BRANCH   8  11
HETATM   11  C   UNL     1     -11.093  11.612  70.071  1.00  0.00     0.085 C  
BRANCH  11  12
HETATM   12  C   UNL     1     -11.870  10.763  69.063  1.00  0.00    -0.254 C  
BRANCH  12  13
HETATM   13  N   UNL     1     -11.403   9.372  69.090  1.00  0.00    -0.439 NA 
HETATM   14  H   UNL     1     -11.992   8.780  69.676  1.00  0.00     0.000 HD 
BRANCH  13  15
HETATM   15  C   UNL     1     -11.296   8.863  67.726  1.00  0.00     0.896 C  
BRANCH  15  16
HETATM   16  C   UNL     1     -10.102   7.923  67.598  1.00  0.00    -0.262 C  
BRANCH  16  17
HETATM   17  C   UNL     1     -10.593   6.478  67.574  1.00  0.00    -0.345 C  
BRANCH  17  18
HETATM   18  C   UNL     1     -10.666   5.901  68.977  1.00  0.00    -0.379 C  
BRANCH  18  19
HETATM   19  C   UNL     1      -9.872   4.600  69.075  1.00  0.00    -0.224 C  
BRANCH  19  20
HETATM   20  C   UNL     1      -8.389   4.932  69.162  1.00  0.00    -0.081 C  
BRANCH  20  21
HETATM   21  N   UNL     1      -7.687   3.977  70.017  1.00  0.00    -0.052 NA 
HETATM   22  H   UNL     1      -7.489   3.107  69.523  1.00  0.00     0.000 HD 
BRANCH  21  23
HETATM   23  C   UNL     1      -6.466   4.568  70.583  1.00  0.00    -0.030 C  
BRANCH  23  24
HETATM   24  C   UNL     1      -6.735   5.845  71.393  1.00  0.00    -0.058 C  
BRANCH  24  25
HETATM   25  C   UNL     1      -7.825   5.656  72.413  1.00  0.00    -0.103 A  
HETATM   26  C   UNL     1      -8.486   6.772  72.941  1.00  0.00    -0.125 A  
HETATM   27  C   UNL     1      -9.506   6.605  73.880  1.00  0.00    -0.212 A  
HETATM   28  C   UNL     1      -9.862   5.324  74.296  1.00  0.00    -0.204 A  
HETATM   29  C   UNL     1      -9.198   4.211  73.782  1.00  0.00    -0.095 A  
HETATM   30  C   UNL     1      -8.180   4.376  72.845  1.00  0.00    -0.095 A  
ENDBRANCH  24  25
ENDBRANCH  23  24
ENDBRANCH  21  23
ENDBRANCH  20  21
ENDBRANCH  19  20
ENDBRANCH  18  19
ENDBRANCH  17  18
ENDBRANCH  16  17
ENDBRANCH  15  16
ENDBRANCH  13  15
ENDBRANCH  12  13
ENDBRANCH  11  12
ENDBRANCH   8  11
TORSDOF 13
ENDMDL
MODEL      430
REMARK 921   NORMALIZED FREE ENERGY PREDICTED BY IDOCK:   -1.35 KCAL/MOL
REMARK 922        TOTAL FREE ENERGY PREDICTED BY IDOCK:   -5.12 KCAL/MOL
REMARK 923 INTER-LIGAND FREE ENERGY PREDICTED BY IDOCK:   -5.54 KCAL/MOL
REMARK 924 INTRA-LIGAND FREE ENERGY PREDICTED BY IDOCK:    0.42 KCAL/MOL
REMARK 927      BINDING AFFINITY PREDICTED BY RF-SCORE:    0.00 PKD
ROOT
HETATM    1  O   UNL     1     -14.411  15.059  71.927  1.00  0.00    -0.482 OA 
HETATM    2  H   UNL     1     -14.909  14.724  72.663  1.00  0.00     0.000 HD 
HETATM    3  C   UNL     1     -13.473  14.323  71.256  1.00  0.00    -0.311 A  
HETATM    4  C   UNL     1     -12.742  14.813  70.177  1.00  0.00    -0.219 A  
HETATM    5  C   UNL     1     -11.828  13.989  69.516  1.00  0.00    -0.378 A  
HETATM    6  O   UNL     1     -12.875  16.091  69.714  1.00  0.00    -0.562 OA 
HETATM    7  H   UNL     1     -12.376  16.426  68.978  1.00  0.00     0.000 HD 
HETATM    8  C   UNL     1     -11.649  12.663  69.925  1.00  0.00    -0.248 A  
HETATM    9  C   UNL     1     -13.268  13.021  71.700  1.00  0.00    -0.426 A  
HETATM   10  C   UNL     1     -12.357  12.192  71.041  1.00  0.00    -0.331 A  
ENDROOT
BRANCH   8  11
HETATM   11  C   UNL     1     -10.699  11.750  69.188  1.00  0.00    -0.169 C  
BRANCH  11  12
HETATM   12  C   UNL     1     -11.432  10.883  68.163  1.00  0.00    -0.295 C  
BRANCH  12  13
HETATM   13  N   UNL     1     -10.597   9.747  67.756  1.00  0.00    -0.250 NA 
HETATM   14  H   UNL     1     -10.479   9.701  66.743  1.00  0.00     0.000 HD 
BRANCH  13  15
HETATM   15  C   UNL     1      -9.318   9.802  68.458  1.00  0.00    -0.142 C  
BRANCH  15  16
HETATM   16  C   UNL     1      -8.801   8.394  68.734  1.00  0.00    -0.140 C  
BRANCH  16  17
HETATM   17  C   UNL     1      -9.157   7.482  67.563  1.00  0.00    -0.130 C  
BRANCH  17  18
HETATM   18  C   UNL     1     -10.564   6.929  67.710  1.00  0.00    -0.305 C  
BRANCH  18  19
HETATM   19  C   UNL     1     -10.814   5.800  66.711  1.00  0.00    -0.327 C  
BRANCH  19  20
HETATM   20  C   UNL     1      -9.475   5.229  66.267  1.00  0.00    -0.156 C  
BRANCH  20  21
HETATM   21  N   UNL     1      -9.646   4.295  65.156  1.00  0.00    -0.174 NA 
HETATM   22  H   UNL     1      -9.586   4.768  64.256  1.00  0.00     0.000 HD 
BRANCH  21  23
HETATM   23  C   UNL     1      -8.691   3.181  65.247  1.00  0.00    -0.117 C  
BRANCH  23  24
HETATM   24  C   UNL     1      -8.769   2.429  66.585  1.00  0.00    -0.131 C  
BRANCH  24  25
HETATM   25  C   UNL     1      -7.743   2.914  67.574  1.00  0.00    -0.068 A  
HETATM   26  C   UNL     1      -7.667   2.329  68.843  1.00  0.00    -0.044 A  
HETATM   27  C   UNL     1      -6.711   2.765  69.762  1.00  0.00    -0.033 A  
HETATM   28  C   UNL     1      -5.836   3.792  69.417  1.00  0.00    -0.022 A  
HETATM   29  C   UNL     1      -5.916   4.387  68.158  1.00  0.00    -0.027 A  
HETATM   30  C   UNL     1      -6.869   3.952  67.239  1.00  0.00    -0.051 A  
ENDBRANCH  24  25
ENDBRANCH  23  24
ENDBRANCH  21  23
ENDBRANCH  20  21
ENDBRANCH  19  20
ENDBRANCH  18  19
ENDBRANCH  17  18
ENDBRANCH  16  17
ENDBRANCH  15  16
ENDBRANCH  13  15
ENDBRANCH  12  13
ENDBRANCH  11  12
ENDBRANCH   8  11
TORSDOF 13
ENDMDL
MODEL      431
REMARK 921   NORMALIZED FREE ENERGY PREDICTED BY IDOCK:   -1.33 KCAL/MOL
REMARK 922        TOTAL FREE ENERGY PREDICTED BY IDOCK:   -5.09 KCAL/MOL
REMARK 923 INTER-LIGAND FREE ENERGY PREDICTED BY IDOCK:   -5.58 KCAL/MOL
REMARK 924 INTRA-LIGAND FREE ENERGY PREDICTED BY IDOCK:    0.49 KCAL/MOL
REMARK 927      BINDING AFFINITY PREDICTED BY RF-SCORE:    0.00 PKD
ROOT
HETATM    1  O   UNL     1     -14.409  15.057  71.924  1.00  0.00    -0.482 OA 
HETATM    2  H   UNL     1     -14.906  14.725  72.662  1.00  0.00     0.000 HD 
HETATM    3  C   UNL     1     -13.466  14.322  71.259  1.00  0.00    -0.311 A  
HETATM    4  C   UNL     1     -12.739  14.807  70.176  1.00  0.00    -0.219 A  
HETATM    5  C   UNL     1     -11.819  13.985  69.523  1.00  0.00    -0.378 A  
HETATM    6  O   UNL     1     -12.879  16.081  69.703  1.00  0.00    -0.506 OA 
HETATM    7  H   UNL     1     -12.383  16.413  68.964  1.00  0.00     0.000 HD 
HETATM    8  C   UNL     1     -11.631  12.663  69.942  1.00  0.00    -0.248 A  
HETATM    9  C   UNL     1     -13.253  13.025  71.714  1.00  0.00    -0.486 A  
HETATM   10  C   UNL     1     -12.337  12.197  71.062  1.00  0.00    -0.331 A  
ENDROOT
BRANCH   8  11
HETATM   11  C   UNL     1     -10.675  11.750  69.213  1.00  0.00    -0.117 C  
BRANCH  11  12
HETATM   12  C   UNL     1     -11.404  10.861  68.204  1.00  0.00    -0.315 C  
BRANCH  12  13
HETATM   13  N   UNL     1     -10.558   9.729  67.807  1.00  0.00    -0.250 NA 
HETATM   14  H   UNL     1     -10.446   9.669  66.795  1.00  0.00     0.000 HD 
BRANCH  13  15
HETATM   15  C   UNL     1      -9.274   9.810  68.499  1.00  0.00    -0.134 C  
BRANCH  15  16
HETATM   16  C   UNL     1      -8.739   8.413  68.794  1.00  0.00    -0.136 C  
BRANCH  16  17
HETATM   17  C   UNL     1      -9.083   7.481  67.634  1.00  0.00    -0.127 C  
BRANCH  17  18
HETATM   18  C   UNL     1     -10.485   6.917  67.785  1.00  0.00    -0.279 C  
BRANCH  18  19
HETATM   19  C   UNL     1     -10.719   5.766  66.808  1.00  0.00    -0.369 C  
BRANCH  19  20
HETATM   20  C   UNL     1      -9.372   5.195  66.387  1.00  0.00    -0.146 C  
BRANCH  20  21
HETATM   21  N   UNL     1      -9.526   4.239  65.293  1.00  0.00    -0.162 NA 
HETATM   22  H   UNL     1     -10.507   4.100  65.052  1.00  0.00     0.000 HD 
BRANCH  21  23
HETATM   23  C   UNL     1      -8.734   4.640  64.122  1.00  0.00    -0.145 C  
BRANCH  23  24
HETATM   24  C   UNL     1      -7.244   4.836  64.442  1.00  0.00    -0.055 C  
BRANCH  24  25
HETATM   25  C   UNL     1      -6.904   6.274  64.726  1.00  0.00    -0.047 A  
HETATM   26  C   UNL     1      -5.584   6.633  65.023  1.00  0.00    -0.030 A  
HETATM   27  C   UNL     1      -5.259   7.966  65.278  1.00  0.00    -0.029 A  
HETATM   28  C   UNL     1      -6.253   8.941  65.242  1.00  0.00    -0.060 A  
HETATM   29  C   UNL     1      -7.572   8.587  64.959  1.00  0.00    -0.093 A  
HETATM   30  C   UNL     1      -7.898   7.256  64.705  1.00  0.00    -0.123 A  
ENDBRANCH  24  25
ENDBRANCH  23  24
ENDBRANCH  21  23
ENDBRANCH  20  21
ENDBRANCH  19  20
ENDBRANCH  18  19
ENDBRANCH  17  18
ENDBRANCH  16  17
ENDBRANCH  15  16
ENDBRANCH  13  15
ENDBRANCH  12  13
ENDBRANCH  11  12
ENDBRANCH   8  11
TORSDOF 13
ENDMDL
MODEL      432
REMARK 921   NORMALIZED FREE ENERGY PREDICTED BY IDOCK:   -1.19 KCAL/MOL
REMARK 922        TOTAL FREE ENERGY PREDICTED BY IDOCK:   -4.85 KCAL/MOL
REMARK 923 INTER-LIGAND FREE ENERGY PREDICTED BY IDOCK:   -5.69 KCAL/MOL
REMARK 924 INTRA-LIGAND FREE ENERGY PREDICTED BY IDOCK:    0.83 KCAL/MOL
REMARK 927      BINDING AFFINITY PREDICTED BY RF-SCORE:    0.00 PKD
ROOT
HETATM    1  O   UNL     1     -10.684  20.061  66.304  1.00  0.00    -0.410 OA 
HETATM    2  H   UNL     1     -10.774  20.991  66.471  1.00  0.00     0.000 HD 
HETATM    3  C   UNL     1      -9.619  19.318  66.735  1.00  0.00    -0.334 A  
HETATM    4  C   UNL     1      -9.486  17.954  66.491  1.00  0.00    -0.299 A  
HETATM    5  C   UNL     1      -8.389  17.254  66.996  1.00  0.00    -0.231 A  
HETATM    6  O   UNL     1     -10.397  17.242  65.765  1.00  0.00    -0.531 OA 
HETATM    7  H   UNL     1     -10.307  16.311  65.598  1.00  0.00     0.000 HD 
HETATM    8  C   UNL     1      -7.421  17.915  67.762  1.00  0.00    -0.206 A  
HETATM    9  C   UNL     1      -8.639  19.994  67.454  1.00  0.00    -0.403 A  
HETATM   10  C   UNL     1      -7.541  19.298  67.964  1.00  0.00    -0.319 A  
ENDROOT
BRANCH   8  11
HETATM   11  C   UNL     1      -6.257  17.158  68.352  1.00  0.00    -0.147 C  
BRANCH  11  12
HETATM   12  C   UNL     1      -6.173  17.347  69.868  1.00  0.00    -0.122 C  
BRANCH  12  13
HETATM   13  N   UNL     1      -5.308  16.325  70.469  1.00  0.00    -0.183 NA 
HETATM   14  H   UNL     1      -5.408  16.285  71.484  1.00  0.00     0.000 HD 
BRANCH  13  15
HETATM   15  C   UNL     1      -5.564  15.033  69.839  1.00  0.00    -0.115 C  
BRANCH  15  16
HETATM   16  C   UNL     1      -6.835  14.408  70.402  1.00  0.00     0.157 C  
BRANCH  16  17
HETATM   17  C   UNL     1      -7.407  13.418  69.389  1.00  0.00     0.288 C  
BRANCH  17  18
HETATM   18  C   UNL     1      -6.984  13.779  67.975  1.00  0.00    -0.137 C  
BRANCH  18  19
HETATM   19  C   UNL     1      -8.178  13.741  67.022  1.00  0.00    -0.055 C  
BRANCH  19  20
HETATM   20  C   UNL     1      -9.188  12.725  67.537  1.00  0.00    -0.191 C  
BRANCH  20  21
HETATM   21  N   UNL     1     -10.121  13.343  68.476  1.00  0.00    -0.296 NA 
HETATM   22  H   UNL     1     -10.524  14.199  68.096  1.00  0.00     0.000 HD 
BRANCH  21  23
HETATM   23  C   UNL     1     -11.164  12.393  68.891  1.00  0.00    -0.280 C  
BRANCH  23  24
HETATM   24  C   UNL     1     -12.281  12.231  67.849  1.00  0.00     0.208 C  
BRANCH  24  25
HETATM   25  C   UNL     1     -11.950  12.909  66.546  1.00  0.00    -0.447 A  
HETATM   26  C   UNL     1     -11.987  14.305  66.458  1.00  0.00    -0.448 A  
HETATM   27  C   UNL     1     -11.671  14.942  65.257  1.00  0.00    -0.263 A  
HETATM   28  C   UNL     1     -11.324  14.184  64.141  1.00  0.00    -0.122 A  
HETATM   29  C   UNL     1     -11.297  12.793  64.221  1.00  0.00    -0.416 A  
HETATM   30  C   UNL     1     -11.612  12.155  65.419  1.00  0.00    -0.383 A  
ENDBRANCH  24  25
ENDBRANCH  23  24
ENDBRANCH  21  23
ENDBRANCH  20  21
ENDBRANCH  19  20
ENDBRANCH  18  19
ENDBRANCH  17  18
ENDBRANCH  16  17
ENDBRANCH  15  16
ENDBRANCH  13  15
ENDBRANCH  12  13
ENDBRANCH  11  12
ENDBRANCH   8  11
TORSDOF 13
ENDMDL
MODEL      433
REMARK 921   NORMALIZED FREE ENERGY PREDICTED BY IDOCK:   -1.08 KCAL/MOL
REMARK 922        TOTAL FREE ENERGY PREDICTED BY IDOCK:   -4.66 KCAL/MOL
REMARK 923 INTER-LIGAND FREE ENERGY PREDICTED BY IDOCK:   -3.92 KCAL/MOL
REMARK 924 INTRA-LIGAND FREE ENERGY PREDICTED BY IDOCK:   -0.74 KCAL/MOL
REMARK 927      BINDING AFFINITY PREDICTED BY RF-SCORE:    0.00 PKD
ROOT
HETATM    1  O   UNL     1     -12.589  15.100  70.414  1.00  0.00    -0.377 OA 
HETATM    2  H   UNL     1     -13.074  15.758  70.899  1.00  0.00     0.000 HD 
HETATM    3  C   UNL     1     -11.608  15.403  69.509  1.00  0.00    -0.332 A  
HETATM    4  C   UNL     1     -10.898  14.440  68.798  1.00  0.00    -0.251 A  
HETATM    5  C   UNL     1      -9.883  14.824  67.919  1.00  0.00    -0.212 A  
HETATM    6  O   UNL     1     -11.143  13.103  68.918  1.00  0.00    -0.255 OA 
HETATM    7  H   UNL     1     -10.659  12.445  68.433  1.00  0.00     0.000 HD 
HETATM    8  C   UNL     1      -9.564  16.177  67.755  1.00  0.00    -0.223 A  
HETATM    9  C   UNL     1     -11.332  16.753  69.318  1.00  0.00     0.112 A  
HETATM   10  C   UNL     1     -10.316  17.142  68.443  1.00  0.00    -0.362 A  
ENDROOT
BRANCH   8  11
HETATM   11  C   UNL     1      -8.438  16.599  66.844  1.00  0.00    -0.246 C  
BRANCH  11  12
HETATM   12  C   UNL     1      -7.289  15.590  66.864  1.00  0.00    -0.023 C  
BRANCH  12  13
HETATM   13  N   UNL     1      -6.682  15.524  68.199  1.00  0.00    -0.118 NA 
HETATM   14  H   UNL     1      -7.383  15.431  68.935  1.00  0.00     0.000 HD 
BRANCH  13  15
HETATM   15  C   UNL     1      -5.697  14.447  68.237  1.00  0.00    -0.118 C  
BRANCH  15  16
HETATM   16  C   UNL     1      -6.241  13.201  67.545  1.00  0.00    -0.129 C  
BRANCH  16  17
HETATM   17  C   UNL     1      -7.202  12.477  68.484  1.00  0.00    -0.110 C  
BRANCH  17  18
HETATM   18  C   UNL     1      -8.009  11.428  67.737  1.00  0.00    -0.119 C  
BRANCH  18  19
HETATM   19  C   UNL     1      -7.749  10.034  68.305  1.00  0.00    -0.084 C  
BRANCH  19  20
HETATM   20  C   UNL     1      -8.061  10.041  69.795  1.00  0.00    -0.177 C  
BRANCH  20  21
HETATM   21  N   UNL     1      -6.834  10.024  70.587  1.00  0.00    -0.292 NA 
HETATM   22  H   UNL     1      -6.884  10.674  71.371  1.00  0.00     0.000 HD 
BRANCH  21  23
HETATM   23  C   UNL     1      -6.510   8.661  71.034  1.00  0.00    -0.050 C  
BRANCH  23  24
HETATM   24  C   UNL     1      -7.740   7.743  71.107  1.00  0.00    -0.084 C  
BRANCH  24  25
HETATM   25  C   UNL     1      -7.505   6.542  71.983  1.00  0.00    -0.092 A  
HETATM   26  C   UNL     1      -7.344   5.278  71.404  1.00  0.00    -0.086 A  
HETATM   27  C   UNL     1      -7.116   4.160  72.208  1.00  0.00    -0.056 A  
HETATM   28  C   UNL     1      -7.055   4.304  73.592  1.00  0.00    -0.066 A  
HETATM   29  C   UNL     1      -7.226   5.559  74.174  1.00  0.00    -0.082 A  
HETATM   30  C   UNL     1      -7.454   6.675  73.373  1.00  0.00    -0.087 A  
ENDBRANCH  24  25
ENDBRANCH  23  24
ENDBRANCH  21  23
ENDBRANCH  20  21
ENDBRANCH  19  20
ENDBRANCH  18  19
ENDBRANCH  17  18
ENDBRANCH  16  17
ENDBRANCH  15  16
ENDBRANCH  13  15
ENDBRANCH  12  13
ENDBRANCH  11  12
ENDBRANCH   8  11
TORSDOF 13
ENDMDL
MODEL      434
REMARK 921   NORMALIZED FREE ENERGY PREDICTED BY IDOCK:   -0.94 KCAL/MOL
REMARK 922        TOTAL FREE ENERGY PREDICTED BY IDOCK:   -4.40 KCAL/MOL
REMARK 923 INTER-LIGAND FREE ENERGY PREDICTED BY IDOCK:   -4.15 KCAL/MOL
REMARK 924 INTRA-LIGAND FREE ENERGY PREDICTED BY IDOCK:   -0.25 KCAL/MOL
REMARK 927      BINDING AFFINITY PREDICTED BY RF-SCORE:    0.00 PKD
ROOT
HETATM    1  O   UNL     1      -8.472  17.964  68.899  1.00  0.00    -0.238 OA 
HETATM    2  H   UNL     1      -7.831  18.661  68.821  1.00  0.00     0.000 HD 
HETATM    3  C   UNL     1      -8.177  16.643  68.695  1.00  0.00    -0.245 A  
HETATM    4  C   UNL     1      -9.115  15.622  68.809  1.00  0.00    -0.208 A  
HETATM    5  C   UNL     1      -8.732  14.292  68.622  1.00  0.00    -0.150 A  
HETATM    6  O   UNL     1     -10.428  15.854  69.103  1.00  0.00    -0.206 OA 
HETATM    7  H   UNL     1     -11.069  15.157  69.180  1.00  0.00     0.000 HD 
HETATM    8  C   UNL     1      -7.399  13.975  68.333  1.00  0.00    -0.113 A  
HETATM    9  C   UNL     1      -6.860  16.344  68.360  1.00  0.00    -0.142 A  
HETATM   10  C   UNL     1      -6.470  15.016  68.176  1.00  0.00    -0.138 A  
ENDROOT
BRANCH   8  11
HETATM   11  C   UNL     1      -6.964  12.539  68.178  1.00  0.00    -0.089 C  
BRANCH  11  12
HETATM   12  C   UNL     1      -7.540  11.909  66.908  1.00  0.00    -0.093 C  
BRANCH  12  13
HETATM   13  N   UNL     1      -8.475  12.832  66.253  1.00  0.00    -0.291 NA 
HETATM   14  H   UNL     1      -8.015  13.411  65.550  1.00  0.00     0.000 HD 
BRANCH  13  15
HETATM   15  C   UNL     1      -9.597  12.080  65.697  1.00  0.00    -0.189 C  
BRANCH  15  16
HETATM   16  C   UNL     1      -9.254  10.597  65.608  1.00  0.00    -0.227 C  
BRANCH  16  17
HETATM   17  C   UNL     1     -10.446   9.770  66.084  1.00  0.00    -0.128 C  
BRANCH  17  18
HETATM   18  C   UNL     1     -10.400   9.561  67.588  1.00  0.00    -0.299 C  
BRANCH  18  19
HETATM   19  C   UNL     1     -10.353   8.073  67.931  1.00  0.00    -0.282 C  
BRANCH  19  20
HETATM   20  C   UNL     1      -9.193   7.430  67.184  1.00  0.00    -0.136 C  
BRANCH  20  21
HETATM   21  N   UNL     1      -9.662   6.356  66.311  1.00  0.00    -0.363 NA 
HETATM   22  H   UNL     1     -10.305   6.704  65.601  1.00  0.00     0.000 HD 
BRANCH  21  23
HETATM   23  C   UNL     1      -8.534   5.630  65.710  1.00  0.00    -0.140 C  
BRANCH  23  24
HETATM   24  C   UNL     1      -7.379   5.391  66.694  1.00  0.00    -0.086 C  
BRANCH  24  25
HETATM   25  C   UNL     1      -7.615   4.193  67.573  1.00  0.00    -0.069 A  
HETATM   26  C   UNL     1      -7.659   2.912  67.009  1.00  0.00    -0.070 A  
HETATM   27  C   UNL     1      -7.867   1.794  67.818  1.00  0.00    -0.059 A  
HETATM   28  C   UNL     1      -8.036   1.955  69.191  1.00  0.00    -0.060 A  
HETATM   29  C   UNL     1      -8.004   3.229  69.757  1.00  0.00    -0.057 A  
HETATM   30  C   UNL     1      -7.797   4.346  68.950  1.00  0.00    -0.070 A  
ENDBRANCH  24  25
ENDBRANCH  23  24
ENDBRANCH  21  23
ENDBRANCH  20  21
ENDBRANCH  19  20
ENDBRANCH  18  19
ENDBRANCH  17  18
ENDBRANCH  16  17
ENDBRANCH  15  16
ENDBRANCH  13  15
ENDBRANCH  12  13
ENDBRANCH  11  12
ENDBRANCH   8  11
TORSDOF 13
ENDMDL
MODEL      435
REMARK 921   NORMALIZED FREE ENERGY PREDICTED BY IDOCK:   -0.88 KCAL/MOL
REMARK 922        TOTAL FREE ENERGY PREDICTED BY IDOCK:   -4.31 KCAL/MOL
REMARK 923 INTER-LIGAND FREE ENERGY PREDICTED BY IDOCK:   -3.79 KCAL/MOL
REMARK 924 INTRA-LIGAND FREE ENERGY PREDICTED BY IDOCK:   -0.52 KCAL/MOL
REMARK 927      BINDING AFFINITY PREDICTED BY RF-SCORE:    0.00 PKD
ROOT
HETATM    1  O   UNL     1     -11.247  17.271  69.961  1.00  0.00    -0.131 OA 
HETATM    2  H   UNL     1     -12.088  17.566  70.288  1.00  0.00     0.000 HD 
HETATM    3  C   UNL     1     -10.461  18.016  69.124  1.00  0.00     0.069 A  
HETATM    4  C   UNL     1      -9.228  17.585  68.645  1.00  0.00    -0.267 A  
HETATM    5  C   UNL     1      -8.464  18.417  67.823  1.00  0.00    -0.270 A  
HETATM    6  O   UNL     1      -8.707  16.358  68.943  1.00  0.00    -0.238 OA 
HETATM    7  H   UNL     1      -7.865  16.063  68.616  1.00  0.00     0.000 HD 
HETATM    8  C   UNL     1      -8.926  19.694  67.487  1.00  0.00    -0.383 A  
HETATM    9  C   UNL     1     -10.952  19.265  68.757  1.00  0.00     0.937 A  
HETATM   10  C   UNL     1     -10.191  20.102  67.938  1.00  0.00    -0.501 A  
ENDROOT
BRANCH   8  11
HETATM   11  C   UNL     1      -8.087  20.619  66.639  1.00  0.00    -0.088 C  
BRANCH  11  12
HETATM   12  C   UNL     1      -7.056  19.848  65.814  1.00  0.00    -0.303 C  
BRANCH  12  13
HETATM   13  N   UNL     1      -6.046  19.238  66.687  1.00  0.00    -0.166 NA 
HETATM   14  H   UNL     1      -6.448  18.899  67.561  1.00  0.00     0.000 HD 
BRANCH  13  15
HETATM   15  C   UNL     1      -5.341  18.185  65.961  1.00  0.00    -0.181 C  
BRANCH  15  16
HETATM   16  C   UNL     1      -6.074  16.856  66.103  1.00  0.00     0.372 C  
BRANCH  16  17
HETATM   17  C   UNL     1      -5.770  16.252  67.472  1.00  0.00    -0.179 C  
BRANCH  17  18
HETATM   18  C   UNL     1      -6.277  14.823  67.564  1.00  0.00    -0.019 C  
BRANCH  18  19
HETATM   19  C   UNL     1      -5.265  13.929  68.279  1.00  0.00    -0.110 C  
BRANCH  19  20
HETATM   20  C   UNL     1      -5.974  13.177  69.397  1.00  0.00    -0.102 C  
BRANCH  20  21
HETATM   21  N   UNL     1      -6.420  11.862  68.943  1.00  0.00    -0.075 NA 
HETATM   22  H   UNL     1      -6.078  11.119  69.553  1.00  0.00     0.000 HD 
BRANCH  21  23
HETATM   23  C   UNL     1      -7.882  11.816  68.801  1.00  0.00    -0.076 C  
BRANCH  23  24
HETATM   24  C   UNL     1      -8.347  11.869  67.338  1.00  0.00    -0.163 C  
BRANCH  24  25
HETATM   25  C   UNL     1      -9.671  12.569  67.183  1.00  0.00    -0.205 A  
HETATM   26  C   UNL     1     -10.285  13.153  68.298  1.00  0.00    -0.250 A  
HETATM   27  C   UNL     1     -11.507  13.813  68.162  1.00  0.00    -0.348 A  
HETATM   28  C   UNL     1     -12.120  13.884  66.913  1.00  0.00    -0.467 A  
HETATM   29  C   UNL     1     -11.518  13.294  65.802  1.00  0.00    -0.349 A  
HETATM   30  C   UNL     1     -10.298  12.635  65.937  1.00  0.00    -0.295 A  
ENDBRANCH  24  25
ENDBRANCH  23  24
ENDBRANCH  21  23
ENDBRANCH  20  21
ENDBRANCH  19  20
ENDBRANCH  18  19
ENDBRANCH  17  18
ENDBRANCH  16  17
ENDBRANCH  15  16
ENDBRANCH  13  15
ENDBRANCH  12  13
ENDBRANCH  11  12
ENDBRANCH   8  11
TORSDOF 13
ENDMDL
MODEL      436
REMARK 921   NORMALIZED FREE ENERGY PREDICTED BY IDOCK:   -0.40 KCAL/MOL
REMARK 922        TOTAL FREE ENERGY PREDICTED BY IDOCK:   -3.46 KCAL/MOL
REMARK 923 INTER-LIGAND FREE ENERGY PREDICTED BY IDOCK:   -2.86 KCAL/MOL
REMARK 924 INTRA-LIGAND FREE ENERGY PREDICTED BY IDOCK:   -0.60 KCAL/MOL
REMARK 927      BINDING AFFINITY PREDICTED BY RF-SCORE:    0.00 PKD
ROOT
HETATM    1  O   UNL     1      -7.508   1.544  62.848  1.00  0.00    -0.041 OA 
HETATM    2  H   UNL     1      -7.156   1.557  61.966  1.00  0.00     0.000 HD 
HETATM    3  C   UNL     1      -7.935   2.666  63.504  1.00  0.00    -0.073 A  
HETATM    4  C   UNL     1      -8.452   2.648  64.796  1.00  0.00    -0.090 A  
HETATM    5  C   UNL     1      -8.904   3.829  65.389  1.00  0.00    -0.121 A  
HETATM    6  O   UNL     1      -8.546   1.505  65.538  1.00  0.00    -0.096 OA 
HETATM    7  H   UNL     1      -8.899   1.492  66.420  1.00  0.00     0.000 HD 
HETATM    8  C   UNL     1      -8.853   5.037  64.684  1.00  0.00    -0.114 A  
HETATM    9  C   UNL     1      -7.835   3.869  62.812  1.00  0.00    -0.062 A  
HETATM   10  C   UNL     1      -8.289   5.052  63.399  1.00  0.00    -0.119 A  
ENDROOT
BRANCH   8  11
HETATM   11  C   UNL     1      -9.383   6.310  65.296  1.00  0.00     0.464 C  
BRANCH  11  12
HETATM   12  C   UNL     1     -10.277   6.026  66.504  1.00  0.00    -0.143 C  
BRANCH  12  13
HETATM   13  N   UNL     1     -10.299   7.177  67.414  1.00  0.00    -0.224 NA 
HETATM   14  H   UNL     1     -10.166   6.900  68.387  1.00  0.00     0.000 HD 
BRANCH  13  15
HETATM   15  C   UNL     1      -9.311   8.162  66.982  1.00  0.00    -0.155 C  
BRANCH  15  16
HETATM   16  C   UNL     1      -8.576   8.743  68.185  1.00  0.00    -0.134 C  
BRANCH  16  17
HETATM   17  C   UNL     1      -9.355   9.938  68.729  1.00  0.00    -0.157 C  
BRANCH  17  18
HETATM   18  C   UNL     1      -8.601  10.612  69.862  1.00  0.00     0.412 C  
BRANCH  18  19
HETATM   19  C   UNL     1      -7.098  10.622  69.588  1.00  0.00    -0.143 C  
BRANCH  19  20
HETATM   20  C   UNL     1      -6.795  11.680  68.536  1.00  0.00    -0.073 C  
BRANCH  20  21
HETATM   21  N   UNL     1      -7.182  13.009  69.003  1.00  0.00    -0.262 NA 
HETATM   22  H   UNL     1      -6.676  13.271  69.849  1.00  0.00     0.000 HD 
BRANCH  21  23
HETATM   23  C   UNL     1      -7.018  14.013  67.942  1.00  0.00    -0.161 C  
BRANCH  23  24
HETATM   24  C   UNL     1      -7.681  15.358  68.279  1.00  0.00    -0.115 C  
BRANCH  24  25
HETATM   25  C   UNL     1      -9.180  15.251  68.364  1.00  0.00    -0.194 A  
HETATM   26  C   UNL     1      -9.950  15.301  67.195  1.00  0.00    -0.233 A  
HETATM   27  C   UNL     1     -11.339  15.192  67.264  1.00  0.00    -0.305 A  
HETATM   28  C   UNL     1     -11.962  15.039  68.500  1.00  0.00    -0.257 A  
HETATM   29  C   UNL     1     -11.201  15.001  69.668  1.00  0.00    -0.296 A  
HETATM   30  C   UNL     1      -9.813  15.110  69.601  1.00  0.00    -0.162 A  
ENDBRANCH  24  25
ENDBRANCH  23  24
ENDBRANCH  21  23
ENDBRANCH  20  21
ENDBRANCH  19  20
ENDBRANCH  18  19
ENDBRANCH  17  18
ENDBRANCH  16  17
ENDBRANCH  15  16
ENDBRANCH  13  15
ENDBRANCH  12  13
ENDBRANCH  11  12
ENDBRANCH   8  11
TORSDOF 13
ENDMDL
MODEL      437
REMARK 921   NORMALIZED FREE ENERGY PREDICTED BY IDOCK:   -0.34 KCAL/MOL
REMARK 922        TOTAL FREE ENERGY PREDICTED BY IDOCK:   -3.35 KCAL/MOL
REMARK 923 INTER-LIGAND FREE ENERGY PREDICTED BY IDOCK:   -2.98 KCAL/MOL
REMARK 924 INTRA-LIGAND FREE ENERGY PREDICTED BY IDOCK:   -0.38 KCAL/MOL
REMARK 927      BINDING AFFINITY PREDICTED BY RF-SCORE:    0.00 PKD
ROOT
HETATM    1  O   UNL     1      -6.779  10.877  71.090  1.00  0.00    -0.080 OA 
HETATM    2  H   UNL     1      -5.959  11.006  71.552  1.00  0.00     0.000 HD 
HETATM    3  C   UNL     1      -6.851  10.460  69.788  1.00  0.00    -0.130 A  
HETATM    4  C   UNL     1      -8.052  10.270  69.111  1.00  0.00    -0.138 A  
HETATM    5  C   UNL     1      -8.048   9.806  67.793  1.00  0.00    -0.113 A  
HETATM    6  O   UNL     1      -9.269  10.518  69.679  1.00  0.00    -0.390 OA 
HETATM    7  H   UNL     1     -10.088  10.389  69.216  1.00  0.00     0.000 HD 
HETATM    8  C   UNL     1      -6.840   9.516  67.150  1.00  0.00    -0.084 A  
HETATM    9  C   UNL     1      -5.643  10.220  69.143  1.00  0.00    -0.037 A  
HETATM   10  C   UNL     1      -5.634   9.753  67.827  1.00  0.00    -0.039 A  
ENDROOT
BRANCH   8  11
HETATM   11  C   UNL     1      -6.827   8.968  65.744  1.00  0.00    -0.076 C  
BRANCH  11  12
HETATM   12  C   UNL     1      -6.148   7.599  65.679  1.00  0.00    -0.038 C  
BRANCH  12  13
HETATM   13  N   UNL     1      -6.973   6.581  66.339  1.00  0.00    -0.065 NA 
HETATM   14  H   UNL     1      -7.148   5.776  65.736  1.00  0.00     0.000 HD 
BRANCH  13  15
HETATM   15  C   UNL     1      -6.357   6.195  67.606  1.00  0.00    -0.041 C  
BRANCH  15  16
HETATM   16  C   UNL     1      -6.494   4.693  67.830  1.00  0.00    -0.041 C  
BRANCH  16  17
HETATM   17  C   UNL     1      -7.947   4.358  68.155  1.00  0.00    -0.079 C  
BRANCH  17  18
HETATM   18  C   UNL     1      -8.673   5.567  68.720  1.00  0.00    -0.102 C  
BRANCH  18  19
HETATM   19  C   UNL     1      -9.790   5.139  69.671  1.00  0.00    -0.286 C  
BRANCH  19  20
HETATM   20  C   UNL     1     -10.693   6.334  69.942  1.00  0.00    -0.294 C  
BRANCH  20  21
HETATM   21  N   UNL     1      -9.911   7.560  70.089  1.00  0.00    -0.180 NA 
HETATM   22  H   UNL     1     -10.503   8.389  70.054  1.00  0.00     0.000 HD 
BRANCH  21  23
HETATM   23  C   UNL     1      -9.096   7.527  71.312  1.00  0.00    -0.141 C  
BRANCH  23  24
HETATM   24  C   UNL     1      -9.476   6.376  72.257  1.00  0.00    -0.149 C  
BRANCH  24  25
HETATM   25  C   UNL     1      -8.295   5.865  73.038  1.00  0.00    -0.117 A  
HETATM   26  C   UNL     1      -8.248   4.522  73.431  1.00  0.00    -0.099 A  
HETATM   27  C   UNL     1      -7.152   4.036  74.146  1.00  0.00    -0.061 A  
HETATM   28  C   UNL     1      -6.105   4.894  74.474  1.00  0.00    -0.055 A  
HETATM   29  C   UNL     1      -6.152   6.235  74.095  1.00  0.00    -0.065 A  
HETATM   30  C   UNL     1      -7.246   6.721  73.381  1.00  0.00    -0.075 A  
ENDBRANCH  24  25
ENDBRANCH  23  24
ENDBRANCH  21  23
ENDBRANCH  20  21
ENDBRANCH  19  20
ENDBRANCH  18  19
ENDBRANCH  17  18
ENDBRANCH  16  17
ENDBRANCH  15  16
ENDBRANCH  13  15
ENDBRANCH  12  13
ENDBRANCH  11  12
ENDBRANCH   8  11
TORSDOF 13
ENDMDL
MODEL      438
REMARK 921   NORMALIZED FREE ENERGY PREDICTED BY IDOCK:   -0.02 KCAL/MOL
REMARK 922        TOTAL FREE ENERGY PREDICTED BY IDOCK:   -2.79 KCAL/MOL
REMARK 923 INTER-LIGAND FREE ENERGY PREDICTED BY IDOCK:   -3.48 KCAL/MOL
REMARK 924 INTRA-LIGAND FREE ENERGY PREDICTED BY IDOCK:    0.69 KCAL/MOL
REMARK 927      BINDING AFFINITY PREDICTED BY RF-SCORE:    0.00 PKD
ROOT
HETATM    1  O   UNL     1      -7.493   1.473  62.812  1.00  0.00    -0.041 OA 
HETATM    2  H   UNL     1      -7.191   1.435  61.912  1.00  0.00     0.000 HD 
HETATM    3  C   UNL     1      -7.800   2.641  63.455  1.00  0.00    -0.072 A  
HETATM    4  C   UNL     1      -8.243   2.697  64.773  1.00  0.00    -0.087 A  
HETATM    5  C   UNL     1      -8.574   3.924  65.351  1.00  0.00    -0.114 A  
HETATM    6  O   UNL     1      -8.378   1.585  65.555  1.00  0.00    -0.079 OA 
HETATM    7  H   UNL     1      -8.679   1.623  66.455  1.00  0.00     0.000 HD 
HETATM    8  C   UNL     1      -8.476   5.105  64.606  1.00  0.00    -0.146 A  
HETATM    9  C   UNL     1      -7.653   3.813  62.720  1.00  0.00    -0.058 A  
HETATM   10  C   UNL     1      -7.986   5.043  63.293  1.00  0.00    -0.089 A  
ENDROOT
BRANCH   8  11
HETATM   11  C   UNL     1      -8.877   6.430  65.206  1.00  0.00     0.086 C  
BRANCH  11  12
HETATM   12  C   UNL     1      -9.677   6.247  66.496  1.00  0.00    -0.137 C  
BRANCH  12  13
HETATM   13  N   UNL     1      -9.358   7.309  67.458  1.00  0.00    -0.128 NA 
HETATM   14  H   UNL     1      -9.190   6.941  68.395  1.00  0.00     0.000 HD 
BRANCH  13  15
HETATM   15  C   UNL     1      -8.231   8.095  66.964  1.00  0.00    -0.115 C  
BRANCH  15  16
HETATM   16  C   UNL     1      -7.864   9.187  67.964  1.00  0.00    -0.100 C  
BRANCH  16  17
HETATM   17  C   UNL     1      -8.682  10.442  67.669  1.00  0.00    -0.118 C  
BRANCH  17  18
HETATM   18  C   UNL     1      -8.284  11.582  68.591  1.00  0.00    -0.124 C  
BRANCH  18  19
HETATM   19  C   UNL     1      -6.784  11.549  68.883  1.00  0.00    -0.086 C  
BRANCH  19  20
HETATM   20  C   UNL     1      -6.565  10.963  70.270  1.00  0.00    -0.060 C  
BRANCH  20  21
HETATM   21  N   UNL     1      -6.978   9.562  70.319  1.00  0.00    -0.084 NA 
HETATM   22  H   UNL     1      -6.414   8.983  69.697  1.00  0.00     0.000 HD 
BRANCH  21  23
HETATM   23  C   UNL     1      -6.962   9.051  71.697  1.00  0.00     0.012 C  
BRANCH  23  24
HETATM   24  C   UNL     1      -7.816   7.788  71.881  1.00  0.00    -0.106 C  
BRANCH  24  25
HETATM   25  C   UNL     1      -9.286   8.062  71.711  1.00  0.00    -0.218 A  
HETATM   26  C   UNL     1     -10.222   7.069  72.025  1.00  0.00    -0.209 A  
HETATM   27  C   UNL     1     -11.587   7.319  71.881  1.00  0.00    -0.313 A  
HETATM   28  C   UNL     1     -12.019   8.559  71.416  1.00  0.00    -0.345 A  
HETATM   29  C   UNL     1     -11.091   9.548  71.090  1.00  0.00    -0.450 A  
HETATM   30  C   UNL     1      -9.727   9.299  71.234  1.00  0.00    -0.299 A  
ENDBRANCH  24  25
ENDBRANCH  23  24
ENDBRANCH  21  23
ENDBRANCH  20  21
ENDBRANCH  19  20
ENDBRANCH  18  19
ENDBRANCH  17  18
ENDBRANCH  16  17
ENDBRANCH  15  16
ENDBRANCH  13  15
ENDBRANCH  12  13
ENDBRANCH  11  12
ENDBRANCH   8  11
TORSDOF 13
ENDMDL
MODEL      439
REMARK 921   NORMALIZED FREE ENERGY PREDICTED BY IDOCK:   -0.01 KCAL/MOL
REMARK 922        TOTAL FREE ENERGY PREDICTED BY IDOCK:   -2.78 KCAL/MOL
REMARK 923 INTER-LIGAND FREE ENERGY PREDICTED BY IDOCK:   -2.22 KCAL/MOL
REMARK 924 INTRA-LIGAND FREE ENERGY PREDICTED BY IDOCK:   -0.55 KCAL/MOL
REMARK 927      BINDING AFFINITY PREDICTED BY RF-SCORE:    0.00 PKD
ROOT
HETATM    1  O   UNL     1      -7.529   1.629  62.860  1.00  0.00    -0.042 OA 
HETATM    2  H   UNL     1      -7.083   1.675  62.023  1.00  0.00     0.000 HD 
HETATM    3  C   UNL     1      -8.075   2.718  63.483  1.00  0.00    -0.081 A  
HETATM    4  C   UNL     1      -8.729   2.650  64.710  1.00  0.00    -0.109 A  
HETATM    5  C   UNL     1      -9.295   3.799  65.267  1.00  0.00    -0.158 A  
HETATM    6  O   UNL     1      -8.854   1.490  65.418  1.00  0.00    -0.115 OA 
HETATM    7  H   UNL     1      -9.300   1.444  66.256  1.00  0.00     0.000 HD 
HETATM    8  C   UNL     1      -9.221   5.023  64.592  1.00  0.00     0.025 A  
HETATM    9  C   UNL     1      -7.953   3.938  62.826  1.00  0.00    -0.074 A  
HETATM   10  C   UNL     1      -8.520   5.088  63.377  1.00  0.00    -0.123 A  
ENDROOT
BRANCH   8  11
HETATM   11  C   UNL     1      -9.870   6.259  65.162  1.00  0.00     1.355 C  
BRANCH  11  12
HETATM   12  C   UNL     1     -10.980   5.907  66.154  1.00  0.00     0.394 C  
BRANCH  12  13
HETATM   13  N   UNL     1     -11.151   6.980  67.141  1.00  0.00    -0.591 NA 
HETATM   14  H   UNL     1     -11.270   6.617  68.087  1.00  0.00     0.000 HD 
BRANCH  13  15
HETATM   15  C   UNL     1     -10.033   7.915  67.047  1.00  0.00    -0.252 C  
BRANCH  15  16
HETATM   16  C   UNL     1      -9.579   8.345  68.438  1.00  0.00    -0.157 C  
BRANCH  16  17
HETATM   17  C   UNL     1     -10.447   9.504  68.921  1.00  0.00    -0.235 C  
BRANCH  17  18
HETATM   18  C   UNL     1     -10.013   9.973  70.299  1.00  0.00    -0.184 C  
BRANCH  18  19
HETATM   19  C   UNL     1      -8.493   9.915  70.443  1.00  0.00     0.028 C  
BRANCH  19  20
HETATM   20  C   UNL     1      -7.881  11.084  69.685  1.00  0.00     0.217 C  
BRANCH  20  21
HETATM   21  N   UNL     1      -8.913  11.884  69.031  1.00  0.00    -0.363 NA 
HETATM   22  H   UNL     1      -9.571  12.272  69.706  1.00  0.00     0.000 HD 
BRANCH  21  23
HETATM   23  C   UNL     1      -8.320  12.934  68.190  1.00  0.00    -0.168 C  
BRANCH  23  24
HETATM   24  C   UNL     1      -9.334  13.593  67.243  1.00  0.00    -0.233 C  
BRANCH  24  25
HETATM   25  C   UNL     1      -9.850  12.637  66.202  1.00  0.00    -0.265 A  
HETATM   26  C   UNL     1      -9.021  11.615  65.723  1.00  0.00    -0.067 A  
HETATM   27  C   UNL     1      -9.494  10.717  64.765  1.00  0.00    -0.292 A  
HETATM   28  C   UNL     1     -10.794  10.843  64.281  1.00  0.00    -0.121 A  
HETATM   29  C   UNL     1     -11.620  11.865  64.746  1.00  0.00    -0.302 A  
HETATM   30  C   UNL     1     -11.148  12.763  65.702  1.00  0.00    -0.311 A  
ENDBRANCH  24  25
ENDBRANCH  23  24
ENDBRANCH  21  23
ENDBRANCH  20  21
ENDBRANCH  19  20
ENDBRANCH  18  19
ENDBRANCH  17  18
ENDBRANCH  16  17
ENDBRANCH  15  16
ENDBRANCH  13  15
ENDBRANCH  12  13
ENDBRANCH  11  12
ENDBRANCH   8  11
TORSDOF 13
ENDMDL
MODEL      440
REMARK 921   NORMALIZED FREE ENERGY PREDICTED BY IDOCK:    0.27 KCAL/MOL
REMARK 922        TOTAL FREE ENERGY PREDICTED BY IDOCK:   -2.27 KCAL/MOL
REMARK 923 INTER-LIGAND FREE ENERGY PREDICTED BY IDOCK:   -2.79 KCAL/MOL
REMARK 924 INTRA-LIGAND FREE ENERGY PREDICTED BY IDOCK:    0.52 KCAL/MOL
REMARK 927      BINDING AFFINITY PREDICTED BY RF-SCORE:    0.00 PKD
ROOT
HETATM    1  O   UNL     1      -7.993   9.546  74.565  1.00  0.00     0.532 OA 
HETATM    2  H   UNL     1      -8.886   9.384  74.845  1.00  0.00     0.000 HD 
HETATM    3  C   UNL     1      -7.277   8.675  73.789  1.00  0.00     0.057 A  
HETATM    4  C   UNL     1      -5.969   8.912  73.378  1.00  0.00    -0.039 A  
HETATM    5  C   UNL     1      -5.315   7.993  72.555  1.00  0.00    -0.036 A  
HETATM    6  O   UNL     1      -5.269  10.026  73.745  1.00  0.00    -0.302 OA 
HETATM    7  H   UNL     1      -4.376  10.188  73.464  1.00  0.00     0.000 HD 
HETATM    8  C   UNL     1      -5.973   6.835  72.126  1.00  0.00    -0.038 A  
HETATM    9  C   UNL     1      -7.925   7.504  73.408  1.00  0.00    -0.150 A  
HETATM   10  C   UNL     1      -7.276   6.584  72.582  1.00  0.00    -0.085 A  
ENDROOT
BRANCH   8  11
HETATM   11  C   UNL     1      -5.293   5.860  71.197  1.00  0.00    -0.017 C  
BRANCH  11  12
HETATM   12  C   UNL     1      -6.276   5.259  70.191  1.00  0.00    -0.026 C  
BRANCH  12  13
HETATM   13  N   UNL     1      -7.167   6.295  69.657  1.00  0.00    -0.076 NA 
HETATM   14  H   UNL     1      -7.809   6.653  70.365  1.00  0.00     0.000 HD 
BRANCH  13  15
HETATM   15  C   UNL     1      -6.373   7.359  69.047  1.00  0.00    -0.039 C  
BRANCH  15  16
HETATM   16  C   UNL     1      -6.898   8.726  69.472  1.00  0.00    -0.048 C  
BRANCH  16  17
HETATM   17  C   UNL     1      -5.969   9.814  68.939  1.00  0.00    -0.038 C  
BRANCH  17  18
HETATM   18  C   UNL     1      -6.673  10.673  67.903  1.00  0.00    -0.064 C  
BRANCH  18  19
HETATM   19  C   UNL     1      -6.639  10.008  66.527  1.00  0.00    -0.074 C  
BRANCH  19  20
HETATM   20  C   UNL     1      -7.784  10.555  65.686  1.00  0.00    -0.139 C  
BRANCH  20  21
HETATM   21  N   UNL     1      -8.373  11.739  66.307  1.00  0.00    -0.378 NA 
HETATM   22  H   UNL     1      -9.078  12.165  65.707  1.00  0.00     0.000 HD 
BRANCH  21  23
HETATM   23  C   UNL     1      -8.911  11.427  67.639  1.00  0.00    -0.140 C  
BRANCH  23  24
HETATM   24  C   UNL     1     -10.375  10.962  67.603  1.00  0.00    -0.232 C  
BRANCH  24  25
HETATM   25  C   UNL     1     -10.510   9.480  67.831  1.00  0.00    -0.293 A  
HETATM   26  C   UNL     1     -10.841   8.998  69.103  1.00  0.00    -0.110 A  
HETATM   27  C   UNL     1     -10.979   7.627  69.321  1.00  0.00    -0.030 A  
HETATM   28  C   UNL     1     -10.779   6.735  68.270  1.00  0.00    -0.290 A  
HETATM   29  C   UNL     1     -10.437   7.209  67.004  1.00  0.00    -0.392 A  
HETATM   30  C   UNL     1     -10.299   8.578  66.785  1.00  0.00    -0.346 A  
ENDBRANCH  24  25
ENDBRANCH  23  24
ENDBRANCH  21  23
ENDBRANCH  20  21
ENDBRANCH  19  20
ENDBRANCH  18  19
ENDBRANCH  17  18
ENDBRANCH  16  17
ENDBRANCH  15  16
ENDBRANCH  13  15
ENDBRANCH  12  13
ENDBRANCH  11  12
ENDBRANCH   8  11
TORSDOF 13
ENDMDL
MODEL      441
REMARK 921   NORMALIZED FREE ENERGY PREDICTED BY IDOCK:    0.51 KCAL/MOL
REMARK 922        TOTAL FREE ENERGY PREDICTED BY IDOCK:   -1.86 KCAL/MOL
REMARK 923 INTER-LIGAND FREE ENERGY PREDICTED BY IDOCK:   -3.20 KCAL/MOL
REMARK 924 INTRA-LIGAND FREE ENERGY PREDICTED BY IDOCK:    1.34 KCAL/MOL
REMARK 927      BINDING AFFINITY PREDICTED BY RF-SCORE:    0.00 PKD
ROOT
HETATM    1  O   UNL     1      -7.995   9.550  74.563  1.00  0.00     0.532 OA 
HETATM    2  H   UNL     1      -8.886   9.389  74.848  1.00  0.00     0.000 HD 
HETATM    3  C   UNL     1      -7.288   8.683  73.775  1.00  0.00     0.066 A  
HETATM    4  C   UNL     1      -5.982   8.919  73.356  1.00  0.00    -0.039 A  
HETATM    5  C   UNL     1      -5.336   8.005  72.521  1.00  0.00    -0.036 A  
HETATM    6  O   UNL     1      -5.276  10.028  73.727  1.00  0.00    -0.302 OA 
HETATM    7  H   UNL     1      -4.384  10.189  73.442  1.00  0.00     0.000 HD 
HETATM    8  C   UNL     1      -6.002   6.852  72.087  1.00  0.00    -0.038 A  
HETATM    9  C   UNL     1      -7.942   7.518  73.389  1.00  0.00    -0.150 A  
HETATM   10  C   UNL     1      -7.303   6.602  72.551  1.00  0.00    -0.088 A  
ENDROOT
BRANCH   8  11
HETATM   11  C   UNL     1      -5.331   5.883  71.146  1.00  0.00    -0.017 C  
BRANCH  11  12
HETATM   12  C   UNL     1      -6.324   5.294  70.142  1.00  0.00    -0.030 C  
BRANCH  12  13
HETATM   13  N   UNL     1      -7.218   6.338  69.626  1.00  0.00    -0.076 NA 
HETATM   14  H   UNL     1      -7.857   6.684  70.343  1.00  0.00     0.000 HD 
BRANCH  13  15
HETATM   15  C   UNL     1      -6.428   7.410  69.028  1.00  0.00    -0.040 C  
BRANCH  15  16
HETATM   16  C   UNL     1      -6.950   8.771  69.475  1.00  0.00    -0.055 C  
BRANCH  16  17
HETATM   17  C   UNL     1      -6.021   9.867  68.958  1.00  0.00    -0.034 C  
BRANCH  17  18
HETATM   18  C   UNL     1      -6.726  10.744  67.937  1.00  0.00    -0.064 C  
BRANCH  18  19
HETATM   19  C   UNL     1      -6.696  10.101  66.552  1.00  0.00    -0.085 C  
BRANCH  19  20
HETATM   20  C   UNL     1      -7.832  10.675  65.716  1.00  0.00    -0.141 C  
BRANCH  20  21
HETATM   21  N   UNL     1      -8.409  11.855  66.356  1.00  0.00    -0.376 NA 
HETATM   22  H   UNL     1      -9.100  12.306  65.757  1.00  0.00     0.000 HD 
BRANCH  21  23
HETATM   23  C   UNL     1      -8.968  11.524  67.674  1.00  0.00    -0.160 C  
BRANCH  23  24
HETATM   24  C   UNL     1     -10.443  11.097  67.612  1.00  0.00    -0.230 C  
BRANCH  24  25
HETATM   25  C   UNL     1     -11.306  12.119  66.923  1.00  0.00    -0.402 A  
HETATM   26  C   UNL     1     -11.651  11.946  65.577  1.00  0.00    -0.281 A  
HETATM   27  C   UNL     1     -12.460  12.884  64.933  1.00  0.00    -0.540 A  
HETATM   28  C   UNL     1     -12.919  13.998  65.631  1.00  0.00    -0.337 A  
HETATM   29  C   UNL     1     -12.568  14.181  66.968  1.00  0.00     0.128 A  
HETATM   30  C   UNL     1     -11.761  13.246  67.612  1.00  0.00    -0.408 A  
ENDBRANCH  24  25
ENDBRANCH  23  24
ENDBRANCH  21  23
ENDBRANCH  20  21
ENDBRANCH  19  20
ENDBRANCH  18  19
ENDBRANCH  17  18
ENDBRANCH  16  17
ENDBRANCH  15  16
ENDBRANCH  13  15
ENDBRANCH  12  13
ENDBRANCH  11  12
ENDBRANCH   8  11
TORSDOF 13
ENDMDL
MODEL      442
REMARK 921   NORMALIZED FREE ENERGY PREDICTED BY IDOCK:    0.58 KCAL/MOL
REMARK 922        TOTAL FREE ENERGY PREDICTED BY IDOCK:   -1.73 KCAL/MOL
REMARK 923 INTER-LIGAND FREE ENERGY PREDICTED BY IDOCK:   -2.46 KCAL/MOL
REMARK 924 INTRA-LIGAND FREE ENERGY PREDICTED BY IDOCK:    0.72 KCAL/MOL
REMARK 927      BINDING AFFINITY PREDICTED BY RF-SCORE:    0.00 PKD
ROOT
HETATM    1  O   UNL     1      -7.995   9.629  74.563  1.00  0.00     0.892 OA 
HETATM    2  H   UNL     1      -8.879   9.428  74.848  1.00  0.00     0.000 HD 
HETATM    3  C   UNL     1      -7.305   8.873  73.655  1.00  0.00     0.345 A  
HETATM    4  C   UNL     1      -6.011   9.169  73.237  1.00  0.00     0.091 A  
HETATM    5  C   UNL     1      -5.384   8.372  72.277  1.00  0.00    -0.040 A  
HETATM    6  O   UNL     1      -5.300  10.227  73.727  1.00  0.00    -0.336 OA 
HETATM    7  H   UNL     1      -4.417  10.429  73.442  1.00  0.00     0.000 HD 
HETATM    8  C   UNL     1      -6.056   7.279  71.718  1.00  0.00    -0.037 A  
HETATM    9  C   UNL     1      -7.965   7.761  73.142  1.00  0.00    -0.168 A  
HETATM   10  C   UNL     1      -7.344   6.963  72.179  1.00  0.00    -0.087 A  
ENDROOT
BRANCH   8  11
HETATM   11  C   UNL     1      -5.406   6.440  70.646  1.00  0.00    -0.018 C  
BRANCH  11  12
HETATM   12  C   UNL     1      -6.414   6.010  69.579  1.00  0.00    -0.042 C  
BRANCH  12  13
HETATM   13  N   UNL     1      -7.442   7.041  69.392  1.00  0.00    -0.094 NA 
HETATM   14  H   UNL     1      -8.074   7.102  70.190  1.00  0.00     0.000 HD 
BRANCH  13  15
HETATM   15  C   UNL     1      -6.804   8.321  69.097  1.00  0.00    -0.051 C  
BRANCH  15  16
HETATM   16  C   UNL     1      -7.760   9.473  69.388  1.00  0.00    -0.094 C  
BRANCH  16  17
HETATM   17  C   UNL     1      -7.054  10.800  69.119  1.00  0.00    -0.101 C  
BRANCH  17  18
HETATM   18  C   UNL     1      -7.811  11.622  68.091  1.00  0.00    -0.133 C  
BRANCH  18  19
HETATM   19  C   UNL     1      -7.813  10.928  66.730  1.00  0.00    -0.141 C  
BRANCH  19  20
HETATM   20  C   UNL     1      -9.071  11.329  65.972  1.00  0.00    -0.209 C  
BRANCH  20  21
HETATM   21  N   UNL     1     -10.269  11.052  66.761  1.00  0.00    -0.220 NA 
HETATM   22  H   UNL     1     -10.054  10.489  67.583  1.00  0.00     0.000 HD 
BRANCH  21  23
HETATM   23  C   UNL     1     -10.966  12.294  67.122  1.00  0.00    -0.262 C  
BRANCH  23  24
HETATM   24  C   UNL     1     -10.407  12.950  68.394  1.00  0.00    -0.249 C  
BRANCH  24  25
HETATM   25  C   UNL     1     -10.405  14.453  68.310  1.00  0.00    -0.239 A  
HETATM   26  C   UNL     1     -11.450  15.184  68.888  1.00  0.00    -0.337 A  
HETATM   27  C   UNL     1     -11.451  16.579  68.823  1.00  0.00    -0.143 A  
HETATM   28  C   UNL     1     -10.412  17.243  68.176  1.00  0.00    -0.382 A  
HETATM   29  C   UNL     1      -9.375  16.518  67.589  1.00  0.00    -0.212 A  
HETATM   30  C   UNL     1      -9.373  15.126  67.652  1.00  0.00    -0.189 A  
ENDBRANCH  24  25
ENDBRANCH  23  24
ENDBRANCH  21  23
ENDBRANCH  20  21
ENDBRANCH  19  20
ENDBRANCH  18  19
ENDBRANCH  17  18
ENDBRANCH  16  17
ENDBRANCH  15  16
ENDBRANCH  13  15
ENDBRANCH  12  13
ENDBRANCH  11  12
ENDBRANCH   8  11
TORSDOF 13
ENDMDL
MODEL      443
REMARK 921   NORMALIZED FREE ENERGY PREDICTED BY IDOCK:    0.68 KCAL/MOL
REMARK 922        TOTAL FREE ENERGY PREDICTED BY IDOCK:   -1.56 KCAL/MOL
REMARK 923 INTER-LIGAND FREE ENERGY PREDICTED BY IDOCK:   -0.93 KCAL/MOL
REMARK 924 INTRA-LIGAND FREE ENERGY PREDICTED BY IDOCK:   -0.63 KCAL/MOL
REMARK 927      BINDING AFFINITY PREDICTED BY RF-SCORE:    0.00 PKD
ROOT
HETATM    1  O   UNL     1      -8.323  11.613  70.667  1.00  0.00     2.891 OA 
HETATM    2  H   UNL     1      -7.466  11.755  71.052  1.00  0.00     0.000 HD 
HETATM    3  C   UNL     1      -8.509  11.090  69.416  1.00  0.00     0.178 A  
HETATM    4  C   UNL     1      -9.765  10.880  68.853  1.00  0.00    -0.187 A  
HETATM    5  C   UNL     1      -9.878  10.306  67.585  1.00  0.00    -0.199 A  
HETATM    6  O   UNL     1     -10.925  11.214  69.490  1.00  0.00    -0.265 OA 
HETATM    7  H   UNL     1     -11.782  11.071  69.106  1.00  0.00     0.000 HD 
HETATM    8  C   UNL     1      -8.732   9.925  66.877  1.00  0.00    -0.135 A  
HETATM    9  C   UNL     1      -7.362  10.758  68.702  1.00  0.00    -0.097 A  
HETATM   10  C   UNL     1      -7.470  10.181  67.436  1.00  0.00    -0.094 A  
ENDROOT
BRANCH   8  11
HETATM   11  C   UNL     1      -8.845   9.260  65.528  1.00  0.00    -0.224 C  
BRANCH  11  12
HETATM   12  C   UNL     1      -8.253   7.849  65.543  1.00  0.00    -0.140 C  
BRANCH  12  13
HETATM   13  N   UNL     1      -9.067   6.956  66.376  1.00  0.00    -0.159 NA 
HETATM   14  H   UNL     1      -9.432   6.164  65.847  1.00  0.00     0.000 HD 
BRANCH  13  15
HETATM   15  C   UNL     1      -8.295   6.532  67.540  1.00  0.00    -0.121 C  
BRANCH  15  16
HETATM   16  C   UNL     1      -8.607   5.080  67.887  1.00  0.00    -0.103 C  
BRANCH  16  17
HETATM   17  C   UNL     1      -9.967   5.003  68.576  1.00  0.00    -0.207 C  
BRANCH  17  18
HETATM   18  C   UNL     1     -10.294   6.305  69.286  1.00  0.00    -0.266 C  
BRANCH  18  19
HETATM   19  C   UNL     1     -11.188   6.055  70.500  1.00  0.00    -0.363 C  
BRANCH  19  20
HETATM   20  C   UNL     1     -11.746   7.386  70.984  1.00  0.00    -0.297 C  
BRANCH  20  21
HETATM   21  N   UNL     1     -10.695   8.399  71.061  1.00  0.00    -0.217 NA 
HETATM   22  H   UNL     1     -11.075   9.341  70.972  1.00  0.00     0.000 HD 
BRANCH  21  23
HETATM   23  C   UNL     1      -9.903   8.249  72.290  1.00  0.00    -0.294 C  
BRANCH  23  24
HETATM   24  C   UNL     1      -8.961   7.035  72.254  1.00  0.00    -0.144 C  
BRANCH  24  25
HETATM   25  C   UNL     1      -7.697   7.270  73.037  1.00  0.00    -0.107 A  
HETATM   26  C   UNL     1      -7.472   8.511  73.644  1.00  0.00    -0.064 A  
HETATM   27  C   UNL     1      -6.308   8.734  74.380  1.00  0.00    -0.127 A  
HETATM   28  C   UNL     1      -5.363   7.718  74.506  1.00  0.00    -0.066 A  
HETATM   29  C   UNL     1      -5.576   6.483  73.894  1.00  0.00    -0.050 A  
HETATM   30  C   UNL     1      -6.739   6.260  73.158  1.00  0.00    -0.074 A  
ENDBRANCH  24  25
ENDBRANCH  23  24
ENDBRANCH  21  23
ENDBRANCH  20  21
ENDBRANCH  19  20
ENDBRANCH  18  19
ENDBRANCH  17  18
ENDBRANCH  16  17
ENDBRANCH  15  16
ENDBRANCH  13  15
ENDBRANCH  12  13
ENDBRANCH  11  12
ENDBRANCH   8  11
TORSDOF 13
ENDMDL
MODEL      444
REMARK 921   NORMALIZED FREE ENERGY PREDICTED BY IDOCK:    0.75 KCAL/MOL
REMARK 922        TOTAL FREE ENERGY PREDICTED BY IDOCK:   -1.43 KCAL/MOL
REMARK 923 INTER-LIGAND FREE ENERGY PREDICTED BY IDOCK:   -1.30 KCAL/MOL
REMARK 924 INTRA-LIGAND FREE ENERGY PREDICTED BY IDOCK:   -0.13 KCAL/MOL
REMARK 927      BINDING AFFINITY PREDICTED BY RF-SCORE:    0.00 PKD
ROOT
HETATM    1  O   UNL     1      -7.990   9.484  74.566  1.00  0.00     0.532 OA 
HETATM    2  H   UNL     1      -8.886   9.339  74.845  1.00  0.00     0.000 HD 
HETATM    3  C   UNL     1      -7.241   8.540  73.916  1.00  0.00    -0.046 A  
HETATM    4  C   UNL     1      -5.928   8.753  73.507  1.00  0.00    -0.086 A  
HETATM    5  C   UNL     1      -5.239   7.755  72.815  1.00  0.00    -0.036 A  
HETATM    6  O   UNL     1      -5.257   9.917  73.750  1.00  0.00    -0.277 OA 
HETATM    7  H   UNL     1      -4.361  10.062  73.471  1.00  0.00     0.000 HD 
HETATM    8  C   UNL     1      -5.866   6.540  72.516  1.00  0.00    -0.038 A  
HETATM    9  C   UNL     1      -7.859   7.319  73.667  1.00  0.00    -0.129 A  
HETATM   10  C   UNL     1      -7.175   6.319  72.972  1.00  0.00    -0.087 A  
ENDROOT
BRANCH   8  11
HETATM   11  C   UNL     1      -5.147   5.474  71.727  1.00  0.00    -0.009 C  
BRANCH  11  12
HETATM   12  C   UNL     1      -6.110   4.680  70.843  1.00  0.00    -0.018 C  
BRANCH  12  13
HETATM   13  N   UNL     1      -6.913   5.585  70.011  1.00  0.00    -0.059 NA 
HETATM   14  H   UNL     1      -7.460   6.239  70.572  1.00  0.00     0.000 HD 
BRANCH  13  15
HETATM   15  C   UNL     1      -6.048   6.270  69.055  1.00  0.00    -0.025 C  
BRANCH  15  16
HETATM   16  C   UNL     1      -6.646   7.617  68.665  1.00  0.00    -0.053 C  
BRANCH  16  17
HETATM   17  C   UNL     1      -5.813   8.239  67.547  1.00  0.00    -0.043 C  
BRANCH  17  18
HETATM   18  C   UNL     1      -6.360   7.857  66.182  1.00  0.00    -0.046 C  
BRANCH  18  19
HETATM   19  C   UNL     1      -5.745   6.545  65.695  1.00  0.00    -0.025 C  
BRANCH  19  20
HETATM   20  C   UNL     1      -6.678   5.913  64.672  1.00  0.00    -0.046 C  
BRANCH  20  21
HETATM   21  N   UNL     1      -7.894   6.706  64.509  1.00  0.00    -0.112 NA 
HETATM   22  H   UNL     1      -8.290   6.598  63.576  1.00  0.00     0.000 HD 
BRANCH  21  23
HETATM   23  C   UNL     1      -8.878   6.390  65.555  1.00  0.00    -0.012 C  
BRANCH  23  24
HETATM   24  C   UNL     1      -9.827   5.247  65.163  1.00  0.00     0.317 C  
BRANCH  24  25
HETATM   25  C   UNL     1      -9.542   3.981  65.925  1.00  0.00    -0.195 A  
HETATM   26  C   UNL     1      -9.096   2.843  65.243  1.00  0.00    -0.149 A  
HETATM   27  C   UNL     1      -8.819   1.668  65.943  1.00  0.00    -0.119 A  
HETATM   28  C   UNL     1      -8.995   1.627  67.324  1.00  0.00    -0.147 A  
HETATM   29  C   UNL     1      -9.450   2.754  68.007  1.00  0.00    -0.212 A  
HETATM   30  C   UNL     1      -9.727   3.928  67.309  1.00  0.00    -0.178 A  
ENDBRANCH  24  25
ENDBRANCH  23  24
ENDBRANCH  21  23
ENDBRANCH  20  21
ENDBRANCH  19  20
ENDBRANCH  18  19
ENDBRANCH  17  18
ENDBRANCH  16  17
ENDBRANCH  15  16
ENDBRANCH  13  15
ENDBRANCH  12  13
ENDBRANCH  11  12
ENDBRANCH   8  11
TORSDOF 13
ENDMDL
MODEL      445
REMARK 921   NORMALIZED FREE ENERGY PREDICTED BY IDOCK:    0.99 KCAL/MOL
REMARK 922        TOTAL FREE ENERGY PREDICTED BY IDOCK:   -1.01 KCAL/MOL
REMARK 923 INTER-LIGAND FREE ENERGY PREDICTED BY IDOCK:   -1.68 KCAL/MOL
REMARK 924 INTRA-LIGAND FREE ENERGY PREDICTED BY IDOCK:    0.67 KCAL/MOL
REMARK 927      BINDING AFFINITY PREDICTED BY RF-SCORE:    0.00 PKD
ROOT
HETATM    1  O   UNL     1      -8.252  11.581  70.568  1.00  0.00     1.881 OA 
HETATM    2  H   UNL     1      -7.470  11.790  71.065  1.00  0.00     0.000 HD 
HETATM    3  C   UNL     1      -8.223  10.969  69.344  1.00  0.00     0.113 A  
HETATM    4  C   UNL     1      -9.368  10.662  68.614  1.00  0.00    -0.177 A  
HETATM    5  C   UNL     1      -9.262  10.002  67.388  1.00  0.00    -0.153 A  
HETATM    6  O   UNL     1     -10.625  10.977  69.044  1.00  0.00    -0.207 OA 
HETATM    7  H   UNL     1     -11.406  10.767  68.546  1.00  0.00     0.000 HD 
HETATM    8  C   UNL     1      -8.007   9.633  66.890  1.00  0.00    -0.105 A  
HETATM    9  C   UNL     1      -6.968  10.650  68.836  1.00  0.00    -0.073 A  
HETATM   10  C   UNL     1      -6.857   9.988  67.612  1.00  0.00    -0.084 A  
ENDROOT
BRANCH   8  11
HETATM   11  C   UNL     1      -7.885   8.878  65.590  1.00  0.00    -0.096 C  
BRANCH  11  12
HETATM   12  C   UNL     1      -7.200   7.524  65.787  1.00  0.00    -0.066 C  
BRANCH  12  13
HETATM   13  N   UNL     1      -8.060   6.618  66.558  1.00  0.00    -0.109 NA 
HETATM   14  H   UNL     1      -8.255   5.752  66.054  1.00  0.00     0.000 HD 
BRANCH  13  15
HETATM   15  C   UNL     1      -7.462   6.370  67.867  1.00  0.00    -0.094 C  
BRANCH  15  16
HETATM   16  C   UNL     1      -7.550   4.890  68.222  1.00  0.00    -0.078 C  
BRANCH  16  17
HETATM   17  C   UNL     1      -8.959   4.567  68.714  1.00  0.00    -0.149 C  
BRANCH  17  18
HETATM   18  C   UNL     1      -9.595   5.776  69.378  1.00  0.00    -0.179 C  
BRANCH  18  19
HETATM   19  C   UNL     1     -10.542   5.348  70.499  1.00  0.00    -0.312 C  
BRANCH  19  20
HETATM   20  C   UNL     1     -11.459   6.513  70.843  1.00  0.00    -0.351 C  
BRANCH  20  21
HETATM   21  N   UNL     1     -10.698   7.752  70.992  1.00  0.00    -0.225 NA 
HETATM   22  H   UNL     1      -9.825   7.721  70.468  1.00  0.00     0.000 HD 
BRANCH  21  23
HETATM   23  C   UNL     1     -11.510   8.921  70.623  1.00  0.00    -0.242 C  
BRANCH  23  24
HETATM   24  C   UNL     1     -12.598   9.249  71.657  1.00  0.00    -0.446 C  
BRANCH  24  25
HETATM   25  C   UNL     1     -12.922  10.718  71.699  1.00  0.00    -0.581 A  
HETATM   26  C   UNL     1     -12.200  11.614  70.903  1.00  0.00    -0.401 A  
HETATM   27  C   UNL     1     -12.501  12.977  70.927  1.00  0.00    -0.396 A  
HETATM   28  C   UNL     1     -13.521  13.446  71.752  1.00  0.00    -0.452 A  
HETATM   29  C   UNL     1     -14.236  12.559  72.556  1.00  0.00     0.412 A  
HETATM   30  C   UNL     1     -13.935  11.198  72.533  1.00  0.00     0.893 A  
ENDBRANCH  24  25
ENDBRANCH  23  24
ENDBRANCH  21  23
ENDBRANCH  20  21
ENDBRANCH  19  20
ENDBRANCH  18  19
ENDBRANCH  17  18
ENDBRANCH  16  17
ENDBRANCH  15  16
ENDBRANCH  13  15
ENDBRANCH  12  13
ENDBRANCH  11  12
ENDBRANCH   8  11
TORSDOF 13
ENDMDL
MODEL      446
REMARK 921   NORMALIZED FREE ENERGY PREDICTED BY IDOCK:    2.53 KCAL/MOL
REMARK 922        TOTAL FREE ENERGY PREDICTED BY IDOCK:    1.70 KCAL/MOL
REMARK 923 INTER-LIGAND FREE ENERGY PREDICTED BY IDOCK:   -6.55 KCAL/MOL
REMARK 924 INTRA-LIGAND FREE ENERGY PREDICTED BY IDOCK:    8.26 KCAL/MOL
REMARK 927      BINDING AFFINITY PREDICTED BY RF-SCORE:    0.00 PKD
ROOT
HETATM    1  O   UNL     1     -10.391  20.230  66.375  1.00  0.00    -0.409 OA 
HETATM    2  H   UNL     1     -10.224  21.157  66.497  1.00  0.00     0.000 HD 
HETATM    3  C   UNL     1      -9.487  19.254  66.694  1.00  0.00    -0.344 A  
HETATM    4  C   UNL     1      -9.732  17.895  66.517  1.00  0.00    -0.329 A  
HETATM    5  C   UNL     1      -8.774  16.954  66.901  1.00  0.00    -0.248 A  
HETATM    6  O   UNL     1     -10.890  17.418  65.974  1.00  0.00    -0.174 OA 
HETATM    7  H   UNL     1     -11.058  16.491  65.853  1.00  0.00     0.000 HD 
HETATM    8  C   UNL     1      -7.569  17.367  67.478  1.00  0.00    -0.201 A  
HETATM    9  C   UNL     1      -8.272  19.679  67.223  1.00  0.00    -0.331 A  
HETATM   10  C   UNL     1      -7.313  18.741  67.611  1.00  0.00    -0.238 A  
ENDROOT
BRANCH   8  11
HETATM   11  C   UNL     1      -6.548  16.357  67.941  1.00  0.00    -0.148 C  
BRANCH  11  12
HETATM   12  C   UNL     1      -6.312  16.444  69.450  1.00  0.00    -0.200 C  
BRANCH  12  13
HETATM   13  N   UNL     1      -5.263  15.506  69.864  1.00  0.00    -0.101 NA 
HETATM   14  H   UNL     1      -5.274  15.336  70.870  1.00  0.00     0.000 HD 
BRANCH  13  15
HETATM   15  C   UNL     1      -5.379  14.269  69.096  1.00  0.00    -0.077 C  
BRANCH  15  16
HETATM   16  C   UNL     1      -6.191  13.236  69.869  1.00  0.00    -0.097 C  
BRANCH  16  17
HETATM   17  C   UNL     1      -6.554  12.078  68.943  1.00  0.00    -0.089 C  
BRANCH  17  18
HETATM   18  C   UNL     1      -7.147  12.586  67.640  1.00  0.00    -0.139 C  
BRANCH  18  19
HETATM   19  C   UNL     1      -8.179  11.603  67.089  1.00  0.00    -0.165 C  
BRANCH  19  20
HETATM   20  C   UNL     1      -9.474  12.352  66.808  1.00  0.00    -0.228 C  
BRANCH  20  21
HETATM   21  N   UNL     1      -9.225  13.547  66.005  1.00  0.00    -0.483 NA 
HETATM   22  H   UNL     1      -8.496  13.387  65.310  1.00  0.00     0.000 HD 
BRANCH  21  23
HETATM   23  C   UNL     1     -10.465  14.038  65.385  1.00  0.00    -0.351 C  
BRANCH  23  24
HETATM   24  C   UNL     1     -11.554  12.959  65.282  1.00  0.00    -0.376 C  
BRANCH  24  25
HETATM   25  C   UNL     1     -11.163  11.683  65.977  1.00  0.00    -0.299 A  
HETATM   26  C   UNL     1     -10.442  10.704  65.282  1.00  0.00    -0.264 A  
HETATM   27  C   UNL     1     -10.066   9.522  65.922  1.00  0.00    -0.284 A  
HETATM   28  C   UNL     1     -10.415   9.314  67.254  1.00  0.00    -0.334 A  
HETATM   29  C   UNL     1     -11.143  10.281  67.947  1.00  0.00    -0.341 A  
HETATM   30  C   UNL     1     -11.520  11.461  67.309  1.00  0.00    -0.301 A  
ENDBRANCH  24  25
ENDBRANCH  23  24
ENDBRANCH  21  23
ENDBRANCH  20  21
ENDBRANCH  19  20
ENDBRANCH  18  19
ENDBRANCH  17  18
ENDBRANCH  16  17
ENDBRANCH  15  16
ENDBRANCH  13  15
ENDBRANCH  12  13
ENDBRANCH  11  12
ENDBRANCH   8  11
TORSDOF 13
ENDMDL
MODEL      447
REMARK 921   NORMALIZED FREE ENERGY PREDICTED BY IDOCK:    7.36 KCAL/MOL
REMARK 922        TOTAL FREE ENERGY PREDICTED BY IDOCK:   10.21 KCAL/MOL
REMARK 923 INTER-LIGAND FREE ENERGY PREDICTED BY IDOCK:    1.98 KCAL/MOL
REMARK 924 INTRA-LIGAND FREE ENERGY PREDICTED BY IDOCK:    8.23 KCAL/MOL
REMARK 927      BINDING AFFINITY PREDICTED BY RF-SCORE:    0.00 PKD
ROOT
HETATM    1  O   UNL     1     -12.078  17.076  64.579  1.00  0.00     0.588 OA 
HETATM    2  H   UNL     1     -12.907  17.530  64.488  1.00  0.00     0.000 HD 
HETATM    3  C   UNL     1     -11.170  17.357  65.565  1.00  0.00     0.579 A  
HETATM    4  C   UNL     1      -9.955  16.692  65.700  1.00  0.00    -0.167 A  
HETATM    5  C   UNL     1      -9.096  17.007  66.754  1.00  0.00    -0.266 A  
HETATM    6  O   UNL     1      -9.546  15.718  64.834  1.00  0.00    -0.055 OA 
HETATM    7  H   UNL     1      -8.716  15.264  64.926  1.00  0.00     0.000 HD 
HETATM    8  C   UNL     1      -9.455  17.984  67.690  1.00  0.00    -0.264 A  
HETATM    9  C   UNL     1     -11.516  18.363  66.461  1.00  0.00     1.385 A  
HETATM   10  C   UNL     1     -10.662  18.680  67.520  1.00  0.00    -0.447 A  
ENDROOT
BRANCH   8  11
HETATM   11  C   UNL     1      -8.556  18.298  68.861  1.00  0.00    -0.153 C  
BRANCH  11  12
HETATM   12  C   UNL     1      -7.855  17.044  69.385  1.00  0.00     0.181 C  
BRANCH  12  13
HETATM   13  N   UNL     1      -6.457  17.337  69.723  1.00  0.00    -0.166 NA 
HETATM   14  H   UNL     1      -5.868  16.505  69.676  1.00  0.00     0.000 HD 
BRANCH  13  15
HETATM   15  C   UNL     1      -5.960  18.412  68.869  1.00  0.00    -0.212 C  
BRANCH  15  16
HETATM   16  C   UNL     1      -6.725  18.442  67.550  1.00  0.00    -0.201 C  
BRANCH  16  17
HETATM   17  C   UNL     1      -6.017  17.552  66.532  1.00  0.00    -0.240 C  
BRANCH  17  18
HETATM   18  C   UNL     1      -6.186  16.083  66.880  1.00  0.00     0.189 C  
BRANCH  18  19
HETATM   19  C   UNL     1      -5.172  15.651  67.937  1.00  0.00    -0.139 C  
BRANCH  19  20
HETATM   20  C   UNL     1      -5.232  14.138  68.091  1.00  0.00    -0.118 C  
BRANCH  20  21
HETATM   21  N   UNL     1      -6.611  13.682  68.249  1.00  0.00    -0.095 NA 
HETATM   22  H   UNL     1      -6.843  12.952  67.576  1.00  0.00     0.000 HD 
BRANCH  21  23
HETATM   23  C   UNL     1      -6.871  13.248  69.629  1.00  0.00     0.151 C  
BRANCH  23  24
HETATM   24  C   UNL     1      -8.354  13.345  70.021  1.00  0.00     2.608 C  
BRANCH  24  25
HETATM   25  C   UNL     1      -9.252  13.504  68.824  1.00  0.00     0.078 A  
HETATM   26  C   UNL     1     -10.642  13.471  68.986  1.00  0.00    -0.126 A  
HETATM   27  C   UNL     1     -11.483  13.629  67.883  1.00  0.00    -0.348 A  
HETATM   28  C   UNL     1     -10.935  13.812  66.616  1.00  0.00    -0.298 A  
HETATM   29  C   UNL     1      -9.551  13.834  66.447  1.00  0.00    -0.285 A  
HETATM   30  C   UNL     1      -8.711  13.677  67.547  1.00  0.00    -0.198 A  
ENDBRANCH  24  25
ENDBRANCH  23  24
ENDBRANCH  21  23
ENDBRANCH  20  21
ENDBRANCH  19  20
ENDBRANCH  18  19
ENDBRANCH  17  18
ENDBRANCH  16  17
ENDBRANCH  15  16
ENDBRANCH  13  15
ENDBRANCH  12  13
ENDBRANCH  11  12
ENDBRANCH   8  11
TORSDOF 13
ENDMDL
