MODEL        1
REMARK 921   NORMALIZED FREE ENERGY PREDICTED BY IDOCK:   -8.24 KCAL/MOL
REMARK 922        TOTAL FREE ENERGY PREDICTED BY IDOCK:  -11.01 KCAL/MOL
REMARK 923 INTER-LIGAND FREE ENERGY PREDICTED BY IDOCK:  -10.17 KCAL/MOL
REMARK 924 INTRA-LIGAND FREE ENERGY PREDICTED BY IDOCK:   -0.84 KCAL/MOL
REMARK 927      BINDING AFFINITY PREDICTED BY RF-SCORE:    0.00 PKD
ROOT
HETATM    1  C   UNL     1      -9.854  20.493  66.833  1.00  0.00    -0.366 C  
HETATM    2  N   UNL     1      -8.773  19.835  67.528  1.00  0.00    -0.320 N  
HETATM    3  C   UNL     1      -7.481  20.305  67.507  1.00  0.00    -0.312 C  
HETATM    4  O   UNL     1      -7.050  21.316  66.978  1.00  0.00    -0.448 OA 
HETATM    5  N   UNL     1      -6.743  19.381  68.228  1.00  0.00    -0.251 NA 
HETATM    6  N   UNL     1      -7.552  18.396  68.711  1.00  0.00    -0.294 NA 
HETATM    7  C   UNL     1      -8.742  18.716  68.279  1.00  0.00    -0.323 C  
ENDROOT
BRANCH   7   8
HETATM    8  C   UNL     1      -9.959  17.927  68.728  1.00  0.00    -0.376 C  
BRANCH   8   9
HETATM    9  N   UNL     1     -10.412  16.740  68.009  1.00  0.00    -0.319 N  
HETATM   10  C   UNL     1     -10.642  16.769  66.643  1.00  0.00    -0.198 C  
HETATM   11  C   UNL     1     -10.780  15.624  65.955  1.00  0.00    -0.322 C  
HETATM   12  C   UNL     1     -10.853  14.344  66.655  1.00  0.00    -0.304 C  
HETATM   13  C   UNL     1     -11.027  13.081  65.867  1.00  0.00    -0.271 C  
HETATM   14  C   UNL     1     -10.734  14.308  67.997  1.00  0.00    -0.238 C  
HETATM   15  C   UNL     1     -10.100  15.517  68.611  1.00  0.00    -0.210 C  
HETATM   16  F   UNL     1     -10.943  13.284  64.526  1.00  0.00    -0.312 F  
HETATM   17  F   UNL     1     -10.062  12.171  66.169  1.00  0.00    -0.221 F  
HETATM   18  O   UNL     1      -9.354  15.405  69.579  1.00  0.00    -0.265 OA 
HETATM   19  F   UNL     1     -12.222  12.484  66.097  1.00  0.00    -0.472 F  
BRANCH  14  20
HETATM   20  O   UNL     1     -10.951  13.144  68.727  1.00  0.00    -0.251 OA 
BRANCH  20  21
HETATM   21  C   UNL     1     -11.803  13.085  69.814  1.00  0.00    -0.311 A  
HETATM   22  C   UNL     1     -12.032  11.784  70.300  1.00  0.00    -0.429 A  
HETATM   23  C   UNL     1     -12.832  11.557  71.432  1.00  0.00    -0.489 A  
HETATM   24  C   UNL     1     -13.412  12.645  72.091  1.00  0.00    -0.561 A  
HETATM   25  C   UNL     1     -13.053  10.216  71.912  1.00  0.00    -0.466 C  
HETATM   26  C   UNL     1     -13.220  13.932  71.588  1.00  0.00    -0.370 A  
HETATM   27  N   UNL     1     -13.241   9.135  72.288  1.00  0.00    -0.439 NA 
HETATM   28 CL   UNL     1     -13.937  15.276  72.395  1.00  0.00    -0.612 Cl 
HETATM   29  C   UNL     1     -12.442  14.154  70.441  1.00  0.00    -0.424 A  
ENDBRANCH  20  21
ENDBRANCH  14  20
ENDBRANCH   8   9
ENDBRANCH   7   8
TORSDOF 4
ENDMDL
MODEL        2
REMARK 921   NORMALIZED FREE ENERGY PREDICTED BY IDOCK:   -8.10 KCAL/MOL
REMARK 922        TOTAL FREE ENERGY PREDICTED BY IDOCK:  -10.83 KCAL/MOL
REMARK 923 INTER-LIGAND FREE ENERGY PREDICTED BY IDOCK:  -10.08 KCAL/MOL
REMARK 924 INTRA-LIGAND FREE ENERGY PREDICTED BY IDOCK:   -0.75 KCAL/MOL
REMARK 927      BINDING AFFINITY PREDICTED BY RF-SCORE:    0.00 PKD
ROOT
HETATM    1  C   UNL     1      -9.314  19.227  68.603  1.00  0.00    -0.392 C  
HETATM    2  N   UNL     1      -8.524  18.997  67.417  1.00  0.00    -0.275 N  
HETATM    3  C   UNL     1      -7.918  20.015  66.719  1.00  0.00    -0.314 C  
HETATM    4  O   UNL     1      -7.896  21.206  66.979  1.00  0.00    -0.201 OA 
HETATM    5  N   UNL     1      -7.317  19.405  65.630  1.00  0.00    -0.421 NA 
HETATM    6  N   UNL     1      -7.507  18.057  65.671  1.00  0.00    -0.544 NA 
HETATM    7  C   UNL     1      -8.218  17.865  66.751  1.00  0.00    -0.250 C  
ENDROOT
BRANCH   7   8
HETATM    8  C   UNL     1      -8.525  16.456  67.227  1.00  0.00    -0.175 C  
BRANCH   8   9
HETATM    9  N   UNL     1      -9.573  15.650  66.610  1.00  0.00    -0.234 N  
HETATM   10  C   UNL     1     -10.250  16.087  65.483  1.00  0.00    -0.360 C  
HETATM   11  C   UNL     1     -10.999  15.232  64.768  1.00  0.00    -0.403 C  
HETATM   12  C   UNL     1     -11.244  13.877  65.255  1.00  0.00    -0.313 C  
HETATM   13  C   UNL     1     -12.099  12.947  64.450  1.00  0.00    -0.410 C  
HETATM   14  C   UNL     1     -10.674  13.467  66.406  1.00  0.00    -0.286 C  
HETATM   15  C   UNL     1      -9.497  14.275  66.855  1.00  0.00    -0.263 C  
HETATM   16  F   UNL     1     -12.435  13.461  63.237  1.00  0.00    -0.553 F  
HETATM   17  F   UNL     1     -11.455  11.777  64.195  1.00  0.00    -0.379 F  
HETATM   18  O   UNL     1      -8.540  13.732  67.398  1.00  0.00    -0.181 OA 
HETATM   19  F   UNL     1     -13.260  12.634  65.075  1.00  0.00    -0.475 F  
BRANCH  14  20
HETATM   20  O   UNL     1     -10.995  12.249  66.995  1.00  0.00    -0.246 OA 
BRANCH  20  21
HETATM   21  C   UNL     1     -11.414  12.135  68.307  1.00  0.00    -0.305 A  
HETATM   22  C   UNL     1     -11.889  13.335  68.870  1.00  0.00    -0.367 A  
HETATM   23  C   UNL     1     -12.401  13.378  70.177  1.00  0.00    -0.322 A  
HETATM   24  C   UNL     1     -12.441  12.205  70.935  1.00  0.00    -0.374 A  
HETATM   25  C   UNL     1     -12.881  14.618  70.732  1.00  0.00    -0.358 C  
HETATM   26  C   UNL     1     -11.934  11.022  70.396  1.00  0.00    -0.368 A  
HETATM   27  N   UNL     1     -13.254  15.620  71.182  1.00  0.00    -0.532 NA 
HETATM   28 CL   UNL     1     -11.978   9.574  71.330  1.00  0.00    -0.433 Cl 
HETATM   29  C   UNL     1     -11.399  10.987  69.099  1.00  0.00    -0.348 A  
ENDBRANCH  20  21
ENDBRANCH  14  20
ENDBRANCH   8   9
ENDBRANCH   7   8
TORSDOF 4
ENDMDL
MODEL        3
REMARK 921   NORMALIZED FREE ENERGY PREDICTED BY IDOCK:   -8.00 KCAL/MOL
REMARK 922        TOTAL FREE ENERGY PREDICTED BY IDOCK:  -10.71 KCAL/MOL
REMARK 923 INTER-LIGAND FREE ENERGY PREDICTED BY IDOCK:   -9.70 KCAL/MOL
REMARK 924 INTRA-LIGAND FREE ENERGY PREDICTED BY IDOCK:   -1.01 KCAL/MOL
REMARK 927      BINDING AFFINITY PREDICTED BY RF-SCORE:    0.00 PKD
ROOT
HETATM    1  C   UNL     1      -9.395  10.039  64.310  1.00  0.00    -0.288 C  
HETATM    2  N   UNL     1     -10.041  10.272  65.580  1.00  0.00    -0.281 N  
HETATM    3  C   UNL     1     -10.132   9.307  66.555  1.00  0.00    -0.273 C  
HETATM    4  O   UNL     1      -9.676   8.176  66.549  1.00  0.00    -0.222 OA 
HETATM    5  N   UNL     1     -10.863   9.888  67.579  1.00  0.00    -0.278 NA 
HETATM    6  N   UNL     1     -11.179  11.176  67.269  1.00  0.00    -0.373 NA 
HETATM    7  C   UNL     1     -10.662  11.358  66.082  1.00  0.00    -0.267 C  
ENDROOT
BRANCH   7   8
HETATM    8  C   UNL     1     -10.681  12.734  65.440  1.00  0.00    -0.284 C  
BRANCH   8   9
HETATM    9  N   UNL     1     -10.412  13.943  66.210  1.00  0.00    -0.282 N  
HETATM   10  C   UNL     1      -9.297  14.726  65.957  1.00  0.00    -0.214 C  
HETATM   11  C   UNL     1      -9.210  15.966  66.467  1.00  0.00    -0.310 C  
HETATM   12  C   UNL     1     -10.204  16.444  67.424  1.00  0.00    -0.281 C  
HETATM   13  C   UNL     1     -10.075  17.823  67.995  1.00  0.00    -0.355 C  
HETATM   14  C   UNL     1     -11.243  15.654  67.761  1.00  0.00    -0.297 C  
HETATM   15  C   UNL     1     -11.530  14.540  66.803  1.00  0.00    -0.367 C  
HETATM   16  F   UNL     1      -9.081  18.542  67.409  1.00  0.00    -0.267 F  
HETATM   17  F   UNL     1     -11.214  18.544  67.814  1.00  0.00    -0.341 F  
HETATM   18  O   UNL     1     -12.686  14.199  66.573  1.00  0.00    -0.299 OA 
HETATM   19  F   UNL     1      -9.817  17.815  69.326  1.00  0.00    -0.269 F  
BRANCH  14  20
HETATM   20  O   UNL     1     -12.129  15.992  68.778  1.00  0.00    -0.255 OA 
BRANCH  20  21
HETATM   21  C   UNL     1     -12.274  15.242  69.930  1.00  0.00    -0.323 A  
HETATM   22  C   UNL     1     -12.297  16.001  71.116  1.00  0.00    -0.319 A  
HETATM   23  C   UNL     1     -12.490  15.395  72.368  1.00  0.00    -0.463 A  
HETATM   24  C   UNL     1     -12.664  14.010  72.439  1.00  0.00    -0.336 A  
HETATM   25  C   UNL     1     -12.510  16.192  73.569  1.00  0.00    -0.564 C  
HETATM   26  C   UNL     1     -12.602  13.251  71.270  1.00  0.00    -0.308 A  
HETATM   27  N   UNL     1     -12.511  16.833  74.535  1.00  0.00    -0.685 NA 
HETATM   28 CL   UNL     1     -12.812  11.541  71.355  1.00  0.00    -0.520 Cl 
HETATM   29  C   UNL     1     -12.382  13.855  70.023  1.00  0.00    -0.378 A  
ENDBRANCH  20  21
ENDBRANCH  14  20
ENDBRANCH   8   9
ENDBRANCH   7   8
TORSDOF 4
ENDMDL
MODEL        4
REMARK 921   NORMALIZED FREE ENERGY PREDICTED BY IDOCK:   -7.94 KCAL/MOL
REMARK 922        TOTAL FREE ENERGY PREDICTED BY IDOCK:  -10.64 KCAL/MOL
REMARK 923 INTER-LIGAND FREE ENERGY PREDICTED BY IDOCK:   -9.65 KCAL/MOL
REMARK 924 INTRA-LIGAND FREE ENERGY PREDICTED BY IDOCK:   -0.98 KCAL/MOL
REMARK 927      BINDING AFFINITY PREDICTED BY RF-SCORE:    0.00 PKD
ROOT
HETATM    1  C   UNL     1     -10.006  18.505  68.348  1.00  0.00    -0.380 C  
HETATM    2  N   UNL     1      -8.986  18.528  67.326  1.00  0.00    -0.267 N  
HETATM    3  C   UNL     1      -8.440  19.697  66.849  1.00  0.00    -0.307 C  
HETATM    4  O   UNL     1      -8.662  20.841  67.208  1.00  0.00    -0.296 OA 
HETATM    5  N   UNL     1      -7.558  19.309  65.854  1.00  0.00    -0.404 NA 
HETATM    6  N   UNL     1      -7.528  17.951  65.744  1.00  0.00    -0.548 NA 
HETATM    7  C   UNL     1      -8.381  17.537  66.642  1.00  0.00    -0.261 C  
ENDROOT
BRANCH   7   8
HETATM    8  C   UNL     1      -8.533  16.053  66.928  1.00  0.00    -0.241 C  
BRANCH   8   9
HETATM    9  N   UNL     1      -9.579  15.254  66.298  1.00  0.00    -0.280 N  
HETATM   10  C   UNL     1     -10.320  15.745  65.236  1.00  0.00    -0.357 C  
HETATM   11  C   UNL     1     -11.070  14.916  64.491  1.00  0.00    -0.249 C  
HETATM   12  C   UNL     1     -11.244  13.521  64.886  1.00  0.00    -0.353 C  
HETATM   13  C   UNL     1     -12.101  12.619  64.050  1.00  0.00    -0.462 C  
HETATM   14  C   UNL     1     -10.609  13.050  65.978  1.00  0.00    -0.279 C  
HETATM   15  C   UNL     1      -9.443  13.869  66.437  1.00  0.00    -0.250 C  
HETATM   16  F   UNL     1     -12.508  13.207  62.894  1.00  0.00    -0.521 F  
HETATM   17  F   UNL     1     -11.428  11.496  63.682  1.00  0.00    -0.464 F  
HETATM   18  O   UNL     1      -8.444  13.325  66.897  1.00  0.00    -0.166 OA 
HETATM   19  F   UNL     1     -13.221  12.216  64.699  1.00  0.00    -0.453 F  
BRANCH  14  20
HETATM   20  O   UNL     1     -10.860  11.781  66.488  1.00  0.00    -0.257 OA 
BRANCH  20  21
HETATM   21  C   UNL     1     -11.203  11.555  67.808  1.00  0.00    -0.279 A  
HETATM   22  C   UNL     1     -10.887  10.264  68.275  1.00  0.00    -0.300 A  
HETATM   23  C   UNL     1     -11.123   9.892  69.609  1.00  0.00    -0.279 A  
HETATM   24  C   UNL     1     -11.681  10.820  70.491  1.00  0.00    -0.449 A  
HETATM   25  C   UNL     1     -10.792   8.565  70.064  1.00  0.00    -0.223 C  
HETATM   26  C   UNL     1     -12.032  12.086  70.022  1.00  0.00    -0.324 A  
HETATM   27  N   UNL     1     -10.539   7.492  70.426  1.00  0.00    -0.224 NA 
HETATM   28 CL   UNL     1     -12.725  13.233  71.107  1.00  0.00    -0.433 Cl 
HETATM   29  C   UNL     1     -11.820  12.448  68.682  1.00  0.00    -0.348 A  
ENDBRANCH  20  21
ENDBRANCH  14  20
ENDBRANCH   8   9
ENDBRANCH   7   8
TORSDOF 4
ENDMDL
MODEL        5
REMARK 921   NORMALIZED FREE ENERGY PREDICTED BY IDOCK:   -7.92 KCAL/MOL
REMARK 922        TOTAL FREE ENERGY PREDICTED BY IDOCK:  -10.61 KCAL/MOL
REMARK 923 INTER-LIGAND FREE ENERGY PREDICTED BY IDOCK:   -9.60 KCAL/MOL
REMARK 924 INTRA-LIGAND FREE ENERGY PREDICTED BY IDOCK:   -1.01 KCAL/MOL
REMARK 927      BINDING AFFINITY PREDICTED BY RF-SCORE:    0.00 PKD
ROOT
HETATM    1  C   UNL     1     -11.589   9.257  71.693  1.00  0.00    -0.393 C  
HETATM    2  N   UNL     1     -11.320   8.362  70.592  1.00  0.00    -0.261 N  
HETATM    3  C   UNL     1     -11.907   7.123  70.483  1.00  0.00    -0.243 C  
HETATM    4  O   UNL     1     -12.738   6.610  71.213  1.00  0.00    -0.290 OA 
HETATM    5  N   UNL     1     -11.356   6.556  69.346  1.00  0.00    -0.354 NA 
HETATM    6  N   UNL     1     -10.491   7.424  68.750  1.00  0.00    -0.206 NA 
HETATM    7  C   UNL     1     -10.513   8.480  69.520  1.00  0.00    -0.220 C  
ENDROOT
BRANCH   7   8
HETATM    8  C   UNL     1      -9.772   9.741  69.112  1.00  0.00    -0.184 C  
BRANCH   8   9
HETATM    9  N   UNL     1     -10.068  10.434  67.862  1.00  0.00    -0.166 N  
HETATM   10  C   UNL     1      -9.591   9.966  66.649  1.00  0.00    -0.184 C  
HETATM   11  C   UNL     1     -10.094  10.437  65.496  1.00  0.00    -0.352 C  
HETATM   12  C   UNL     1     -11.028  11.560  65.500  1.00  0.00    -0.290 C  
HETATM   13  C   UNL     1     -11.561  12.081  64.201  1.00  0.00    -0.379 C  
HETATM   14  C   UNL     1     -11.425  12.096  66.672  1.00  0.00    -0.365 C  
HETATM   15  C   UNL     1     -11.223  11.222  67.870  1.00  0.00    -0.290 C  
HETATM   16  F   UNL     1     -11.203  11.310  63.140  1.00  0.00    -0.398 F  
HETATM   17  F   UNL     1     -12.921  12.112  64.199  1.00  0.00    -0.547 F  
HETATM   18  O   UNL     1     -12.043  11.219  68.783  1.00  0.00    -0.508 OA 
HETATM   19  F   UNL     1     -11.135  13.339  63.929  1.00  0.00    -0.386 F  
BRANCH  14  20
HETATM   20  O   UNL     1     -12.184  13.259  66.732  1.00  0.00    -0.363 OA 
BRANCH  20  21
HETATM   21  C   UNL     1     -11.690  14.456  67.217  1.00  0.00    -0.404 A  
HETATM   22  C   UNL     1     -11.906  14.657  68.593  1.00  0.00    -0.346 A  
HETATM   23  C   UNL     1     -11.420  15.799  69.251  1.00  0.00    -0.368 A  
HETATM   24  C   UNL     1     -10.706  16.755  68.524  1.00  0.00    -0.358 A  
HETATM   25  C   UNL     1     -11.653  15.983  70.661  1.00  0.00    -0.383 C  
HETATM   26  C   UNL     1     -10.525  16.579  67.152  1.00  0.00    -0.300 A  
HETATM   27  N   UNL     1     -11.854  16.137  71.792  1.00  0.00    -0.503 NA 
HETATM   28 CL   UNL     1      -9.649  17.760  66.251  1.00  0.00    -0.283 Cl 
HETATM   29  C   UNL     1     -11.035  15.450  66.492  1.00  0.00    -0.271 A  
ENDBRANCH  20  21
ENDBRANCH  14  20
ENDBRANCH   8   9
ENDBRANCH   7   8
TORSDOF 4
ENDMDL
MODEL        6
REMARK 921   NORMALIZED FREE ENERGY PREDICTED BY IDOCK:   -7.89 KCAL/MOL
REMARK 922        TOTAL FREE ENERGY PREDICTED BY IDOCK:  -10.57 KCAL/MOL
REMARK 923 INTER-LIGAND FREE ENERGY PREDICTED BY IDOCK:   -9.54 KCAL/MOL
REMARK 924 INTRA-LIGAND FREE ENERGY PREDICTED BY IDOCK:   -1.03 KCAL/MOL
REMARK 927      BINDING AFFINITY PREDICTED BY RF-SCORE:    0.00 PKD
ROOT
HETATM    1  C   UNL     1     -11.132   9.039  71.741  1.00  0.00    -0.374 C  
HETATM    2  N   UNL     1     -11.062   8.184  70.579  1.00  0.00    -0.255 N  
HETATM    3  C   UNL     1     -11.742   6.992  70.493  1.00  0.00    -0.312 C  
HETATM    4  O   UNL     1     -12.510   6.496  71.300  1.00  0.00    -0.283 OA 
HETATM    5  N   UNL     1     -11.375   6.449  69.273  1.00  0.00    -0.378 NA 
HETATM    6  N   UNL     1     -10.532   7.289  68.610  1.00  0.00    -0.197 NA 
HETATM    7  C   UNL     1     -10.386   8.304  69.420  1.00  0.00    -0.222 C  
ENDROOT
BRANCH   7   8
HETATM    8  C   UNL     1      -9.617   9.535  68.975  1.00  0.00    -0.166 C  
BRANCH   8   9
HETATM    9  N   UNL     1     -10.013  10.304  67.800  1.00  0.00    -0.168 N  
HETATM   10  C   UNL     1      -9.609   9.935  66.527  1.00  0.00    -0.190 C  
HETATM   11  C   UNL     1     -10.200  10.470  65.446  1.00  0.00    -0.340 C  
HETATM   12  C   UNL     1     -11.157  11.563  65.592  1.00  0.00    -0.261 C  
HETATM   13  C   UNL     1     -11.789  12.158  64.371  1.00  0.00    -0.358 C  
HETATM   14  C   UNL     1     -11.486  12.006  66.823  1.00  0.00    -0.345 C  
HETATM   15  C   UNL     1     -11.183  11.057  67.940  1.00  0.00    -0.310 C  
HETATM   16  F   UNL     1     -11.486  11.472  63.237  1.00  0.00    -0.474 F  
HETATM   17  F   UNL     1     -13.146  12.151  64.461  1.00  0.00    -0.529 F  
HETATM   18  O   UNL     1     -11.939  10.967  68.902  1.00  0.00    -0.403 OA 
HETATM   19  F   UNL     1     -11.412  13.444  64.162  1.00  0.00    -0.367 F  
BRANCH  14  20
HETATM   20  O   UNL     1     -12.267  13.140  67.015  1.00  0.00    -0.338 OA 
BRANCH  20  21
HETATM   21  C   UNL     1     -11.823  14.250  67.709  1.00  0.00    -0.379 A  
HETATM   22  C   UNL     1     -11.161  15.204  66.912  1.00  0.00    -0.314 A  
HETATM   23  C   UNL     1     -10.695  16.413  67.454  1.00  0.00    -0.278 A  
HETATM   24  C   UNL     1     -10.893  16.677  68.811  1.00  0.00    -0.331 A  
HETATM   25  C   UNL     1     -10.019  17.374  66.618  1.00  0.00    -0.308 C  
HETATM   26  C   UNL     1     -11.513  15.717  69.612  1.00  0.00    -0.340 A  
HETATM   27  N   UNL     1      -9.463  18.140  65.948  1.00  0.00    -0.498 NA 
HETATM   28 CL   UNL     1     -11.756  16.037  71.289  1.00  0.00    -0.491 Cl 
HETATM   29  C   UNL     1     -11.954  14.498  69.075  1.00  0.00    -0.334 A  
ENDBRANCH  20  21
ENDBRANCH  14  20
ENDBRANCH   8   9
ENDBRANCH   7   8
TORSDOF 4
ENDMDL
MODEL        7
REMARK 921   NORMALIZED FREE ENERGY PREDICTED BY IDOCK:   -7.79 KCAL/MOL
REMARK 922        TOTAL FREE ENERGY PREDICTED BY IDOCK:  -10.44 KCAL/MOL
REMARK 923 INTER-LIGAND FREE ENERGY PREDICTED BY IDOCK:   -9.31 KCAL/MOL
REMARK 924 INTRA-LIGAND FREE ENERGY PREDICTED BY IDOCK:   -1.13 KCAL/MOL
REMARK 927      BINDING AFFINITY PREDICTED BY RF-SCORE:    0.00 PKD
ROOT
HETATM    1  C   UNL     1     -12.300  12.155  70.714  1.00  0.00    -0.297 C  
HETATM    2  N   UNL     1     -12.760  13.515  70.875  1.00  0.00    -0.318 N  
HETATM    3  C   UNL     1     -13.678  13.880  71.831  1.00  0.00    -0.435 C  
HETATM    4  O   UNL     1     -14.198  13.186  72.689  1.00  0.00    -0.677 OA 
HETATM    5  N   UNL     1     -13.901  15.232  71.627  1.00  0.00    -0.483 NA 
HETATM    6  N   UNL     1     -13.123  15.696  70.610  1.00  0.00    -0.463 NA 
HETATM    7  C   UNL     1     -12.460  14.645  70.205  1.00  0.00    -0.346 C  
ENDROOT
BRANCH   7   8
HETATM    8  C   UNL     1     -11.369  14.783  69.159  1.00  0.00    -0.282 C  
BRANCH   8   9
HETATM    9  N   UNL     1     -11.390  14.007  67.923  1.00  0.00    -0.276 N  
HETATM   10  C   UNL     1     -12.237  14.338  66.878  1.00  0.00    -0.331 C  
HETATM   11  C   UNL     1     -12.051  13.804  65.659  1.00  0.00    -0.444 C  
HETATM   12  C   UNL     1     -11.062  12.749  65.457  1.00  0.00    -0.318 C  
HETATM   13  C   UNL     1     -10.887  12.155  64.093  1.00  0.00    -0.360 C  
HETATM   14  C   UNL     1     -10.297  12.342  66.490  1.00  0.00    -0.227 C  
HETATM   15  C   UNL     1     -10.217  13.299  67.637  1.00  0.00    -0.228 C  
HETATM   16  F   UNL     1     -11.603  12.808  63.140  1.00  0.00    -0.539 F  
HETATM   17  F   UNL     1      -9.589  12.212  63.690  1.00  0.00    -0.279 F  
HETATM   18  O   UNL     1      -9.171  13.434  68.263  1.00  0.00    -0.204 OA 
HETATM   19  F   UNL     1     -11.262  10.853  64.039  1.00  0.00    -0.356 F  
BRANCH  14  20
HETATM   20  O   UNL     1      -9.454  11.240  66.394  1.00  0.00    -0.189 OA 
BRANCH  20  21
HETATM   21  C   UNL     1      -9.698  10.047  67.049  1.00  0.00    -0.181 A  
HETATM   22  C   UNL     1      -9.445  10.085  68.434  1.00  0.00    -0.146 A  
HETATM   23  C   UNL     1      -9.692   8.971  69.253  1.00  0.00    -0.168 A  
HETATM   24  C   UNL     1     -10.201   7.801  68.683  1.00  0.00    -0.217 A  
HETATM   25  C   UNL     1      -9.425   9.032  70.668  1.00  0.00    -0.236 C  
HETATM   26  C   UNL     1     -10.415   7.747  67.305  1.00  0.00    -0.322 A  
HETATM   27  N   UNL     1      -9.196   9.078  71.804  1.00  0.00    -0.361 NA 
HETATM   28 CL   UNL     1     -11.039   6.304  66.597  1.00  0.00    -0.269 Cl 
HETATM   29  C   UNL     1     -10.142   8.852  66.485  1.00  0.00    -0.356 A  
ENDBRANCH  20  21
ENDBRANCH  14  20
ENDBRANCH   8   9
ENDBRANCH   7   8
TORSDOF 4
ENDMDL
MODEL        8
REMARK 921   NORMALIZED FREE ENERGY PREDICTED BY IDOCK:   -7.78 KCAL/MOL
REMARK 922        TOTAL FREE ENERGY PREDICTED BY IDOCK:  -10.44 KCAL/MOL
REMARK 923 INTER-LIGAND FREE ENERGY PREDICTED BY IDOCK:   -9.79 KCAL/MOL
REMARK 924 INTRA-LIGAND FREE ENERGY PREDICTED BY IDOCK:   -0.65 KCAL/MOL
REMARK 927      BINDING AFFINITY PREDICTED BY RF-SCORE:    0.00 PKD
ROOT
HETATM    1  C   UNL     1      -7.554  17.385  66.755  1.00  0.00    -0.228 C  
HETATM    2  N   UNL     1      -8.686  18.281  66.749  1.00  0.00    -0.265 N  
HETATM    3  C   UNL     1      -8.629  19.546  66.214  1.00  0.00    -0.361 C  
HETATM    4  O   UNL     1      -7.698  20.088  65.643  1.00  0.00    -0.325 OA 
HETATM    5  N   UNL     1      -9.875  20.101  66.453  1.00  0.00    -0.443 NA 
HETATM    6  N   UNL     1     -10.687  19.203  67.077  1.00  0.00    -0.458 NA 
HETATM    7  C   UNL     1      -9.941  18.140  67.221  1.00  0.00    -0.330 C  
ENDROOT
BRANCH   7   8
HETATM    8  C   UNL     1     -10.537  16.851  67.760  1.00  0.00    -0.340 C  
BRANCH   8   9
HETATM    9  N   UNL     1     -10.962  15.773  66.872  1.00  0.00    -0.263 N  
HETATM   10  C   UNL     1     -10.856  15.889  65.495  1.00  0.00    -0.315 C  
HETATM   11  C   UNL     1     -10.980  14.805  64.713  1.00  0.00    -0.393 C  
HETATM   12  C   UNL     1     -11.389  13.524  65.282  1.00  0.00    -0.304 C  
HETATM   13  C   UNL     1     -11.539  12.332  64.386  1.00  0.00    -0.360 C  
HETATM   14  C   UNL     1     -11.596  13.418  66.610  1.00  0.00    -0.362 C  
HETATM   15  C   UNL     1     -10.968  14.495  67.439  1.00  0.00    -0.303 C  
HETATM   16  F   UNL     1     -11.114  12.573  63.118  1.00  0.00    -0.490 F  
HETATM   17  F   UNL     1     -10.805  11.279  64.834  1.00  0.00    -0.350 F  
HETATM   18  O   UNL     1     -10.495  14.236  68.541  1.00  0.00    -0.239 OA 
HETATM   19  F   UNL     1     -12.824  11.909  64.293  1.00  0.00    -0.453 F  
BRANCH  14  20
HETATM   20  O   UNL     1     -12.134  12.271  67.184  1.00  0.00    -0.560 OA 
BRANCH  20  21
HETATM   21  C   UNL     1     -11.430  11.467  68.061  1.00  0.00    -0.307 A  
HETATM   22  C   UNL     1     -12.152  11.093  69.210  1.00  0.00    -0.377 A  
HETATM   23  C   UNL     1     -11.599  10.234  70.174  1.00  0.00    -0.376 A  
HETATM   24  C   UNL     1     -10.305   9.739  69.989  1.00  0.00    -0.307 A  
HETATM   25  C   UNL     1     -12.356   9.864  71.343  1.00  0.00    -0.404 C  
HETATM   26  C   UNL     1      -9.572  10.140  68.871  1.00  0.00    -0.184 A  
HETATM   27  N   UNL     1     -12.962   9.580  72.290  1.00  0.00    -0.400 NA 
HETATM   28 CL   UNL     1      -7.973   9.536  68.642  1.00  0.00    -0.091 Cl 
HETATM   29  C   UNL     1     -10.117  11.020  67.923  1.00  0.00    -0.199 A  
ENDBRANCH  20  21
ENDBRANCH  14  20
ENDBRANCH   8   9
ENDBRANCH   7   8
TORSDOF 4
ENDMDL
MODEL        9
REMARK 921   NORMALIZED FREE ENERGY PREDICTED BY IDOCK:   -7.71 KCAL/MOL
REMARK 922        TOTAL FREE ENERGY PREDICTED BY IDOCK:  -10.35 KCAL/MOL
REMARK 923 INTER-LIGAND FREE ENERGY PREDICTED BY IDOCK:   -9.18 KCAL/MOL
REMARK 924 INTRA-LIGAND FREE ENERGY PREDICTED BY IDOCK:   -1.17 KCAL/MOL
REMARK 927      BINDING AFFINITY PREDICTED BY RF-SCORE:    0.00 PKD
ROOT
HETATM    1  C   UNL     1      -9.104   8.423  72.614  1.00  0.00    -0.241 C  
HETATM    2  N   UNL     1     -10.202   7.536  72.309  1.00  0.00    -0.197 N  
HETATM    3  C   UNL     1     -10.704   6.636  73.219  1.00  0.00    -0.287 C  
HETATM    4  O   UNL     1     -10.374   6.467  74.381  1.00  0.00    -0.332 OA 
HETATM    5  N   UNL     1     -11.690   5.940  72.540  1.00  0.00    -0.287 NA 
HETATM    6  N   UNL     1     -11.822   6.415  71.270  1.00  0.00    -0.316 NA 
HETATM    7  C   UNL     1     -10.927   7.363  71.187  1.00  0.00    -0.246 C  
ENDROOT
BRANCH   7   8
HETATM    8  C   UNL     1     -10.855   8.242  69.950  1.00  0.00    -0.213 C  
BRANCH   8   9
HETATM    9  N   UNL     1     -11.338   9.619  69.959  1.00  0.00    -0.226 N  
HETATM   10  C   UNL     1     -12.408  10.003  70.752  1.00  0.00    -0.303 C  
HETATM   11  C   UNL     1     -12.660  11.304  70.967  1.00  0.00    -0.495 C  
HETATM   12  C   UNL     1     -11.917  12.331  70.242  1.00  0.00    -0.373 C  
HETATM   13  C   UNL     1     -12.230  13.776  70.483  1.00  0.00    -0.369 C  
HETATM   14  C   UNL     1     -10.939  11.971  69.387  1.00  0.00    -0.066 C  
HETATM   15  C   UNL     1     -10.403  10.588  69.582  1.00  0.00    -0.193 C  
HETATM   16  F   UNL     1     -13.107  13.960  71.506  1.00  0.00    -0.380 F  
HETATM   17  F   UNL     1     -11.113  14.476  70.819  1.00  0.00    -0.217 F  
HETATM   18  O   UNL     1      -9.210  10.354  69.416  1.00  0.00    -0.201 OA 
HETATM   19  F   UNL     1     -12.766  14.383  69.396  1.00  0.00    -0.278 F  
BRANCH  14  20
HETATM   20  O   UNL     1     -10.309  12.892  68.557  1.00  0.00    -0.243 OA 
BRANCH  20  21
HETATM   21  C   UNL     1     -10.406  12.853  67.178  1.00  0.00    -0.238 A  
HETATM   22  C   UNL     1     -10.734  14.087  66.586  1.00  0.00    -0.281 A  
HETATM   23  C   UNL     1     -10.820  14.229  65.191  1.00  0.00    -0.387 A  
HETATM   24  C   UNL     1     -10.574  13.123  64.374  1.00  0.00    -0.441 A  
HETATM   25  C   UNL     1     -11.157  15.503  64.607  1.00  0.00    -0.359 C  
HETATM   26  C   UNL     1     -10.289  11.889  64.959  1.00  0.00    -0.289 A  
HETATM   27  N   UNL     1     -11.442  16.525  64.140  1.00  0.00    -1.092 NA 
HETATM   28 CL   UNL     1      -9.991  10.520  63.953  1.00  0.00    -0.385 Cl 
HETATM   29  C   UNL     1     -10.230  11.743  66.353  1.00  0.00    -0.248 A  
ENDBRANCH  20  21
ENDBRANCH  14  20
ENDBRANCH   8   9
ENDBRANCH   7   8
TORSDOF 4
ENDMDL
MODEL       10
REMARK 921   NORMALIZED FREE ENERGY PREDICTED BY IDOCK:   -7.66 KCAL/MOL
REMARK 922        TOTAL FREE ENERGY PREDICTED BY IDOCK:  -10.28 KCAL/MOL
REMARK 923 INTER-LIGAND FREE ENERGY PREDICTED BY IDOCK:   -9.25 KCAL/MOL
REMARK 924 INTRA-LIGAND FREE ENERGY PREDICTED BY IDOCK:   -1.03 KCAL/MOL
REMARK 927      BINDING AFFINITY PREDICTED BY RF-SCORE:    0.00 PKD
ROOT
HETATM    1  C   UNL     1      -9.652  15.984  65.886  1.00  0.00    -0.335 C  
HETATM    2  N   UNL     1     -10.712  15.099  65.465  1.00  0.00    -0.340 N  
HETATM    3  C   UNL     1     -11.632  15.448  64.504  1.00  0.00    -0.296 C  
HETATM    4  O   UNL     1     -11.690  16.471  63.844  1.00  0.00    -1.148 OA 
HETATM    5  N   UNL     1     -12.506  14.375  64.428  1.00  0.00    -0.679 NA 
HETATM    6  N   UNL     1     -12.120  13.383  65.279  1.00  0.00    -0.387 NA 
HETATM    7  C   UNL     1     -11.050  13.856  65.861  1.00  0.00    -0.291 C  
ENDROOT
BRANCH   7   8
HETATM    8  C   UNL     1     -10.234  12.980  66.794  1.00  0.00    -0.246 C  
BRANCH   8   9
HETATM    9  N   UNL     1     -10.760  12.527  68.078  1.00  0.00    -0.214 N  
HETATM   10  C   UNL     1     -11.266  13.423  69.006  1.00  0.00    -0.275 C  
HETATM   11  C   UNL     1     -11.996  12.983  70.044  1.00  0.00    -0.383 C  
HETATM   12  C   UNL     1     -12.129  11.552  70.302  1.00  0.00    -0.444 C  
HETATM   13  C   UNL     1     -12.931  11.085  71.478  1.00  0.00    -0.448 C  
HETATM   14  C   UNL     1     -11.555  10.665  69.464  1.00  0.00    -0.288 C  
HETATM   15  C   UNL     1     -11.209  11.203  68.111  1.00  0.00    -0.292 C  
HETATM   16  F   UNL     1     -13.587  12.100  72.101  1.00  0.00    -0.549 F  
HETATM   17  F   UNL     1     -13.889  10.195  71.103  1.00  0.00    -0.295 F  
HETATM   18  O   UNL     1     -11.327  10.499  67.113  1.00  0.00    -0.312 OA 
HETATM   19  F   UNL     1     -12.171  10.476  72.420  1.00  0.00     0.008 F  
BRANCH  14  20
HETATM   20  O   UNL     1     -11.516   9.304  69.743  1.00  0.00    -0.086 OA 
BRANCH  20  21
HETATM   21  C   UNL     1     -10.586   8.737  70.595  1.00  0.00    -0.215 A  
HETATM   22  C   UNL     1     -11.074   7.647  71.342  1.00  0.00    -0.265 A  
HETATM   23  C   UNL     1     -10.241   6.928  72.214  1.00  0.00    -0.207 A  
HETATM   24  C   UNL     1      -8.900   7.299  72.343  1.00  0.00    -0.143 A  
HETATM   25  C   UNL     1     -10.762   5.816  72.970  1.00  0.00    -0.257 C  
HETATM   26  C   UNL     1      -8.424   8.403  71.635  1.00  0.00    -0.163 A  
HETATM   27  N   UNL     1     -11.186   4.931  73.587  1.00  0.00    -0.300 NA 
HETATM   28 CL   UNL     1      -6.771   8.867  71.795  1.00  0.00    -0.077 Cl 
HETATM   29  C   UNL     1      -9.264   9.137  70.784  1.00  0.00    -0.321 A  
ENDBRANCH  20  21
ENDBRANCH  14  20
ENDBRANCH   8   9
ENDBRANCH   7   8
TORSDOF 4
ENDMDL
MODEL       11
REMARK 921   NORMALIZED FREE ENERGY PREDICTED BY IDOCK:   -7.63 KCAL/MOL
REMARK 922        TOTAL FREE ENERGY PREDICTED BY IDOCK:  -10.26 KCAL/MOL
REMARK 923 INTER-LIGAND FREE ENERGY PREDICTED BY IDOCK:   -9.08 KCAL/MOL
REMARK 924 INTRA-LIGAND FREE ENERGY PREDICTED BY IDOCK:   -1.18 KCAL/MOL
REMARK 927      BINDING AFFINITY PREDICTED BY RF-SCORE:    0.00 PKD
ROOT
HETATM    1  C   UNL     1      -9.594  16.063  65.844  1.00  0.00    -0.335 C  
HETATM    2  N   UNL     1     -10.658  15.160  65.473  1.00  0.00    -0.338 N  
HETATM    3  C   UNL     1     -11.602  15.474  64.524  1.00  0.00    -0.283 C  
HETATM    4  O   UNL     1     -11.682  16.477  63.836  1.00  0.00    -1.148 OA 
HETATM    5  N   UNL     1     -12.469  14.394  64.499  1.00  0.00    -0.660 NA 
HETATM    6  N   UNL     1     -12.058  13.430  65.370  1.00  0.00    -0.394 NA 
HETATM    7  C   UNL     1     -10.978  13.927  65.913  1.00  0.00    -0.284 C  
ENDROOT
BRANCH   7   8
HETATM    8  C   UNL     1     -10.135  13.082  66.852  1.00  0.00    -0.243 C  
BRANCH   8   9
HETATM    9  N   UNL     1     -10.677  12.543  68.095  1.00  0.00    -0.219 N  
HETATM   10  C   UNL     1     -11.273  13.365  69.038  1.00  0.00    -0.275 C  
HETATM   11  C   UNL     1     -12.010  12.837  70.029  1.00  0.00    -0.371 C  
HETATM   12  C   UNL     1     -12.060  11.390  70.223  1.00  0.00    -0.459 C  
HETATM   13  C   UNL     1     -12.873  10.825  71.347  1.00  0.00    -0.452 C  
HETATM   14  C   UNL     1     -11.401  10.578  69.373  1.00  0.00    -0.269 C  
HETATM   15  C   UNL     1     -11.041  11.193  68.057  1.00  0.00    -0.276 C  
HETATM   16  F   UNL     1     -13.615  11.769  71.985  1.00  0.00    -0.485 F  
HETATM   17  F   UNL     1     -13.758   9.893  70.900  1.00  0.00    -0.420 F  
HETATM   18  O   UNL     1     -11.077  10.527  67.028  1.00  0.00    -0.236 OA 
HETATM   19  F   UNL     1     -12.109  10.225  72.293  1.00  0.00    -0.187 F  
BRANCH  14  20
HETATM   20  O   UNL     1     -11.285   9.211  69.599  1.00  0.00    -0.151 OA 
BRANCH  20  21
HETATM   21  C   UNL     1     -10.074   8.588  69.840  1.00  0.00    -0.195 A  
HETATM   22  C   UNL     1      -9.559   8.805  71.133  1.00  0.00    -0.309 A  
HETATM   23  C   UNL     1      -8.365   8.200  71.555  1.00  0.00    -0.155 A  
HETATM   24  C   UNL     1      -7.672   7.364  70.675  1.00  0.00    -0.091 A  
HETATM   25  C   UNL     1      -7.856   8.437  72.883  1.00  0.00    -0.083 C  
HETATM   26  C   UNL     1      -8.158   7.178  69.381  1.00  0.00    -0.130 A  
HETATM   27  N   UNL     1      -7.441   8.640  73.946  1.00  0.00    -0.399 NA 
HETATM   28 CL   UNL     1      -7.304   6.151  68.291  1.00  0.00    -0.084 Cl 
HETATM   29  C   UNL     1      -9.338   7.806  68.952  1.00  0.00    -0.146 A  
ENDBRANCH  20  21
ENDBRANCH  14  20
ENDBRANCH   8   9
ENDBRANCH   7   8
TORSDOF 4
ENDMDL
MODEL       12
REMARK 921   NORMALIZED FREE ENERGY PREDICTED BY IDOCK:   -7.63 KCAL/MOL
REMARK 922        TOTAL FREE ENERGY PREDICTED BY IDOCK:  -10.25 KCAL/MOL
REMARK 923 INTER-LIGAND FREE ENERGY PREDICTED BY IDOCK:   -9.13 KCAL/MOL
REMARK 924 INTRA-LIGAND FREE ENERGY PREDICTED BY IDOCK:   -1.12 KCAL/MOL
REMARK 927      BINDING AFFINITY PREDICTED BY RF-SCORE:    0.00 PKD
ROOT
HETATM    1  C   UNL     1     -13.516   9.699  72.108  1.00  0.00    -0.429 C  
HETATM    2  N   UNL     1     -12.746   8.664  71.458  1.00  0.00    -0.318 N  
HETATM    3  C   UNL     1     -13.191   7.369  71.343  1.00  0.00    -0.339 C  
HETATM    4  O   UNL     1     -14.259   6.898  71.698  1.00  0.00    -0.314 OA 
HETATM    5  N   UNL     1     -12.160   6.681  70.725  1.00  0.00    -0.368 NA 
HETATM    6  N   UNL     1     -11.131   7.524  70.430  1.00  0.00    -0.262 NA 
HETATM    7  C   UNL     1     -11.531   8.686  70.875  1.00  0.00    -0.275 C  
ENDROOT
BRANCH   7   8
HETATM    8  C   UNL     1     -10.707   9.934  70.608  1.00  0.00    -0.303 C  
BRANCH   8   9
HETATM    9  N   UNL     1     -10.762  10.629  69.326  1.00  0.00    -0.223 N  
HETATM   10  C   UNL     1     -10.565   9.954  68.132  1.00  0.00    -0.227 C  
HETATM   11  C   UNL     1     -10.894  10.532  66.965  1.00  0.00    -0.288 C  
HETATM   12  C   UNL     1     -11.306  11.933  66.923  1.00  0.00    -0.392 C  
HETATM   13  C   UNL     1     -11.648  12.562  65.607  1.00  0.00    -0.389 C  
HETATM   14  C   UNL     1     -11.405  12.636  68.069  1.00  0.00    -0.290 C  
HETATM   15  C   UNL     1     -11.511  11.810  69.313  1.00  0.00    -0.306 C  
HETATM   16  F   UNL     1     -11.674  11.664  64.587  1.00  0.00    -0.355 F  
HETATM   17  F   UNL     1     -12.884  13.131  65.636  1.00  0.00    -0.489 F  
HETATM   18  O   UNL     1     -12.223  12.175  70.243  1.00  0.00    -0.316 OA 
HETATM   19  F   UNL     1     -10.773  13.534  65.250  1.00  0.00    -0.285 F  
BRANCH  14  20
HETATM   20  O   UNL     1     -11.640  14.006  68.077  1.00  0.00    -0.298 OA 
BRANCH  20  21
HETATM   21  C   UNL     1     -10.636  14.940  68.256  1.00  0.00    -0.240 A  
HETATM   22  C   UNL     1     -10.979  16.243  67.847  1.00  0.00    -0.310 A  
HETATM   23  C   UNL     1     -10.090  17.318  68.010  1.00  0.00    -0.324 A  
HETATM   24  C   UNL     1      -8.840  17.091  68.592  1.00  0.00    -0.267 A  
HETATM   25  C   UNL     1     -10.462  18.644  67.583  1.00  0.00    -0.423 C  
HETATM   26  C   UNL     1      -8.482  15.795  68.962  1.00  0.00    -0.242 A  
HETATM   27  N   UNL     1     -10.758  19.707  67.226  1.00  0.00    -0.478 NA 
HETATM   28 CL   UNL     1      -6.938  15.510  69.676  1.00  0.00    -0.185 Cl 
HETATM   29  C   UNL     1      -9.361  14.717  68.773  1.00  0.00    -0.198 A  
ENDBRANCH  20  21
ENDBRANCH  14  20
ENDBRANCH   8   9
ENDBRANCH   7   8
TORSDOF 4
ENDMDL
MODEL       13
REMARK 921   NORMALIZED FREE ENERGY PREDICTED BY IDOCK:   -7.62 KCAL/MOL
REMARK 922        TOTAL FREE ENERGY PREDICTED BY IDOCK:  -10.23 KCAL/MOL
REMARK 923 INTER-LIGAND FREE ENERGY PREDICTED BY IDOCK:   -9.12 KCAL/MOL
REMARK 924 INTRA-LIGAND FREE ENERGY PREDICTED BY IDOCK:   -1.11 KCAL/MOL
REMARK 927      BINDING AFFINITY PREDICTED BY RF-SCORE:    0.00 PKD
ROOT
HETATM    1  C   UNL     1      -8.569   6.748  68.344  1.00  0.00    -0.125 C  
HETATM    2  N   UNL     1      -9.788   6.934  69.094  1.00  0.00    -0.154 N  
HETATM    3  C   UNL     1     -10.527   5.882  69.583  1.00  0.00    -0.277 C  
HETATM    4  O   UNL     1     -10.283   4.689  69.521  1.00  0.00    -0.203 OA 
HETATM    5  N   UNL     1     -11.635   6.460  70.181  1.00  0.00    -0.420 NA 
HETATM    6  N   UNL     1     -11.568   7.819  70.101  1.00  0.00    -0.048 NA 
HETATM    7  C   UNL     1     -10.453   8.048  69.459  1.00  0.00    -0.226 C  
ENDROOT
BRANCH   7   8
HETATM    8  C   UNL     1      -9.945   9.469  69.289  1.00  0.00    -0.187 C  
BRANCH   8   9
HETATM    9  N   UNL     1     -10.169  10.221  68.058  1.00  0.00    -0.161 N  
HETATM   10  C   UNL     1      -9.664   9.785  66.844  1.00  0.00    -0.192 C  
HETATM   11  C   UNL     1     -10.107  10.319  65.694  1.00  0.00    -0.341 C  
HETATM   12  C   UNL     1     -11.001  11.474  65.711  1.00  0.00    -0.305 C  
HETATM   13  C   UNL     1     -11.466  12.065  64.416  1.00  0.00    -0.343 C  
HETATM   14  C   UNL     1     -11.422  11.977  66.889  1.00  0.00    -0.337 C  
HETATM   15  C   UNL     1     -11.296  11.050  68.056  1.00  0.00    -0.306 C  
HETATM   16  F   UNL     1     -11.096  11.324  63.338  1.00  0.00    -0.449 F  
HETATM   17  F   UNL     1     -12.823  12.146  64.366  1.00  0.00    -0.526 F  
HETATM   18  O   UNL     1     -12.150  11.040  68.938  1.00  0.00    -0.479 OA 
HETATM   19  F   UNL     1     -10.986  13.317  64.211  1.00  0.00    -0.343 F  
BRANCH  14  20
HETATM   20  O   UNL     1     -12.143  13.163  66.969  1.00  0.00    -0.376 OA 
BRANCH  20  21
HETATM   21  C   UNL     1     -11.712  14.257  67.697  1.00  0.00    -0.389 A  
HETATM   22  C   UNL     1     -11.017  15.219  66.940  1.00  0.00    -0.315 A  
HETATM   23  C   UNL     1     -10.560  16.415  67.519  1.00  0.00    -0.309 A  
HETATM   24  C   UNL     1     -10.800  16.655  68.875  1.00  0.00    -0.321 A  
HETATM   25  C   UNL     1      -9.850  17.385  66.724  1.00  0.00    -0.296 C  
HETATM   26  C   UNL     1     -11.453  15.686  69.637  1.00  0.00    -0.340 A  
HETATM   27  N   UNL     1      -9.267  18.159  66.087  1.00  0.00    -0.509 NA 
HETATM   28 CL   UNL     1     -11.747  15.977  71.311  1.00  0.00    -0.491 Cl 
HETATM   29  C   UNL     1     -11.886  14.481  69.063  1.00  0.00    -0.354 A  
ENDBRANCH  20  21
ENDBRANCH  14  20
ENDBRANCH   8   9
ENDBRANCH   7   8
TORSDOF 4
ENDMDL
MODEL       14
REMARK 921   NORMALIZED FREE ENERGY PREDICTED BY IDOCK:   -7.61 KCAL/MOL
REMARK 922        TOTAL FREE ENERGY PREDICTED BY IDOCK:  -10.22 KCAL/MOL
REMARK 923 INTER-LIGAND FREE ENERGY PREDICTED BY IDOCK:   -8.99 KCAL/MOL
REMARK 924 INTRA-LIGAND FREE ENERGY PREDICTED BY IDOCK:   -1.23 KCAL/MOL
REMARK 927      BINDING AFFINITY PREDICTED BY RF-SCORE:    0.00 PKD
ROOT
HETATM    1  C   UNL     1     -10.593   7.667  70.565  1.00  0.00    -0.226 C  
HETATM    2  N   UNL     1     -11.752   8.421  70.982  1.00  0.00    -0.277 N  
HETATM    3  C   UNL     1     -12.854   7.831  71.555  1.00  0.00    -0.329 C  
HETATM    4  O   UNL     1     -13.025   6.658  71.842  1.00  0.00    -0.306 OA 
HETATM    5  N   UNL     1     -13.759   8.861  71.753  1.00  0.00    -0.404 NA 
HETATM    6  N   UNL     1     -13.226  10.050  71.354  1.00  0.00    -0.396 NA 
HETATM    7  C   UNL     1     -12.035   9.737  70.916  1.00  0.00    -0.328 C  
ENDROOT
BRANCH   7   8
HETATM    8  C   UNL     1     -11.059  10.825  70.505  1.00  0.00     0.017 C  
BRANCH   8   9
HETATM    9  N   UNL     1     -11.161  11.500  69.215  1.00  0.00    -0.249 N  
HETATM   10  C   UNL     1     -11.130  10.790  68.026  1.00  0.00    -0.299 C  
HETATM   11  C   UNL     1     -11.504  11.376  66.877  1.00  0.00    -0.198 C  
HETATM   12  C   UNL     1     -11.790  12.808  66.835  1.00  0.00    -0.440 C  
HETATM   13  C   UNL     1     -12.186  13.443  65.538  1.00  0.00    -0.455 C  
HETATM   14  C   UNL     1     -11.724  13.536  67.968  1.00  0.00    -0.359 C  
HETATM   15  C   UNL     1     -11.797  12.745  69.236  1.00  0.00    -0.303 C  
HETATM   16  F   UNL     1     -12.381  12.534  64.546  1.00  0.00    -0.440 F  
HETATM   17  F   UNL     1     -13.357  14.125  65.656  1.00  0.00    -0.541 F  
HETATM   18  O   UNL     1     -12.389  13.191  70.214  1.00  0.00    -0.310 OA 
HETATM   19  F   UNL     1     -11.259  14.323  65.084  1.00  0.00    -0.301 F  
BRANCH  14  20
HETATM   20  O   UNL     1     -11.831  14.922  67.961  1.00  0.00    -0.333 OA 
BRANCH  20  21
HETATM   21  C   UNL     1     -10.734  15.762  68.014  1.00  0.00    -0.296 A  
HETATM   22  C   UNL     1     -10.909  16.986  67.341  1.00  0.00    -0.165 A  
HETATM   23  C   UNL     1      -9.909  17.973  67.345  1.00  0.00    -0.309 A  
HETATM   24  C   UNL     1      -8.715  17.735  68.031  1.00  0.00    -0.251 A  
HETATM   25  C   UNL     1     -10.111  19.219  66.649  1.00  0.00    -0.399 C  
HETATM   26  C   UNL     1      -8.522  16.507  68.665  1.00  0.00    -0.243 A  
HETATM   27  N   UNL     1     -10.268  20.214  66.077  1.00  0.00    -0.443 NA 
HETATM   28 CL   UNL     1      -7.049  16.208  69.509  1.00  0.00    -0.207 Cl 
HETATM   29  C   UNL     1      -9.512  15.512  68.638  1.00  0.00    -0.204 A  
ENDBRANCH  20  21
ENDBRANCH  14  20
ENDBRANCH   8   9
ENDBRANCH   7   8
TORSDOF 4
ENDMDL
MODEL       15
REMARK 921   NORMALIZED FREE ENERGY PREDICTED BY IDOCK:   -7.58 KCAL/MOL
REMARK 922        TOTAL FREE ENERGY PREDICTED BY IDOCK:  -10.19 KCAL/MOL
REMARK 923 INTER-LIGAND FREE ENERGY PREDICTED BY IDOCK:   -9.04 KCAL/MOL
REMARK 924 INTRA-LIGAND FREE ENERGY PREDICTED BY IDOCK:   -1.15 KCAL/MOL
REMARK 927      BINDING AFFINITY PREDICTED BY RF-SCORE:    0.00 PKD
ROOT
HETATM    1  C   UNL     1     -10.185   8.083  71.593  1.00  0.00    -0.202 C  
HETATM    2  N   UNL     1      -9.189   8.881  70.917  1.00  0.00    -0.209 N  
HETATM    3  C   UNL     1      -7.946   9.125  71.451  1.00  0.00     0.059 C  
HETATM    4  O   UNL     1      -7.470   8.704  72.492  1.00  0.00    -0.300 OA 
HETATM    5  N   UNL     1      -7.318   9.965  70.546  1.00  0.00    -0.279 NA 
HETATM    6  N   UNL     1      -8.124  10.202  69.474  1.00  0.00    -0.159 NA 
HETATM    7  C   UNL     1      -9.214   9.532  69.737  1.00  0.00    -0.208 C  
ENDROOT
BRANCH   7   8
HETATM    8  C   UNL     1     -10.320   9.429  68.701  1.00  0.00    -0.203 C  
BRANCH   8   9
HETATM    9  N   UNL     1     -10.420  10.371  67.591  1.00  0.00    -0.215 N  
HETATM   10  C   UNL     1      -9.859  10.091  66.356  1.00  0.00    -0.224 C  
HETATM   11  C   UNL     1     -10.194  10.820  65.278  1.00  0.00    -0.351 C  
HETATM   12  C   UNL     1     -11.023  12.013  65.421  1.00  0.00    -0.347 C  
HETATM   13  C   UNL     1     -11.368  12.822  64.207  1.00  0.00    -0.367 C  
HETATM   14  C   UNL     1     -11.495  12.359  66.636  1.00  0.00    -0.370 C  
HETATM   15  C   UNL     1     -11.499  11.260  67.651  1.00  0.00    -0.264 C  
HETATM   16  F   UNL     1     -10.966  12.229  63.051  1.00  0.00    -0.435 F  
HETATM   17  F   UNL     1     -12.712  12.995  64.092  1.00  0.00    -0.387 F  
HETATM   18  O   UNL     1     -12.409  11.171  68.469  1.00  0.00    -0.561 OA 
HETATM   19  F   UNL     1     -10.809  14.057  64.228  1.00  0.00    -0.382 F  
BRANCH  14  20
HETATM   20  O   UNL     1     -12.155  13.562  66.856  1.00  0.00    -0.390 OA 
BRANCH  20  21
HETATM   21  C   UNL     1     -11.630  14.576  67.636  1.00  0.00    -0.378 A  
HETATM   22  C   UNL     1     -10.900  15.542  66.916  1.00  0.00    -0.301 A  
HETATM   23  C   UNL     1     -10.347  16.665  67.552  1.00  0.00    -0.294 A  
HETATM   24  C   UNL     1     -10.524  16.828  68.929  1.00  0.00    -0.332 A  
HETATM   25  C   UNL     1      -9.603  17.640  66.795  1.00  0.00    -0.294 C  
HETATM   26  C   UNL     1     -11.211  15.853  69.652  1.00  0.00    -0.331 A  
HETATM   27  N   UNL     1      -8.993  18.416  66.187  1.00  0.00    -0.494 NA 
HETATM   28 CL   UNL     1     -11.428  16.050  71.351  1.00  0.00    -0.475 Cl 
HETATM   29  C   UNL     1     -11.741  14.718  69.018  1.00  0.00    -0.343 A  
ENDBRANCH  20  21
ENDBRANCH  14  20
ENDBRANCH   8   9
ENDBRANCH   7   8
TORSDOF 4
ENDMDL
MODEL       16
REMARK 921   NORMALIZED FREE ENERGY PREDICTED BY IDOCK:   -7.57 KCAL/MOL
REMARK 922        TOTAL FREE ENERGY PREDICTED BY IDOCK:  -10.17 KCAL/MOL
REMARK 923 INTER-LIGAND FREE ENERGY PREDICTED BY IDOCK:   -9.15 KCAL/MOL
REMARK 924 INTRA-LIGAND FREE ENERGY PREDICTED BY IDOCK:   -1.02 KCAL/MOL
REMARK 927      BINDING AFFINITY PREDICTED BY RF-SCORE:    0.00 PKD
ROOT
HETATM    1  C   UNL     1     -12.420  12.149  70.810  1.00  0.00    -0.271 C  
HETATM    2  N   UNL     1     -12.642  13.576  70.844  1.00  0.00    -0.352 N  
HETATM    3  C   UNL     1     -13.517  14.170  71.722  1.00  0.00    -0.390 C  
HETATM    4  O   UNL     1     -14.181  13.648  72.602  1.00  0.00    -0.735 OA 
HETATM    5  N   UNL     1     -13.495  15.518  71.405  1.00  0.00    -0.513 NA 
HETATM    6  N   UNL     1     -12.611  15.758  70.397  1.00  0.00    -0.352 NA 
HETATM    7  C   UNL     1     -12.126  14.579  70.107  1.00  0.00    -0.334 C  
ENDROOT
BRANCH   7   8
HETATM    8  C   UNL     1     -10.990  14.442  69.109  1.00  0.00    -0.265 C  
BRANCH   8   9
HETATM    9  N   UNL     1     -11.184  13.810  67.808  1.00  0.00    -0.278 N  
HETATM   10  C   UNL     1     -12.104  14.305  66.897  1.00  0.00    -0.409 C  
HETATM   11  C   UNL     1     -12.074  13.900  65.616  1.00  0.00    -0.442 C  
HETATM   12  C   UNL     1     -11.186  12.817  65.203  1.00  0.00    -0.327 C  
HETATM   13  C   UNL     1     -11.185  12.369  63.773  1.00  0.00    -0.453 C  
HETATM   14  C   UNL     1     -10.355  12.253  66.102  1.00  0.00    -0.242 C  
HETATM   15  C   UNL     1     -10.097  13.071  67.329  1.00  0.00    -0.235 C  
HETATM   16  F   UNL     1     -11.943  13.166  62.974  1.00  0.00    -0.595 F  
HETATM   17  F   UNL     1      -9.931  12.394  63.246  1.00  0.00    -0.387 F  
HETATM   18  O   UNL     1      -8.989  13.073  67.854  1.00  0.00    -0.182 OA 
HETATM   19  F   UNL     1     -11.654  11.106  63.623  1.00  0.00    -0.396 F  
BRANCH  14  20
HETATM   20  O   UNL     1      -9.604  11.122  65.806  1.00  0.00    -0.204 OA 
BRANCH  20  21
HETATM   21  C   UNL     1      -9.738   9.929  66.492  1.00  0.00    -0.204 A  
HETATM   22  C   UNL     1      -9.235   8.807  65.805  1.00  0.00    -0.269 A  
HETATM   23  C   UNL     1      -9.246   7.528  66.387  1.00  0.00    -0.212 A  
HETATM   24  C   UNL     1      -9.767   7.366  67.674  1.00  0.00    -0.178 A  
HETATM   25  C   UNL     1      -8.726   6.394  65.665  1.00  0.00    -0.099 C  
HETATM   26  C   UNL     1     -10.303   8.468  68.340  1.00  0.00    -0.202 A  
HETATM   27  N   UNL     1      -8.321   5.480  65.078  1.00  0.00    -0.143 NA 
HETATM   28 CL   UNL     1     -10.950   8.270  69.926  1.00  0.00    -0.212 Cl 
HETATM   29  C   UNL     1     -10.314   9.740  67.747  1.00  0.00    -0.274 A  
ENDBRANCH  20  21
ENDBRANCH  14  20
ENDBRANCH   8   9
ENDBRANCH   7   8
TORSDOF 4
ENDMDL
MODEL       17
REMARK 921   NORMALIZED FREE ENERGY PREDICTED BY IDOCK:   -7.55 KCAL/MOL
REMARK 922        TOTAL FREE ENERGY PREDICTED BY IDOCK:  -10.16 KCAL/MOL
REMARK 923 INTER-LIGAND FREE ENERGY PREDICTED BY IDOCK:   -9.03 KCAL/MOL
REMARK 924 INTRA-LIGAND FREE ENERGY PREDICTED BY IDOCK:   -1.13 KCAL/MOL
REMARK 927      BINDING AFFINITY PREDICTED BY RF-SCORE:    0.00 PKD
ROOT
HETATM    1  C   UNL     1     -10.906   7.609  70.184  1.00  0.00    -0.248 C  
HETATM    2  N   UNL     1     -11.856   8.466  70.853  1.00  0.00    -0.259 N  
HETATM    3  C   UNL     1     -12.915   7.975  71.581  1.00  0.00    -0.328 C  
HETATM    4  O   UNL     1     -13.198   6.813  71.820  1.00  0.00    -0.316 OA 
HETATM    5  N   UNL     1     -13.616   9.091  72.005  1.00  0.00    -0.415 NA 
HETATM    6  N   UNL     1     -12.996  10.232  71.590  1.00  0.00    -0.430 NA 
HETATM    7  C   UNL     1     -11.956   9.808  70.922  1.00  0.00    -0.328 C  
ENDROOT
BRANCH   7   8
HETATM    8  C   UNL     1     -10.921  10.793  70.409  1.00  0.00     0.020 C  
BRANCH   8   9
HETATM    9  N   UNL     1     -11.071  11.460  69.119  1.00  0.00    -0.242 N  
HETATM   10  C   UNL     1     -11.080  10.743  67.934  1.00  0.00    -0.308 C  
HETATM   11  C   UNL     1     -11.497  11.321  66.795  1.00  0.00    -0.077 C  
HETATM   12  C   UNL     1     -11.788  12.751  66.755  1.00  0.00    -0.452 C  
HETATM   13  C   UNL     1     -12.232  13.378  65.469  1.00  0.00    -0.455 C  
HETATM   14  C   UNL     1     -11.684  13.487  67.881  1.00  0.00    -0.357 C  
HETATM   15  C   UNL     1     -11.710  12.704  69.155  1.00  0.00    -0.321 C  
HETATM   16  F   UNL     1     -12.459  12.462  64.490  1.00  0.00    -0.478 F  
HETATM   17  F   UNL     1     -13.400  14.057  65.625  1.00  0.00    -0.522 F  
HETATM   18  O   UNL     1     -12.268  13.153  70.151  1.00  0.00    -0.329 OA 
HETATM   19  F   UNL     1     -11.325  14.258  64.977  1.00  0.00    -0.315 F  
BRANCH  14  20
HETATM   20  O   UNL     1     -11.796  14.873  67.869  1.00  0.00    -0.338 OA 
BRANCH  20  21
HETATM   21  C   UNL     1     -10.719  15.716  68.070  1.00  0.00    -0.287 A  
HETATM   22  C   UNL     1      -9.466  15.121  67.833  1.00  0.00    -0.194 A  
HETATM   23  C   UNL     1      -8.274  15.857  67.941  1.00  0.00    -0.151 A  
HETATM   24  C   UNL     1      -8.334  17.209  68.290  1.00  0.00    -0.232 A  
HETATM   25  C   UNL     1      -7.002  15.226  67.694  1.00  0.00    -0.185 C  
HETATM   26  C   UNL     1      -9.571  17.792  68.565  1.00  0.00    -0.322 A  
HETATM   27  N   UNL     1      -5.978  14.714  67.510  1.00  0.00    -0.349 NA 
HETATM   28 CL   UNL     1      -9.648  19.458  69.000  1.00  0.00    -0.459 Cl 
HETATM   29  C   UNL     1     -10.758  17.047  68.482  1.00  0.00    -0.352 A  
ENDBRANCH  20  21
ENDBRANCH  14  20
ENDBRANCH   8   9
ENDBRANCH   7   8
TORSDOF 4
ENDMDL
MODEL       18
REMARK 921   NORMALIZED FREE ENERGY PREDICTED BY IDOCK:   -7.51 KCAL/MOL
REMARK 922        TOTAL FREE ENERGY PREDICTED BY IDOCK:  -10.10 KCAL/MOL
REMARK 923 INTER-LIGAND FREE ENERGY PREDICTED BY IDOCK:   -8.82 KCAL/MOL
REMARK 924 INTRA-LIGAND FREE ENERGY PREDICTED BY IDOCK:   -1.28 KCAL/MOL
REMARK 927      BINDING AFFINITY PREDICTED BY RF-SCORE:    0.00 PKD
ROOT
HETATM    1  C   UNL     1     -10.676  16.412  65.452  1.00  0.00    -0.296 C  
HETATM    2  N   UNL     1     -10.004  16.805  66.668  1.00  0.00    -0.280 N  
HETATM    3  C   UNL     1      -8.806  17.479  66.669  1.00  0.00    -0.262 C  
HETATM    4  O   UNL     1      -8.160  17.883  65.717  1.00  0.00    -0.537 OA 
HETATM    5  N   UNL     1      -8.464  17.616  68.005  1.00  0.00    -0.238 NA 
HETATM    6  N   UNL     1      -9.432  17.084  68.803  1.00  0.00    -0.267 NA 
HETATM    7  C   UNL     1     -10.325  16.627  67.965  1.00  0.00    -0.303 C  
ENDROOT
BRANCH   7   8
HETATM    8  C   UNL     1     -11.644  16.073  68.475  1.00  0.00    -0.316 C  
BRANCH   8   9
HETATM    9  N   UNL     1     -11.715  14.811  69.204  1.00  0.00    -0.297 N  
HETATM   10  C   UNL     1     -12.036  14.773  70.551  1.00  0.00    -0.315 C  
HETATM   11  C   UNL     1     -12.373  13.612  71.136  1.00  0.00    -0.403 C  
HETATM   12  C   UNL     1     -12.247  12.353  70.406  1.00  0.00    -0.370 C  
HETATM   13  C   UNL     1     -12.610  11.068  71.085  1.00  0.00    -0.418 C  
HETATM   14  C   UNL     1     -11.837  12.362  69.122  1.00  0.00    -0.300 C  
HETATM   15  C   UNL     1     -11.967  13.679  68.423  1.00  0.00    -0.356 C  
HETATM   16  F   UNL     1     -13.177  11.261  72.305  1.00  0.00    -0.590 F  
HETATM   17  F   UNL     1     -13.518  10.362  70.358  1.00  0.00    -0.360 F  
HETATM   18  O   UNL     1     -12.281  13.725  67.238  1.00  0.00    -0.375 OA 
HETATM   19  F   UNL     1     -11.539  10.258  71.276  1.00  0.00    -0.409 F  
BRANCH  14  20
HETATM   20  O   UNL     1     -11.550  11.190  68.431  1.00  0.00    -0.298 OA 
BRANCH  20  21
HETATM   21  C   UNL     1     -10.362  10.988  67.751  1.00  0.00    -0.188 A  
HETATM   22  C   UNL     1     -10.505  10.883  66.355  1.00  0.00    -0.307 A  
HETATM   23  C   UNL     1      -9.390  10.730  65.515  1.00  0.00    -0.242 A  
HETATM   24  C   UNL     1      -8.111  10.681  66.077  1.00  0.00    -0.159 A  
HETATM   25  C   UNL     1      -9.560  10.624  64.088  1.00  0.00    -0.300 C  
HETATM   26  C   UNL     1      -7.969  10.744  67.464  1.00  0.00    -0.110 A  
HETATM   27  N   UNL     1      -9.699  10.525  62.941  1.00  0.00    -0.310 NA 
HETATM   28 CL   UNL     1      -6.394  10.679  68.161  1.00  0.00    -0.057 Cl 
HETATM   29  C   UNL     1      -9.087  10.871  68.303  1.00  0.00    -0.158 A  
ENDBRANCH  20  21
ENDBRANCH  14  20
ENDBRANCH   8   9
ENDBRANCH   7   8
TORSDOF 4
ENDMDL
MODEL       19
REMARK 921   NORMALIZED FREE ENERGY PREDICTED BY IDOCK:   -7.48 KCAL/MOL
REMARK 922        TOTAL FREE ENERGY PREDICTED BY IDOCK:  -10.07 KCAL/MOL
REMARK 923 INTER-LIGAND FREE ENERGY PREDICTED BY IDOCK:   -8.90 KCAL/MOL
REMARK 924 INTRA-LIGAND FREE ENERGY PREDICTED BY IDOCK:   -1.17 KCAL/MOL
REMARK 927      BINDING AFFINITY PREDICTED BY RF-SCORE:    0.00 PKD
ROOT
HETATM    1  C   UNL     1     -10.660   8.621  71.955  1.00  0.00    -0.340 C  
HETATM    2  N   UNL     1      -9.496   9.006  71.191  1.00  0.00    -0.265 N  
HETATM    3  C   UNL     1      -8.233   9.039  71.732  1.00  0.00     0.143 C  
HETATM    4  O   UNL     1      -7.878   8.726  72.856  1.00  0.00    -0.381 OA 
HETATM    5  N   UNL     1      -7.414   9.509  70.718  1.00  0.00    -0.265 NA 
HETATM    6  N   UNL     1      -8.134   9.720  69.581  1.00  0.00    -0.137 NA 
HETATM    7  C   UNL     1      -9.357   9.399  69.910  1.00  0.00    -0.214 C  
ENDROOT
BRANCH   7   8
HETATM    8  C   UNL     1     -10.451   9.368  68.858  1.00  0.00    -0.216 C  
BRANCH   8   9
HETATM    9  N   UNL     1     -10.459  10.297  67.732  1.00  0.00    -0.208 N  
HETATM   10  C   UNL     1      -9.836   9.983  66.535  1.00  0.00    -0.210 C  
HETATM   11  C   UNL     1     -10.086  10.706  65.431  1.00  0.00    -0.356 C  
HETATM   12  C   UNL     1     -10.885  11.925  65.510  1.00  0.00    -0.343 C  
HETATM   13  C   UNL     1     -11.134  12.726  64.269  1.00  0.00    -0.370 C  
HETATM   14  C   UNL     1     -11.416  12.302  66.691  1.00  0.00    -0.373 C  
HETATM   15  C   UNL     1     -11.511  11.218  67.718  1.00  0.00    -0.275 C  
HETATM   16  F   UNL     1     -10.685  12.106  63.146  1.00  0.00    -0.431 F  
HETATM   17  F   UNL     1     -12.464  12.937  64.073  1.00  0.00    -0.439 F  
HETATM   18  O   UNL     1     -12.469  11.168  68.484  1.00  0.00    -0.452 OA 
HETATM   19  F   UNL     1     -10.540  13.944  64.306  1.00  0.00    -0.413 F  
BRANCH  14  20
HETATM   20  O   UNL     1     -12.050  13.528  66.858  1.00  0.00    -0.390 OA 
BRANCH  20  21
HETATM   21  C   UNL     1     -11.495  14.571  67.576  1.00  0.00    -0.356 A  
HETATM   22  C   UNL     1     -11.991  14.699  68.888  1.00  0.00    -0.309 A  
HETATM   23  C   UNL     1     -11.492  15.675  69.766  1.00  0.00    -0.346 A  
HETATM   24  C   UNL     1     -10.482  16.537  69.330  1.00  0.00    -0.326 A  
HETATM   25  C   UNL     1     -12.015  15.788  71.104  1.00  0.00    -0.423 C  
HETATM   26  C   UNL     1     -10.017  16.439  68.018  1.00  0.00    -0.242 A  
HETATM   27  N   UNL     1     -12.447  15.887  72.176  1.00  0.00    -0.447 NA 
HETATM   28 CL   UNL     1      -8.774  17.504  67.475  1.00  0.00    -0.224 Cl 
HETATM   29  C   UNL     1     -10.535  15.480  67.134  1.00  0.00    -0.286 A  
ENDBRANCH  20  21
ENDBRANCH  14  20
ENDBRANCH   8   9
ENDBRANCH   7   8
TORSDOF 4
ENDMDL
MODEL       20
REMARK 921   NORMALIZED FREE ENERGY PREDICTED BY IDOCK:   -7.43 KCAL/MOL
REMARK 922        TOTAL FREE ENERGY PREDICTED BY IDOCK:  -10.01 KCAL/MOL
REMARK 923 INTER-LIGAND FREE ENERGY PREDICTED BY IDOCK:   -8.96 KCAL/MOL
REMARK 924 INTRA-LIGAND FREE ENERGY PREDICTED BY IDOCK:   -1.05 KCAL/MOL
REMARK 927      BINDING AFFINITY PREDICTED BY RF-SCORE:    0.00 PKD
ROOT
HETATM    1  C   UNL     1      -6.133  16.266  67.131  1.00  0.00    -0.113 C  
HETATM    2  N   UNL     1      -7.059  17.219  66.566  1.00  0.00    -0.237 N  
HETATM    3  C   UNL     1      -6.670  18.463  66.128  1.00  0.00    -0.244 C  
HETATM    4  O   UNL     1      -5.547  18.938  66.091  1.00  0.00    -0.150 OA 
HETATM    5  N   UNL     1      -7.836  19.090  65.721  1.00  0.00    -0.456 NA 
HETATM    6  N   UNL     1      -8.903  18.254  65.863  1.00  0.00    -0.467 NA 
HETATM    7  C   UNL     1      -8.389  17.159  66.357  1.00  0.00    -0.280 C  
ENDROOT
BRANCH   7   8
HETATM    8  C   UNL     1      -9.250  15.919  66.532  1.00  0.00    -0.279 C  
BRANCH   8   9
HETATM    9  N   UNL     1      -9.954  15.645  67.780  1.00  0.00    -0.222 N  
HETATM   10  C   UNL     1      -9.823  16.477  68.880  1.00  0.00    -0.260 C  
HETATM   11  C   UNL     1     -10.679  16.379  69.910  1.00  0.00    -0.300 C  
HETATM   12  C   UNL     1     -11.653  15.293  69.962  1.00  0.00    -0.331 C  
HETATM   13  C   UNL     1     -12.585  15.192  71.131  1.00  0.00    -0.367 C  
HETATM   14  C   UNL     1     -11.726  14.411  68.945  1.00  0.00    -0.322 C  
HETATM   15  C   UNL     1     -11.113  14.872  67.660  1.00  0.00    -0.311 C  
HETATM   16  F   UNL     1     -12.498  16.263  71.964  1.00  0.00    -0.483 F  
HETATM   17  F   UNL     1     -13.883  15.136  70.728  1.00  0.00    -0.398 F  
HETATM   18  O   UNL     1     -11.624  14.574  66.585  1.00  0.00    -0.360 OA 
HETATM   19  F   UNL     1     -12.356  14.090  71.886  1.00  0.00    -0.384 F  
BRANCH  14  20
HETATM   20  O   UNL     1     -12.522  13.272  69.011  1.00  0.00    -0.053 OA 
BRANCH  20  21
HETATM   21  C   UNL     1     -12.005  12.003  69.195  1.00  0.00    -0.268 A  
HETATM   22  C   UNL     1     -11.466  11.423  68.032  1.00  0.00    -0.377 A  
HETATM   23  C   UNL     1     -10.855  10.158  68.061  1.00  0.00    -0.320 A  
HETATM   24  C   UNL     1     -10.779   9.462  69.270  1.00  0.00    -0.228 A  
HETATM   25  C   UNL     1     -10.310   9.583  66.857  1.00  0.00    -0.237 C  
HETATM   26  C   UNL     1     -11.348  10.017  70.417  1.00  0.00    -0.320 A  
HETATM   27  N   UNL     1      -9.885   9.116  65.884  1.00  0.00    -0.282 NA 
HETATM   28 CL   UNL     1     -11.260   9.159  71.910  1.00  0.00    -0.440 Cl 
HETATM   29  C   UNL     1     -11.982  11.268  70.380  1.00  0.00    -0.471 A  
ENDBRANCH  20  21
ENDBRANCH  14  20
ENDBRANCH   8   9
ENDBRANCH   7   8
TORSDOF 4
ENDMDL
MODEL       21
REMARK 921   NORMALIZED FREE ENERGY PREDICTED BY IDOCK:   -7.39 KCAL/MOL
REMARK 922        TOTAL FREE ENERGY PREDICTED BY IDOCK:   -9.96 KCAL/MOL
REMARK 923 INTER-LIGAND FREE ENERGY PREDICTED BY IDOCK:   -8.67 KCAL/MOL
REMARK 924 INTRA-LIGAND FREE ENERGY PREDICTED BY IDOCK:   -1.29 KCAL/MOL
REMARK 927      BINDING AFFINITY PREDICTED BY RF-SCORE:    0.00 PKD
ROOT
HETATM    1  C   UNL     1     -10.889  15.464  66.912  1.00  0.00    -0.313 C  
HETATM    2  N   UNL     1     -11.569  14.973  65.736  1.00  0.00    -0.239 N  
HETATM    3  C   UNL     1     -11.660  15.700  64.573  1.00  0.00    -0.262 C  
HETATM    4  O   UNL     1     -11.177  16.790  64.319  1.00  0.00    -1.163 OA 
HETATM    5  N   UNL     1     -12.427  14.927  63.717  1.00  0.00    -0.698 NA 
HETATM    6  N   UNL     1     -12.766  13.749  64.311  1.00  0.00    -0.653 NA 
HETATM    7  C   UNL     1     -12.227  13.821  65.500  1.00  0.00    -0.442 C  
ENDROOT
BRANCH   7   8
HETATM    8  C   UNL     1     -12.265  12.623  66.433  1.00  0.00    -0.104 C  
BRANCH   8   9
HETATM    9  N   UNL     1     -11.056  11.882  66.777  1.00  0.00    -0.292 N  
HETATM   10  C   UNL     1     -10.045  11.680  65.851  1.00  0.00    -0.230 C  
HETATM   11  C   UNL     1      -8.836  11.253  66.250  1.00  0.00    -0.194 C  
HETATM   12  C   UNL     1      -8.617  10.839  67.633  1.00  0.00    -0.123 C  
HETATM   13  C   UNL     1      -7.264  10.347  68.050  1.00  0.00    -0.084 C  
HETATM   14  C   UNL     1      -9.622  10.932  68.527  1.00  0.00    -0.187 C  
HETATM   15  C   UNL     1     -10.733  11.856  68.138  1.00  0.00    -0.215 C  
HETATM   16  F   UNL     1      -6.329  10.494  67.074  1.00  0.00    -0.064 F  
HETATM   17  F   UNL     1      -6.796  11.036  69.125  1.00  0.00    -0.061 F  
HETATM   18  O   UNL     1     -11.302  12.536  68.986  1.00  0.00    -0.257 OA 
HETATM   19  F   UNL     1      -7.269   9.034  68.391  1.00  0.00    -0.072 F  
BRANCH  14  20
HETATM   20  O   UNL     1      -9.518  10.410  69.811  1.00  0.00    -0.154 OA 
BRANCH  20  21
HETATM   21  C   UNL     1     -10.392   9.462  70.311  1.00  0.00    -0.245 A  
HETATM   22  C   UNL     1     -10.044   8.133  70.001  1.00  0.00    -0.196 A  
HETATM   23  C   UNL     1     -10.799   7.049  70.478  1.00  0.00    -0.279 A  
HETATM   24  C   UNL     1     -11.919   7.294  71.278  1.00  0.00    -0.359 A  
HETATM   25  C   UNL     1     -10.424   5.697  70.148  1.00  0.00    -0.296 C  
HETATM   26  C   UNL     1     -12.289   8.610  71.554  1.00  0.00    -0.324 A  
HETATM   27  N   UNL     1     -10.130   4.611  69.869  1.00  0.00    -0.235 NA 
HETATM   28 CL   UNL     1     -13.673   8.916  72.537  1.00  0.00    -0.490 Cl 
HETATM   29  C   UNL     1     -11.549   9.693  71.054  1.00  0.00    -0.436 A  
ENDBRANCH  20  21
ENDBRANCH  14  20
ENDBRANCH   8   9
ENDBRANCH   7   8
TORSDOF 4
ENDMDL
MODEL       22
REMARK 921   NORMALIZED FREE ENERGY PREDICTED BY IDOCK:   -7.39 KCAL/MOL
REMARK 922        TOTAL FREE ENERGY PREDICTED BY IDOCK:   -9.95 KCAL/MOL
REMARK 923 INTER-LIGAND FREE ENERGY PREDICTED BY IDOCK:   -8.89 KCAL/MOL
REMARK 924 INTRA-LIGAND FREE ENERGY PREDICTED BY IDOCK:   -1.07 KCAL/MOL
REMARK 927      BINDING AFFINITY PREDICTED BY RF-SCORE:    0.00 PKD
ROOT
HETATM    1  C   UNL     1      -8.814  11.893  66.301  1.00  0.00    -0.111 C  
HETATM    2  N   UNL     1      -9.732  11.925  65.187  1.00  0.00    -0.216 N  
HETATM    3  C   UNL     1     -10.061  10.804  64.463  1.00  0.00    -0.350 C  
HETATM    4  O   UNL     1      -9.704   9.652  64.643  1.00  0.00    -0.202 OA 
HETATM    5  N   UNL     1     -10.905  11.250  63.459  1.00  0.00    -0.359 NA 
HETATM    6  N   UNL     1     -11.124  12.590  63.580  1.00  0.00    -0.462 NA 
HETATM    7  C   UNL     1     -10.417  12.939  64.621  1.00  0.00    -0.363 C  
ENDROOT
BRANCH   7   8
HETATM    8  C   UNL     1     -10.507  14.352  65.171  1.00  0.00    -0.415 C  
BRANCH   8   9
HETATM    9  N   UNL     1     -10.643  14.611  66.601  1.00  0.00    -0.284 N  
HETATM   10  C   UNL     1     -10.013  15.689  67.201  1.00  0.00    -0.240 C  
HETATM   11  C   UNL     1     -10.366  16.078  68.437  1.00  0.00    -0.251 C  
HETATM   12  C   UNL     1     -11.297  15.277  69.227  1.00  0.00    -0.308 C  
HETATM   13  C   UNL     1     -11.660  15.720  70.611  1.00  0.00    -0.390 C  
HETATM   14  C   UNL     1     -11.842  14.165  68.694  1.00  0.00    -0.348 C  
HETATM   15  C   UNL     1     -11.793  14.087  67.201  1.00  0.00    -0.411 C  
HETATM   16  F   UNL     1     -11.167  16.950  70.915  1.00  0.00    -0.280 F  
HETATM   17  F   UNL     1     -13.009  15.809  70.765  1.00  0.00    -0.488 F  
HETATM   18  O   UNL     1     -12.723  13.592  66.572  1.00  0.00    -0.217 OA 
HETATM   19  F   UNL     1     -11.207  14.871  71.567  1.00  0.00    -0.368 F  
BRANCH  14  20
HETATM   20  O   UNL     1     -12.607  13.283  69.449  1.00  0.00     0.003 OA 
BRANCH  20  21
HETATM   21  C   UNL     1     -12.146  12.045  69.856  1.00  0.00    -0.263 A  
HETATM   22  C   UNL     1     -12.994  11.381  70.763  1.00  0.00    -0.135 A  
HETATM   23  C   UNL     1     -12.696  10.091  71.232  1.00  0.00    -0.500 A  
HETATM   24  C   UNL     1     -11.535   9.452  70.789  1.00  0.00    -0.364 A  
HETATM   25  C   UNL     1     -13.579   9.431  72.161  1.00  0.00    -0.457 C  
HETATM   26  C   UNL     1     -10.673  10.123  69.921  1.00  0.00    -0.295 A  
HETATM   27  N   UNL     1     -14.282   8.907  72.919  1.00  0.00    -0.435 NA 
HETATM   28 CL   UNL     1      -9.237   9.339  69.376  1.00  0.00    -0.153 Cl 
HETATM   29  C   UNL     1     -10.958  11.422  69.475  1.00  0.00    -0.226 A  
ENDBRANCH  20  21
ENDBRANCH  14  20
ENDBRANCH   8   9
ENDBRANCH   7   8
TORSDOF 4
ENDMDL
MODEL       23
REMARK 921   NORMALIZED FREE ENERGY PREDICTED BY IDOCK:   -7.38 KCAL/MOL
REMARK 922        TOTAL FREE ENERGY PREDICTED BY IDOCK:   -9.94 KCAL/MOL
REMARK 923 INTER-LIGAND FREE ENERGY PREDICTED BY IDOCK:   -9.06 KCAL/MOL
REMARK 924 INTRA-LIGAND FREE ENERGY PREDICTED BY IDOCK:   -0.88 KCAL/MOL
REMARK 927      BINDING AFFINITY PREDICTED BY RF-SCORE:    0.00 PKD
ROOT
HETATM    1  C   UNL     1      -7.934  10.264  64.819  1.00  0.00    -0.141 C  
HETATM    2  N   UNL     1      -9.067  11.144  64.653  1.00  0.00    -0.126 N  
HETATM    3  C   UNL     1      -9.658  11.371  63.432  1.00  0.00    -0.329 C  
HETATM    4  O   UNL     1      -9.388  10.871  62.353  1.00  0.00    -0.266 OA 
HETATM    5  N   UNL     1     -10.652  12.304  63.675  1.00  0.00    -0.444 NA 
HETATM    6  N   UNL     1     -10.704  12.615  65.000  1.00  0.00    -0.284 NA 
HETATM    7  C   UNL     1      -9.754  11.896  65.536  1.00  0.00    -0.215 C  
ENDROOT
BRANCH   7   8
HETATM    8  C   UNL     1      -9.579  11.857  67.044  1.00  0.00    -0.189 C  
BRANCH   8   9
HETATM    9  N   UNL     1     -10.407  12.666  67.933  1.00  0.00    -0.213 N  
HETATM   10  C   UNL     1     -11.515  12.132  68.571  1.00  0.00    -0.300 C  
HETATM   11  C   UNL     1     -12.094  12.790  69.589  1.00  0.00    -0.286 C  
HETATM   12  C   UNL     1     -11.670  14.145  69.930  1.00  0.00    -0.372 C  
HETATM   13  C   UNL     1     -12.344  14.867  71.056  1.00  0.00    -0.324 C  
HETATM   14  C   UNL     1     -10.659  14.721  69.250  1.00  0.00    -0.240 C  
HETATM   15  C   UNL     1      -9.771  13.772  68.507  1.00  0.00    -0.193 C  
HETATM   16  F   UNL     1     -13.207  14.074  71.746  1.00  0.00    -0.375 F  
HETATM   17  F   UNL     1     -11.441  15.318  71.968  1.00  0.00    -0.414 F  
HETATM   18  O   UNL     1      -8.565  13.979  68.430  1.00  0.00    -0.170 OA 
HETATM   19  F   UNL     1     -13.054  15.942  70.636  1.00  0.00    -0.486 F  
BRANCH  14  20
HETATM   20  O   UNL     1     -10.319  16.058  69.425  1.00  0.00    -0.234 OA 
BRANCH  20  21
HETATM   21  C   UNL     1     -10.296  16.971  68.386  1.00  0.00    -0.351 A  
HETATM   22  C   UNL     1     -10.681  16.440  67.140  1.00  0.00    -0.233 A  
HETATM   23  C   UNL     1     -10.762  17.248  65.995  1.00  0.00    -0.110 A  
HETATM   24  C   UNL     1     -10.456  18.608  66.093  1.00  0.00    -0.473 A  
HETATM   25  C   UNL     1     -11.157  16.682  64.729  1.00  0.00    -0.110 C  
HETATM   26  C   UNL     1     -10.036  19.129  67.317  1.00  0.00    -0.376 A  
HETATM   27  N   UNL     1     -11.462  16.223  63.709  1.00  0.00    -0.842 NA 
HETATM   28 CL   UNL     1      -9.653  20.806  67.441  1.00  0.00    -0.564 Cl 
HETATM   29  C   UNL     1      -9.930  18.314  68.455  1.00  0.00    -0.401 A  
ENDBRANCH  20  21
ENDBRANCH  14  20
ENDBRANCH   8   9
ENDBRANCH   7   8
TORSDOF 4
ENDMDL
MODEL       24
REMARK 921   NORMALIZED FREE ENERGY PREDICTED BY IDOCK:   -7.35 KCAL/MOL
REMARK 922        TOTAL FREE ENERGY PREDICTED BY IDOCK:   -9.90 KCAL/MOL
REMARK 923 INTER-LIGAND FREE ENERGY PREDICTED BY IDOCK:   -8.78 KCAL/MOL
REMARK 924 INTRA-LIGAND FREE ENERGY PREDICTED BY IDOCK:   -1.12 KCAL/MOL
REMARK 927      BINDING AFFINITY PREDICTED BY RF-SCORE:    0.00 PKD
ROOT
HETATM    1  C   UNL     1      -8.316  19.640  66.135  1.00  0.00    -0.335 C  
HETATM    2  N   UNL     1      -7.487  18.483  66.380  1.00  0.00    -0.239 N  
HETATM    3  C   UNL     1      -6.137  18.575  66.624  1.00  0.00    -0.156 C  
HETATM    4  O   UNL     1      -5.450  19.577  66.721  1.00  0.00    -0.164 OA 
HETATM    5  N   UNL     1      -5.698  17.267  66.745  1.00  0.00    -0.175 NA 
HETATM    6  N   UNL     1      -6.740  16.398  66.622  1.00  0.00    -0.255 NA 
HETATM    7  C   UNL     1      -7.777  17.167  66.417  1.00  0.00    -0.310 C  
ENDROOT
BRANCH   7   8
HETATM    8  C   UNL     1      -9.174  16.573  66.365  1.00  0.00    -0.295 C  
BRANCH   8   9
HETATM    9  N   UNL     1      -9.869  16.143  67.574  1.00  0.00    -0.235 N  
HETATM   10  C   UNL     1      -9.805  16.883  68.744  1.00  0.00    -0.269 C  
HETATM   11  C   UNL     1     -10.662  16.637  69.749  1.00  0.00    -0.254 C  
HETATM   12  C   UNL     1     -11.560  15.487  69.690  1.00  0.00    -0.359 C  
HETATM   13  C   UNL     1     -12.493  15.221  70.832  1.00  0.00    -0.388 C  
HETATM   14  C   UNL     1     -11.563  14.694  68.600  1.00  0.00    -0.314 C  
HETATM   15  C   UNL     1     -10.971  15.307  67.369  1.00  0.00    -0.321 C  
HETATM   16  F   UNL     1     -12.488  16.218  71.757  1.00  0.00    -0.491 F  
HETATM   17  F   UNL     1     -13.781  15.113  70.406  1.00  0.00    -0.214 F  
HETATM   18  O   UNL     1     -11.450  15.071  66.265  1.00  0.00    -0.314 OA 
HETATM   19  F   UNL     1     -12.197  14.075  71.492  1.00  0.00    -0.381 F  
BRANCH  14  20
HETATM   20  O   UNL     1     -12.278  13.503  68.554  1.00  0.00    -0.320 OA 
BRANCH  20  21
HETATM   21  C   UNL     1     -11.673  12.265  68.442  1.00  0.00    -0.337 A  
HETATM   22  C   UNL     1     -11.635  11.529  69.642  1.00  0.00    -0.403 A  
HETATM   23  C   UNL     1     -11.101  10.230  69.686  1.00  0.00    -0.323 A  
HETATM   24  C   UNL     1     -10.598   9.657  68.515  1.00  0.00    -0.253 A  
HETATM   25  C   UNL     1     -11.073   9.495  70.925  1.00  0.00    -0.336 C  
HETATM   26  C   UNL     1     -10.596  10.399  67.334  1.00  0.00    -0.269 A  
HETATM   27  N   UNL     1     -11.038   8.910  71.926  1.00  0.00    -0.358 NA 
HETATM   28 CL   UNL     1      -9.971   9.696  65.889  1.00  0.00    -0.364 Cl 
HETATM   29  C   UNL     1     -11.106  11.706  67.298  1.00  0.00    -0.346 A  
ENDBRANCH  20  21
ENDBRANCH  14  20
ENDBRANCH   8   9
ENDBRANCH   7   8
TORSDOF 4
ENDMDL
MODEL       25
REMARK 921   NORMALIZED FREE ENERGY PREDICTED BY IDOCK:   -7.34 KCAL/MOL
REMARK 922        TOTAL FREE ENERGY PREDICTED BY IDOCK:   -9.89 KCAL/MOL
REMARK 923 INTER-LIGAND FREE ENERGY PREDICTED BY IDOCK:   -8.76 KCAL/MOL
REMARK 924 INTRA-LIGAND FREE ENERGY PREDICTED BY IDOCK:   -1.13 KCAL/MOL
REMARK 927      BINDING AFFINITY PREDICTED BY RF-SCORE:    0.00 PKD
ROOT
HETATM    1  C   UNL     1      -9.495  16.346  66.013  1.00  0.00    -0.310 C  
HETATM    2  N   UNL     1     -10.499  15.389  65.611  1.00  0.00    -0.344 N  
HETATM    3  C   UNL     1     -11.409  15.643  64.613  1.00  0.00    -0.349 C  
HETATM    4  O   UNL     1     -11.500  16.629  63.901  1.00  0.00    -1.186 OA 
HETATM    5  N   UNL     1     -12.227  14.526  64.569  1.00  0.00    -0.521 NA 
HETATM    6  N   UNL     1     -11.816  13.597  65.478  1.00  0.00    -0.345 NA 
HETATM    7  C   UNL     1     -10.786  14.151  66.061  1.00  0.00    -0.297 C  
ENDROOT
BRANCH   7   8
HETATM    8  C   UNL     1      -9.952  13.363  67.056  1.00  0.00    -0.246 C  
BRANCH   8   9
HETATM    9  N   UNL     1     -10.540  12.778  68.256  1.00  0.00    -0.232 N  
HETATM   10  C   UNL     1     -11.202  13.560  69.189  1.00  0.00    -0.260 C  
HETATM   11  C   UNL     1     -11.973  12.988  70.129  1.00  0.00    -0.374 C  
HETATM   12  C   UNL     1     -11.996  11.537  70.284  1.00  0.00    -0.455 C  
HETATM   13  C   UNL     1     -12.848  10.922  71.352  1.00  0.00    -0.449 C  
HETATM   14  C   UNL     1     -11.276  10.763  69.446  1.00  0.00    -0.276 C  
HETATM   15  C   UNL     1     -10.868  11.422  68.166  1.00  0.00    -0.213 C  
HETATM   16  F   UNL     1     -13.643  11.831  71.976  1.00  0.00    -0.485 F  
HETATM   17  F   UNL     1     -13.686   9.982  70.838  1.00  0.00    -0.409 F  
HETATM   18  O   UNL     1     -10.837  10.782  67.120  1.00  0.00    -0.266 OA 
HETATM   19  F   UNL     1     -12.116  10.315  72.318  1.00  0.00    -0.187 F  
BRANCH  14  20
HETATM   20  O   UNL     1     -11.136   9.394  69.643  1.00  0.00    -0.222 OA 
BRANCH  20  21
HETATM   21  C   UNL     1      -9.965   8.813  70.094  1.00  0.00    -0.184 A  
HETATM   22  C   UNL     1      -9.227   8.148  69.097  1.00  0.00    -0.151 A  
HETATM   23  C   UNL     1      -7.988   7.551  69.380  1.00  0.00    -0.123 A  
HETATM   24  C   UNL     1      -7.475   7.619  70.678  1.00  0.00    -0.072 A  
HETATM   25  C   UNL     1      -7.250   6.875  68.343  1.00  0.00    -0.088 C  
HETATM   26  C   UNL     1      -8.223   8.243  71.678  1.00  0.00    -0.137 A  
HETATM   27  N   UNL     1      -6.664   6.319  67.511  1.00  0.00    -0.058 NA 
HETATM   28 CL   UNL     1      -7.596   8.325  73.282  1.00  0.00    -0.190 Cl 
HETATM   29  C   UNL     1      -9.474   8.815  71.399  1.00  0.00    -0.330 A  
ENDBRANCH  20  21
ENDBRANCH  14  20
ENDBRANCH   8   9
ENDBRANCH   7   8
TORSDOF 4
ENDMDL
MODEL       26
REMARK 921   NORMALIZED FREE ENERGY PREDICTED BY IDOCK:   -7.34 KCAL/MOL
REMARK 922        TOTAL FREE ENERGY PREDICTED BY IDOCK:   -9.89 KCAL/MOL
REMARK 923 INTER-LIGAND FREE ENERGY PREDICTED BY IDOCK:   -9.65 KCAL/MOL
REMARK 924 INTRA-LIGAND FREE ENERGY PREDICTED BY IDOCK:   -0.24 KCAL/MOL
REMARK 927      BINDING AFFINITY PREDICTED BY RF-SCORE:    0.00 PKD
ROOT
HETATM    1  C   UNL     1     -11.885   8.028  72.431  1.00  0.00    -0.372 C  
HETATM    2  N   UNL     1     -10.690   8.486  71.762  1.00  0.00    -0.277 N  
HETATM    3  C   UNL     1      -9.436   8.026  72.085  1.00  0.00    -0.202 C  
HETATM    4  O   UNL     1      -9.126   7.173  72.900  1.00  0.00    -0.131 OA 
HETATM    5  N   UNL     1      -8.565   8.739  71.277  1.00  0.00    -0.188 NA 
HETATM    6  N   UNL     1      -9.254   9.580  70.456  1.00  0.00    -0.253 NA 
HETATM    7  C   UNL     1     -10.507   9.386  70.775  1.00  0.00    -0.304 C  
ENDROOT
BRANCH   7   8
HETATM    8  C   UNL     1     -11.614  10.049  69.975  1.00  0.00    -0.214 C  
BRANCH   8   9
HETATM    9  N   UNL     1     -12.218  11.308  70.400  1.00  0.00    -0.351 N  
HETATM   10  C   UNL     1     -12.888  11.415  71.608  1.00  0.00    -0.391 C  
HETATM   11  C   UNL     1     -13.188  12.623  72.113  1.00  0.00    -0.527 C  
HETATM   12  C   UNL     1     -12.960  13.831  71.324  1.00  0.00    -0.409 C  
HETATM   13  C   UNL     1     -13.321  15.166  71.900  1.00  0.00    -0.399 C  
HETATM   14  C   UNL     1     -12.401  13.737  70.101  1.00  0.00    -0.323 C  
HETATM   15  C   UNL     1     -11.662  12.462  69.837  1.00  0.00    -0.266 C  
HETATM   16  F   UNL     1     -13.696  15.091  73.205  1.00  0.00    -0.513 F  
HETATM   17  F   UNL     1     -12.265  16.024  71.864  1.00  0.00    -0.420 F  
HETATM   18  O   UNL     1     -10.634  12.466  69.168  1.00  0.00    -0.110 OA 
HETATM   19  F   UNL     1     -14.340  15.763  71.235  1.00  0.00    -0.464 F  
BRANCH  14  20
HETATM   20  O   UNL     1     -12.306  14.829  69.247  1.00  0.00    -0.225 OA 
BRANCH  20  21
HETATM   21  C   UNL     1     -11.856  14.728  67.943  1.00  0.00    -0.297 A  
HETATM   22  C   UNL     1     -10.765  15.565  67.641  1.00  0.00    -0.302 A  
HETATM   23  C   UNL     1     -10.156  15.544  66.375  1.00  0.00    -0.301 A  
HETATM   24  C   UNL     1     -10.642  14.675  65.396  1.00  0.00    -0.390 A  
HETATM   25  C   UNL     1      -9.040  16.411  66.088  1.00  0.00    -0.326 C  
HETATM   26  C   UNL     1     -11.748  13.873  65.679  1.00  0.00    -0.354 A  
HETATM   27  N   UNL     1      -8.152  17.119  65.854  1.00  0.00    -0.507 NA 
HETATM   28 CL   UNL     1     -12.354  12.802  64.471  1.00  0.00    -0.500 Cl 
HETATM   29  C   UNL     1     -12.372  13.915  66.935  1.00  0.00    -0.331 A  
ENDBRANCH  20  21
ENDBRANCH  14  20
ENDBRANCH   8   9
ENDBRANCH   7   8
TORSDOF 4
ENDMDL
MODEL       27
REMARK 921   NORMALIZED FREE ENERGY PREDICTED BY IDOCK:   -7.28 KCAL/MOL
REMARK 922        TOTAL FREE ENERGY PREDICTED BY IDOCK:   -9.82 KCAL/MOL
REMARK 923 INTER-LIGAND FREE ENERGY PREDICTED BY IDOCK:   -9.23 KCAL/MOL
REMARK 924 INTRA-LIGAND FREE ENERGY PREDICTED BY IDOCK:   -0.59 KCAL/MOL
REMARK 927      BINDING AFFINITY PREDICTED BY RF-SCORE:    0.00 PKD
ROOT
HETATM    1  C   UNL     1     -12.538  13.519  64.894  1.00  0.00    -0.342 C  
HETATM    2  N   UNL     1     -11.519  14.518  65.111  1.00  0.00    -0.354 N  
HETATM    3  C   UNL     1     -11.488  15.709  64.423  1.00  0.00    -0.262 C  
HETATM    4  O   UNL     1     -12.282  16.131  63.601  1.00  0.00    -0.756 OA 
HETATM    5  N   UNL     1     -10.345  16.356  64.864  1.00  0.00    -0.529 NA 
HETATM    6  N   UNL     1      -9.712  15.615  65.816  1.00  0.00    -0.345 NA 
HETATM    7  C   UNL     1     -10.451  14.543  65.933  1.00  0.00    -0.312 C  
ENDROOT
BRANCH   7   8
HETATM    8  C   UNL     1     -10.149  13.518  67.012  1.00  0.00    -0.244 C  
BRANCH   8   9
HETATM    9  N   UNL     1     -10.722  13.622  68.350  1.00  0.00    -0.251 N  
HETATM   10  C   UNL     1     -10.649  14.800  69.076  1.00  0.00    -0.248 C  
HETATM   11  C   UNL     1     -11.412  14.972  70.168  1.00  0.00    -0.314 C  
HETATM   12  C   UNL     1     -12.204  13.866  70.698  1.00  0.00    -0.443 C  
HETATM   13  C   UNL     1     -13.033  14.076  71.929  1.00  0.00    -0.360 C  
HETATM   14  C   UNL     1     -12.207  12.678  70.060  1.00  0.00    -0.197 C  
HETATM   15  C   UNL     1     -11.755  12.723  68.634  1.00  0.00    -0.324 C  
HETATM   16  F   UNL     1     -13.057  15.374  72.330  1.00  0.00    -0.351 F  
HETATM   17  F   UNL     1     -14.330  13.725  71.719  1.00  0.00    -0.450 F  
HETATM   18  O   UNL     1     -12.283  12.004  67.791  1.00  0.00    -0.474 OA 
HETATM   19  F   UNL     1     -12.591  13.349  72.985  1.00  0.00    -0.139 F  
BRANCH  14  20
HETATM   20  O   UNL     1     -12.814  11.551  70.601  1.00  0.00    -0.193 OA 
BRANCH  20  21
HETATM   21  C   UNL     1     -12.162  10.340  70.743  1.00  0.00    -0.350 A  
HETATM   22  C   UNL     1     -10.815  10.357  70.336  1.00  0.00    -0.257 A  
HETATM   23  C   UNL     1      -9.997   9.222  70.465  1.00  0.00    -0.307 A  
HETATM   24  C   UNL     1     -10.532   8.051  71.008  1.00  0.00    -0.229 A  
HETATM   25  C   UNL     1      -8.620   9.263  70.042  1.00  0.00    -0.182 C  
HETATM   26  C   UNL     1     -11.878   8.018  71.375  1.00  0.00    -0.295 A  
HETATM   27  N   UNL     1      -7.517   9.293  69.687  1.00  0.00    -0.072 NA 
HETATM   28 CL   UNL     1     -12.543   6.573  72.041  1.00  0.00    -0.312 Cl 
HETATM   29  C   UNL     1     -12.700   9.145  71.221  1.00  0.00    -0.340 A  
ENDBRANCH  20  21
ENDBRANCH  14  20
ENDBRANCH   8   9
ENDBRANCH   7   8
TORSDOF 4
ENDMDL
MODEL       28
REMARK 921   NORMALIZED FREE ENERGY PREDICTED BY IDOCK:   -7.27 KCAL/MOL
REMARK 922        TOTAL FREE ENERGY PREDICTED BY IDOCK:   -9.81 KCAL/MOL
REMARK 923 INTER-LIGAND FREE ENERGY PREDICTED BY IDOCK:   -8.60 KCAL/MOL
REMARK 924 INTRA-LIGAND FREE ENERGY PREDICTED BY IDOCK:   -1.21 KCAL/MOL
REMARK 927      BINDING AFFINITY PREDICTED BY RF-SCORE:    0.00 PKD
ROOT
HETATM    1  C   UNL     1     -10.681  15.323  66.972  1.00  0.00    -0.313 C  
HETATM    2  N   UNL     1     -11.474  14.831  65.870  1.00  0.00    -0.344 N  
HETATM    3  C   UNL     1     -11.652  15.543  64.708  1.00  0.00    -0.256 C  
HETATM    4  O   UNL     1     -11.169  16.618  64.394  1.00  0.00    -1.033 OA 
HETATM    5  N   UNL     1     -12.510  14.777  63.936  1.00  0.00    -0.779 NA 
HETATM    6  N   UNL     1     -12.821  13.616  64.578  1.00  0.00    -0.642 NA 
HETATM    7  C   UNL     1     -12.176  13.692  65.712  1.00  0.00    -0.464 C  
ENDROOT
BRANCH   7   8
HETATM    8  C   UNL     1     -12.157  12.509  66.665  1.00  0.00    -0.142 C  
BRANCH   8   9
HETATM    9  N   UNL     1     -10.962  11.692  66.848  1.00  0.00    -0.277 N  
HETATM   10  C   UNL     1     -10.058  11.496  65.816  1.00  0.00    -0.237 C  
HETATM   11  C   UNL     1      -8.840  10.988  66.070  1.00  0.00    -0.199 C  
HETATM   12  C   UNL     1      -8.511  10.485  67.400  1.00  0.00    -0.122 C  
HETATM   13  C   UNL     1      -7.153   9.905  67.654  1.00  0.00    -0.087 C  
HETATM   14  C   UNL     1      -9.419  10.575  68.394  1.00  0.00    -0.157 C  
HETATM   15  C   UNL     1     -10.512  11.572  68.166  1.00  0.00    -0.193 C  
HETATM   16  F   UNL     1      -6.310  10.063  66.600  1.00  0.00    -0.064 F  
HETATM   17  F   UNL     1      -6.546  10.507  68.713  1.00  0.00    -0.050 F  
HETATM   18  O   UNL     1     -10.959  12.228  69.101  1.00  0.00    -0.228 OA 
HETATM   19  F   UNL     1      -7.195   8.577  67.924  1.00  0.00    -0.080 F  
BRANCH  14  20
HETATM   20  O   UNL     1      -9.220   9.975  69.632  1.00  0.00    -0.210 OA 
BRANCH  20  21
HETATM   21  C   UNL     1      -9.997   8.929  70.095  1.00  0.00    -0.185 A  
HETATM   22  C   UNL     1     -11.075   9.326  70.908  1.00  0.00    -0.374 A  
HETATM   23  C   UNL     1     -11.991   8.390  71.416  1.00  0.00    -0.337 A  
HETATM   24  C   UNL     1     -11.830   7.037  71.107  1.00  0.00    -0.380 A  
HETATM   25  C   UNL     1     -13.088   8.819  72.247  1.00  0.00    -0.409 C  
HETATM   26  C   UNL     1     -10.740   6.636  70.334  1.00  0.00    -0.250 A  
HETATM   27  N   UNL     1     -13.961   9.164  72.928  1.00  0.00    -0.374 NA 
HETATM   28 CL   UNL     1     -10.535   4.966  69.954  1.00  0.00    -0.228 Cl 
HETATM   29  C   UNL     1      -9.811   7.569  69.850  1.00  0.00    -0.187 A  
ENDBRANCH  20  21
ENDBRANCH  14  20
ENDBRANCH   8   9
ENDBRANCH   7   8
TORSDOF 4
ENDMDL
MODEL       29
REMARK 921   NORMALIZED FREE ENERGY PREDICTED BY IDOCK:   -7.27 KCAL/MOL
REMARK 922        TOTAL FREE ENERGY PREDICTED BY IDOCK:   -9.81 KCAL/MOL
REMARK 923 INTER-LIGAND FREE ENERGY PREDICTED BY IDOCK:   -8.78 KCAL/MOL
REMARK 924 INTRA-LIGAND FREE ENERGY PREDICTED BY IDOCK:   -1.03 KCAL/MOL
REMARK 927      BINDING AFFINITY PREDICTED BY RF-SCORE:    0.00 PKD
ROOT
HETATM    1  C   UNL     1      -9.782  16.036  65.831  1.00  0.00    -0.343 C  
HETATM    2  N   UNL     1     -10.790  15.107  65.380  1.00  0.00    -0.357 N  
HETATM    3  C   UNL     1     -11.704  15.420  64.401  1.00  0.00    -0.258 C  
HETATM    4  O   UNL     1     -11.794  16.444  63.746  1.00  0.00    -1.002 OA 
HETATM    5  N   UNL     1     -12.525  14.309  64.298  1.00  0.00    -0.692 NA 
HETATM    6  N   UNL     1     -12.114  13.329  65.151  1.00  0.00    -0.387 NA 
HETATM    7  C   UNL     1     -11.080  13.846  65.761  1.00  0.00    -0.294 C  
ENDROOT
BRANCH   7   8
HETATM    8  C   UNL     1     -10.245  13.001  66.706  1.00  0.00    -0.246 C  
BRANCH   8   9
HETATM    9  N   UNL     1     -10.779  12.512  67.973  1.00  0.00    -0.214 N  
HETATM   10  C   UNL     1     -11.418  13.362  68.861  1.00  0.00    -0.304 C  
HETATM   11  C   UNL     1     -12.145  12.861  69.874  1.00  0.00    -0.335 C  
HETATM   12  C   UNL     1     -12.139  11.427  70.151  1.00  0.00    -0.439 C  
HETATM   13  C   UNL     1     -12.942  10.894  71.298  1.00  0.00    -0.392 C  
HETATM   14  C   UNL     1     -11.438  10.595  69.355  1.00  0.00    -0.286 C  
HETATM   15  C   UNL     1     -11.088  11.148  68.009  1.00  0.00    -0.276 C  
HETATM   16  F   UNL     1     -13.728  11.843  71.873  1.00  0.00    -0.386 F  
HETATM   17  F   UNL     1     -13.783   9.904  70.897  1.00  0.00    -0.420 F  
HETATM   18  O   UNL     1     -11.086  10.423  67.020  1.00  0.00    -0.210 OA 
HETATM   19  F   UNL     1     -12.165  10.381  72.284  1.00  0.00    -0.218 F  
BRANCH  14  20
HETATM   20  O   UNL     1     -11.270   9.249  69.660  1.00  0.00    -0.170 OA 
BRANCH  20  21
HETATM   21  C   UNL     1     -10.287   8.789  70.517  1.00  0.00    -0.203 A  
HETATM   22  C   UNL     1      -9.008   9.326  70.272  1.00  0.00    -0.261 A  
HETATM   23  C   UNL     1      -7.911   9.001  71.087  1.00  0.00    -0.154 A  
HETATM   24  C   UNL     1      -8.091   8.128  72.163  1.00  0.00    -0.182 A  
HETATM   25  C   UNL     1      -6.611   9.562  70.817  1.00  0.00    -0.104 C  
HETATM   26  C   UNL     1      -9.348   7.563  72.384  1.00  0.00    -0.148 A  
HETATM   27  N   UNL     1      -5.563  10.003  70.590  1.00  0.00    -0.062 NA 
HETATM   28 CL   UNL     1      -9.573   6.482  73.708  1.00  0.00    -0.185 Cl 
HETATM   29  C   UNL     1     -10.437   7.868  71.553  1.00  0.00    -0.251 A  
ENDBRANCH  20  21
ENDBRANCH  14  20
ENDBRANCH   8   9
ENDBRANCH   7   8
TORSDOF 4
ENDMDL
MODEL       30
REMARK 921   NORMALIZED FREE ENERGY PREDICTED BY IDOCK:   -7.25 KCAL/MOL
REMARK 922        TOTAL FREE ENERGY PREDICTED BY IDOCK:   -9.78 KCAL/MOL
REMARK 923 INTER-LIGAND FREE ENERGY PREDICTED BY IDOCK:   -8.41 KCAL/MOL
REMARK 924 INTRA-LIGAND FREE ENERGY PREDICTED BY IDOCK:   -1.37 KCAL/MOL
REMARK 927      BINDING AFFINITY PREDICTED BY RF-SCORE:    0.00 PKD
ROOT
HETATM    1  C   UNL     1     -10.483  15.983  65.551  1.00  0.00    -0.405 C  
HETATM    2  N   UNL     1      -9.850  16.488  66.746  1.00  0.00    -0.255 N  
HETATM    3  C   UNL     1      -8.653  17.165  66.723  1.00  0.00    -0.243 C  
HETATM    4  O   UNL     1      -7.980  17.484  65.757  1.00  0.00    -0.548 OA 
HETATM    5  N   UNL     1      -8.353  17.424  68.050  1.00  0.00    -0.224 NA 
HETATM    6  N   UNL     1      -9.344  16.961  68.863  1.00  0.00    -0.252 NA 
HETATM    7  C   UNL     1     -10.209  16.425  68.043  1.00  0.00    -0.264 C  
ENDROOT
BRANCH   7   8
HETATM    8  C   UNL     1     -11.541  15.914  68.562  1.00  0.00    -0.349 C  
BRANCH   8   9
HETATM    9  N   UNL     1     -11.658  14.624  69.235  1.00  0.00    -0.284 N  
HETATM   10  C   UNL     1     -11.956  14.540  70.586  1.00  0.00    -0.319 C  
HETATM   11  C   UNL     1     -12.336  13.370  71.124  1.00  0.00    -0.348 C  
HETATM   12  C   UNL     1     -12.283  12.141  70.337  1.00  0.00    -0.378 C  
HETATM   13  C   UNL     1     -12.693  10.844  70.965  1.00  0.00    -0.407 C  
HETATM   14  C   UNL     1     -11.896  12.189  69.046  1.00  0.00    -0.306 C  
HETATM   15  C   UNL     1     -11.977  13.541  68.410  1.00  0.00    -0.343 C  
HETATM   16  F   UNL     1     -13.228  11.008  72.204  1.00  0.00    -0.569 F  
HETATM   17  F   UNL     1     -13.646  10.214  70.227  1.00  0.00    -0.265 F  
HETATM   18  O   UNL     1     -12.311  13.656  67.234  1.00  0.00    -0.320 OA 
HETATM   19  F   UNL     1     -11.658   9.979  71.098  1.00  0.00    -0.366 F  
BRANCH  14  20
HETATM   20  O   UNL     1     -11.677  11.038  68.298  1.00  0.00    -0.461 OA 
BRANCH  20  21
HETATM   21  C   UNL     1     -10.423  10.651  67.862  1.00  0.00    -0.208 A  
HETATM   22  C   UNL     1      -9.385  10.922  68.773  1.00  0.00    -0.190 A  
HETATM   23  C   UNL     1      -8.059  10.543  68.505  1.00  0.00    -0.121 A  
HETATM   24  C   UNL     1      -7.764   9.882  67.310  1.00  0.00    -0.095 A  
HETATM   25  C   UNL     1      -7.012  10.831  69.453  1.00  0.00    -0.116 C  
HETATM   26  C   UNL     1      -8.784   9.648  66.387  1.00  0.00    -0.134 A  
HETATM   27  N   UNL     1      -6.168  11.077  70.209  1.00  0.00    -0.166 NA 
HETATM   28 CL   UNL     1      -8.423   8.837  64.909  1.00  0.00    -0.184 Cl 
HETATM   29  C   UNL     1     -10.103  10.051  66.645  1.00  0.00    -0.289 A  
ENDBRANCH  20  21
ENDBRANCH  14  20
ENDBRANCH   8   9
ENDBRANCH   7   8
TORSDOF 4
ENDMDL
MODEL       31
REMARK 921   NORMALIZED FREE ENERGY PREDICTED BY IDOCK:   -7.23 KCAL/MOL
REMARK 922        TOTAL FREE ENERGY PREDICTED BY IDOCK:   -9.76 KCAL/MOL
REMARK 923 INTER-LIGAND FREE ENERGY PREDICTED BY IDOCK:   -8.74 KCAL/MOL
REMARK 924 INTRA-LIGAND FREE ENERGY PREDICTED BY IDOCK:   -1.01 KCAL/MOL
REMARK 927      BINDING AFFINITY PREDICTED BY RF-SCORE:    0.00 PKD
ROOT
HETATM    1  C   UNL     1     -10.631  19.223  67.349  1.00  0.00    -0.487 C  
HETATM    2  N   UNL     1      -9.769  18.229  66.755  1.00  0.00    -0.307 N  
HETATM    3  C   UNL     1      -8.449  18.473  66.458  1.00  0.00    -0.277 C  
HETATM    4  O   UNL     1      -7.797  19.481  66.671  1.00  0.00    -0.257 OA 
HETATM    5  N   UNL     1      -7.989  17.314  65.855  1.00  0.00    -0.519 NA 
HETATM    6  N   UNL     1      -8.973  16.373  65.814  1.00  0.00    -0.444 NA 
HETATM    7  C   UNL     1     -10.002  16.959  66.367  1.00  0.00    -0.309 C  
ENDROOT
BRANCH   7   8
HETATM    8  C   UNL     1     -11.276  16.178  66.638  1.00  0.00     0.184 C  
BRANCH   8   9
HETATM    9  N   UNL     1     -11.282  14.992  67.488  1.00  0.00    -0.322 N  
HETATM   10  C   UNL     1     -11.154  15.091  68.864  1.00  0.00    -0.266 C  
HETATM   11  C   UNL     1     -11.442  14.040  69.649  1.00  0.00    -0.317 C  
HETATM   12  C   UNL     1     -11.734  12.735  69.061  1.00  0.00    -0.371 C  
HETATM   13  C   UNL     1     -12.032  11.572  69.957  1.00  0.00    -0.357 C  
HETATM   14  C   UNL     1     -11.762  12.597  67.720  1.00  0.00    -0.356 C  
HETATM   15  C   UNL     1     -11.927  13.872  66.954  1.00  0.00    -0.433 C  
HETATM   16  F   UNL     1     -12.143  11.932  71.263  1.00  0.00    -0.343 F  
HETATM   17  F   UNL     1     -13.214  10.984  69.629  1.00  0.00    -0.019 F  
HETATM   18  O   UNL     1     -12.597  13.898  65.926  1.00  0.00    -0.478 OA 
HETATM   19  F   UNL     1     -11.080  10.609  69.897  1.00  0.00    -0.264 F  
BRANCH  14  20
HETATM   20  O   UNL     1     -11.878  11.354  67.108  1.00  0.00    -0.566 OA 
BRANCH  20  21
HETATM   21  C   UNL     1     -10.921  10.845  66.251  1.00  0.00    -0.061 A  
HETATM   22  C   UNL     1     -10.282   9.681  66.721  1.00  0.00    -0.308 A  
HETATM   23  C   UNL     1      -9.323   9.010  65.946  1.00  0.00    -0.306 A  
HETATM   24  C   UNL     1      -8.995   9.505  64.681  1.00  0.00    -0.266 A  
HETATM   25  C   UNL     1      -8.681   7.820  66.448  1.00  0.00    -0.150 C  
HETATM   26  C   UNL     1      -9.596  10.680  64.229  1.00  0.00    -0.296 A  
HETATM   27  N   UNL     1      -8.156   6.872  66.860  1.00  0.00    -0.108 NA 
HETATM   28 CL   UNL     1      -9.191  11.297  62.670  1.00  0.00    -0.376 Cl 
HETATM   29  C   UNL     1     -10.535  11.364  65.016  1.00  0.00    -0.361 A  
ENDBRANCH  20  21
ENDBRANCH  14  20
ENDBRANCH   8   9
ENDBRANCH   7   8
TORSDOF 4
ENDMDL
MODEL       32
REMARK 921   NORMALIZED FREE ENERGY PREDICTED BY IDOCK:   -7.23 KCAL/MOL
REMARK 922        TOTAL FREE ENERGY PREDICTED BY IDOCK:   -9.76 KCAL/MOL
REMARK 923 INTER-LIGAND FREE ENERGY PREDICTED BY IDOCK:   -8.51 KCAL/MOL
REMARK 924 INTRA-LIGAND FREE ENERGY PREDICTED BY IDOCK:   -1.24 KCAL/MOL
REMARK 927      BINDING AFFINITY PREDICTED BY RF-SCORE:    0.00 PKD
ROOT
HETATM    1  C   UNL     1     -11.871  14.494  69.785  1.00  0.00    -0.315 C  
HETATM    2  N   UNL     1     -12.539  13.949  70.944  1.00  0.00    -0.349 N  
HETATM    3  C   UNL     1     -13.016  14.738  71.964  1.00  0.00    -0.330 C  
HETATM    4  O   UNL     1     -13.011  15.954  72.051  1.00  0.00    -0.449 OA 
HETATM    5  N   UNL     1     -13.524  13.854  72.903  1.00  0.00    -0.650 NA 
HETATM    6  N   UNL     1     -13.403  12.569  72.465  1.00  0.00    -0.345 NA 
HETATM    7  C   UNL     1     -12.823  12.681  71.299  1.00  0.00    -0.250 C  
ENDROOT
BRANCH   7   8
HETATM    8  C   UNL     1     -12.636  11.459  70.416  1.00  0.00    -0.185 C  
BRANCH   8   9
HETATM    9  N   UNL     1     -11.333  11.106  69.862  1.00  0.00    -0.279 N  
HETATM   10  C   UNL     1     -10.499  10.202  70.502  1.00  0.00    -0.105 C  
HETATM   11  C   UNL     1      -9.447   9.676  69.854  1.00  0.00    -0.260 C  
HETATM   12  C   UNL     1      -9.071  10.167  68.531  1.00  0.00    -0.134 C  
HETATM   13  C   UNL     1      -7.881   9.578  67.837  1.00  0.00    -0.091 C  
HETATM   14  C   UNL     1      -9.814  11.122  67.936  1.00  0.00    -0.174 C  
HETATM   15  C   UNL     1     -11.198  11.281  68.481  1.00  0.00    -0.252 C  
HETATM   16  F   UNL     1      -7.365   8.507  68.496  1.00  0.00    -0.083 F  
HETATM   17  F   UNL     1      -8.203   9.132  66.593  1.00  0.00    -0.109 F  
HETATM   18  O   UNL     1     -12.135  11.545  67.734  1.00  0.00    -0.626 OA 
HETATM   19  F   UNL     1      -6.870  10.469  67.689  1.00  0.00    -0.070 F  
BRANCH  14  20
HETATM   20  O   UNL     1      -9.417  11.735  66.753  1.00  0.00    -0.184 OA 
BRANCH  20  21
HETATM   21  C   UNL     1      -9.203  13.097  66.647  1.00  0.00    -0.215 A  
HETATM   22  C   UNL     1     -10.121  13.764  65.813  1.00  0.00    -0.322 A  
HETATM   23  C   UNL     1     -10.075  15.157  65.640  1.00  0.00    -0.392 A  
HETATM   24  C   UNL     1      -9.098  15.898  66.311  1.00  0.00    -0.379 A  
HETATM   25  C   UNL     1     -11.025  15.817  64.781  1.00  0.00    -0.393 C  
HETATM   26  C   UNL     1      -8.162  15.236  67.106  1.00  0.00    -0.219 A  
HETATM   27  N   UNL     1     -11.780  16.346  64.078  1.00  0.00    -1.045 NA 
HETATM   28 CL   UNL     1      -6.952  16.147  67.931  1.00  0.00    -0.138 Cl 
HETATM   29  C   UNL     1      -8.194  13.841  67.256  1.00  0.00    -0.173 A  
ENDBRANCH  20  21
ENDBRANCH  14  20
ENDBRANCH   8   9
ENDBRANCH   7   8
TORSDOF 4
ENDMDL
MODEL       33
REMARK 921   NORMALIZED FREE ENERGY PREDICTED BY IDOCK:   -7.22 KCAL/MOL
REMARK 922        TOTAL FREE ENERGY PREDICTED BY IDOCK:   -9.75 KCAL/MOL
REMARK 923 INTER-LIGAND FREE ENERGY PREDICTED BY IDOCK:   -8.63 KCAL/MOL
REMARK 924 INTRA-LIGAND FREE ENERGY PREDICTED BY IDOCK:   -1.12 KCAL/MOL
REMARK 927      BINDING AFFINITY PREDICTED BY RF-SCORE:    0.00 PKD
ROOT
HETATM    1  C   UNL     1      -9.951  11.222  63.330  1.00  0.00    -0.395 C  
HETATM    2  N   UNL     1      -9.411  10.145  64.127  1.00  0.00    -0.289 N  
HETATM    3  C   UNL     1      -8.410   9.318  63.675  1.00  0.00    -0.185 C  
HETATM    4  O   UNL     1      -7.803   9.367  62.619  1.00  0.00    -0.114 OA 
HETATM    5  N   UNL     1      -8.217   8.392  64.687  1.00  0.00    -0.162 NA 
HETATM    6  N   UNL     1      -9.038   8.658  65.742  1.00  0.00    -0.199 NA 
HETATM    7  C   UNL     1      -9.716   9.709  65.364  1.00  0.00    -0.295 C  
ENDROOT
BRANCH   7   8
HETATM    8  C   UNL     1     -10.654  10.405  66.335  1.00  0.00    -0.127 C  
BRANCH   8   9
HETATM    9  N   UNL     1     -10.245  11.591  67.079  1.00  0.00    -0.209 N  
HETATM   10  C   UNL     1      -8.907  11.915  67.241  1.00  0.00    -0.179 C  
HETATM   11  C   UNL     1      -8.553  13.136  67.673  1.00  0.00    -0.193 C  
HETATM   12  C   UNL     1      -9.567  14.081  68.134  1.00  0.00    -0.220 C  
HETATM   13  C   UNL     1      -9.147  15.431  68.630  1.00  0.00    -0.195 C  
HETATM   14  C   UNL     1     -10.871  13.743  68.079  1.00  0.00    -0.249 C  
HETATM   15  C   UNL     1     -11.196  12.615  67.151  1.00  0.00    -0.300 C  
HETATM   16  F   UNL     1      -7.821  15.669  68.442  1.00  0.00    -0.119 F  
HETATM   17  F   UNL     1      -9.802  16.427  67.976  1.00  0.00    -0.226 F  
HETATM   18  O   UNL     1     -12.238  12.621  66.504  1.00  0.00    -0.538 OA 
HETATM   19  F   UNL     1      -9.389  15.598  69.953  1.00  0.00    -0.276 F  
BRANCH  14  20
HETATM   20  O   UNL     1     -11.864  14.535  68.645  1.00  0.00    -0.319 OA 
BRANCH  20  21
HETATM   21  C   UNL     1     -12.396  14.294  69.898  1.00  0.00    -0.324 A  
HETATM   22  C   UNL     1     -12.523  12.929  70.220  1.00  0.00    -0.198 A  
HETATM   23  C   UNL     1     -12.997  12.515  71.476  1.00  0.00    -0.379 A  
HETATM   24  C   UNL     1     -13.349  13.477  72.426  1.00  0.00    -0.641 A  
HETATM   25  C   UNL     1     -13.120  11.112  71.783  1.00  0.00    -0.431 C  
HETATM   26  C   UNL     1     -13.262  14.830  72.096  1.00  0.00    -0.361 A  
HETATM   27  N   UNL     1     -13.231   9.983  72.023  1.00  0.00    -0.454 NA 
HETATM   28 CL   UNL     1     -13.700  16.020  73.265  1.00  0.00    -0.543 Cl 
HETATM   29  C   UNL     1     -12.814  15.241  70.831  1.00  0.00    -0.511 A  
ENDBRANCH  20  21
ENDBRANCH  14  20
ENDBRANCH   8   9
ENDBRANCH   7   8
TORSDOF 4
ENDMDL
MODEL       34
REMARK 921   NORMALIZED FREE ENERGY PREDICTED BY IDOCK:   -7.21 KCAL/MOL
REMARK 922        TOTAL FREE ENERGY PREDICTED BY IDOCK:   -9.73 KCAL/MOL
REMARK 923 INTER-LIGAND FREE ENERGY PREDICTED BY IDOCK:   -8.62 KCAL/MOL
REMARK 924 INTRA-LIGAND FREE ENERGY PREDICTED BY IDOCK:   -1.11 KCAL/MOL
REMARK 927      BINDING AFFINITY PREDICTED BY RF-SCORE:    0.00 PKD
ROOT
HETATM    1  C   UNL     1      -9.191   7.632  73.950  1.00  0.00    -0.247 C  
HETATM    2  N   UNL     1     -10.228   6.862  73.303  1.00  0.00    -0.228 N  
HETATM    3  C   UNL     1     -10.281   5.490  73.365  1.00  0.00    -0.203 C  
HETATM    4  O   UNL     1      -9.548   4.728  73.972  1.00  0.00    -0.122 OA 
HETATM    5  N   UNL     1     -11.366   5.130  72.582  1.00  0.00    -0.221 NA 
HETATM    6  N   UNL     1     -11.986   6.237  72.086  1.00  0.00    -0.326 NA 
HETATM    7  C   UNL     1     -11.281   7.235  72.549  1.00  0.00    -0.301 C  
ENDROOT
BRANCH   7   8
HETATM    8  C   UNL     1     -11.739   8.666  72.328  1.00  0.00    -0.358 C  
BRANCH   8   9
HETATM    9  N   UNL     1     -11.201   9.485  71.247  1.00  0.00    -0.358 N  
HETATM   10  C   UNL     1     -10.063   9.107  70.554  1.00  0.00    -0.235 C  
HETATM   11  C   UNL     1      -9.744   9.707  69.396  1.00  0.00    -0.203 C  
HETATM   12  C   UNL     1     -10.494  10.872  68.935  1.00  0.00    -0.228 C  
HETATM   13  C   UNL     1     -10.107  11.538  67.650  1.00  0.00    -0.184 C  
HETATM   14  C   UNL     1     -11.545  11.318  69.653  1.00  0.00    -0.330 C  
HETATM   15  C   UNL     1     -12.121  10.328  70.616  1.00  0.00    -0.338 C  
HETATM   16  F   UNL     1      -9.152  10.850  66.969  1.00  0.00    -0.146 F  
HETATM   17  F   UNL     1     -11.168  11.641  66.805  1.00  0.00    -0.303 F  
HETATM   18  O   UNL     1     -13.332  10.284  70.812  1.00  0.00    -0.349 OA 
HETATM   19  F   UNL     1      -9.626  12.792  67.836  1.00  0.00    -0.185 F  
BRANCH  14  20
HETATM   20  O   UNL     1     -12.195  12.509  69.348  1.00  0.00    -0.200 OA 
BRANCH  20  21
HETATM   21  C   UNL     1     -12.061  13.656  70.108  1.00  0.00    -0.361 A  
HETATM   22  C   UNL     1     -11.468  14.736  69.426  1.00  0.00    -0.330 A  
HETATM   23  C   UNL     1     -11.308  15.989  70.041  1.00  0.00    -0.353 A  
HETATM   24  C   UNL     1     -11.746  16.168  71.355  1.00  0.00    -0.506 A  
HETATM   25  C   UNL     1     -10.698  17.080  69.323  1.00  0.00    -0.226 C  
HETATM   26  C   UNL     1     -12.297  15.089  72.047  1.00  0.00    -0.347 A  
HETATM   27  N   UNL     1     -10.194  17.953  68.750  1.00  0.00    -0.376 NA 
HETATM   28 CL   UNL     1     -12.835  15.305  73.671  1.00  0.00    -0.654 Cl 
HETATM   29  C   UNL     1     -12.432  13.830  71.441  1.00  0.00    -0.404 A  
ENDBRANCH  20  21
ENDBRANCH  14  20
ENDBRANCH   8   9
ENDBRANCH   7   8
TORSDOF 4
ENDMDL
MODEL       35
REMARK 921   NORMALIZED FREE ENERGY PREDICTED BY IDOCK:   -7.19 KCAL/MOL
REMARK 922        TOTAL FREE ENERGY PREDICTED BY IDOCK:   -9.71 KCAL/MOL
REMARK 923 INTER-LIGAND FREE ENERGY PREDICTED BY IDOCK:   -8.98 KCAL/MOL
REMARK 924 INTRA-LIGAND FREE ENERGY PREDICTED BY IDOCK:   -0.72 KCAL/MOL
REMARK 927      BINDING AFFINITY PREDICTED BY RF-SCORE:    0.00 PKD
ROOT
HETATM    1  C   UNL     1     -10.188  12.193  64.349  1.00  0.00    -0.306 C  
HETATM    2  N   UNL     1     -11.218  12.994  64.967  1.00  0.00    -0.291 N  
HETATM    3  C   UNL     1     -12.325  13.437  64.282  1.00  0.00    -0.335 C  
HETATM    4  O   UNL     1     -12.645  13.211  63.128  1.00  0.00    -0.654 OA 
HETATM    5  N   UNL     1     -13.031  14.211  65.189  1.00  0.00    -0.735 NA 
HETATM    6  N   UNL     1     -12.408  14.216  66.401  1.00  0.00    -0.454 NA 
HETATM    7  C   UNL     1     -11.347  13.475  66.220  1.00  0.00    -0.309 C  
ENDROOT
BRANCH   7   8
HETATM    8  C   UNL     1     -10.451  13.119  67.393  1.00  0.00    -0.242 C  
BRANCH   8   9
HETATM    9  N   UNL     1     -10.978  12.476  68.592  1.00  0.00    -0.245 N  
HETATM   10  C   UNL     1     -11.593  13.211  69.593  1.00  0.00    -0.253 C  
HETATM   11  C   UNL     1     -12.316  12.592  70.541  1.00  0.00    -0.345 C  
HETATM   12  C   UNL     1     -12.328  11.134  70.629  1.00  0.00    -0.482 C  
HETATM   13  C   UNL     1     -13.126  10.467  71.707  1.00  0.00    -0.462 C  
HETATM   14  C   UNL     1     -11.650  10.404  69.721  1.00  0.00    -0.269 C  
HETATM   15  C   UNL     1     -11.307  11.124  68.455  1.00  0.00    -0.288 C  
HETATM   16  F   UNL     1     -13.891  11.342  72.412  1.00  0.00    -0.332 F  
HETATM   17  F   UNL     1     -13.987   9.548  71.192  1.00  0.00    -0.391 F  
HETATM   18  O   UNL     1     -11.327  10.534  67.379  1.00  0.00    -0.381 OA 
HETATM   19  F   UNL     1     -12.346   9.818  72.607  1.00  0.00    -0.210 F  
BRANCH  14  20
HETATM   20  O   UNL     1     -11.498   9.027  69.846  1.00  0.00    -0.090 OA 
BRANCH  20  21
HETATM   21  C   UNL     1     -10.622   8.445  70.743  1.00  0.00    -0.207 A  
HETATM   22  C   UNL     1     -11.101   7.259  71.333  1.00  0.00    -0.268 A  
HETATM   23  C   UNL     1     -10.311   6.517  72.226  1.00  0.00    -0.212 A  
HETATM   24  C   UNL     1      -9.024   6.962  72.536  1.00  0.00    -0.141 A  
HETATM   25  C   UNL     1     -10.822   5.306  72.818  1.00  0.00    -0.261 C  
HETATM   26  C   UNL     1      -8.562   8.158  71.985  1.00  0.00    -0.162 A  
HETATM   27  N   UNL     1     -11.240   4.340  73.305  1.00  0.00    -0.259 NA 
HETATM   28 CL   UNL     1      -6.975   8.714  72.368  1.00  0.00    -0.073 Cl 
HETATM   29  C   UNL     1      -9.362   8.912  71.113  1.00  0.00    -0.326 A  
ENDBRANCH  20  21
ENDBRANCH  14  20
ENDBRANCH   8   9
ENDBRANCH   7   8
TORSDOF 4
ENDMDL
MODEL       36
REMARK 921   NORMALIZED FREE ENERGY PREDICTED BY IDOCK:   -7.16 KCAL/MOL
REMARK 922        TOTAL FREE ENERGY PREDICTED BY IDOCK:   -9.68 KCAL/MOL
REMARK 923 INTER-LIGAND FREE ENERGY PREDICTED BY IDOCK:   -8.44 KCAL/MOL
REMARK 924 INTRA-LIGAND FREE ENERGY PREDICTED BY IDOCK:   -1.23 KCAL/MOL
REMARK 927      BINDING AFFINITY PREDICTED BY RF-SCORE:    0.00 PKD
ROOT
HETATM    1  C   UNL     1     -10.401  17.419  69.052  1.00  0.00    -0.319 C  
HETATM    2  N   UNL     1      -9.774  16.743  67.941  1.00  0.00    -0.241 N  
HETATM    3  C   UNL     1      -8.510  17.055  67.499  1.00  0.00    -0.200 C  
HETATM    4  O   UNL     1      -7.723  17.864  67.960  1.00  0.00    -0.230 OA 
HETATM    5  N   UNL     1      -8.296  16.244  66.397  1.00  0.00    -0.309 NA 
HETATM    6  N   UNL     1      -9.370  15.431  66.186  1.00  0.00    -0.312 NA 
HETATM    7  C   UNL     1     -10.211  15.758  67.131  1.00  0.00    -0.279 C  
ENDROOT
BRANCH   7   8
HETATM    8  C   UNL     1     -11.494  14.969  67.322  1.00  0.00    -0.304 C  
BRANCH   8   9
HETATM    9  N   UNL     1     -11.621  13.954  68.363  1.00  0.00    -0.311 N  
HETATM   10  C   UNL     1     -11.988  14.289  69.657  1.00  0.00    -0.336 C  
HETATM   11  C   UNL     1     -12.373  13.336  70.521  1.00  0.00    -0.389 C  
HETATM   12  C   UNL     1     -12.256  11.925  70.166  1.00  0.00    -0.319 C  
HETATM   13  C   UNL     1     -12.674  10.878  71.154  1.00  0.00    -0.429 C  
HETATM   14  C   UNL     1     -11.804  11.577  68.944  1.00  0.00    -0.341 C  
HETATM   15  C   UNL     1     -11.877  12.656  67.910  1.00  0.00    -0.332 C  
HETATM   16  F   UNL     1     -13.275  11.406  72.253  1.00  0.00    -0.603 F  
HETATM   17  F   UNL     1     -13.575  10.016  70.612  1.00  0.00    -0.417 F  
HETATM   18  O   UNL     1     -12.152  12.383  66.745  1.00  0.00    -0.578 OA 
HETATM   19  F   UNL     1     -11.631  10.135  71.598  1.00  0.00    -0.420 F  
BRANCH  14  20
HETATM   20  O   UNL     1     -11.525  10.257  68.608  1.00  0.00    -0.212 OA 
BRANCH  20  21
HETATM   21  C   UNL     1     -10.245   9.799  68.355  1.00  0.00    -0.185 A  
HETATM   22  C   UNL     1      -9.315  10.091  69.371  1.00  0.00    -0.237 A  
HETATM   23  C   UNL     1      -7.984   9.649  69.292  1.00  0.00    -0.104 A  
HETATM   24  C   UNL     1      -7.574   8.904  68.183  1.00  0.00    -0.093 A  
HETATM   25  C   UNL     1      -7.048   9.960  70.343  1.00  0.00    -0.139 C  
HETATM   26  C   UNL     1      -8.483   8.647  67.156  1.00  0.00    -0.114 A  
HETATM   27  N   UNL     1      -6.293  10.224  71.183  1.00  0.00    -0.334 NA 
HETATM   28 CL   UNL     1      -7.980   7.732  65.784  1.00  0.00    -0.107 Cl 
HETATM   29  C   UNL     1      -9.805   9.112  67.225  1.00  0.00    -0.244 A  
ENDBRANCH  20  21
ENDBRANCH  14  20
ENDBRANCH   8   9
ENDBRANCH   7   8
TORSDOF 4
ENDMDL
MODEL       37
REMARK 921   NORMALIZED FREE ENERGY PREDICTED BY IDOCK:   -7.15 KCAL/MOL
REMARK 922        TOTAL FREE ENERGY PREDICTED BY IDOCK:   -9.66 KCAL/MOL
REMARK 923 INTER-LIGAND FREE ENERGY PREDICTED BY IDOCK:   -8.70 KCAL/MOL
REMARK 924 INTRA-LIGAND FREE ENERGY PREDICTED BY IDOCK:   -0.96 KCAL/MOL
REMARK 927      BINDING AFFINITY PREDICTED BY RF-SCORE:    0.00 PKD
ROOT
HETATM    1  C   UNL     1     -10.205   5.130  69.721  1.00  0.00    -0.287 C  
HETATM    2  N   UNL     1     -10.345   6.121  68.681  1.00  0.00    -0.184 N  
HETATM    3  C   UNL     1     -10.338   5.800  67.344  1.00  0.00    -0.225 C  
HETATM    4  O   UNL     1     -10.266   4.698  66.828  1.00  0.00    -0.227 OA 
HETATM    5  N   UNL     1     -10.434   7.011  66.676  1.00  0.00    -0.195 NA 
HETATM    6  N   UNL     1     -10.537   8.039  67.564  1.00  0.00    -0.254 NA 
HETATM    7  C   UNL     1     -10.490   7.460  68.734  1.00  0.00    -0.199 C  
ENDROOT
BRANCH   7   8
HETATM    8  C   UNL     1     -10.716   8.269  70.000  1.00  0.00    -0.239 C  
BRANCH   8   9
HETATM    9  N   UNL     1     -11.241   9.630  69.956  1.00  0.00    -0.243 N  
HETATM   10  C   UNL     1     -12.340  10.004  70.712  1.00  0.00    -0.303 C  
HETATM   11  C   UNL     1     -12.636  11.303  70.882  1.00  0.00    -0.467 C  
HETATM   12  C   UNL     1     -11.907  12.330  70.143  1.00  0.00    -0.352 C  
HETATM   13  C   UNL     1     -12.268  13.772  70.334  1.00  0.00    -0.363 C  
HETATM   14  C   UNL     1     -10.898  11.975  69.322  1.00  0.00    -0.076 C  
HETATM   15  C   UNL     1     -10.326  10.615  69.571  1.00  0.00    -0.182 C  
HETATM   16  F   UNL     1     -13.174  13.958  71.330  1.00  0.00    -0.379 F  
HETATM   17  F   UNL     1     -11.180  14.515  70.674  1.00  0.00    -0.273 F  
HETATM   18  O   UNL     1      -9.123  10.413  69.440  1.00  0.00    -0.196 OA 
HETATM   19  F   UNL     1     -12.795  14.329  69.217  1.00  0.00    -0.176 F  
BRANCH  14  20
HETATM   20  O   UNL     1     -10.276  12.889  68.480  1.00  0.00    -0.234 OA 
BRANCH  20  21
HETATM   21  C   UNL     1     -10.412  12.859  67.104  1.00  0.00    -0.238 A  
HETATM   22  C   UNL     1     -10.738  14.102  66.527  1.00  0.00    -0.289 A  
HETATM   23  C   UNL     1     -10.860  14.252  65.136  1.00  0.00    -0.387 A  
HETATM   24  C   UNL     1     -10.654  13.147  64.307  1.00  0.00    -0.432 A  
HETATM   25  C   UNL     1     -11.195  15.534  64.568  1.00  0.00    -0.315 C  
HETATM   26  C   UNL     1     -10.371  11.906  64.877  1.00  0.00    -0.286 A  
HETATM   27  N   UNL     1     -11.478  16.563  64.114  1.00  0.00    -1.092 NA 
HETATM   28 CL   UNL     1     -10.121  10.538  63.857  1.00  0.00    -0.357 Cl 
HETATM   29  C   UNL     1     -10.276  11.751  66.269  1.00  0.00    -0.255 A  
ENDBRANCH  20  21
ENDBRANCH  14  20
ENDBRANCH   8   9
ENDBRANCH   7   8
TORSDOF 4
ENDMDL
MODEL       38
REMARK 921   NORMALIZED FREE ENERGY PREDICTED BY IDOCK:   -7.14 KCAL/MOL
REMARK 922        TOTAL FREE ENERGY PREDICTED BY IDOCK:   -9.65 KCAL/MOL
REMARK 923 INTER-LIGAND FREE ENERGY PREDICTED BY IDOCK:   -9.02 KCAL/MOL
REMARK 924 INTRA-LIGAND FREE ENERGY PREDICTED BY IDOCK:   -0.63 KCAL/MOL
REMARK 927      BINDING AFFINITY PREDICTED BY RF-SCORE:    0.00 PKD
ROOT
HETATM    1  C   UNL     1      -8.708  11.799  66.582  1.00  0.00    -0.186 C  
HETATM    2  N   UNL     1      -9.529  11.649  65.403  1.00  0.00    -0.206 N  
HETATM    3  C   UNL     1      -9.688  10.445  64.758  1.00  0.00    -0.320 C  
HETATM    4  O   UNL     1      -9.241   9.353  65.066  1.00  0.00    -0.241 OA 
HETATM    5  N   UNL     1     -10.483  10.722  63.658  1.00  0.00    -0.224 NA 
HETATM    6  N   UNL     1     -10.836  12.038  63.642  1.00  0.00    -0.407 NA 
HETATM    7  C   UNL     1     -10.255  12.540  64.699  1.00  0.00    -0.290 C  
ENDROOT
BRANCH   7   8
HETATM    8  C   UNL     1     -10.524  13.976  65.113  1.00  0.00    -0.397 C  
BRANCH   8   9
HETATM    9  N   UNL     1     -11.016  14.311  66.445  1.00  0.00    -0.307 N  
HETATM   10  C   UNL     1     -11.892  13.476  67.121  1.00  0.00    -0.387 C  
HETATM   11  C   UNL     1     -12.112  13.646  68.435  1.00  0.00    -0.312 C  
HETATM   12  C   UNL     1     -11.564  14.805  69.133  1.00  0.00    -0.330 C  
HETATM   13  C   UNL     1     -11.840  14.984  70.595  1.00  0.00    -0.313 C  
HETATM   14  C   UNL     1     -10.791  15.685  68.465  1.00  0.00    -0.282 C  
HETATM   15  C   UNL     1     -10.203  15.171  67.189  1.00  0.00    -0.247 C  
HETATM   16  F   UNL     1     -12.474  13.914  71.144  1.00  0.00    -0.372 F  
HETATM   17  F   UNL     1     -10.688  15.139  71.302  1.00  0.00    -0.331 F  
HETATM   18  O   UNL     1      -9.071  15.502  66.848  1.00  0.00    -0.211 OA 
HETATM   19  F   UNL     1     -12.611  16.069  70.851  1.00  0.00    -0.458 F  
BRANCH  14  20
HETATM   20  O   UNL     1     -10.374  16.882  69.035  1.00  0.00    -0.297 OA 
BRANCH  20  21
HETATM   21  C   UNL     1     -10.010  17.986  68.286  1.00  0.00    -0.371 A  
HETATM   22  C   UNL     1      -8.771  18.548  68.648  1.00  0.00    -0.325 A  
HETATM   23  C   UNL     1      -8.232  19.641  67.950  1.00  0.00    -0.344 A  
HETATM   24  C   UNL     1      -8.940  20.183  66.874  1.00  0.00    -0.448 A  
HETATM   25  C   UNL     1      -6.961  20.200  68.338  1.00  0.00    -0.270 C  
HETATM   26  C   UNL     1     -10.188  19.655  66.539  1.00  0.00    -0.480 A  
HETATM   27  N   UNL     1      -5.946  20.658  68.661  1.00  0.00    -0.327 NA 
HETATM   28 CL   UNL     1     -11.066  20.324  65.215  1.00  0.00     0.076 Cl 
HETATM   29  C   UNL     1     -10.736  18.579  67.254  1.00  0.00    -0.417 A  
ENDBRANCH  20  21
ENDBRANCH  14  20
ENDBRANCH   8   9
ENDBRANCH   7   8
TORSDOF 4
ENDMDL
MODEL       39
REMARK 921   NORMALIZED FREE ENERGY PREDICTED BY IDOCK:   -7.14 KCAL/MOL
REMARK 922        TOTAL FREE ENERGY PREDICTED BY IDOCK:   -9.65 KCAL/MOL
REMARK 923 INTER-LIGAND FREE ENERGY PREDICTED BY IDOCK:   -8.42 KCAL/MOL
REMARK 924 INTRA-LIGAND FREE ENERGY PREDICTED BY IDOCK:   -1.22 KCAL/MOL
REMARK 927      BINDING AFFINITY PREDICTED BY RF-SCORE:    0.00 PKD
ROOT
HETATM    1  C   UNL     1     -10.506  18.151  66.332  1.00  0.00    -0.350 C  
HETATM    2  N   UNL     1      -9.720  16.954  66.514  1.00  0.00    -0.267 N  
HETATM    3  C   UNL     1      -8.378  16.895  66.218  1.00  0.00    -0.296 C  
HETATM    4  O   UNL     1      -7.647  17.787  65.825  1.00  0.00    -0.536 OA 
HETATM    5  N   UNL     1      -8.006  15.583  66.466  1.00  0.00    -0.099 NA 
HETATM    6  N   UNL     1      -9.066  14.866  66.934  1.00  0.00    -0.235 NA 
HETATM    7  C   UNL     1     -10.051  15.724  66.953  1.00  0.00    -0.266 C  
ENDROOT
BRANCH   7   8
HETATM    8  C   UNL     1     -11.392  15.338  67.554  1.00  0.00    -0.297 C  
BRANCH   8   9
HETATM    9  N   UNL     1     -11.520  14.229  68.494  1.00  0.00    -0.280 N  
HETATM   10  C   UNL     1     -11.738  14.450  69.844  1.00  0.00    -0.303 C  
HETATM   11  C   UNL     1     -12.132  13.444  70.641  1.00  0.00    -0.374 C  
HETATM   12  C   UNL     1     -12.179  12.074  70.135  1.00  0.00    -0.309 C  
HETATM   13  C   UNL     1     -12.603  10.965  71.048  1.00  0.00    -0.417 C  
HETATM   14  C   UNL     1     -11.871  11.826  68.846  1.00  0.00    -0.320 C  
HETATM   15  C   UNL     1     -11.935  13.014  67.939  1.00  0.00    -0.291 C  
HETATM   16  F   UNL     1     -13.053  11.417  72.249  1.00  0.00    -0.584 F  
HETATM   17  F   UNL     1     -13.625  10.245  70.513  1.00  0.00    -0.373 F  
HETATM   18  O   UNL     1     -12.335  12.895  66.785  1.00  0.00    -0.405 OA 
HETATM   19  F   UNL     1     -11.598  10.093  71.311  1.00  0.00    -0.402 F  
BRANCH  14  20
HETATM   20  O   UNL     1     -11.747  10.533  68.353  1.00  0.00    -0.365 OA 
BRANCH  20  21
HETATM   21  C   UNL     1     -10.539   9.995  67.946  1.00  0.00    -0.250 A  
HETATM   22  C   UNL     1     -10.333  10.023  66.554  1.00  0.00    -0.268 A  
HETATM   23  C   UNL     1      -9.135   9.563  65.983  1.00  0.00    -0.220 A  
HETATM   24  C   UNL     1      -8.126   9.068  66.814  1.00  0.00    -0.111 A  
HETATM   25  C   UNL     1      -8.946   9.601  64.554  1.00  0.00    -0.235 C  
HETATM   26  C   UNL     1      -8.343   9.001  68.190  1.00  0.00    -0.121 A  
HETATM   27  N   UNL     1      -8.801   9.619  63.404  1.00  0.00    -0.230 NA 
HETATM   28 CL   UNL     1      -7.102   8.387  69.218  1.00  0.00    -0.061 Cl 
HETATM   29  C   UNL     1      -9.551   9.437  68.756  1.00  0.00    -0.156 A  
ENDBRANCH  20  21
ENDBRANCH  14  20
ENDBRANCH   8   9
ENDBRANCH   7   8
TORSDOF 4
ENDMDL
MODEL       40
REMARK 921   NORMALIZED FREE ENERGY PREDICTED BY IDOCK:   -7.14 KCAL/MOL
REMARK 922        TOTAL FREE ENERGY PREDICTED BY IDOCK:   -9.64 KCAL/MOL
REMARK 923 INTER-LIGAND FREE ENERGY PREDICTED BY IDOCK:   -8.54 KCAL/MOL
REMARK 924 INTRA-LIGAND FREE ENERGY PREDICTED BY IDOCK:   -1.11 KCAL/MOL
REMARK 927      BINDING AFFINITY PREDICTED BY RF-SCORE:    0.00 PKD
ROOT
HETATM    1  C   UNL     1     -10.980   6.548  67.787  1.00  0.00    -0.316 C  
HETATM    2  N   UNL     1      -9.667   7.046  68.122  1.00  0.00    -0.132 N  
HETATM    3  C   UNL     1      -8.534   6.273  68.030  1.00  0.00    -0.117 C  
HETATM    4  O   UNL     1      -8.428   5.126  67.630  1.00  0.00    -0.106 OA 
HETATM    5  N   UNL     1      -7.504   7.077  68.490  1.00  0.00    -0.100 NA 
HETATM    6  N   UNL     1      -7.972   8.313  68.818  1.00  0.00    -0.112 NA 
HETATM    7  C   UNL     1      -9.254   8.247  68.573  1.00  0.00    -0.136 C  
ENDROOT
BRANCH   7   8
HETATM    8  C   UNL     1     -10.121   9.489  68.684  1.00  0.00    -0.181 C  
BRANCH   8   9
HETATM    9  N   UNL     1     -10.249  10.435  67.580  1.00  0.00    -0.198 N  
HETATM   10  C   UNL     1      -9.691  10.174  66.339  1.00  0.00    -0.205 C  
HETATM   11  C   UNL     1     -10.049  10.902  65.268  1.00  0.00    -0.340 C  
HETATM   12  C   UNL     1     -10.901  12.078  65.424  1.00  0.00    -0.336 C  
HETATM   13  C   UNL     1     -11.272  12.886  64.218  1.00  0.00    -0.367 C  
HETATM   14  C   UNL     1     -11.371  12.406  66.645  1.00  0.00    -0.339 C  
HETATM   15  C   UNL     1     -11.344  11.301  67.654  1.00  0.00    -0.282 C  
HETATM   16  F   UNL     1     -10.867  12.309  63.056  1.00  0.00    -0.436 F  
HETATM   17  F   UNL     1     -12.620  13.032  64.114  1.00  0.00    -0.420 F  
HETATM   18  O   UNL     1     -12.246  11.190  68.478  1.00  0.00    -0.600 OA 
HETATM   19  F   UNL     1     -10.738  14.132  64.242  1.00  0.00    -0.378 F  
BRANCH  14  20
HETATM   20  O   UNL     1     -12.053  13.595  66.878  1.00  0.00    -0.397 OA 
BRANCH  20  21
HETATM   21  C   UNL     1     -11.505  14.653  67.580  1.00  0.00    -0.361 A  
HETATM   22  C   UNL     1     -11.884  14.706  68.935  1.00  0.00    -0.344 A  
HETATM   23  C   UNL     1     -11.372  15.688  69.799  1.00  0.00    -0.327 A  
HETATM   24  C   UNL     1     -10.467  16.632  69.304  1.00  0.00    -0.333 A  
HETATM   25  C   UNL     1     -11.774  15.724  71.182  1.00  0.00    -0.428 C  
HETATM   26  C   UNL     1     -10.121  16.606  67.953  1.00  0.00    -0.270 A  
HETATM   27  N   UNL     1     -12.110  15.760  72.292  1.00  0.00    -0.428 NA 
HETATM   28 CL   UNL     1      -9.009  17.771  67.338  1.00  0.00    -0.239 Cl 
HETATM   29  C   UNL     1     -10.654  15.640  67.085  1.00  0.00    -0.308 A  
ENDBRANCH  20  21
ENDBRANCH  14  20
ENDBRANCH   8   9
ENDBRANCH   7   8
TORSDOF 4
ENDMDL
MODEL       41
REMARK 921   NORMALIZED FREE ENERGY PREDICTED BY IDOCK:   -7.10 KCAL/MOL
REMARK 922        TOTAL FREE ENERGY PREDICTED BY IDOCK:   -9.59 KCAL/MOL
REMARK 923 INTER-LIGAND FREE ENERGY PREDICTED BY IDOCK:   -8.81 KCAL/MOL
REMARK 924 INTRA-LIGAND FREE ENERGY PREDICTED BY IDOCK:   -0.78 KCAL/MOL
REMARK 927      BINDING AFFINITY PREDICTED BY RF-SCORE:    0.00 PKD
ROOT
HETATM    1  C   UNL     1     -10.667  14.814  66.170  1.00  0.00    -0.314 C  
HETATM    2  N   UNL     1     -11.104  13.776  65.266  1.00  0.00    -0.304 N  
HETATM    3  C   UNL     1     -12.026  13.997  64.271  1.00  0.00    -0.435 C  
HETATM    4  O   UNL     1     -12.568  15.044  63.957  1.00  0.00    -0.817 OA 
HETATM    5  N   UNL     1     -12.222  12.763  63.673  1.00  0.00    -0.596 NA 
HETATM    6  N   UNL     1     -11.425  11.821  64.248  1.00  0.00    -0.332 NA 
HETATM    7  C   UNL     1     -10.776  12.471  65.178  1.00  0.00    -0.292 C  
ENDROOT
BRANCH   7   8
HETATM    8  C   UNL     1      -9.671  11.788  65.963  1.00  0.00    -0.232 C  
BRANCH   8   9
HETATM    9  N   UNL     1      -9.856  10.468  66.557  1.00  0.00    -0.199 N  
HETATM   10  C   UNL     1      -9.910   9.326  65.774  1.00  0.00    -0.231 C  
HETATM   11  C   UNL     1      -9.796   8.112  66.337  1.00  0.00    -0.261 C  
HETATM   12  C   UNL     1      -9.778   7.969  67.790  1.00  0.00    -0.191 C  
HETATM   13  C   UNL     1      -9.670   6.603  68.395  1.00  0.00    -0.126 C  
HETATM   14  C   UNL     1      -9.828   9.067  68.571  1.00  0.00    -0.169 C  
HETATM   15  C   UNL     1      -9.455  10.347  67.891  1.00  0.00    -0.138 C  
HETATM   16  F   UNL     1      -9.443   5.635  67.468  1.00  0.00    -0.113 F  
HETATM   17  F   UNL     1      -8.634   6.530  69.273  1.00  0.00    -0.122 F  
HETATM   18  O   UNL     1      -8.832  11.214  68.496  1.00  0.00    -0.151 OA 
HETATM   19  F   UNL     1     -10.789   6.242  69.071  1.00  0.00    -0.245 F  
BRANCH  14  20
HETATM   20  O   UNL     1      -9.972   8.985  69.951  1.00  0.00    -0.179 OA 
BRANCH  20  21
HETATM   21  C   UNL     1     -11.195   9.087  70.588  1.00  0.00    -0.270 A  
HETATM   22  C   UNL     1     -11.580  10.407  70.893  1.00  0.00    -0.428 A  
HETATM   23  C   UNL     1     -12.819  10.686  71.493  1.00  0.00    -0.567 A  
HETATM   24  C   UNL     1     -13.688   9.634  71.793  1.00  0.00    -0.349 A  
HETATM   25  C   UNL     1     -13.191  12.045  71.797  1.00  0.00    -0.317 C  
HETATM   26  C   UNL     1     -13.292   8.323  71.528  1.00  0.00    -0.282 A  
HETATM   27  N   UNL     1     -13.484  13.138  72.054  1.00  0.00    -0.502 NA 
HETATM   28 CL   UNL     1     -14.361   7.021  71.901  1.00  0.00    -0.482 Cl 
HETATM   29  C   UNL     1     -12.043   8.043  70.954  1.00  0.00    -0.164 A  
ENDBRANCH  20  21
ENDBRANCH  14  20
ENDBRANCH   8   9
ENDBRANCH   7   8
TORSDOF 4
ENDMDL
MODEL       42
REMARK 921   NORMALIZED FREE ENERGY PREDICTED BY IDOCK:   -7.08 KCAL/MOL
REMARK 922        TOTAL FREE ENERGY PREDICTED BY IDOCK:   -9.57 KCAL/MOL
REMARK 923 INTER-LIGAND FREE ENERGY PREDICTED BY IDOCK:   -8.37 KCAL/MOL
REMARK 924 INTRA-LIGAND FREE ENERGY PREDICTED BY IDOCK:   -1.20 KCAL/MOL
REMARK 927      BINDING AFFINITY PREDICTED BY RF-SCORE:    0.00 PKD
ROOT
HETATM    1  C   UNL     1     -10.100   9.856  65.552  1.00  0.00    -0.227 C  
HETATM    2  N   UNL     1      -9.565  10.251  64.270  1.00  0.00    -0.301 N  
HETATM    3  C   UNL     1      -8.701   9.460  63.551  1.00  0.00    -0.204 C  
HETATM    4  O   UNL     1      -8.295   8.342  63.817  1.00  0.00    -0.128 OA 
HETATM    5  N   UNL     1      -8.373  10.203  62.428  1.00  0.00    -0.145 NA 
HETATM    6  N   UNL     1      -9.039  11.391  62.430  1.00  0.00    -0.247 NA 
HETATM    7  C   UNL     1      -9.737  11.367  63.534  1.00  0.00    -0.339 C  
ENDROOT
BRANCH   7   8
HETATM    8  C   UNL     1     -10.734  12.473  63.836  1.00  0.00    -0.437 C  
BRANCH   8   9
HETATM    9  N   UNL     1     -10.639  13.281  65.047  1.00  0.00    -0.328 N  
HETATM   10  C   UNL     1      -9.972  14.496  65.052  1.00  0.00    -0.171 C  
HETATM   11  C   UNL     1     -10.130  15.351  66.076  1.00  0.00    -0.346 C  
HETATM   12  C   UNL     1     -10.873  14.950  67.268  1.00  0.00    -0.306 C  
HETATM   13  C   UNL     1     -11.019  15.914  68.405  1.00  0.00    -0.331 C  
HETATM   14  C   UNL     1     -11.444  13.729  67.321  1.00  0.00    -0.341 C  
HETATM   15  C   UNL     1     -11.643  13.064  65.996  1.00  0.00    -0.365 C  
HETATM   16  F   UNL     1     -10.544  17.152  68.107  1.00  0.00    -0.313 F  
HETATM   17  F   UNL     1     -12.325  16.086  68.744  1.00  0.00    -0.287 F  
HETATM   18  O   UNL     1     -12.640  12.379  65.787  1.00  0.00    -0.532 OA 
HETATM   19  F   UNL     1     -10.370  15.505  69.522  1.00  0.00    -0.203 F  
BRANCH  14  20
HETATM   20  O   UNL     1     -12.025  13.237  68.484  1.00  0.00    -0.339 OA 
BRANCH  20  21
HETATM   21  C   UNL     1     -11.586  12.089  69.117  1.00  0.00    -0.312 A  
HETATM   22  C   UNL     1     -10.306  11.660  68.716  1.00  0.00    -0.213 A  
HETATM   23  C   UNL     1      -9.694  10.540  69.302  1.00  0.00    -0.215 A  
HETATM   24  C   UNL     1     -10.367   9.837  70.304  1.00  0.00    -0.348 A  
HETATM   25  C   UNL     1      -8.383  10.119  68.875  1.00  0.00    -0.130 C  
HETATM   26  C   UNL     1     -11.652  10.235  70.675  1.00  0.00    -0.347 A  
HETATM   27  N   UNL     1      -7.335   9.773  68.520  1.00  0.00    -0.074 NA 
HETATM   28 CL   UNL     1     -12.488   9.367  71.909  1.00  0.00    -0.455 Cl 
HETATM   29  C   UNL     1     -12.273  11.338  70.070  1.00  0.00    -0.389 A  
ENDBRANCH  20  21
ENDBRANCH  14  20
ENDBRANCH   8   9
ENDBRANCH   7   8
TORSDOF 4
ENDMDL
MODEL       43
REMARK 921   NORMALIZED FREE ENERGY PREDICTED BY IDOCK:   -7.07 KCAL/MOL
REMARK 922        TOTAL FREE ENERGY PREDICTED BY IDOCK:   -9.56 KCAL/MOL
REMARK 923 INTER-LIGAND FREE ENERGY PREDICTED BY IDOCK:   -9.12 KCAL/MOL
REMARK 924 INTRA-LIGAND FREE ENERGY PREDICTED BY IDOCK:   -0.45 KCAL/MOL
REMARK 927      BINDING AFFINITY PREDICTED BY RF-SCORE:    0.00 PKD
ROOT
HETATM    1  C   UNL     1      -8.847   9.174  70.861  1.00  0.00    -0.233 C  
HETATM    2  N   UNL     1      -9.945   8.705  71.673  1.00  0.00    -0.254 N  
HETATM    3  C   UNL     1      -9.758   8.020  72.851  1.00  0.00    -0.283 C  
HETATM    4  O   UNL     1      -8.711   7.747  73.413  1.00  0.00    -0.176 OA 
HETATM    5  N   UNL     1     -11.031   7.695  73.291  1.00  0.00    -0.368 NA 
HETATM    6  N   UNL     1     -11.973   8.191  72.440  1.00  0.00    -0.371 NA 
HETATM    7  C   UNL     1     -11.280   8.788  71.506  1.00  0.00    -0.307 C  
ENDROOT
BRANCH   7   8
HETATM    8  C   UNL     1     -11.982   9.597  70.429  1.00  0.00    -0.106 C  
BRANCH   8   9
HETATM    9  N   UNL     1     -12.448  10.958  70.674  1.00  0.00    -0.350 N  
HETATM   10  C   UNL     1     -13.062  11.305  71.867  1.00  0.00    -0.405 C  
HETATM   11  C   UNL     1     -13.228  12.598  72.192  1.00  0.00    -0.527 C  
HETATM   12  C   UNL     1     -12.914  13.649  71.228  1.00  0.00    -0.399 C  
HETATM   13  C   UNL     1     -13.126  15.084  71.606  1.00  0.00    -0.364 C  
HETATM   14  C   UNL     1     -12.410  13.322  70.021  1.00  0.00    -0.200 C  
HETATM   15  C   UNL     1     -11.806  11.956  69.935  1.00  0.00    -0.343 C  
HETATM   16  F   UNL     1     -13.460  15.237  72.915  1.00  0.00    -0.459 F  
HETATM   17  F   UNL     1     -11.996  15.817  71.420  1.00  0.00    -0.330 F  
HETATM   18  O   UNL     1     -10.806  11.760  69.252  1.00  0.00    -0.215 OA 
HETATM   19  F   UNL     1     -14.107  15.675  70.881  1.00  0.00    -0.478 F  
BRANCH  14  20
HETATM   20  O   UNL     1     -12.241  14.263  69.012  1.00  0.00    -0.311 OA 
BRANCH  20  21
HETATM   21  C   UNL     1     -11.119  15.065  68.911  1.00  0.00    -0.266 A  
HETATM   22  C   UNL     1     -11.353  16.315  68.307  1.00  0.00    -0.280 A  
HETATM   23  C   UNL     1     -10.329  17.267  68.176  1.00  0.00    -0.357 A  
HETATM   24  C   UNL     1      -9.051  16.969  68.656  1.00  0.00    -0.271 A  
HETATM   25  C   UNL     1     -10.592  18.541  67.554  1.00  0.00    -0.423 C  
HETATM   26  C   UNL     1      -8.806  15.716  69.219  1.00  0.00    -0.264 A  
HETATM   27  N   UNL     1     -10.802  19.559  67.040  1.00  0.00    -0.477 NA 
HETATM   28 CL   UNL     1      -7.229  15.343  69.808  1.00  0.00    -0.176 Cl 
HETATM   29  C   UNL     1      -9.824  14.756  69.324  1.00  0.00    -0.123 A  
ENDBRANCH  20  21
ENDBRANCH  14  20
ENDBRANCH   8   9
ENDBRANCH   7   8
TORSDOF 4
ENDMDL
MODEL       44
REMARK 921   NORMALIZED FREE ENERGY PREDICTED BY IDOCK:   -7.06 KCAL/MOL
REMARK 922        TOTAL FREE ENERGY PREDICTED BY IDOCK:   -9.55 KCAL/MOL
REMARK 923 INTER-LIGAND FREE ENERGY PREDICTED BY IDOCK:   -8.59 KCAL/MOL
REMARK 924 INTRA-LIGAND FREE ENERGY PREDICTED BY IDOCK:   -0.95 KCAL/MOL
REMARK 927      BINDING AFFINITY PREDICTED BY RF-SCORE:    0.00 PKD
ROOT
HETATM    1  C   UNL     1      -8.958   8.098  73.531  1.00  0.00    -0.225 C  
HETATM    2  N   UNL     1     -10.056   7.262  73.106  1.00  0.00    -0.241 N  
HETATM    3  C   UNL     1     -10.097   5.909  73.349  1.00  0.00    -0.198 C  
HETATM    4  O   UNL     1      -9.298   5.224  73.965  1.00  0.00    -0.127 OA 
HETATM    5  N   UNL     1     -11.260   5.463  72.743  1.00  0.00    -0.290 NA 
HETATM    6  N   UNL     1     -11.935   6.504  72.180  1.00  0.00    -0.313 NA 
HETATM    7  C   UNL     1     -11.187   7.546  72.431  1.00  0.00    -0.308 C  
ENDROOT
BRANCH   7   8
HETATM    8  C   UNL     1     -11.673   8.941  72.080  1.00  0.00    -0.367 C  
BRANCH   8   9
HETATM    9  N   UNL     1     -11.231   9.625  70.868  1.00  0.00    -0.322 N  
HETATM   10  C   UNL     1     -10.214   9.111  70.081  1.00  0.00    -0.205 C  
HETATM   11  C   UNL     1     -10.011   9.585  68.841  1.00  0.00    -0.187 C  
HETATM   12  C   UNL     1     -10.746  10.754  68.367  1.00  0.00    -0.255 C  
HETATM   13  C   UNL     1     -10.489  11.278  66.987  1.00  0.00    -0.234 C  
HETATM   14  C   UNL     1     -11.670  11.332  69.161  1.00  0.00    -0.341 C  
HETATM   15  C   UNL     1     -12.175  10.471  70.276  1.00  0.00    -0.311 C  
HETATM   16  F   UNL     1      -9.669  10.470  66.263  1.00  0.00    -0.204 F  
HETATM   17  F   UNL     1     -11.641  11.379  66.271  1.00  0.00    -0.326 F  
HETATM   18  O   UNL     1     -13.351  10.526  70.622  1.00  0.00    -0.245 OA 
HETATM   19  F   UNL     1      -9.917  12.507  66.993  1.00  0.00    -0.206 F  
BRANCH  14  20
HETATM   20  O   UNL     1     -12.285  12.533  68.826  1.00  0.00    -0.179 OA 
BRANCH  20  21
HETATM   21  C   UNL     1     -12.001  13.727  69.462  1.00  0.00    -0.345 A  
HETATM   22  C   UNL     1     -12.309  13.739  70.836  1.00  0.00    -0.456 A  
HETATM   23  C   UNL     1     -12.031  14.858  71.637  1.00  0.00    -0.427 A  
HETATM   24  C   UNL     1     -11.436  15.983  71.061  1.00  0.00    -0.460 A  
HETATM   25  C   UNL     1     -12.357  14.848  73.042  1.00  0.00    -0.342 C  
HETATM   26  C   UNL     1     -11.166  15.990  69.692  1.00  0.00    -0.336 A  
HETATM   27  N   UNL     1     -12.632  14.844  74.168  1.00  0.00    -0.492 NA 
HETATM   28 CL   UNL     1     -10.435  17.378  68.976  1.00  0.00    -0.333 Cl 
HETATM   29  C   UNL     1     -11.469  14.880  68.887  1.00  0.00    -0.320 A  
ENDBRANCH  20  21
ENDBRANCH  14  20
ENDBRANCH   8   9
ENDBRANCH   7   8
TORSDOF 4
ENDMDL
MODEL       45
REMARK 921   NORMALIZED FREE ENERGY PREDICTED BY IDOCK:   -7.04 KCAL/MOL
REMARK 922        TOTAL FREE ENERGY PREDICTED BY IDOCK:   -9.52 KCAL/MOL
REMARK 923 INTER-LIGAND FREE ENERGY PREDICTED BY IDOCK:   -9.76 KCAL/MOL
REMARK 924 INTRA-LIGAND FREE ENERGY PREDICTED BY IDOCK:    0.24 KCAL/MOL
REMARK 927      BINDING AFFINITY PREDICTED BY RF-SCORE:    0.00 PKD
ROOT
HETATM    1  C   UNL     1      -8.909   9.146  70.935  1.00  0.00    -0.233 C  
HETATM    2  N   UNL     1     -10.100   8.759  71.654  1.00  0.00    -0.291 N  
HETATM    3  C   UNL     1     -10.060   8.013  72.808  1.00  0.00    -0.308 C  
HETATM    4  O   UNL     1      -9.085   7.611  73.420  1.00  0.00    -0.190 OA 
HETATM    5  N   UNL     1     -11.385   7.802  73.153  1.00  0.00    -0.293 NA 
HETATM    6  N   UNL     1     -12.215   8.426  72.270  1.00  0.00    -0.372 NA 
HETATM    7  C   UNL     1     -11.406   8.985  71.410  1.00  0.00    -0.323 C  
ENDROOT
BRANCH   7   8
HETATM    8  C   UNL     1     -11.951   9.904  70.330  1.00  0.00    -0.195 C  
BRANCH   8   9
HETATM    9  N   UNL     1     -12.486  11.224  70.646  1.00  0.00    -0.352 N  
HETATM   10  C   UNL     1     -13.143  11.469  71.841  1.00  0.00    -0.387 C  
HETATM   11  C   UNL     1     -13.377  12.729  72.241  1.00  0.00    -0.563 C  
HETATM   12  C   UNL     1     -13.092  13.852  71.351  1.00  0.00    -0.413 C  
HETATM   13  C   UNL     1     -13.379  15.249  71.811  1.00  0.00    -0.448 C  
HETATM   14  C   UNL     1     -12.545  13.624  70.140  1.00  0.00    -0.151 C  
HETATM   15  C   UNL     1     -11.875  12.295  69.986  1.00  0.00    -0.296 C  
HETATM   16  F   UNL     1     -13.750  15.305  73.118  1.00  0.00    -0.526 F  
HETATM   17  F   UNL     1     -12.281  16.044  71.699  1.00  0.00    -0.418 F  
HETATM   18  O   UNL     1     -10.851  12.188  69.318  1.00  0.00    -0.169 OA 
HETATM   19  F   UNL     1     -14.370  15.839  71.098  1.00  0.00    -0.439 F  
BRANCH  14  20
HETATM   20  O   UNL     1     -12.398  14.633  69.195  1.00  0.00    -0.220 OA 
BRANCH  20  21
HETATM   21  C   UNL     1     -11.557  14.525  68.103  1.00  0.00    -0.331 A  
HETATM   22  C   UNL     1     -12.164  13.979  66.956  1.00  0.00    -0.387 A  
HETATM   23  C   UNL     1     -11.461  13.851  65.747  1.00  0.00    -0.324 A  
HETATM   24  C   UNL     1     -10.131  14.274  65.680  1.00  0.00    -0.364 A  
HETATM   25  C   UNL     1     -12.104  13.289  64.586  1.00  0.00    -0.408 C  
HETATM   26  C   UNL     1      -9.514  14.777  66.825  1.00  0.00    -0.254 A  
HETATM   27  N   UNL     1     -12.618  12.823  63.656  1.00  0.00    -0.736 NA 
HETATM   28 CL   UNL     1      -7.871  15.296  66.747  1.00  0.00    -0.145 Cl 
HETATM   29  C   UNL     1     -10.210  14.880  68.039  1.00  0.00    -0.228 A  
ENDBRANCH  20  21
ENDBRANCH  14  20
ENDBRANCH   8   9
ENDBRANCH   7   8
TORSDOF 4
ENDMDL
MODEL       46
REMARK 921   NORMALIZED FREE ENERGY PREDICTED BY IDOCK:   -7.04 KCAL/MOL
REMARK 922        TOTAL FREE ENERGY PREDICTED BY IDOCK:   -9.52 KCAL/MOL
REMARK 923 INTER-LIGAND FREE ENERGY PREDICTED BY IDOCK:   -9.04 KCAL/MOL
REMARK 924 INTRA-LIGAND FREE ENERGY PREDICTED BY IDOCK:   -0.48 KCAL/MOL
REMARK 927      BINDING AFFINITY PREDICTED BY RF-SCORE:    0.00 PKD
ROOT
HETATM    1  C   UNL     1      -5.686  18.172  65.768  1.00  0.00    -0.203 C  
HETATM    2  N   UNL     1      -6.465  18.997  66.662  1.00  0.00    -0.187 N  
HETATM    3  C   UNL     1      -6.514  20.367  66.555  1.00  0.00    -0.225 C  
HETATM    4  O   UNL     1      -5.990  21.082  65.718  1.00  0.00    -0.239 OA 
HETATM    5  N   UNL     1      -7.303  20.788  67.613  1.00  0.00    -0.292 NA 
HETATM    6  N   UNL     1      -7.758  19.720  68.326  1.00  0.00    -0.311 NA 
HETATM    7  C   UNL     1      -7.242  18.685  67.718  1.00  0.00    -0.228 C  
ENDROOT
BRANCH   7   8
HETATM    8  C   UNL     1      -7.632  17.278  68.136  1.00  0.00    -0.211 C  
BRANCH   8   9
HETATM    9  N   UNL     1      -8.725  16.560  67.486  1.00  0.00    -0.181 N  
HETATM   10  C   UNL     1      -8.583  16.029  66.214  1.00  0.00    -0.328 C  
HETATM   11  C   UNL     1      -9.476  15.142  65.747  1.00  0.00    -0.285 C  
HETATM   12  C   UNL     1     -10.692  14.849  66.501  1.00  0.00    -0.309 C  
HETATM   13  C   UNL     1     -11.684  13.870  65.950  1.00  0.00    -0.359 C  
HETATM   14  C   UNL     1     -10.896  15.437  67.697  1.00  0.00    -0.304 C  
HETATM   15  C   UNL     1      -9.668  15.992  68.348  1.00  0.00    -0.213 C  
HETATM   16  F   UNL     1     -11.233  13.239  64.834  1.00  0.00    -0.301 F  
HETATM   17  F   UNL     1     -11.963  12.888  66.849  1.00  0.00    -0.399 F  
HETATM   18  O   UNL     1      -9.529  15.933  69.566  1.00  0.00    -0.260 OA 
HETATM   19  F   UNL     1     -12.863  14.452  65.620  1.00  0.00    -0.456 F  
BRANCH  14  20
HETATM   20  O   UNL     1     -12.099  15.317  68.383  1.00  0.00    -0.236 OA 
BRANCH  20  21
HETATM   21  C   UNL     1     -12.232  14.583  69.547  1.00  0.00    -0.265 A  
HETATM   22  C   UNL     1     -12.528  15.355  70.687  1.00  0.00    -0.478 A  
HETATM   23  C   UNL     1     -12.747  14.756  71.939  1.00  0.00    -0.396 A  
HETATM   24  C   UNL     1     -12.670  13.366  72.056  1.00  0.00    -0.238 A  
HETATM   25  C   UNL     1     -13.048  15.566  73.092  1.00  0.00    -0.545 C  
HETATM   26  C   UNL     1     -12.337  12.601  70.937  1.00  0.00    -0.260 A  
HETATM   27  N   UNL     1     -13.276  16.220  74.022  1.00  0.00    -0.554 NA 
HETATM   28 CL   UNL     1     -12.237  10.886  71.078  1.00  0.00    -0.462 Cl 
HETATM   29  C   UNL     1     -12.093  13.204  69.693  1.00  0.00    -0.317 A  
ENDBRANCH  20  21
ENDBRANCH  14  20
ENDBRANCH   8   9
ENDBRANCH   7   8
TORSDOF 4
ENDMDL
MODEL       47
REMARK 921   NORMALIZED FREE ENERGY PREDICTED BY IDOCK:   -6.99 KCAL/MOL
REMARK 922        TOTAL FREE ENERGY PREDICTED BY IDOCK:   -9.47 KCAL/MOL
REMARK 923 INTER-LIGAND FREE ENERGY PREDICTED BY IDOCK:   -8.55 KCAL/MOL
REMARK 924 INTRA-LIGAND FREE ENERGY PREDICTED BY IDOCK:   -0.92 KCAL/MOL
REMARK 927      BINDING AFFINITY PREDICTED BY RF-SCORE:    0.00 PKD
ROOT
HETATM    1  C   UNL     1     -10.523  11.025  64.478  1.00  0.00    -0.342 C  
HETATM    2  N   UNL     1     -11.351  12.043  65.081  1.00  0.00    -0.320 N  
HETATM    3  C   UNL     1     -12.441  12.588  64.444  1.00  0.00    -0.446 C  
HETATM    4  O   UNL     1     -12.906  12.300  63.354  1.00  0.00    -0.754 OA 
HETATM    5  N   UNL     1     -12.925  13.555  65.309  1.00  0.00    -0.711 NA 
HETATM    6  N   UNL     1     -12.189  13.583  66.456  1.00  0.00    -0.401 NA 
HETATM    7  C   UNL     1     -11.278  12.664  66.275  1.00  0.00    -0.311 C  
ENDROOT
BRANCH   7   8
HETATM    8  C   UNL     1     -10.333  12.288  67.403  1.00  0.00    -0.206 C  
BRANCH   8   9
HETATM    9  N   UNL     1     -10.806  11.610  68.606  1.00  0.00    -0.202 N  
HETATM   10  C   UNL     1     -11.525  12.285  69.579  1.00  0.00    -0.249 C  
HETATM   11  C   UNL     1     -12.190  11.604  70.526  1.00  0.00    -0.451 C  
HETATM   12  C   UNL     1     -12.033  10.157  70.643  1.00  0.00    -0.423 C  
HETATM   13  C   UNL     1     -12.769   9.420  71.721  1.00  0.00    -0.390 C  
HETATM   14  C   UNL     1     -11.254   9.494  69.764  1.00  0.00    -0.144 C  
HETATM   15  C   UNL     1     -10.972  10.226  68.490  1.00  0.00    -0.247 C  
HETATM   16  F   UNL     1     -13.646  10.212  72.392  1.00  0.00    -0.477 F  
HETATM   17  F   UNL     1     -13.505   8.397  71.208  1.00  0.00    -0.324 F  
HETATM   18  O   UNL     1     -10.900   9.618  67.426  1.00  0.00    -0.274 OA 
HETATM   19  F   UNL     1     -11.938   8.884  72.648  1.00  0.00    -0.400 F  
BRANCH  14  20
HETATM   20  O   UNL     1     -10.945   8.148  69.921  1.00  0.00    -0.240 OA 
BRANCH  20  21
HETATM   21  C   UNL     1      -9.755   7.708  70.470  1.00  0.00    -0.182 A  
HETATM   22  C   UNL     1      -8.755   8.695  70.551  1.00  0.00    -0.178 A  
HETATM   23  C   UNL     1      -7.505   8.424  71.132  1.00  0.00    -0.084 A  
HETATM   24  C   UNL     1      -7.249   7.148  71.642  1.00  0.00    -0.073 A  
HETATM   25  C   UNL     1      -6.496   9.450  71.204  1.00  0.00    -0.067 C  
HETATM   26  C   UNL     1      -8.224   6.156  71.527  1.00  0.00    -0.118 A  
HETATM   27  N   UNL     1      -5.680  10.273  71.248  1.00  0.00    -0.253 NA 
HETATM   28 CL   UNL     1      -7.910   4.580  72.151  1.00  0.00    -0.093 Cl 
HETATM   29  C   UNL     1      -9.462   6.422  70.922  1.00  0.00    -0.185 A  
ENDBRANCH  20  21
ENDBRANCH  14  20
ENDBRANCH   8   9
ENDBRANCH   7   8
TORSDOF 4
ENDMDL
MODEL       48
REMARK 921   NORMALIZED FREE ENERGY PREDICTED BY IDOCK:   -6.98 KCAL/MOL
REMARK 922        TOTAL FREE ENERGY PREDICTED BY IDOCK:   -9.44 KCAL/MOL
REMARK 923 INTER-LIGAND FREE ENERGY PREDICTED BY IDOCK:   -8.45 KCAL/MOL
REMARK 924 INTRA-LIGAND FREE ENERGY PREDICTED BY IDOCK:   -1.00 KCAL/MOL
REMARK 927      BINDING AFFINITY PREDICTED BY RF-SCORE:    0.00 PKD
ROOT
HETATM    1  C   UNL     1      -9.724   6.996  66.722  1.00  0.00    -0.184 C  
HETATM    2  N   UNL     1     -10.119   7.735  67.897  1.00  0.00    -0.176 N  
HETATM    3  C   UNL     1     -10.414   7.125  69.093  1.00  0.00    -0.211 C  
HETATM    4  O   UNL     1     -10.353   5.941  69.377  1.00  0.00    -0.199 OA 
HETATM    5  N   UNL     1     -10.803   8.150  69.941  1.00  0.00    -0.241 NA 
HETATM    6  N   UNL     1     -10.714   9.353  69.308  1.00  0.00    -0.227 NA 
HETATM    7  C   UNL     1     -10.297   9.055  68.106  1.00  0.00    -0.214 C  
ENDROOT
BRANCH   7   8
HETATM    8  C   UNL     1      -9.937  10.156  67.124  1.00  0.00    -0.196 C  
BRANCH   8   9
HETATM    9  N   UNL     1      -9.706  11.529  67.562  1.00  0.00    -0.178 N  
HETATM   10  C   UNL     1      -8.444  12.097  67.517  1.00  0.00    -0.169 C  
HETATM   11  C   UNL     1      -8.293  13.425  67.650  1.00  0.00    -0.179 C  
HETATM   12  C   UNL     1      -9.432  14.267  68.005  1.00  0.00    -0.204 C  
HETATM   13  C   UNL     1      -9.236  15.743  68.167  1.00  0.00    -0.189 C  
HETATM   14  C   UNL     1     -10.653  13.714  68.154  1.00  0.00    -0.247 C  
HETATM   15  C   UNL     1     -10.822  12.371  67.516  1.00  0.00    -0.236 C  
HETATM   16  F   UNL     1      -7.992  16.150  67.801  1.00  0.00    -0.135 F  
HETATM   17  F   UNL     1     -10.103  16.447  67.391  1.00  0.00    -0.241 F  
HETATM   18  O   UNL     1     -11.887  12.061  66.991  1.00  0.00    -0.573 OA 
HETATM   19  F   UNL     1      -9.421  16.157  69.445  1.00  0.00    -0.234 F  
BRANCH  14  20
HETATM   20  O   UNL     1     -11.736  14.436  68.641  1.00  0.00    -0.299 OA 
BRANCH  20  21
HETATM   21  C   UNL     1     -12.300  14.201  69.882  1.00  0.00    -0.327 A  
HETATM   22  C   UNL     1     -12.408  12.839  70.220  1.00  0.00    -0.277 A  
HETATM   23  C   UNL     1     -12.910  12.432  71.467  1.00  0.00    -0.377 A  
HETATM   24  C   UNL     1     -13.311  13.400  72.392  1.00  0.00    -0.629 A  
HETATM   25  C   UNL     1     -13.012  11.032  71.792  1.00  0.00    -0.438 C  
HETATM   26  C   UNL     1     -13.243  14.750  72.045  1.00  0.00    -0.351 A  
HETATM   27  N   UNL     1     -13.106   9.904  72.046  1.00  0.00    -0.443 NA 
HETATM   28 CL   UNL     1     -13.741  15.946  73.182  1.00  0.00    -0.609 Cl 
HETATM   29  C   UNL     1     -12.766  15.152  70.788  1.00  0.00    -0.463 A  
ENDBRANCH  20  21
ENDBRANCH  14  20
ENDBRANCH   8   9
ENDBRANCH   7   8
TORSDOF 4
ENDMDL
MODEL       49
REMARK 921   NORMALIZED FREE ENERGY PREDICTED BY IDOCK:   -6.98 KCAL/MOL
REMARK 922        TOTAL FREE ENERGY PREDICTED BY IDOCK:   -9.44 KCAL/MOL
REMARK 923 INTER-LIGAND FREE ENERGY PREDICTED BY IDOCK:   -8.99 KCAL/MOL
REMARK 924 INTRA-LIGAND FREE ENERGY PREDICTED BY IDOCK:   -0.45 KCAL/MOL
REMARK 927      BINDING AFFINITY PREDICTED BY RF-SCORE:    0.00 PKD
ROOT
HETATM    1  C   UNL     1     -10.113  18.680  68.706  1.00  0.00    -0.353 C  
HETATM    2  N   UNL     1      -9.208  18.460  67.602  1.00  0.00    -0.265 N  
HETATM    3  C   UNL     1      -8.516  19.481  66.995  1.00  0.00    -0.296 C  
HETATM    4  O   UNL     1      -8.500  20.665  67.284  1.00  0.00    -0.336 OA 
HETATM    5  N   UNL     1      -7.816  18.883  65.960  1.00  0.00    -0.440 NA 
HETATM    6  N   UNL     1      -8.033  17.538  65.949  1.00  0.00    -0.552 NA 
HETATM    7  C   UNL     1      -8.855  17.338  66.945  1.00  0.00    -0.240 C  
ENDROOT
BRANCH   7   8
HETATM    8  C   UNL     1      -9.234  15.925  67.354  1.00  0.00    -0.201 C  
BRANCH   8   9
HETATM    9  N   UNL     1     -10.169  15.124  66.569  1.00  0.00    -0.268 N  
HETATM   10  C   UNL     1     -10.500  15.471  65.269  1.00  0.00    -0.411 C  
HETATM   11  C   UNL     1     -11.126  14.591  64.472  1.00  0.00    -0.280 C  
HETATM   12  C   UNL     1     -11.611  13.322  65.007  1.00  0.00    -0.342 C  
HETATM   13  C   UNL     1     -12.324  12.364  64.103  1.00  0.00    -0.467 C  
HETATM   14  C   UNL     1     -11.386  13.011  66.300  1.00  0.00    -0.317 C  
HETATM   15  C   UNL     1     -10.287  13.786  66.957  1.00  0.00    -0.260 C  
HETATM   16  F   UNL     1     -12.298  12.753  62.801  1.00  0.00    -0.381 F  
HETATM   17  F   UNL     1     -11.751  11.130  64.136  1.00  0.00    -0.257 F  
HETATM   18  O   UNL     1      -9.551  13.247  67.777  1.00  0.00    -0.201 OA 
HETATM   19  F   UNL     1     -13.629  12.204  64.436  1.00  0.00    -0.280 F  
BRANCH  14  20
HETATM   20  O   UNL     1     -11.957  11.896  66.901  1.00  0.00    -0.614 OA 
BRANCH  20  21
HETATM   21  C   UNL     1     -11.210  10.846  67.403  1.00  0.00    -0.273 A  
HETATM   22  C   UNL     1     -11.415  10.592  68.773  1.00  0.00    -0.330 A  
HETATM   23  C   UNL     1     -10.772   9.527  69.424  1.00  0.00    -0.244 A  
HETATM   24  C   UNL     1      -9.911   8.700  68.697  1.00  0.00    -0.180 A  
HETATM   25  C   UNL     1     -10.998   9.286  70.827  1.00  0.00    -0.284 C  
HETATM   26  C   UNL     1      -9.674   8.974  67.350  1.00  0.00    -0.168 A  
HETATM   27  N   UNL     1     -11.168   9.103  71.959  1.00  0.00    -0.329 NA 
HETATM   28 CL   UNL     1      -8.608   7.959  66.451  1.00  0.00    -0.141 Cl 
HETATM   29  C   UNL     1     -10.297  10.055  66.708  1.00  0.00    -0.283 A  
ENDBRANCH  20  21
ENDBRANCH  14  20
ENDBRANCH   8   9
ENDBRANCH   7   8
TORSDOF 4
ENDMDL
MODEL       50
REMARK 921   NORMALIZED FREE ENERGY PREDICTED BY IDOCK:   -6.94 KCAL/MOL
REMARK 922        TOTAL FREE ENERGY PREDICTED BY IDOCK:   -9.40 KCAL/MOL
REMARK 923 INTER-LIGAND FREE ENERGY PREDICTED BY IDOCK:   -9.10 KCAL/MOL
REMARK 924 INTRA-LIGAND FREE ENERGY PREDICTED BY IDOCK:   -0.30 KCAL/MOL
REMARK 927      BINDING AFFINITY PREDICTED BY RF-SCORE:    0.00 PKD
ROOT
HETATM    1  C   UNL     1     -10.206  19.137  68.387  1.00  0.00    -0.389 C  
HETATM    2  N   UNL     1      -9.287  18.667  67.378  1.00  0.00    -0.280 N  
HETATM    3  C   UNL     1      -8.428  19.505  66.708  1.00  0.00    -0.309 C  
HETATM    4  O   UNL     1      -8.260  20.703  66.864  1.00  0.00    -0.253 OA 
HETATM    5  N   UNL     1      -7.767  18.700  65.795  1.00  0.00    -0.501 NA 
HETATM    6  N   UNL     1      -8.171  17.404  65.921  1.00  0.00    -0.552 NA 
HETATM    7  C   UNL     1      -9.062  17.436  66.876  1.00  0.00    -0.245 C  
ENDROOT
BRANCH   7   8
HETATM    8  C   UNL     1      -9.657  16.146  67.413  1.00  0.00    -0.229 C  
BRANCH   8   9
HETATM    9  N   UNL     1     -10.499  15.287  66.587  1.00  0.00    -0.284 N  
HETATM   10  C   UNL     1     -10.810  15.626  65.279  1.00  0.00    -0.406 C  
HETATM   11  C   UNL     1     -11.338  14.710  64.450  1.00  0.00    -0.238 C  
HETATM   12  C   UNL     1     -11.742  13.401  64.954  1.00  0.00    -0.379 C  
HETATM   13  C   UNL     1     -12.347  12.403  64.014  1.00  0.00    -0.488 C  
HETATM   14  C   UNL     1     -11.540  13.091  66.251  1.00  0.00    -0.360 C  
HETATM   15  C   UNL     1     -10.527  13.939  66.955  1.00  0.00    -0.276 C  
HETATM   16  F   UNL     1     -12.306  12.812  62.718  1.00  0.00    -0.381 F  
HETATM   17  F   UNL     1     -11.683  11.217  64.055  1.00  0.00    -0.361 F  
HETATM   18  O   UNL     1      -9.781  13.447  67.795  1.00  0.00    -0.204 OA 
HETATM   19  F   UNL     1     -13.646  12.140  64.299  1.00  0.00    -0.309 F  
BRANCH  14  20
HETATM   20  O   UNL     1     -12.044  11.927  66.819  1.00  0.00    -0.593 OA 
BRANCH  20  21
HETATM   21  C   UNL     1     -11.243  10.981  67.433  1.00  0.00    -0.285 A  
HETATM   22  C   UNL     1     -10.370  10.306  66.558  1.00  0.00    -0.276 A  
HETATM   23  C   UNL     1      -9.454   9.353  67.031  1.00  0.00    -0.200 A  
HETATM   24  C   UNL     1      -9.406   9.068  68.398  1.00  0.00    -0.143 A  
HETATM   25  C   UNL     1      -8.570   8.674  66.116  1.00  0.00    -0.142 C  
HETATM   26  C   UNL     1     -10.297   9.706  69.262  1.00  0.00    -0.209 A  
HETATM   27  N   UNL     1      -7.870   8.118  65.378  1.00  0.00    -0.107 NA 
HETATM   28 CL   UNL     1     -10.244   9.354  70.949  1.00  0.00    -0.365 Cl 
HETATM   29  C   UNL     1     -11.230  10.638  68.784  1.00  0.00    -0.337 A  
ENDBRANCH  20  21
ENDBRANCH  14  20
ENDBRANCH   8   9
ENDBRANCH   7   8
TORSDOF 4
ENDMDL
MODEL       51
REMARK 921   NORMALIZED FREE ENERGY PREDICTED BY IDOCK:   -6.92 KCAL/MOL
REMARK 922        TOTAL FREE ENERGY PREDICTED BY IDOCK:   -9.38 KCAL/MOL
REMARK 923 INTER-LIGAND FREE ENERGY PREDICTED BY IDOCK:   -8.63 KCAL/MOL
REMARK 924 INTRA-LIGAND FREE ENERGY PREDICTED BY IDOCK:   -0.75 KCAL/MOL
REMARK 927      BINDING AFFINITY PREDICTED BY RF-SCORE:    0.00 PKD
ROOT
HETATM    1  C   UNL     1     -10.756  16.712  65.211  1.00  0.00    -0.204 C  
HETATM    2  N   UNL     1     -10.382  17.200  66.518  1.00  0.00    -0.321 N  
HETATM    3  C   UNL     1      -9.581  18.303  66.697  1.00  0.00    -0.315 C  
HETATM    4  O   UNL     1      -9.113  19.047  65.852  1.00  0.00    -0.446 OA 
HETATM    5  N   UNL     1      -9.405  18.409  68.067  1.00  0.00    -0.283 NA 
HETATM    6  N   UNL     1     -10.103  17.435  68.716  1.00  0.00    -0.330 NA 
HETATM    7  C   UNL     1     -10.670  16.753  67.756  1.00  0.00    -0.321 C  
ENDROOT
BRANCH   7   8
HETATM    8  C   UNL     1     -11.660  15.648  68.082  1.00  0.00    -0.283 C  
BRANCH   8   9
HETATM    9  N   UNL     1     -11.456  14.277  67.626  1.00  0.00    -0.327 N  
HETATM   10  C   UNL     1     -11.981  13.832  66.423  1.00  0.00    -0.438 C  
HETATM   11  C   UNL     1     -11.557  12.677  65.885  1.00  0.00    -0.443 C  
HETATM   12  C   UNL     1     -10.664  11.796  66.633  1.00  0.00    -0.300 C  
HETATM   13  C   UNL     1     -10.221  10.502  66.020  1.00  0.00    -0.245 C  
HETATM   14  C   UNL     1     -10.225  12.167  67.852  1.00  0.00    -0.198 C  
HETATM   15  C   UNL     1     -10.331  13.631  68.146  1.00  0.00    -0.245 C  
HETATM   16  F   UNL     1     -10.607  10.377  64.723  1.00  0.00    -0.397 F  
HETATM   17  F   UNL     1      -8.865  10.393  66.019  1.00  0.00    -0.146 F  
HETATM   18  O   UNL     1      -9.463  14.198  68.803  1.00  0.00    -0.186 OA 
HETATM   19  F   UNL     1     -10.705   9.420  66.678  1.00  0.00    -0.282 F  
BRANCH  14  20
HETATM   20  O   UNL     1      -9.504  11.305  68.671  1.00  0.00    -0.186 OA 
BRANCH  20  21
HETATM   21  C   UNL     1     -10.089  10.559  69.678  1.00  0.00    -0.139 A  
HETATM   22  C   UNL     1      -9.243   9.585  70.242  1.00  0.00    -0.303 A  
HETATM   23  C   UNL     1      -9.668   8.778  71.310  1.00  0.00    -0.335 A  
HETATM   24  C   UNL     1     -10.956   8.946  71.826  1.00  0.00    -0.431 A  
HETATM   25  C   UNL     1      -8.785   7.787  71.872  1.00  0.00    -0.118 C  
HETATM   26  C   UNL     1     -11.810   9.883  71.243  1.00  0.00    -0.395 A  
HETATM   27  N   UNL     1      -8.079   6.980  72.313  1.00  0.00    -0.095 NA 
HETATM   28 CL   UNL     1     -13.402  10.090  71.873  1.00  0.00    -0.518 Cl 
HETATM   29  C   UNL     1     -11.393  10.669  70.158  1.00  0.00    -0.402 A  
ENDBRANCH  20  21
ENDBRANCH  14  20
ENDBRANCH   8   9
ENDBRANCH   7   8
TORSDOF 4
ENDMDL
MODEL       52
REMARK 921   NORMALIZED FREE ENERGY PREDICTED BY IDOCK:   -6.92 KCAL/MOL
REMARK 922        TOTAL FREE ENERGY PREDICTED BY IDOCK:   -9.38 KCAL/MOL
REMARK 923 INTER-LIGAND FREE ENERGY PREDICTED BY IDOCK:   -8.39 KCAL/MOL
REMARK 924 INTRA-LIGAND FREE ENERGY PREDICTED BY IDOCK:   -0.99 KCAL/MOL
REMARK 927      BINDING AFFINITY PREDICTED BY RF-SCORE:    0.00 PKD
ROOT
HETATM    1  C   UNL     1     -11.866  13.281  64.113  1.00  0.00    -0.443 C  
HETATM    2  N   UNL     1     -11.139  14.369  64.724  1.00  0.00    -0.394 N  
HETATM    3  C   UNL     1     -11.416  15.689  64.458  1.00  0.00    -0.300 C  
HETATM    4  O   UNL     1     -12.293  16.153  63.750  1.00  0.00    -0.864 OA 
HETATM    5  N   UNL     1     -10.478  16.412  65.177  1.00  0.00    -0.657 NA 
HETATM    6  N   UNL     1      -9.675  15.575  65.893  1.00  0.00    -0.337 NA 
HETATM    7  C   UNL     1     -10.113  14.380  65.598  1.00  0.00    -0.353 C  
ENDROOT
BRANCH   7   8
HETATM    8  C   UNL     1      -9.556  13.161  66.314  1.00  0.00    -0.234 C  
BRANCH   8   9
HETATM    9  N   UNL     1     -10.186  12.625  67.516  1.00  0.00    -0.213 N  
HETATM   10  C   UNL     1     -10.670  13.459  68.511  1.00  0.00    -0.262 C  
HETATM   11  C   UNL     1     -11.488  12.978  69.461  1.00  0.00    -0.289 C  
HETATM   12  C   UNL     1     -11.747  11.544  69.557  1.00  0.00    -0.413 C  
HETATM   13  C   UNL     1     -12.647  11.028  70.638  1.00  0.00    -0.338 C  
HETATM   14  C   UNL     1     -11.200  10.703  68.656  1.00  0.00    -0.278 C  
HETATM   15  C   UNL     1     -10.739  11.346  67.386  1.00  0.00    -0.232 C  
HETATM   16  F   UNL     1     -13.254  12.024  71.336  1.00  0.00    -0.439 F  
HETATM   17  F   UNL     1     -13.650  10.265  70.126  1.00  0.00    -0.205 F  
HETATM   18  O   UNL     1     -10.857  10.762  66.314  1.00  0.00    -0.183 OA 
HETATM   19  F   UNL     1     -11.989  10.263  71.544  1.00  0.00    -0.428 F  
BRANCH  14  20
HETATM   20  O   UNL     1     -11.283   9.322  68.790  1.00  0.00     0.020 OA 
BRANCH  20  21
HETATM   21  C   UNL     1     -10.234   8.472  68.494  1.00  0.00    -0.198 A  
HETATM   22  C   UNL     1     -10.577   7.402  67.646  1.00  0.00    -0.309 A  
HETATM   23  C   UNL     1      -9.614   6.479  67.207  1.00  0.00    -0.148 A  
HETATM   24  C   UNL     1      -8.287   6.625  67.619  1.00  0.00    -0.122 A  
HETATM   25  C   UNL     1      -9.989   5.390  66.340  1.00  0.00    -0.191 C  
HETATM   26  C   UNL     1      -7.951   7.661  68.491  1.00  0.00    -0.123 A  
HETATM   27  N   UNL     1     -10.294   4.507  65.654  1.00  0.00    -0.271 NA 
HETATM   28 CL   UNL     1      -6.315   7.843  69.005  1.00  0.00    -0.036 Cl 
HETATM   29  C   UNL     1      -8.920   8.567  68.950  1.00  0.00    -0.146 A  
ENDBRANCH  20  21
ENDBRANCH  14  20
ENDBRANCH   8   9
ENDBRANCH   7   8
TORSDOF 4
ENDMDL
MODEL       53
REMARK 921   NORMALIZED FREE ENERGY PREDICTED BY IDOCK:   -6.92 KCAL/MOL
REMARK 922        TOTAL FREE ENERGY PREDICTED BY IDOCK:   -9.37 KCAL/MOL
REMARK 923 INTER-LIGAND FREE ENERGY PREDICTED BY IDOCK:   -8.36 KCAL/MOL
REMARK 924 INTRA-LIGAND FREE ENERGY PREDICTED BY IDOCK:   -1.01 KCAL/MOL
REMARK 927      BINDING AFFINITY PREDICTED BY RF-SCORE:    0.00 PKD
ROOT
HETATM    1  C   UNL     1     -10.525  15.752  67.161  1.00  0.00    -0.309 C  
HETATM    2  N   UNL     1     -11.285  15.250  66.040  1.00  0.00    -0.284 N  
HETATM    3  C   UNL     1     -11.330  15.894  64.826  1.00  0.00    -0.309 C  
HETATM    4  O   UNL     1     -10.741  16.904  64.480  1.00  0.00    -0.677 OA 
HETATM    5  N   UNL     1     -12.198  15.146  64.047  1.00  0.00    -0.582 NA 
HETATM    6  N   UNL     1     -12.643  14.059  64.737  1.00  0.00    -0.655 NA 
HETATM    7  C   UNL     1     -12.067  14.161  65.905  1.00  0.00    -0.426 C  
ENDROOT
BRANCH   7   8
HETATM    8  C   UNL     1     -12.206  13.047  66.929  1.00  0.00    -0.168 C  
BRANCH   8   9
HETATM    9  N   UNL     1     -11.207  11.990  67.051  1.00  0.00    -0.301 N  
HETATM   10  C   UNL     1     -10.627  11.413  65.932  1.00  0.00    -0.263 C  
HETATM   11  C   UNL     1      -9.524  10.657  66.055  1.00  0.00    -0.233 C  
HETATM   12  C   UNL     1      -9.015  10.299  67.376  1.00  0.00    -0.141 C  
HETATM   13  C   UNL     1      -7.794   9.438  67.487  1.00  0.00    -0.099 C  
HETATM   14  C   UNL     1      -9.629  10.770  68.480  1.00  0.00    -0.183 C  
HETATM   15  C   UNL     1     -10.503  11.965  68.259  1.00  0.00    -0.205 C  
HETATM   16  F   UNL     1      -7.201   9.211  66.285  1.00  0.00    -0.085 F  
HETATM   17  F   UNL     1      -6.845  10.022  68.268  1.00  0.00    -0.061 F  
HETATM   18  O   UNL     1     -10.571  12.851  69.105  1.00  0.00    -0.107 OA 
HETATM   19  F   UNL     1      -8.060   8.223  68.027  1.00  0.00    -0.118 F  
BRANCH  14  20
HETATM   20  O   UNL     1      -9.287  10.338  69.756  1.00  0.00    -0.188 OA 
BRANCH  20  21
HETATM   21  C   UNL     1     -10.181   9.708  70.603  1.00  0.00    -0.278 A  
HETATM   22  C   UNL     1      -9.576   8.924  71.603  1.00  0.00    -0.363 A  
HETATM   23  C   UNL     1     -10.342   8.261  72.576  1.00  0.00    -0.401 A  
HETATM   24  C   UNL     1     -11.734   8.384  72.552  1.00  0.00    -0.429 A  
HETATM   25  C   UNL     1      -9.701   7.462  73.590  1.00  0.00    -0.299 C  
HETATM   26  C   UNL     1     -12.339   9.128  71.538  1.00  0.00    -0.347 A  
HETATM   27  N   UNL     1      -9.185   6.809  74.397  1.00  0.00    -0.206 NA 
HETATM   28 CL   UNL     1     -14.056   9.278  71.502  1.00  0.00    -0.276 Cl 
HETATM   29  C   UNL     1     -11.573   9.767  70.551  1.00  0.00    -0.365 A  
ENDBRANCH  20  21
ENDBRANCH  14  20
ENDBRANCH   8   9
ENDBRANCH   7   8
TORSDOF 4
ENDMDL
MODEL       54
REMARK 921   NORMALIZED FREE ENERGY PREDICTED BY IDOCK:   -6.91 KCAL/MOL
REMARK 922        TOTAL FREE ENERGY PREDICTED BY IDOCK:   -9.36 KCAL/MOL
REMARK 923 INTER-LIGAND FREE ENERGY PREDICTED BY IDOCK:   -8.20 KCAL/MOL
REMARK 924 INTRA-LIGAND FREE ENERGY PREDICTED BY IDOCK:   -1.17 KCAL/MOL
REMARK 927      BINDING AFFINITY PREDICTED BY RF-SCORE:    0.00 PKD
ROOT
HETATM    1  C   UNL     1     -13.765  13.286  72.322  1.00  0.00    -0.589 C  
HETATM    2  N   UNL     1     -12.977  14.493  72.232  1.00  0.00    -0.340 N  
HETATM    3  C   UNL     1     -12.464  15.130  73.338  1.00  0.00    -0.513 C  
HETATM    4  O   UNL     1     -12.532  14.792  74.508  1.00  0.00    -0.416 OA 
HETATM    5  N   UNL     1     -11.834  16.262  72.849  1.00  0.00    -0.490 NA 
HETATM    6  N   UNL     1     -11.917  16.306  71.489  1.00  0.00    -0.411 NA 
HETATM    7  C   UNL     1     -12.593  15.234  71.173  1.00  0.00    -0.393 C  
ENDROOT
BRANCH   7   8
HETATM    8  C   UNL     1     -12.781  14.847  69.717  1.00  0.00    -0.027 C  
BRANCH   8   9
HETATM    9  N   UNL     1     -11.808  14.018  69.013  1.00  0.00    -0.334 N  
HETATM   10  C   UNL     1     -11.840  12.635  69.102  1.00  0.00    -0.297 C  
HETATM   11  C   UNL     1     -11.134  11.884  68.241  1.00  0.00    -0.289 C  
HETATM   12  C   UNL     1     -10.198  12.508  67.309  1.00  0.00    -0.222 C  
HETATM   13  C   UNL     1      -9.407  11.649  66.372  1.00  0.00    -0.213 C  
HETATM   14  C   UNL     1     -10.079  13.851  67.280  1.00  0.00    -0.242 C  
HETATM   15  C   UNL     1     -11.222  14.603  67.886  1.00  0.00    -0.304 C  
HETATM   16  F   UNL     1      -9.787  10.344  66.409  1.00  0.00    -0.215 F  
HETATM   17  F   UNL     1      -9.564  12.047  65.080  1.00  0.00    -0.240 F  
HETATM   18  O   UNL     1     -11.598  15.664  67.396  1.00  0.00    -0.168 OA 
HETATM   19  F   UNL     1      -8.077  11.675  66.636  1.00  0.00    -0.157 F  
BRANCH  14  20
HETATM   20  O   UNL     1      -9.098  14.488  66.529  1.00  0.00    -0.258 OA 
BRANCH  20  21
HETATM   21  C   UNL     1      -8.228  15.421  67.063  1.00  0.00    -0.236 A  
HETATM   22  C   UNL     1      -8.136  16.616  66.325  1.00  0.00    -0.361 A  
HETATM   23  C   UNL     1      -7.337  17.686  66.761  1.00  0.00    -0.245 A  
HETATM   24  C   UNL     1      -6.618  17.562  67.954  1.00  0.00    -0.179 A  
HETATM   25  C   UNL     1      -7.258  18.900  65.989  1.00  0.00    -0.263 C  
HETATM   26  C   UNL     1      -6.676  16.364  68.667  1.00  0.00    -0.145 A  
HETATM   27  N   UNL     1      -7.183  19.870  65.359  1.00  0.00    -0.356 NA 
HETATM   28 CL   UNL     1      -5.787  16.206  70.136  1.00  0.00    -0.180 Cl 
HETATM   29  C   UNL     1      -7.454  15.287  68.215  1.00  0.00    -0.112 A  
ENDBRANCH  20  21
ENDBRANCH  14  20
ENDBRANCH   8   9
ENDBRANCH   7   8
TORSDOF 4
ENDMDL
MODEL       55
REMARK 921   NORMALIZED FREE ENERGY PREDICTED BY IDOCK:   -6.88 KCAL/MOL
REMARK 922        TOTAL FREE ENERGY PREDICTED BY IDOCK:   -9.33 KCAL/MOL
REMARK 923 INTER-LIGAND FREE ENERGY PREDICTED BY IDOCK:   -8.54 KCAL/MOL
REMARK 924 INTRA-LIGAND FREE ENERGY PREDICTED BY IDOCK:   -0.79 KCAL/MOL
REMARK 927      BINDING AFFINITY PREDICTED BY RF-SCORE:    0.00 PKD
ROOT
HETATM    1  C   UNL     1      -8.663  12.091  66.572  1.00  0.00    -0.138 C  
HETATM    2  N   UNL     1      -9.666  12.228  65.543  1.00  0.00    -0.206 N  
HETATM    3  C   UNL     1     -10.073  11.174  64.758  1.00  0.00    -0.295 C  
HETATM    4  O   UNL     1      -9.726  10.007  64.815  1.00  0.00    -0.305 OA 
HETATM    5  N   UNL     1     -10.985  11.713  63.866  1.00  0.00    -0.381 NA 
HETATM    6  N   UNL     1     -11.168  13.041  64.112  1.00  0.00    -0.379 NA 
HETATM    7  C   UNL     1     -10.373  13.294  65.118  1.00  0.00    -0.323 C  
ENDROOT
BRANCH   7   8
HETATM    8  C   UNL     1     -10.393  14.657  65.786  1.00  0.00    -0.332 C  
BRANCH   8   9
HETATM    9  N   UNL     1     -10.643  14.807  67.216  1.00  0.00    -0.269 N  
HETATM   10  C   UNL     1     -10.092  15.852  67.939  1.00  0.00    -0.235 C  
HETATM   11  C   UNL     1     -10.548  16.141  69.169  1.00  0.00    -0.276 C  
HETATM   12  C   UNL     1     -11.513  15.262  69.825  1.00  0.00    -0.332 C  
HETATM   13  C   UNL     1     -11.993  15.593  71.205  1.00  0.00    -0.415 C  
HETATM   14  C   UNL     1     -11.984  14.180  69.173  1.00  0.00    -0.349 C  
HETATM   15  C   UNL     1     -11.820  14.214  67.686  1.00  0.00    -0.392 C  
HETATM   16  F   UNL     1     -11.559  16.809  71.633  1.00  0.00    -0.445 F  
HETATM   17  F   UNL     1     -13.351  15.640  71.260  1.00  0.00    -0.489 F  
HETATM   18  O   UNL     1     -12.685  13.745  66.953  1.00  0.00    -0.118 OA 
HETATM   19  F   UNL     1     -11.589  14.687  72.129  1.00  0.00    -0.380 F  
BRANCH  14  20
HETATM   20  O   UNL     1     -12.779  13.228  69.801  1.00  0.00     0.022 OA 
BRANCH  20  21
HETATM   21  C   UNL     1     -12.291  12.008  70.234  1.00  0.00    -0.195 A  
HETATM   22  C   UNL     1     -11.059  11.641  69.662  1.00  0.00    -0.177 A  
HETATM   23  C   UNL     1     -10.403  10.457  70.036  1.00  0.00    -0.181 A  
HETATM   24  C   UNL     1     -10.985   9.625  70.996  1.00  0.00    -0.431 A  
HETATM   25  C   UNL     1      -9.141  10.101  69.436  1.00  0.00    -0.203 C  
HETATM   26  C   UNL     1     -12.226   9.966  71.536  1.00  0.00    -0.416 A  
HETATM   27  N   UNL     1      -8.134   9.808  68.942  1.00  0.00    -0.096 NA 
HETATM   28 CL   UNL     1     -12.949   8.940  72.718  1.00  0.00    -0.334 Cl 
HETATM   29  C   UNL     1     -12.892  11.137  71.141  1.00  0.00    -0.473 A  
ENDBRANCH  20  21
ENDBRANCH  14  20
ENDBRANCH   8   9
ENDBRANCH   7   8
TORSDOF 4
ENDMDL
MODEL       56
REMARK 921   NORMALIZED FREE ENERGY PREDICTED BY IDOCK:   -6.87 KCAL/MOL
REMARK 922        TOTAL FREE ENERGY PREDICTED BY IDOCK:   -9.32 KCAL/MOL
REMARK 923 INTER-LIGAND FREE ENERGY PREDICTED BY IDOCK:   -8.23 KCAL/MOL
REMARK 924 INTRA-LIGAND FREE ENERGY PREDICTED BY IDOCK:   -1.09 KCAL/MOL
REMARK 927      BINDING AFFINITY PREDICTED BY RF-SCORE:    0.00 PKD
ROOT
HETATM    1  C   UNL     1      -8.722  10.364  69.143  1.00  0.00    -0.166 C  
HETATM    2  N   UNL     1      -9.388   9.725  68.033  1.00  0.00    -0.128 N  
HETATM    3  C   UNL     1     -10.059   8.532  68.157  1.00  0.00    -0.200 C  
HETATM    4  O   UNL     1     -10.246   7.867  69.162  1.00  0.00    -0.206 OA 
HETATM    5  N   UNL     1     -10.499   8.224  66.880  1.00  0.00    -0.320 NA 
HETATM    6  N   UNL     1     -10.149   9.207  66.004  1.00  0.00    -0.237 NA 
HETATM    7  C   UNL     1      -9.502  10.075  66.736  1.00  0.00    -0.168 C  
ENDROOT
BRANCH   7   8
HETATM    8  C   UNL     1      -9.062  11.401  66.143  1.00  0.00    -0.207 C  
BRANCH   8   9
HETATM    9  N   UNL     1      -9.213  12.656  66.873  1.00  0.00    -0.212 N  
HETATM   10  C   UNL     1      -8.170  13.564  66.970  1.00  0.00    -0.033 C  
HETATM   11  C   UNL     1      -8.401  14.818  67.391  1.00  0.00    -0.218 C  
HETATM   12  C   UNL     1      -9.714  15.195  67.907  1.00  0.00    -0.208 C  
HETATM   13  C   UNL     1      -9.942  16.595  68.390  1.00  0.00    -0.255 C  
HETATM   14  C   UNL     1     -10.715  14.292  67.915  1.00  0.00    -0.240 C  
HETATM   15  C   UNL     1     -10.524  13.126  66.997  1.00  0.00    -0.248 C  
HETATM   16  F   UNL     1      -8.887  17.415  68.138  1.00  0.00    -0.225 F  
HETATM   17  F   UNL     1     -11.014  17.164  67.775  1.00  0.00    -0.354 F  
HETATM   18  O   UNL     1     -11.481  12.638  66.404  1.00  0.00    -0.315 OA 
HETATM   19  F   UNL     1     -10.172  16.655  69.725  1.00  0.00    -0.238 F  
BRANCH  14  20
HETATM   20  O   UNL     1     -11.933  14.546  68.534  1.00  0.00    -0.327 OA 
BRANCH  20  21
HETATM   21  C   UNL     1     -12.277  14.017  69.765  1.00  0.00    -0.341 A  
HETATM   22  C   UNL     1     -12.522  14.981  70.761  1.00  0.00    -0.411 A  
HETATM   23  C   UNL     1     -12.933  14.609  72.052  1.00  0.00    -0.411 A  
HETATM   24  C   UNL     1     -13.103  13.256  72.354  1.00  0.00    -0.443 A  
HETATM   25  C   UNL     1     -13.178  15.614  73.057  1.00  0.00    -0.562 C  
HETATM   26  C   UNL     1     -12.822  12.296  71.381  1.00  0.00    -0.271 A  
HETATM   27  N   UNL     1     -13.361  16.422  73.868  1.00  0.00    -0.488 NA 
HETATM   28 CL   UNL     1     -13.027  10.625  71.751  1.00  0.00    -0.576 Cl 
HETATM   29  C   UNL     1     -12.386  12.668  70.100  1.00  0.00    -0.222 A  
ENDBRANCH  20  21
ENDBRANCH  14  20
ENDBRANCH   8   9
ENDBRANCH   7   8
TORSDOF 4
ENDMDL
MODEL       57
REMARK 921   NORMALIZED FREE ENERGY PREDICTED BY IDOCK:   -6.87 KCAL/MOL
REMARK 922        TOTAL FREE ENERGY PREDICTED BY IDOCK:   -9.31 KCAL/MOL
REMARK 923 INTER-LIGAND FREE ENERGY PREDICTED BY IDOCK:   -8.39 KCAL/MOL
REMARK 924 INTRA-LIGAND FREE ENERGY PREDICTED BY IDOCK:   -0.92 KCAL/MOL
REMARK 927      BINDING AFFINITY PREDICTED BY RF-SCORE:    0.00 PKD
ROOT
HETATM    1  C   UNL     1     -13.436   7.166  71.537  1.00  0.00    -0.332 C  
HETATM    2  N   UNL     1     -12.105   7.317  72.076  1.00  0.00    -0.300 N  
HETATM    3  C   UNL     1     -11.409   6.274  72.639  1.00  0.00    -0.247 C  
HETATM    4  O   UNL     1     -11.740   5.105  72.737  1.00  0.00    -0.239 OA 
HETATM    5  N   UNL     1     -10.220   6.826  73.086  1.00  0.00    -0.209 NA 
HETATM    6  N   UNL     1     -10.162   8.152  72.777  1.00  0.00    -0.309 NA 
HETATM    7  C   UNL     1     -11.296   8.391  72.172  1.00  0.00    -0.366 C  
ENDROOT
BRANCH   7   8
HETATM    8  C   UNL     1     -11.558   9.747  71.541  1.00  0.00    -0.353 C  
BRANCH   8   9
HETATM    9  N   UNL     1     -11.000  10.109  70.243  1.00  0.00    -0.299 N  
HETATM   10  C   UNL     1      -9.866   9.486  69.746  1.00  0.00    -0.215 C  
HETATM   11  C   UNL     1      -9.531   9.620  68.452  1.00  0.00    -0.143 C  
HETATM   12  C   UNL     1     -10.257  10.551  67.592  1.00  0.00    -0.234 C  
HETATM   13  C   UNL     1      -9.852  10.699  66.157  1.00  0.00    -0.217 C  
HETATM   14  C   UNL     1     -11.302  11.244  68.088  1.00  0.00    -0.303 C  
HETATM   15  C   UNL     1     -11.901  10.681  69.339  1.00  0.00    -0.253 C  
HETATM   16  F   UNL     1      -8.908   9.795  65.783  1.00  0.00    -0.142 F  
HETATM   17  F   UNL     1     -10.908  10.505  65.322  1.00  0.00    -0.255 F  
HETATM   18  O   UNL     1     -13.113  10.731  69.525  1.00  0.00    -0.013 OA 
HETATM   19  F   UNL     1      -9.348  11.926  65.881  1.00  0.00    -0.224 F  
BRANCH  14  20
HETATM   20  O   UNL     1     -11.928  12.254  67.366  1.00  0.00    -0.530 OA 
BRANCH  20  21
HETATM   21  C   UNL     1     -11.702  13.598  67.600  1.00  0.00    -0.363 A  
HETATM   22  C   UNL     1     -11.958  14.006  68.922  1.00  0.00    -0.387 A  
HETATM   23  C   UNL     1     -11.728  15.328  69.337  1.00  0.00    -0.361 A  
HETATM   24  C   UNL     1     -11.235  16.258  68.418  1.00  0.00    -0.349 A  
HETATM   25  C   UNL     1     -11.998  15.723  70.697  1.00  0.00    -0.393 C  
HETATM   26  C   UNL     1     -11.018  15.866  67.097  1.00  0.00    -0.214 A  
HETATM   27  N   UNL     1     -12.229  16.043  71.787  1.00  0.00    -0.474 NA 
HETATM   28 CL   UNL     1     -10.413  17.012  65.959  1.00  0.00    -0.318 Cl 
HETATM   29  C   UNL     1     -11.274  14.552  66.678  1.00  0.00    -0.346 A  
ENDBRANCH  20  21
ENDBRANCH  14  20
ENDBRANCH   8   9
ENDBRANCH   7   8
TORSDOF 4
ENDMDL
MODEL       58
REMARK 921   NORMALIZED FREE ENERGY PREDICTED BY IDOCK:   -6.82 KCAL/MOL
REMARK 922        TOTAL FREE ENERGY PREDICTED BY IDOCK:   -9.25 KCAL/MOL
REMARK 923 INTER-LIGAND FREE ENERGY PREDICTED BY IDOCK:   -7.80 KCAL/MOL
REMARK 924 INTRA-LIGAND FREE ENERGY PREDICTED BY IDOCK:   -1.45 KCAL/MOL
REMARK 927      BINDING AFFINITY PREDICTED BY RF-SCORE:    0.00 PKD
ROOT
HETATM    1  C   UNL     1      -7.263   8.447  69.015  1.00  0.00    -0.070 C  
HETATM    2  N   UNL     1      -8.347   8.840  69.884  1.00  0.00    -0.119 N  
HETATM    3  C   UNL     1      -8.157   9.170  71.205  1.00  0.00    -0.085 C  
HETATM    4  O   UNL     1      -7.111   9.236  71.828  1.00  0.00    -0.318 OA 
HETATM    5  N   UNL     1      -9.423   9.426  71.704  1.00  0.00    -0.189 NA 
HETATM    6  N   UNL     1     -10.359   9.298  70.722  1.00  0.00    -0.258 NA 
HETATM    7  C   UNL     1      -9.671   8.960  69.664  1.00  0.00    -0.174 C  
ENDROOT
BRANCH   7   8
HETATM    8  C   UNL     1     -10.349   8.858  68.309  1.00  0.00    -0.206 C  
BRANCH   8   9
HETATM    9  N   UNL     1     -10.295   9.948  67.340  1.00  0.00    -0.229 N  
HETATM   10  C   UNL     1      -9.759   9.763  66.076  1.00  0.00    -0.255 C  
HETATM   11  C   UNL     1      -9.968  10.673  65.111  1.00  0.00    -0.366 C  
HETATM   12  C   UNL     1     -10.619  11.943  65.421  1.00  0.00    -0.315 C  
HETATM   13  C   UNL     1     -10.824  12.952  64.332  1.00  0.00    -0.380 C  
HETATM   14  C   UNL     1     -11.057  12.183  66.673  1.00  0.00    -0.306 C  
HETATM   15  C   UNL     1     -11.235  10.967  67.527  1.00  0.00    -0.293 C  
HETATM   16  F   UNL     1     -10.493  12.473  63.104  1.00  0.00    -0.406 F  
HETATM   17  F   UNL     1     -12.128  13.332  64.247  1.00  0.00    -0.392 F  
HETATM   18  O   UNL     1     -12.161  10.899  68.329  1.00  0.00    -0.562 OA 
HETATM   19  F   UNL     1     -10.094  14.079  64.521  1.00  0.00    -0.449 F  
BRANCH  14  20
HETATM   20  O   UNL     1     -11.539  13.428  67.061  1.00  0.00    -0.320 OA 
BRANCH  20  21
HETATM   21  C   UNL     1     -10.968  14.174  68.075  1.00  0.00    -0.255 A  
HETATM   22  C   UNL     1      -9.624  14.526  67.848  1.00  0.00    -0.217 A  
HETATM   23  C   UNL     1      -8.915  15.328  68.757  1.00  0.00    -0.200 A  
HETATM   24  C   UNL     1      -9.556  15.786  69.911  1.00  0.00    -0.030 A  
HETATM   25  C   UNL     1      -7.539  15.676  68.504  1.00  0.00    -0.132 C  
HETATM   26  C   UNL     1     -10.875  15.406  70.159  1.00  0.00    -0.309 A  
HETATM   27  N   UNL     1      -6.428  15.943  68.306  1.00  0.00    -0.115 NA 
HETATM   28 CL   UNL     1     -11.668  15.966  71.585  1.00  0.00    -0.514 Cl 
HETATM   29  C   UNL     1     -11.574  14.583  69.263  1.00  0.00    -0.339 A  
ENDBRANCH  20  21
ENDBRANCH  14  20
ENDBRANCH   8   9
ENDBRANCH   7   8
TORSDOF 4
ENDMDL
MODEL       59
REMARK 921   NORMALIZED FREE ENERGY PREDICTED BY IDOCK:   -6.79 KCAL/MOL
REMARK 922        TOTAL FREE ENERGY PREDICTED BY IDOCK:   -9.22 KCAL/MOL
REMARK 923 INTER-LIGAND FREE ENERGY PREDICTED BY IDOCK:   -8.12 KCAL/MOL
REMARK 924 INTRA-LIGAND FREE ENERGY PREDICTED BY IDOCK:   -1.10 KCAL/MOL
REMARK 927      BINDING AFFINITY PREDICTED BY RF-SCORE:    0.00 PKD
ROOT
HETATM    1  C   UNL     1     -11.301   7.589  70.421  1.00  0.00    -0.233 C  
HETATM    2  N   UNL     1     -10.069   8.326  70.271  1.00  0.00    -0.190 N  
HETATM    3  C   UNL     1      -8.837   7.716  70.254  1.00  0.00    -0.145 C  
HETATM    4  O   UNL     1      -8.578   6.525  70.308  1.00  0.00    -0.133 OA 
HETATM    5  N   UNL     1      -7.919   8.748  70.156  1.00  0.00    -0.099 NA 
HETATM    6  N   UNL     1      -8.557   9.950  70.076  1.00  0.00    -0.201 NA 
HETATM    7  C   UNL     1      -9.826   9.644  70.138  1.00  0.00    -0.262 C  
ENDROOT
BRANCH   7   8
HETATM    8  C   UNL     1     -10.883  10.717  69.939  1.00  0.00    -0.241 C  
BRANCH   8   9
HETATM    9  N   UNL     1     -11.019  11.434  68.676  1.00  0.00    -0.203 N  
HETATM   10  C   UNL     1     -10.949  10.772  67.460  1.00  0.00    -0.312 C  
HETATM   11  C   UNL     1     -11.352  11.381  66.333  1.00  0.00    -0.168 C  
HETATM   12  C   UNL     1     -11.714  12.796  66.345  1.00  0.00    -0.464 C  
HETATM   13  C   UNL     1     -12.142  13.459  65.072  1.00  0.00    -0.401 C  
HETATM   14  C   UNL     1     -11.690  13.483  67.505  1.00  0.00    -0.367 C  
HETATM   15  C   UNL     1     -11.722  12.641  68.742  1.00  0.00    -0.323 C  
HETATM   16  F   UNL     1     -12.287  12.579  64.045  1.00  0.00    -0.448 F  
HETATM   17  F   UNL     1     -13.349  14.071  65.212  1.00  0.00    -0.423 F  
HETATM   18  O   UNL     1     -12.339  13.016  69.734  1.00  0.00    -0.205 OA 
HETATM   19  F   UNL     1     -11.264  14.404  64.655  1.00  0.00    -0.351 F  
BRANCH  14  20
HETATM   20  O   UNL     1     -11.872  14.861  67.551  1.00  0.00    -0.350 OA 
BRANCH  20  21
HETATM   21  C   UNL     1     -10.843  15.748  67.807  1.00  0.00    -0.316 A  
HETATM   22  C   UNL     1      -9.555  15.215  67.604  1.00  0.00    -0.206 A  
HETATM   23  C   UNL     1      -8.404  16.002  67.769  1.00  0.00    -0.159 A  
HETATM   24  C   UNL     1      -8.538  17.342  68.141  1.00  0.00    -0.242 A  
HETATM   25  C   UNL     1      -7.096  15.434  67.557  1.00  0.00    -0.192 C  
HETATM   26  C   UNL     1      -9.810  17.862  68.382  1.00  0.00    -0.355 A  
HETATM   27  N   UNL     1      -6.044  14.973  67.399  1.00  0.00    -0.328 NA 
HETATM   28 CL   UNL     1      -9.979  19.514  68.846  1.00  0.00    -0.530 Cl 
HETATM   29  C   UNL     1     -10.958  17.067  68.242  1.00  0.00    -0.269 A  
ENDBRANCH  20  21
ENDBRANCH  14  20
ENDBRANCH   8   9
ENDBRANCH   7   8
TORSDOF 4
ENDMDL
MODEL       60
REMARK 921   NORMALIZED FREE ENERGY PREDICTED BY IDOCK:   -6.75 KCAL/MOL
REMARK 922        TOTAL FREE ENERGY PREDICTED BY IDOCK:   -9.17 KCAL/MOL
REMARK 923 INTER-LIGAND FREE ENERGY PREDICTED BY IDOCK:   -8.64 KCAL/MOL
REMARK 924 INTRA-LIGAND FREE ENERGY PREDICTED BY IDOCK:   -0.53 KCAL/MOL
REMARK 927      BINDING AFFINITY PREDICTED BY RF-SCORE:    0.00 PKD
ROOT
HETATM    1  C   UNL     1      -6.923  17.405  67.588  1.00  0.00    -0.162 C  
HETATM    2  N   UNL     1      -8.270  17.685  68.027  1.00  0.00    -0.235 N  
HETATM    3  C   UNL     1      -8.755  18.964  68.164  1.00  0.00    -0.309 C  
HETATM    4  O   UNL     1      -8.196  20.019  67.914  1.00  0.00    -0.296 OA 
HETATM    5  N   UNL     1     -10.042  18.817  68.655  1.00  0.00    -0.392 NA 
HETATM    6  N   UNL     1     -10.358  17.497  68.780  1.00  0.00    -0.366 NA 
HETATM    7  C   UNL     1      -9.281  16.870  68.386  1.00  0.00    -0.253 C  
ENDROOT
BRANCH   7   8
HETATM    8  C   UNL     1      -9.283  15.358  68.246  1.00  0.00    -0.188 C  
BRANCH   8   9
HETATM    9  N   UNL     1     -10.123  14.680  67.263  1.00  0.00    -0.236 N  
HETATM   10  C   UNL     1     -10.802  15.388  66.285  1.00  0.00    -0.301 C  
HETATM   11  C   UNL     1     -11.333  14.748  65.230  1.00  0.00    -0.363 C  
HETATM   12  C   UNL     1     -11.346  13.288  65.181  1.00  0.00    -0.318 C  
HETATM   13  C   UNL     1     -11.962  12.595  64.004  1.00  0.00    -0.451 C  
HETATM   14  C   UNL     1     -10.779  12.580  66.178  1.00  0.00    -0.261 C  
HETATM   15  C   UNL     1      -9.804  13.340  67.022  1.00  0.00    -0.242 C  
HETATM   16  F   UNL     1     -12.316  13.458  63.014  1.00  0.00    -0.607 F  
HETATM   17  F   UNL     1     -11.095  11.713  63.439  1.00  0.00    -0.424 F  
HETATM   18  O   UNL     1      -8.796  12.791  67.455  1.00  0.00    -0.172 OA 
HETATM   19  F   UNL     1     -13.078  11.900  64.333  1.00  0.00    -0.437 F  
BRANCH  14  20
HETATM   20  O   UNL     1     -10.898  11.197  66.262  1.00  0.00    -0.263 OA 
BRANCH  20  21
HETATM   21  C   UNL     1     -10.976  10.520  67.465  1.00  0.00    -0.303 A  
HETATM   22  C   UNL     1     -10.345   9.262  67.463  1.00  0.00    -0.323 A  
HETATM   23  C   UNL     1     -10.288   8.471  68.623  1.00  0.00    -0.224 A  
HETATM   24  C   UNL     1     -10.869   8.942  69.803  1.00  0.00    -0.207 A  
HETATM   25  C   UNL     1      -9.636   7.186  68.597  1.00  0.00    -0.140 C  
HETATM   26  C   UNL     1     -11.531  10.170  69.797  1.00  0.00    -0.228 A  
HETATM   27  N   UNL     1      -9.123   6.146  68.571  1.00  0.00    -0.118 NA 
HETATM   28 CL   UNL     1     -12.254  10.753  71.251  1.00  0.00    -0.449 Cl 
HETATM   29  C   UNL     1     -11.610  10.947  68.631  1.00  0.00    -0.373 A  
ENDBRANCH  20  21
ENDBRANCH  14  20
ENDBRANCH   8   9
ENDBRANCH   7   8
TORSDOF 4
ENDMDL
MODEL       61
REMARK 921   NORMALIZED FREE ENERGY PREDICTED BY IDOCK:   -6.73 KCAL/MOL
REMARK 922        TOTAL FREE ENERGY PREDICTED BY IDOCK:   -9.14 KCAL/MOL
REMARK 923 INTER-LIGAND FREE ENERGY PREDICTED BY IDOCK:   -8.19 KCAL/MOL
REMARK 924 INTRA-LIGAND FREE ENERGY PREDICTED BY IDOCK:   -0.95 KCAL/MOL
REMARK 927      BINDING AFFINITY PREDICTED BY RF-SCORE:    0.00 PKD
ROOT
HETATM    1  C   UNL     1     -13.044   9.207  71.842  1.00  0.00    -0.411 C  
HETATM    2  N   UNL     1     -11.750   9.364  71.222  1.00  0.00    -0.331 N  
HETATM    3  C   UNL     1     -10.744   8.437  71.359  1.00  0.00    -0.237 C  
HETATM    4  O   UNL     1     -10.771   7.367  71.944  1.00  0.00    -0.212 OA 
HETATM    5  N   UNL     1      -9.660   8.969  70.680  1.00  0.00    -0.216 NA 
HETATM    6  N   UNL     1      -9.992  10.161  70.109  1.00  0.00    -0.181 NA 
HETATM    7  C   UNL     1     -11.240  10.345  70.451  1.00  0.00    -0.321 C  
ENDROOT
BRANCH   7   8
HETATM    8  C   UNL     1     -12.026  11.515  69.885  1.00  0.00    -0.351 C  
BRANCH   8   9
HETATM    9  N   UNL     1     -11.672  12.131  68.610  1.00  0.00    -0.315 N  
HETATM   10  C   UNL     1     -11.651  11.396  67.436  1.00  0.00    -0.184 C  
HETATM   11  C   UNL     1     -11.604  12.019  66.247  1.00  0.00    -0.378 C  
HETATM   12  C   UNL     1     -11.411  13.465  66.177  1.00  0.00    -0.324 C  
HETATM   13  C   UNL     1     -11.342  14.136  64.839  1.00  0.00    -0.365 C  
HETATM   14  C   UNL     1     -11.327  14.185  67.314  1.00  0.00    -0.332 C  
HETATM   15  C   UNL     1     -11.876  13.513  68.533  1.00  0.00    -0.362 C  
HETATM   16  F   UNL     1     -11.630  13.291  63.813  1.00  0.00    -0.415 F  
HETATM   17  F   UNL     1     -12.240  15.154  64.748  1.00  0.00    -0.346 F  
HETATM   18  O   UNL     1     -12.466  14.163  69.390  1.00  0.00    -0.277 OA 
HETATM   19  F   UNL     1     -10.119  14.661  64.581  1.00  0.00    -0.398 F  
BRANCH  14  20
HETATM   20  O   UNL     1     -10.989  15.534  67.310  1.00  0.00    -0.317 OA 
BRANCH  20  21
HETATM   21  C   UNL     1      -9.683  15.982  67.390  1.00  0.00    -0.232 A  
HETATM   22  C   UNL     1      -8.924  15.373  68.408  1.00  0.00    -0.189 A  
HETATM   23  C   UNL     1      -7.565  15.679  68.588  1.00  0.00    -0.143 A  
HETATM   24  C   UNL     1      -6.953  16.607  67.740  1.00  0.00    -0.153 A  
HETATM   25  C   UNL     1      -6.807  15.044  69.636  1.00  0.00    -0.183 C  
HETATM   26  C   UNL     1      -7.713  17.242  66.757  1.00  0.00    -0.244 A  
HETATM   27  N   UNL     1      -6.202  14.543  70.489  1.00  0.00    -0.185 NA 
HETATM   28 CL   UNL     1      -6.963  18.390  65.712  1.00  0.00    -0.307 Cl 
HETATM   29  C   UNL     1      -9.077  16.954  66.596  1.00  0.00    -0.280 A  
ENDBRANCH  20  21
ENDBRANCH  14  20
ENDBRANCH   8   9
ENDBRANCH   7   8
TORSDOF 4
ENDMDL
MODEL       62
REMARK 921   NORMALIZED FREE ENERGY PREDICTED BY IDOCK:   -6.70 KCAL/MOL
REMARK 922        TOTAL FREE ENERGY PREDICTED BY IDOCK:   -9.10 KCAL/MOL
REMARK 923 INTER-LIGAND FREE ENERGY PREDICTED BY IDOCK:   -8.46 KCAL/MOL
REMARK 924 INTRA-LIGAND FREE ENERGY PREDICTED BY IDOCK:   -0.63 KCAL/MOL
REMARK 927      BINDING AFFINITY PREDICTED BY RF-SCORE:    0.00 PKD
ROOT
HETATM    1  C   UNL     1     -10.373  14.653  66.715  1.00  0.00    -0.268 C  
HETATM    2  N   UNL     1     -11.146  15.023  65.553  1.00  0.00    -0.346 N  
HETATM    3  C   UNL     1     -11.100  16.281  65.000  1.00  0.00    -0.254 C  
HETATM    4  O   UNL     1     -10.413  17.232  65.333  1.00  0.00    -0.635 OA 
HETATM    5  N   UNL     1     -12.012  16.257  63.958  1.00  0.00    -0.878 NA 
HETATM    6  N   UNL     1     -12.573  15.021  63.842  1.00  0.00    -0.726 NA 
HETATM    7  C   UNL     1     -12.021  14.326  64.801  1.00  0.00    -0.440 C  
ENDROOT
BRANCH   7   8
HETATM    8  C   UNL     1     -12.288  12.836  64.919  1.00  0.00    -0.490 C  
BRANCH   8   9
HETATM    9  N   UNL     1     -11.265  11.846  64.593  1.00  0.00    -0.313 N  
HETATM   10  C   UNL     1     -10.474  11.972  63.463  1.00  0.00    -0.464 C  
HETATM   11  C   UNL     1      -9.366  11.226  63.325  1.00  0.00    -0.291 C  
HETATM   12  C   UNL     1      -9.068  10.160  64.278  1.00  0.00    -0.288 C  
HETATM   13  C   UNL     1      -7.837   9.328  64.092  1.00  0.00    -0.125 C  
HETATM   14  C   UNL     1      -9.886   9.956  65.330  1.00  0.00    -0.313 C  
HETATM   15  C   UNL     1     -10.775  11.109  65.676  1.00  0.00    -0.185 C  
HETATM   16  F   UNL     1      -7.037   9.789  63.093  1.00  0.00    -0.103 F  
HETATM   17  F   UNL     1      -7.068   9.321  65.214  1.00  0.00    -0.084 F  
HETATM   18  O   UNL     1     -11.035  11.365  66.847  1.00  0.00    -0.275 OA 
HETATM   19  F   UNL     1      -8.120   8.035  63.798  1.00  0.00    -0.144 F  
BRANCH  14  20
HETATM   20  O   UNL     1      -9.740   8.863  66.177  1.00  0.00    -0.255 OA 
BRANCH  20  21
HETATM   21  C   UNL     1      -9.691   8.979  67.554  1.00  0.00    -0.161 A  
HETATM   22  C   UNL     1      -8.486   9.513  68.048  1.00  0.00    -0.119 A  
HETATM   23  C   UNL     1      -8.297   9.744  69.420  1.00  0.00    -0.153 A  
HETATM   24  C   UNL     1      -9.327   9.439  70.315  1.00  0.00    -0.294 A  
HETATM   25  C   UNL     1      -7.054  10.291  69.904  1.00  0.00    -0.152 C  
HETATM   26  C   UNL     1     -10.507   8.873  69.833  1.00  0.00    -0.214 A  
HETATM   27  N   UNL     1      -6.048  10.717  70.292  1.00  0.00    -0.109 NA 
HETATM   28 CL   UNL     1     -11.778   8.492  70.934  1.00  0.00    -0.294 Cl 
HETATM   29  C   UNL     1     -10.684   8.618  68.464  1.00  0.00    -0.091 A  
ENDBRANCH  20  21
ENDBRANCH  14  20
ENDBRANCH   8   9
ENDBRANCH   7   8
TORSDOF 4
ENDMDL
MODEL       63
REMARK 921   NORMALIZED FREE ENERGY PREDICTED BY IDOCK:   -6.68 KCAL/MOL
REMARK 922        TOTAL FREE ENERGY PREDICTED BY IDOCK:   -9.08 KCAL/MOL
REMARK 923 INTER-LIGAND FREE ENERGY PREDICTED BY IDOCK:   -7.97 KCAL/MOL
REMARK 924 INTRA-LIGAND FREE ENERGY PREDICTED BY IDOCK:   -1.11 KCAL/MOL
REMARK 927      BINDING AFFINITY PREDICTED BY RF-SCORE:    0.00 PKD
ROOT
HETATM    1  C   UNL     1     -10.104  11.837  63.284  1.00  0.00    -0.420 C  
HETATM    2  N   UNL     1     -10.978  12.062  64.411  1.00  0.00    -0.314 N  
HETATM    3  C   UNL     1     -12.293  12.437  64.268  1.00  0.00    -0.455 C  
HETATM    4  O   UNL     1     -12.932  12.589  63.240  1.00  0.00    -0.634 OA 
HETATM    5  N   UNL     1     -12.767  12.610  65.558  1.00  0.00    -0.518 NA 
HETATM    6  N   UNL     1     -11.796  12.315  66.468  1.00  0.00    -0.598 NA 
HETATM    7  C   UNL     1     -10.762  11.987  65.739  1.00  0.00    -0.279 C  
ENDROOT
BRANCH   7   8
HETATM    8  C   UNL     1      -9.501  11.453  66.395  1.00  0.00    -0.204 C  
BRANCH   8   9
HETATM    9  N   UNL     1      -9.384  10.058  66.810  1.00  0.00    -0.157 N  
HETATM   10  C   UNL     1      -9.515   9.022  65.900  1.00  0.00    -0.249 C  
HETATM   11  C   UNL     1      -9.130   7.778  66.230  1.00  0.00    -0.221 C  
HETATM   12  C   UNL     1      -8.725   7.467  67.598  1.00  0.00    -0.122 C  
HETATM   13  C   UNL     1      -8.320   6.068  67.947  1.00  0.00    -0.116 C  
HETATM   14  C   UNL     1      -8.691   8.446  68.524  1.00  0.00    -0.136 C  
HETATM   15  C   UNL     1      -8.644   9.837  67.976  1.00  0.00    -0.122 C  
HETATM   16  F   UNL     1      -8.236   5.259  66.857  1.00  0.00    -0.106 F  
HETATM   17  F   UNL     1      -7.091   6.038  68.530  1.00  0.00    -0.070 F  
HETATM   18  O   UNL     1      -7.984  10.706  68.538  1.00  0.00    -0.108 OA 
HETATM   19  F   UNL     1      -9.182   5.474  68.808  1.00  0.00    -0.117 F  
BRANCH  14  20
HETATM   20  O   UNL     1      -8.466   8.180  69.870  1.00  0.00    -0.122 OA 
BRANCH  20  21
HETATM   21  C   UNL     1      -9.489   7.988  70.781  1.00  0.00    -0.161 A  
HETATM   22  C   UNL     1     -10.416   9.046  70.842  1.00  0.00    -0.321 A  
HETATM   23  C   UNL     1     -11.543   8.983  71.678  1.00  0.00    -0.426 A  
HETATM   24  C   UNL     1     -11.750   7.847  72.465  1.00  0.00    -0.423 A  
HETATM   25  C   UNL     1     -12.478  10.079  71.725  1.00  0.00    -0.383 C  
HETATM   26  C   UNL     1     -10.812   6.814  72.436  1.00  0.00    -0.238 A  
HETATM   27  N   UNL     1     -13.222  10.967  71.772  1.00  0.00    -0.438 NA 
HETATM   28 CL   UNL     1     -11.062   5.412  73.409  1.00  0.00    -0.349 Cl 
HETATM   29  C   UNL     1      -9.673   6.890  71.620  1.00  0.00    -0.163 A  
ENDBRANCH  20  21
ENDBRANCH  14  20
ENDBRANCH   8   9
ENDBRANCH   7   8
TORSDOF 4
ENDMDL
MODEL       64
REMARK 921   NORMALIZED FREE ENERGY PREDICTED BY IDOCK:   -6.67 KCAL/MOL
REMARK 922        TOTAL FREE ENERGY PREDICTED BY IDOCK:   -9.06 KCAL/MOL
REMARK 923 INTER-LIGAND FREE ENERGY PREDICTED BY IDOCK:   -8.38 KCAL/MOL
REMARK 924 INTRA-LIGAND FREE ENERGY PREDICTED BY IDOCK:   -0.69 KCAL/MOL
REMARK 927      BINDING AFFINITY PREDICTED BY RF-SCORE:    0.00 PKD
ROOT
HETATM    1  C   UNL     1     -11.714  13.354  64.095  1.00  0.00    -0.419 C  
HETATM    2  N   UNL     1     -11.069  14.457  64.767  1.00  0.00    -0.394 N  
HETATM    3  C   UNL     1     -11.393  15.770  64.519  1.00  0.00    -0.316 C  
HETATM    4  O   UNL     1     -12.254  16.212  63.778  1.00  0.00    -0.934 OA 
HETATM    5  N   UNL     1     -10.526  16.515  65.302  1.00  0.00    -0.637 NA 
HETATM    6  N   UNL     1      -9.722  15.697  66.037  1.00  0.00    -0.318 NA 
HETATM    7  C   UNL     1     -10.089  14.491  65.692  1.00  0.00    -0.359 C  
ENDROOT
BRANCH   7   8
HETATM    8  C   UNL     1      -9.513  13.280  66.406  1.00  0.00    -0.217 C  
BRANCH   8   9
HETATM    9  N   UNL     1     -10.137  12.730  67.606  1.00  0.00    -0.216 N  
HETATM   10  C   UNL     1     -10.614  13.553  68.613  1.00  0.00    -0.244 C  
HETATM   11  C   UNL     1     -11.426  13.061  69.562  1.00  0.00    -0.289 C  
HETATM   12  C   UNL     1     -11.686  11.626  69.643  1.00  0.00    -0.418 C  
HETATM   13  C   UNL     1     -12.580  11.097  70.722  1.00  0.00    -0.352 C  
HETATM   14  C   UNL     1     -11.145  10.795  68.728  1.00  0.00    -0.259 C  
HETATM   15  C   UNL     1     -10.691  11.454  67.463  1.00  0.00    -0.222 C  
HETATM   16  F   UNL     1     -13.182  12.086  71.435  1.00  0.00    -0.439 F  
HETATM   17  F   UNL     1     -13.587  10.342  70.207  1.00  0.00    -0.277 F  
HETATM   18  O   UNL     1     -10.816  10.882  66.385  1.00  0.00    -0.230 OA 
HETATM   19  F   UNL     1     -11.918  10.321  71.615  1.00  0.00    -0.437 F  
BRANCH  14  20
HETATM   20  O   UNL     1     -11.229   9.413  68.846  1.00  0.00    -0.035 OA 
BRANCH  20  21
HETATM   21  C   UNL     1     -10.310   8.552  68.276  1.00  0.00    -0.201 A  
HETATM   22  C   UNL     1      -8.970   8.842  68.595  1.00  0.00    -0.138 A  
HETATM   23  C   UNL     1      -7.917   8.031  68.139  1.00  0.00    -0.128 A  
HETATM   24  C   UNL     1      -8.206   6.913  67.353  1.00  0.00    -0.119 A  
HETATM   25  C   UNL     1      -6.553   8.348  68.479  1.00  0.00    -0.059 C  
HETATM   26  C   UNL     1      -9.529   6.645  67.001  1.00  0.00    -0.144 A  
HETATM   27  N   UNL     1      -5.455   8.612  68.740  1.00  0.00    -0.036 NA 
HETATM   28 CL   UNL     1      -9.888   5.268  66.027  1.00  0.00    -0.174 Cl 
HETATM   29  C   UNL     1     -10.577   7.472  67.436  1.00  0.00    -0.364 A  
ENDBRANCH  20  21
ENDBRANCH  14  20
ENDBRANCH   8   9
ENDBRANCH   7   8
TORSDOF 4
ENDMDL
MODEL       65
REMARK 921   NORMALIZED FREE ENERGY PREDICTED BY IDOCK:   -6.64 KCAL/MOL
REMARK 922        TOTAL FREE ENERGY PREDICTED BY IDOCK:   -9.03 KCAL/MOL
REMARK 923 INTER-LIGAND FREE ENERGY PREDICTED BY IDOCK:   -7.86 KCAL/MOL
REMARK 924 INTRA-LIGAND FREE ENERGY PREDICTED BY IDOCK:   -1.17 KCAL/MOL
REMARK 927      BINDING AFFINITY PREDICTED BY RF-SCORE:    0.00 PKD
ROOT
HETATM    1  C   UNL     1     -10.063  12.010  63.215  1.00  0.00    -0.345 C  
HETATM    2  N   UNL     1     -11.043  12.266  64.245  1.00  0.00    -0.323 N  
HETATM    3  C   UNL     1     -12.338  12.629  63.963  1.00  0.00    -0.443 C  
HETATM    4  O   UNL     1     -12.875  12.745  62.874  1.00  0.00    -0.288 OA 
HETATM    5  N   UNL     1     -12.936  12.841  65.195  1.00  0.00    -0.758 NA 
HETATM    6  N   UNL     1     -12.057  12.581  66.203  1.00  0.00    -0.615 NA 
HETATM    7  C   UNL     1     -10.956  12.236  65.589  1.00  0.00    -0.299 C  
ENDROOT
BRANCH   7   8
HETATM    8  C   UNL     1      -9.763  11.730  66.381  1.00  0.00    -0.214 C  
BRANCH   8   9
HETATM    9  N   UNL     1      -9.616  10.320  66.729  1.00  0.00    -0.167 N  
HETATM   10  C   UNL     1      -9.582   9.337  65.754  1.00  0.00    -0.271 C  
HETATM   11  C   UNL     1      -9.168   8.096  66.057  1.00  0.00    -0.207 C  
HETATM   12  C   UNL     1      -8.906   7.721  67.444  1.00  0.00    -0.128 C  
HETATM   13  C   UNL     1      -8.464   6.325  67.760  1.00  0.00    -0.116 C  
HETATM   14  C   UNL     1      -9.033   8.641  68.421  1.00  0.00    -0.142 C  
HETATM   15  C   UNL     1      -9.003  10.065  67.960  1.00  0.00    -0.128 C  
HETATM   16  F   UNL     1      -8.210   5.590  66.644  1.00  0.00    -0.104 F  
HETATM   17  F   UNL     1      -7.310   6.321  68.481  1.00  0.00    -0.077 F  
HETATM   18  O   UNL     1      -8.461  10.929  68.643  1.00  0.00    -0.138 OA 
HETATM   19  F   UNL     1      -9.384   5.637  68.479  1.00  0.00    -0.118 F  
BRANCH  14  20
HETATM   20  O   UNL     1      -8.949   8.305  69.767  1.00  0.00    -0.144 OA 
BRANCH  20  21
HETATM   21  C   UNL     1     -10.057   8.208  70.589  1.00  0.00    -0.194 A  
HETATM   22  C   UNL     1     -10.168   6.980  71.269  1.00  0.00    -0.203 A  
HETATM   23  C   UNL     1     -11.207   6.742  72.183  1.00  0.00    -0.294 A  
HETATM   24  C   UNL     1     -12.151   7.744  72.424  1.00  0.00    -0.297 A  
HETATM   25  C   UNL     1     -11.301   5.477  72.867  1.00  0.00    -0.291 C  
HETATM   26  C   UNL     1     -12.067   8.947  71.722  1.00  0.00    -0.362 A  
HETATM   27  N   UNL     1     -11.384   4.454  73.406  1.00  0.00    -0.300 NA 
HETATM   28 CL   UNL     1     -13.232  10.185  72.013  1.00  0.00    -0.559 Cl 
HETATM   29  C   UNL     1     -11.043   9.174  70.789  1.00  0.00    -0.336 A  
ENDBRANCH  20  21
ENDBRANCH  14  20
ENDBRANCH   8   9
ENDBRANCH   7   8
TORSDOF 4
ENDMDL
MODEL       66
REMARK 921   NORMALIZED FREE ENERGY PREDICTED BY IDOCK:   -6.63 KCAL/MOL
REMARK 922        TOTAL FREE ENERGY PREDICTED BY IDOCK:   -9.01 KCAL/MOL
REMARK 923 INTER-LIGAND FREE ENERGY PREDICTED BY IDOCK:   -8.21 KCAL/MOL
REMARK 924 INTRA-LIGAND FREE ENERGY PREDICTED BY IDOCK:   -0.81 KCAL/MOL
REMARK 927      BINDING AFFINITY PREDICTED BY RF-SCORE:    0.00 PKD
ROOT
HETATM    1  C   UNL     1      -7.333  10.581  68.510  1.00  0.00    -0.088 C  
HETATM    2  N   UNL     1      -8.482   9.905  67.957  1.00  0.00    -0.117 N  
HETATM    3  C   UNL     1      -8.689   8.554  68.101  1.00  0.00    -0.142 C  
HETATM    4  O   UNL     1      -8.018   7.744  68.718  1.00  0.00    -0.120 OA 
HETATM    5  N   UNL     1      -9.847   8.282  67.390  1.00  0.00    -0.172 NA 
HETATM    6  N   UNL     1     -10.360   9.427  66.858  1.00  0.00    -0.246 NA 
HETATM    7  C   UNL     1      -9.523  10.359  67.230  1.00  0.00    -0.154 C  
ENDROOT
BRANCH   7   8
HETATM    8  C   UNL     1      -9.825  11.819  66.946  1.00  0.00    -0.203 C  
BRANCH   8   9
HETATM    9  N   UNL     1     -10.500  12.667  67.924  1.00  0.00    -0.213 N  
HETATM   10  C   UNL     1     -11.573  12.198  68.665  1.00  0.00    -0.321 C  
HETATM   11  C   UNL     1     -11.998  12.875  69.745  1.00  0.00    -0.365 C  
HETATM   12  C   UNL     1     -11.447  14.190  70.058  1.00  0.00    -0.258 C  
HETATM   13  C   UNL     1     -11.950  14.935  71.256  1.00  0.00    -0.340 C  
HETATM   14  C   UNL     1     -10.470  14.708  69.285  1.00  0.00    -0.209 C  
HETATM   15  C   UNL     1      -9.733  13.714  68.444  1.00  0.00    -0.217 C  
HETATM   16  F   UNL     1     -12.793  14.191  72.020  1.00  0.00    -0.369 F  
HETATM   17  F   UNL     1     -10.930  15.304  72.076  1.00  0.00    -0.457 F  
HETATM   18  O   UNL     1      -8.528  13.838  68.247  1.00  0.00    -0.162 OA 
HETATM   19  F   UNL     1     -12.621  16.066  70.924  1.00  0.00    -0.458 F  
BRANCH  14  20
HETATM   20  O   UNL     1     -10.020  16.014  69.441  1.00  0.00    -0.240 OA 
BRANCH  20  21
HETATM   21  C   UNL     1     -10.011  16.935  68.409  1.00  0.00    -0.275 A  
HETATM   22  C   UNL     1     -10.546  16.454  67.199  1.00  0.00    -0.276 A  
HETATM   23  C   UNL     1     -10.659  17.281  66.070  1.00  0.00    -0.217 A  
HETATM   24  C   UNL     1     -10.232  18.609  66.148  1.00  0.00    -0.450 A  
HETATM   25  C   UNL     1     -11.209  16.766  64.841  1.00  0.00     0.022 C  
HETATM   26  C   UNL     1      -9.664  19.078  67.333  1.00  0.00    -0.315 A  
HETATM   27  N   UNL     1     -11.639  16.347  63.849  1.00  0.00    -1.054 NA 
HETATM   28 CL   UNL     1      -9.132  20.715  67.432  1.00  0.00    -0.454 Cl 
HETATM   29  C   UNL     1      -9.528  18.242  68.453  1.00  0.00    -0.336 A  
ENDBRANCH  20  21
ENDBRANCH  14  20
ENDBRANCH   8   9
ENDBRANCH   7   8
TORSDOF 4
ENDMDL
MODEL       67
REMARK 921   NORMALIZED FREE ENERGY PREDICTED BY IDOCK:   -6.62 KCAL/MOL
REMARK 922        TOTAL FREE ENERGY PREDICTED BY IDOCK:   -9.00 KCAL/MOL
REMARK 923 INTER-LIGAND FREE ENERGY PREDICTED BY IDOCK:   -8.22 KCAL/MOL
REMARK 924 INTRA-LIGAND FREE ENERGY PREDICTED BY IDOCK:   -0.78 KCAL/MOL
REMARK 927      BINDING AFFINITY PREDICTED BY RF-SCORE:    0.00 PKD
ROOT
HETATM    1  C   UNL     1      -7.866   7.866  64.525  1.00  0.00    -0.134 C  
HETATM    2  N   UNL     1      -8.285   7.406  65.828  1.00  0.00    -0.128 N  
HETATM    3  C   UNL     1      -8.443   6.074  66.129  1.00  0.00    -0.134 C  
HETATM    4  O   UNL     1      -8.226   5.104  65.422  1.00  0.00    -0.114 OA 
HETATM    5  N   UNL     1      -8.906   6.046  67.435  1.00  0.00    -0.108 NA 
HETATM    6  N   UNL     1      -8.995   7.309  67.937  1.00  0.00    -0.131 NA 
HETATM    7  C   UNL     1      -8.608   8.076  66.952  1.00  0.00    -0.128 C  
ENDROOT
BRANCH   7   8
HETATM    8  C   UNL     1      -8.433   9.569  67.165  1.00  0.00    -0.131 C  
BRANCH   8   9
HETATM    9  N   UNL     1      -9.249  10.546  66.450  1.00  0.00    -0.163 N  
HETATM   10  C   UNL     1      -9.078  10.774  65.095  1.00  0.00    -0.203 C  
HETATM   11  C   UNL     1     -10.005  11.453  64.399  1.00  0.00    -0.321 C  
HETATM   12  C   UNL     1     -11.120  12.098  65.087  1.00  0.00    -0.369 C  
HETATM   13  C   UNL     1     -12.132  12.866  64.292  1.00  0.00    -0.419 C  
HETATM   14  C   UNL     1     -11.246  11.971  66.423  1.00  0.00    -0.337 C  
HETATM   15  C   UNL     1     -10.493  10.827  67.026  1.00  0.00    -0.247 C  
HETATM   16  F   UNL     1     -11.954  12.735  62.951  1.00  0.00    -0.515 F  
HETATM   17  F   UNL     1     -13.396  12.433  64.546  1.00  0.00    -0.429 F  
HETATM   18  O   UNL     1     -10.968  10.194  67.963  1.00  0.00    -0.265 OA 
HETATM   19  F   UNL     1     -12.106  14.195  64.561  1.00  0.00    -0.392 F  
BRANCH  14  20
HETATM   20  O   UNL     1     -12.192  12.688  67.147  1.00  0.00    -0.445 OA 
BRANCH  20  21
HETATM   21  C   UNL     1     -11.857  13.687  68.042  1.00  0.00    -0.362 A  
HETATM   22  C   UNL     1     -11.267  14.820  67.450  1.00  0.00    -0.346 A  
HETATM   23  C   UNL     1     -10.916  15.945  68.214  1.00  0.00    -0.329 A  
HETATM   24  C   UNL     1     -11.158  15.940  69.591  1.00  0.00    -0.320 A  
HETATM   25  C   UNL     1     -10.313  17.094  67.587  1.00  0.00    -0.344 C  
HETATM   26  C   UNL     1     -11.705  14.803  70.186  1.00  0.00    -0.301 A  
HETATM   27  N   UNL     1      -9.814  18.011  67.083  1.00  0.00    -0.304 NA 
HETATM   28 CL   UNL     1     -12.001  14.793  71.885  1.00  0.00    -0.407 Cl 
HETATM   29  C   UNL     1     -12.031  13.670  69.425  1.00  0.00    -0.394 A  
ENDBRANCH  20  21
ENDBRANCH  14  20
ENDBRANCH   8   9
ENDBRANCH   7   8
TORSDOF 4
ENDMDL
MODEL       68
REMARK 921   NORMALIZED FREE ENERGY PREDICTED BY IDOCK:   -6.60 KCAL/MOL
REMARK 922        TOTAL FREE ENERGY PREDICTED BY IDOCK:   -8.97 KCAL/MOL
REMARK 923 INTER-LIGAND FREE ENERGY PREDICTED BY IDOCK:   -9.35 KCAL/MOL
REMARK 924 INTRA-LIGAND FREE ENERGY PREDICTED BY IDOCK:    0.38 KCAL/MOL
REMARK 927      BINDING AFFINITY PREDICTED BY RF-SCORE:    0.00 PKD
ROOT
HETATM    1  C   UNL     1     -14.311  14.140  72.179  1.00  0.00    -0.518 C  
HETATM    2  N   UNL     1     -13.181  15.023  72.005  1.00  0.00    -0.336 N  
HETATM    3  C   UNL     1     -12.735  15.862  72.999  1.00  0.00    -0.507 C  
HETATM    4  O   UNL     1     -13.147  15.973  74.141  1.00  0.00    -0.582 OA 
HETATM    5  N   UNL     1     -11.692  16.577  72.433  1.00  0.00    -0.437 NA 
HETATM    6  N   UNL     1     -11.473  16.169  71.151  1.00  0.00    -0.417 NA 
HETATM    7  C   UNL     1     -12.373  15.243  70.950  1.00  0.00    -0.377 C  
ENDROOT
BRANCH   7   8
HETATM    8  C   UNL     1     -12.366  14.434  69.664  1.00  0.00    -0.255 C  
BRANCH   8   9
HETATM    9  N   UNL     1     -11.743  13.117  69.590  1.00  0.00    -0.309 N  
HETATM   10  C   UNL     1     -12.182  12.066  70.380  1.00  0.00    -0.294 C  
HETATM   11  C   UNL     1     -11.801  10.808  70.107  1.00  0.00    -0.427 C  
HETATM   12  C   UNL     1     -10.794  10.546  69.082  1.00  0.00    -0.277 C  
HETATM   13  C   UNL     1     -10.370   9.135  68.809  1.00  0.00    -0.214 C  
HETATM   14  C   UNL     1     -10.279  11.570  68.372  1.00  0.00    -0.205 C  
HETATM   15  C   UNL     1     -11.095  12.825  68.386  1.00  0.00    -0.262 C  
HETATM   16  F   UNL     1     -11.120   8.222  69.481  1.00  0.00    -0.212 F  
HETATM   17  F   UNL     1     -10.496   8.826  67.490  1.00  0.00    -0.276 F  
HETATM   18  O   UNL     1     -11.171  13.529  67.384  1.00  0.00    -0.277 OA 
HETATM   19  F   UNL     1      -9.078   8.904  69.148  1.00  0.00    -0.136 F  
BRANCH  14  20
HETATM   20  O   UNL     1      -9.211  11.400  67.499  1.00  0.00    -0.157 OA 
BRANCH  20  21
HETATM   21  C   UNL     1      -9.375  11.093  66.160  1.00  0.00    -0.206 A  
HETATM   22  C   UNL     1     -10.577  11.568  65.601  1.00  0.00    -0.326 A  
HETATM   23  C   UNL     1     -10.871  11.387  64.239  1.00  0.00    -0.416 A  
HETATM   24  C   UNL     1      -9.952  10.722  63.423  1.00  0.00    -0.385 A  
HETATM   25  C   UNL     1     -12.108  11.881  63.688  1.00  0.00    -0.477 C  
HETATM   26  C   UNL     1      -8.779  10.215  63.982  1.00  0.00    -0.212 A  
HETATM   27  N   UNL     1     -13.109  12.267  63.250  1.00  0.00    -0.578 NA 
HETATM   28 CL   UNL     1      -7.645   9.390  62.979  1.00  0.00    -0.105 Cl 
HETATM   29  C   UNL     1      -8.499  10.374  65.348  1.00  0.00    -0.173 A  
ENDBRANCH  20  21
ENDBRANCH  14  20
ENDBRANCH   8   9
ENDBRANCH   7   8
TORSDOF 4
ENDMDL
MODEL       69
REMARK 921   NORMALIZED FREE ENERGY PREDICTED BY IDOCK:   -6.59 KCAL/MOL
REMARK 922        TOTAL FREE ENERGY PREDICTED BY IDOCK:   -8.97 KCAL/MOL
REMARK 923 INTER-LIGAND FREE ENERGY PREDICTED BY IDOCK:   -7.90 KCAL/MOL
REMARK 924 INTRA-LIGAND FREE ENERGY PREDICTED BY IDOCK:   -1.07 KCAL/MOL
REMARK 927      BINDING AFFINITY PREDICTED BY RF-SCORE:    0.00 PKD
ROOT
HETATM    1  C   UNL     1     -11.211  16.485  68.661  1.00  0.00    -0.297 C  
HETATM    2  N   UNL     1     -10.177  16.752  67.688  1.00  0.00    -0.280 N  
HETATM    3  C   UNL     1     -10.152  17.897  66.928  1.00  0.00    -0.348 C  
HETATM    4  O   UNL     1     -10.911  18.851  66.965  1.00  0.00    -0.427 OA 
HETATM    5  N   UNL     1      -9.060  17.754  66.087  1.00  0.00    -0.493 NA 
HETATM    6  N   UNL     1      -8.410  16.584  66.342  1.00  0.00    -0.297 NA 
HETATM    7  C   UNL     1      -9.104  16.034  67.303  1.00  0.00    -0.204 C  
ENDROOT
BRANCH   7   8
HETATM    8  C   UNL     1      -8.614  14.761  67.971  1.00  0.00    -0.166 C  
BRANCH   8   9
HETATM    9  N   UNL     1      -9.082  13.444  67.549  1.00  0.00    -0.204 N  
HETATM   10  C   UNL     1      -9.726  13.263  66.336  1.00  0.00    -0.276 C  
HETATM   11  C   UNL     1      -9.896  12.027  65.837  1.00  0.00    -0.259 C  
HETATM   12  C   UNL     1      -9.555  10.854  66.637  1.00  0.00    -0.213 C  
HETATM   13  C   UNL     1      -9.772   9.485  66.067  1.00  0.00    -0.272 C  
HETATM   14  C   UNL     1      -9.020  11.012  67.864  1.00  0.00    -0.144 C  
HETATM   15  C   UNL     1      -8.418  12.357  68.125  1.00  0.00    -0.180 C  
HETATM   16  F   UNL     1     -10.140   9.514  64.758  1.00  0.00    -0.232 F  
HETATM   17  F   UNL     1      -8.635   8.740  66.120  1.00  0.00    -0.121 F  
HETATM   18  O   UNL     1      -7.401  12.462  68.804  1.00  0.00    -0.108 OA 
HETATM   19  F   UNL     1     -10.732   8.791  66.727  1.00  0.00    -0.335 F  
BRANCH  14  20
HETATM   20  O   UNL     1      -8.823   9.940  68.727  1.00  0.00    -0.126 OA 
BRANCH  20  21
HETATM   21  C   UNL     1      -9.805   9.467  69.578  1.00  0.00    -0.193 A  
HETATM   22  C   UNL     1     -10.664  10.463  70.080  1.00  0.00    -0.321 A  
HETATM   23  C   UNL     1     -11.747  10.142  70.915  1.00  0.00    -0.468 A  
HETATM   24  C   UNL     1     -11.977   8.806  71.255  1.00  0.00    -0.353 A  
HETATM   25  C   UNL     1     -12.613  11.178  71.417  1.00  0.00    -0.374 C  
HETATM   26  C   UNL     1     -11.103   7.821  70.792  1.00  0.00    -0.257 A  
HETATM   27  N   UNL     1     -13.301  12.015  71.832  1.00  0.00    -0.408 NA 
HETATM   28 CL   UNL     1     -11.381   6.172  71.213  1.00  0.00    -0.350 Cl 
HETATM   29  C   UNL     1     -10.006   8.148  69.979  1.00  0.00    -0.192 A  
ENDBRANCH  20  21
ENDBRANCH  14  20
ENDBRANCH   8   9
ENDBRANCH   7   8
TORSDOF 4
ENDMDL
MODEL       70
REMARK 921   NORMALIZED FREE ENERGY PREDICTED BY IDOCK:   -6.54 KCAL/MOL
REMARK 922        TOTAL FREE ENERGY PREDICTED BY IDOCK:   -8.90 KCAL/MOL
REMARK 923 INTER-LIGAND FREE ENERGY PREDICTED BY IDOCK:   -8.15 KCAL/MOL
REMARK 924 INTRA-LIGAND FREE ENERGY PREDICTED BY IDOCK:   -0.75 KCAL/MOL
REMARK 927      BINDING AFFINITY PREDICTED BY RF-SCORE:    0.00 PKD
ROOT
HETATM    1  C   UNL     1      -8.590  11.551  66.404  1.00  0.00    -0.159 C  
HETATM    2  N   UNL     1      -9.446  11.530  65.241  1.00  0.00    -0.215 N  
HETATM    3  C   UNL     1      -9.756  10.371  64.569  1.00  0.00    -0.330 C  
HETATM    4  O   UNL     1      -9.432   9.227  64.839  1.00  0.00    -0.178 OA 
HETATM    5  N   UNL     1     -10.535  10.769  63.495  1.00  0.00    -0.192 NA 
HETATM    6  N   UNL     1     -10.734  12.116  63.521  1.00  0.00    -0.446 NA 
HETATM    7  C   UNL     1     -10.078  12.518  64.577  1.00  0.00    -0.247 C  
ENDROOT
BRANCH   7   8
HETATM    8  C   UNL     1     -10.171  13.963  65.034  1.00  0.00    -0.358 C  
BRANCH   8   9
HETATM    9  N   UNL     1     -10.704  14.320  66.344  1.00  0.00    -0.294 N  
HETATM   10  C   UNL     1     -11.804  13.667  66.878  1.00  0.00    -0.411 C  
HETATM   11  C   UNL     1     -12.108  13.803  68.179  1.00  0.00    -0.316 C  
HETATM   12  C   UNL     1     -11.388  14.764  69.010  1.00  0.00    -0.295 C  
HETATM   13  C   UNL     1     -11.758  14.913  70.454  1.00  0.00    -0.297 C  
HETATM   14  C   UNL     1     -10.380  15.485  68.479  1.00  0.00    -0.225 C  
HETATM   15  C   UNL     1      -9.797  14.929  67.218  1.00  0.00    -0.229 C  
HETATM   16  F   UNL     1     -12.663  13.984  70.862  1.00  0.00    -0.361 F  
HETATM   17  F   UNL     1     -10.675  14.761  71.262  1.00  0.00    -0.118 F  
HETATM   18  O   UNL     1      -8.593  15.015  66.998  1.00  0.00    -0.209 OA 
HETATM   19  F   UNL     1     -12.294  16.127  70.733  1.00  0.00    -0.406 F  
BRANCH  14  20
HETATM   20  O   UNL     1      -9.767  16.521  69.175  1.00  0.00    -0.259 OA 
BRANCH  20  21
HETATM   21  C   UNL     1      -9.232  17.633  68.553  1.00  0.00    -0.281 A  
HETATM   22  C   UNL     1     -10.052  18.185  67.550  1.00  0.00    -0.358 A  
HETATM   23  C   UNL     1      -9.678  19.349  66.858  1.00  0.00    -0.431 A  
HETATM   24  C   UNL     1      -8.468  19.973  67.171  1.00  0.00    -0.390 A  
HETATM   25  C   UNL     1     -10.533  19.895  65.834  1.00  0.00    -0.461 C  
HETATM   26  C   UNL     1      -7.635  19.406  68.137  1.00  0.00    -0.297 A  
HETATM   27  N   UNL     1     -11.216  20.326  65.001  1.00  0.00     0.183 NA 
HETATM   28 CL   UNL     1      -6.139  20.172  68.523  1.00  0.00    -0.302 Cl 
HETATM   29  C   UNL     1      -7.998  18.229  68.808  1.00  0.00    -0.268 A  
ENDBRANCH  20  21
ENDBRANCH  14  20
ENDBRANCH   8   9
ENDBRANCH   7   8
TORSDOF 4
ENDMDL
MODEL       71
REMARK 921   NORMALIZED FREE ENERGY PREDICTED BY IDOCK:   -6.52 KCAL/MOL
REMARK 922        TOTAL FREE ENERGY PREDICTED BY IDOCK:   -8.88 KCAL/MOL
REMARK 923 INTER-LIGAND FREE ENERGY PREDICTED BY IDOCK:   -7.57 KCAL/MOL
REMARK 924 INTRA-LIGAND FREE ENERGY PREDICTED BY IDOCK:   -1.31 KCAL/MOL
REMARK 927      BINDING AFFINITY PREDICTED BY RF-SCORE:    0.00 PKD
ROOT
HETATM    1  C   UNL     1      -9.645   8.538  72.054  1.00  0.00    -0.301 C  
HETATM    2  N   UNL     1     -10.784   7.830  71.517  1.00  0.00    -0.221 N  
HETATM    3  C   UNL     1     -12.049   7.955  72.040  1.00  0.00    -0.320 C  
HETATM    4  O   UNL     1     -12.427   8.671  72.953  1.00  0.00    -0.278 OA 
HETATM    5  N   UNL     1     -12.837   7.087  71.303  1.00  0.00    -0.367 NA 
HETATM    6  N   UNL     1     -12.099   6.475  70.335  1.00  0.00    -0.267 NA 
HETATM    7  C   UNL     1     -10.895   6.956  70.497  1.00  0.00    -0.253 C  
ENDROOT
BRANCH   7   8
HETATM    8  C   UNL     1      -9.794   6.618  69.507  1.00  0.00    -0.152 C  
BRANCH   8   9
HETATM    9  N   UNL     1      -9.189   7.638  68.656  1.00  0.00    -0.142 N  
HETATM   10  C   UNL     1      -7.817   7.831  68.626  1.00  0.00    -0.120 C  
HETATM   11  C   UNL     1      -7.256   8.561  67.649  1.00  0.00    -0.084 C  
HETATM   12  C   UNL     1      -8.092   9.295  66.702  1.00  0.00    -0.108 C  
HETATM   13  C   UNL     1      -7.444  10.120  65.632  1.00  0.00    -0.144 C  
HETATM   14  C   UNL     1      -9.434   9.200  66.780  1.00  0.00    -0.175 C  
HETATM   15  C   UNL     1      -9.943   8.016  67.541  1.00  0.00    -0.194 C  
HETATM   16  F   UNL     1      -6.095   9.954  65.586  1.00  0.00    -0.059 F  
HETATM   17  F   UNL     1      -7.904   9.781  64.397  1.00  0.00    -0.115 F  
HETATM   18  O   UNL     1     -10.961   7.434  67.178  1.00  0.00    -0.312 OA 
HETATM   19  F   UNL     1      -7.668  11.447  65.788  1.00  0.00    -0.037 F  
BRANCH  14  20
HETATM   20  O   UNL     1     -10.277   9.994  66.010  1.00  0.00    -0.252 OA 
BRANCH  20  21
HETATM   21  C   UNL     1     -10.847  11.163  66.481  1.00  0.00    -0.245 A  
HETATM   22  C   UNL     1     -11.267  12.049  65.471  1.00  0.00    -0.372 A  
HETATM   23  C   UNL     1     -11.914  13.257  65.780  1.00  0.00    -0.463 A  
HETATM   24  C   UNL     1     -12.147  13.585  67.118  1.00  0.00    -0.386 A  
HETATM   25  C   UNL     1     -12.334  14.149  64.729  1.00  0.00    -0.417 C  
HETATM   26  C   UNL     1     -11.696  12.728  68.123  1.00  0.00    -0.345 A  
HETATM   27  N   UNL     1     -12.659  14.873  63.884  1.00  0.00    -0.760 NA 
HETATM   28 CL   UNL     1     -11.978  13.133  69.775  1.00  0.00    -0.387 Cl 
HETATM   29  C   UNL     1     -11.026  11.535  67.812  1.00  0.00    -0.291 A  
ENDBRANCH  20  21
ENDBRANCH  14  20
ENDBRANCH   8   9
ENDBRANCH   7   8
TORSDOF 4
ENDMDL
MODEL       72
REMARK 921   NORMALIZED FREE ENERGY PREDICTED BY IDOCK:   -6.49 KCAL/MOL
REMARK 922        TOTAL FREE ENERGY PREDICTED BY IDOCK:   -8.85 KCAL/MOL
REMARK 923 INTER-LIGAND FREE ENERGY PREDICTED BY IDOCK:   -7.84 KCAL/MOL
REMARK 924 INTRA-LIGAND FREE ENERGY PREDICTED BY IDOCK:   -1.00 KCAL/MOL
REMARK 927      BINDING AFFINITY PREDICTED BY RF-SCORE:    0.00 PKD
ROOT
HETATM    1  C   UNL     1     -10.472   5.846  68.187  1.00  0.00    -0.233 C  
HETATM    2  N   UNL     1      -9.313   6.670  67.936  1.00  0.00    -0.111 N  
HETATM    3  C   UNL     1      -8.074   6.144  67.656  1.00  0.00    -0.113 C  
HETATM    4  O   UNL     1      -7.757   4.973  67.527  1.00  0.00    -0.089 OA 
HETATM    5  N   UNL     1      -7.230   7.236  67.541  1.00  0.00    -0.088 NA 
HETATM    6  N   UNL     1      -7.924   8.396  67.703  1.00  0.00    -0.109 NA 
HETATM    7  C   UNL     1      -9.152   8.008  67.925  1.00  0.00    -0.132 C  
ENDROOT
BRANCH   7   8
HETATM    8  C   UNL     1     -10.274   9.028  68.021  1.00  0.00    -0.212 C  
BRANCH   8   9
HETATM    9  N   UNL     1     -10.401  10.120  67.061  1.00  0.00    -0.233 N  
HETATM   10  C   UNL     1     -10.143   9.928  65.713  1.00  0.00    -0.247 C  
HETATM   11  C   UNL     1     -10.531  10.846  64.812  1.00  0.00    -0.373 C  
HETATM   12  C   UNL     1     -11.080  12.126  65.249  1.00  0.00    -0.367 C  
HETATM   13  C   UNL     1     -11.488  13.142  64.226  1.00  0.00    -0.384 C  
HETATM   14  C   UNL     1     -11.244  12.370  66.565  1.00  0.00    -0.319 C  
HETATM   15  C   UNL     1     -11.263  11.155  67.438  1.00  0.00    -0.294 C  
HETATM   16  F   UNL     1     -11.428  12.661  62.956  1.00  0.00    -0.510 F  
HETATM   17  F   UNL     1     -12.773  13.546  64.413  1.00  0.00    -0.355 F  
HETATM   18  O   UNL     1     -12.004  11.102  68.415  1.00  0.00    -0.561 OA 
HETATM   19  F   UNL     1     -10.713  14.255  64.258  1.00  0.00    -0.366 F  
BRANCH  14  20
HETATM   20  O   UNL     1     -11.612  13.622  67.044  1.00  0.00    -0.323 OA 
BRANCH  20  21
HETATM   21  C   UNL     1     -10.696  14.558  67.489  1.00  0.00    -0.276 A  
HETATM   22  C   UNL     1     -10.971  15.877  67.081  1.00  0.00    -0.214 A  
HETATM   23  C   UNL     1     -10.167  16.952  67.492  1.00  0.00    -0.295 A  
HETATM   24  C   UNL     1      -9.071  16.708  68.324  1.00  0.00    -0.218 A  
HETATM   25  C   UNL     1     -10.468  18.294  67.062  1.00  0.00    -0.385 C  
HETATM   26  C   UNL     1      -8.772  15.398  68.697  1.00  0.00    -0.191 A  
HETATM   27  N   UNL     1     -10.702  19.372  66.703  1.00  0.00    -0.446 NA 
HETATM   28 CL   UNL     1      -7.418  15.093  69.720  1.00  0.00    -0.180 Cl 
HETATM   29  C   UNL     1      -9.561  14.322  68.263  1.00  0.00    -0.221 A  
ENDBRANCH  20  21
ENDBRANCH  14  20
ENDBRANCH   8   9
ENDBRANCH   7   8
TORSDOF 4
ENDMDL
MODEL       73
REMARK 921   NORMALIZED FREE ENERGY PREDICTED BY IDOCK:   -6.48 KCAL/MOL
REMARK 922        TOTAL FREE ENERGY PREDICTED BY IDOCK:   -8.83 KCAL/MOL
REMARK 923 INTER-LIGAND FREE ENERGY PREDICTED BY IDOCK:   -7.71 KCAL/MOL
REMARK 924 INTRA-LIGAND FREE ENERGY PREDICTED BY IDOCK:   -1.12 KCAL/MOL
REMARK 927      BINDING AFFINITY PREDICTED BY RF-SCORE:    0.00 PKD
ROOT
HETATM    1  C   UNL     1     -13.847  14.276  72.410  1.00  0.00    -0.518 C  
HETATM    2  N   UNL     1     -12.740  14.741  71.608  1.00  0.00    -0.312 N  
HETATM    3  C   UNL     1     -11.978  15.832  71.955  1.00  0.00    -0.479 C  
HETATM    4  O   UNL     1     -12.057  16.526  72.955  1.00  0.00    -0.517 OA 
HETATM    5  N   UNL     1     -11.073  15.991  70.919  1.00  0.00    -0.312 NA 
HETATM    6  N   UNL     1     -11.241  15.014  69.983  1.00  0.00    -0.261 NA 
HETATM    7  C   UNL     1     -12.231  14.296  70.442  1.00  0.00    -0.342 C  
ENDROOT
BRANCH   7   8
HETATM    8  C   UNL     1     -12.635  13.011  69.741  1.00  0.00     0.224 C  
BRANCH   8   9
HETATM    9  N   UNL     1     -12.142  11.710  70.182  1.00  0.00    -0.336 N  
HETATM   10  C   UNL     1     -12.528  11.166  71.396  1.00  0.00    -0.309 C  
HETATM   11  C   UNL     1     -12.301   9.869  71.660  1.00  0.00    -0.496 C  
HETATM   12  C   UNL     1     -11.502   9.056  70.746  1.00  0.00    -0.331 C  
HETATM   13  C   UNL     1     -11.245   7.617  71.072  1.00  0.00    -0.267 C  
HETATM   14  C   UNL     1     -11.031   9.599  69.606  1.00  0.00    -0.229 C  
HETATM   15  C   UNL     1     -11.728  10.847  69.162  1.00  0.00    -0.326 C  
HETATM   16  F   UNL     1     -11.945   7.191  72.157  1.00  0.00    -0.299 F  
HETATM   17  F   UNL     1     -11.613   6.803  70.046  1.00  0.00    -0.352 F  
HETATM   18  O   UNL     1     -11.911  11.066  67.968  1.00  0.00    -0.623 OA 
HETATM   19  F   UNL     1      -9.938   7.365  71.329  1.00  0.00    -0.185 F  
BRANCH  14  20
HETATM   20  O   UNL     1     -10.139   8.924  68.780  1.00  0.00    -0.188 OA 
BRANCH  20  21
HETATM   21  C   UNL     1      -8.947   9.476  68.349  1.00  0.00    -0.127 A  
HETATM   22  C   UNL     1      -8.195  10.096  69.365  1.00  0.00    -0.171 A  
HETATM   23  C   UNL     1      -6.935  10.658  69.102  1.00  0.00    -0.085 A  
HETATM   24  C   UNL     1      -6.416  10.601  67.806  1.00  0.00    -0.060 A  
HETATM   25  C   UNL     1      -6.184  11.289  70.158  1.00  0.00    -0.147 C  
HETATM   26  C   UNL     1      -7.176  10.022  66.789  1.00  0.00    -0.091 A  
HETATM   27  N   UNL     1      -5.587  11.809  71.005  1.00  0.00    -0.349 NA 
HETATM   28 CL   UNL     1      -6.540   9.954  65.187  1.00  0.00    -0.098 Cl 
HETATM   29  C   UNL     1      -8.446   9.485  67.048  1.00  0.00    -0.128 A  
ENDBRANCH  20  21
ENDBRANCH  14  20
ENDBRANCH   8   9
ENDBRANCH   7   8
TORSDOF 4
ENDMDL
MODEL       74
REMARK 921   NORMALIZED FREE ENERGY PREDICTED BY IDOCK:   -6.48 KCAL/MOL
REMARK 922        TOTAL FREE ENERGY PREDICTED BY IDOCK:   -8.83 KCAL/MOL
REMARK 923 INTER-LIGAND FREE ENERGY PREDICTED BY IDOCK:   -7.67 KCAL/MOL
REMARK 924 INTRA-LIGAND FREE ENERGY PREDICTED BY IDOCK:   -1.16 KCAL/MOL
REMARK 927      BINDING AFFINITY PREDICTED BY RF-SCORE:    0.00 PKD
ROOT
HETATM    1  C   UNL     1     -11.559  14.052  69.805  1.00  0.00    -0.281 C  
HETATM    2  N   UNL     1     -12.449  13.550  70.825  1.00  0.00    -0.362 N  
HETATM    3  C   UNL     1     -13.045  14.365  71.757  1.00  0.00    -0.354 C  
HETATM    4  O   UNL     1     -12.978  15.579  71.859  1.00  0.00    -0.382 OA 
HETATM    5  N   UNL     1     -13.762  13.514  72.583  1.00  0.00    -0.730 NA 
HETATM    6  N   UNL     1     -13.647  12.225  72.156  1.00  0.00    -0.396 NA 
HETATM    7  C   UNL     1     -12.869  12.301  71.109  1.00  0.00    -0.207 C  
ENDROOT
BRANCH   7   8
HETATM    8  C   UNL     1     -12.610  11.072  70.256  1.00  0.00    -0.243 C  
BRANCH   8   9
HETATM    9  N   UNL     1     -11.299  10.806  69.673  1.00  0.00    -0.269 N  
HETATM   10  C   UNL     1     -10.437   9.875  70.230  1.00  0.00    -0.291 C  
HETATM   11  C   UNL     1      -9.372   9.439  69.538  1.00  0.00    -0.187 C  
HETATM   12  C   UNL     1      -9.015  10.054  68.263  1.00  0.00    -0.119 C  
HETATM   13  C   UNL     1      -7.810   9.564  67.519  1.00  0.00    -0.102 C  
HETATM   14  C   UNL     1      -9.787  11.035  67.754  1.00  0.00    -0.173 C  
HETATM   15  C   UNL     1     -11.174  11.105  68.312  1.00  0.00    -0.279 C  
HETATM   16  F   UNL     1      -7.262   8.455  68.082  1.00  0.00    -0.081 F  
HETATM   17  F   UNL     1      -8.124   9.219  66.241  1.00  0.00    -0.103 F  
HETATM   18  O   UNL     1     -12.120  11.406  67.592  1.00  0.00    -0.630 OA 
HETATM   19  F   UNL     1      -6.826  10.494  67.448  1.00  0.00    -0.072 F  
BRANCH  14  20
HETATM   20  O   UNL     1      -9.412  11.761  66.629  1.00  0.00    -0.194 OA 
BRANCH  20  21
HETATM   21  C   UNL     1      -9.364  13.143  66.607  1.00  0.00    -0.239 A  
HETATM   22  C   UNL     1      -8.414  13.703  67.482  1.00  0.00    -0.190 A  
HETATM   23  C   UNL     1      -8.203  15.090  67.541  1.00  0.00    -0.199 A  
HETATM   24  C   UNL     1      -8.950  15.933  66.714  1.00  0.00    -0.280 A  
HETATM   25  C   UNL     1      -7.226  15.641  68.446  1.00  0.00    -0.115 C  
HETATM   26  C   UNL     1      -9.920  15.384  65.874  1.00  0.00    -0.346 A  
HETATM   27  N   UNL     1      -6.450  16.084  69.185  1.00  0.00    -0.146 NA 
HETATM   28 CL   UNL     1     -10.846  16.421  64.854  1.00  0.00    -0.361 Cl 
HETATM   29  C   UNL     1     -10.148  14.000  65.836  1.00  0.00    -0.336 A  
ENDBRANCH  20  21
ENDBRANCH  14  20
ENDBRANCH   8   9
ENDBRANCH   7   8
TORSDOF 4
ENDMDL
MODEL       75
REMARK 921   NORMALIZED FREE ENERGY PREDICTED BY IDOCK:   -6.47 KCAL/MOL
REMARK 922        TOTAL FREE ENERGY PREDICTED BY IDOCK:   -8.82 KCAL/MOL
REMARK 923 INTER-LIGAND FREE ENERGY PREDICTED BY IDOCK:   -8.32 KCAL/MOL
REMARK 924 INTRA-LIGAND FREE ENERGY PREDICTED BY IDOCK:   -0.50 KCAL/MOL
REMARK 927      BINDING AFFINITY PREDICTED BY RF-SCORE:    0.00 PKD
ROOT
HETATM    1  C   UNL     1     -10.015  14.334  66.546  1.00  0.00    -0.281 C  
HETATM    2  N   UNL     1     -10.797  14.899  65.473  1.00  0.00    -0.335 N  
HETATM    3  C   UNL     1     -10.619  16.186  65.022  1.00  0.00    -0.276 C  
HETATM    4  O   UNL     1      -9.795  17.010  65.383  1.00  0.00    -0.531 OA 
HETATM    5  N   UNL     1     -11.584  16.369  64.045  1.00  0.00    -1.082 NA 
HETATM    6  N   UNL     1     -12.307  15.228  63.868  1.00  0.00    -0.625 NA 
HETATM    7  C   UNL     1     -11.797  14.387  64.728  1.00  0.00    -0.433 C  
ENDROOT
BRANCH   7   8
HETATM    8  C   UNL     1     -12.249  12.937  64.743  1.00  0.00    -0.445 C  
BRANCH   8   9
HETATM    9  N   UNL     1     -11.308  11.839  64.545  1.00  0.00    -0.307 N  
HETATM   10  C   UNL     1     -10.448  11.814  63.459  1.00  0.00    -0.449 C  
HETATM   11  C   UNL     1      -9.409  10.963  63.437  1.00  0.00    -0.308 C  
HETATM   12  C   UNL     1      -9.265   9.944  64.473  1.00  0.00    -0.315 C  
HETATM   13  C   UNL     1      -8.109   8.993  64.417  1.00  0.00    -0.146 C  
HETATM   14  C   UNL     1     -10.154   9.889  65.485  1.00  0.00    -0.227 C  
HETATM   15  C   UNL     1     -10.949  11.138  65.701  1.00  0.00    -0.079 C  
HETATM   16  F   UNL     1      -7.217   9.309  63.441  1.00  0.00    -0.096 F  
HETATM   17  F   UNL     1      -7.407   8.996  65.581  1.00  0.00    -0.082 F  
HETATM   18  O   UNL     1     -11.247  11.498  66.835  1.00  0.00    -0.299 OA 
HETATM   19  F   UNL     1      -8.497   7.713  64.191  1.00  0.00    -0.083 F  
BRANCH  14  20
HETATM   20  O   UNL     1     -10.158   8.849  66.408  1.00  0.00    -0.288 OA 
BRANCH  20  21
HETATM   21  C   UNL     1      -9.863   9.030  67.747  1.00  0.00    -0.168 A  
HETATM   22  C   UNL     1     -10.758   8.395  68.628  1.00  0.00    -0.075 A  
HETATM   23  C   UNL     1     -10.568   8.437  70.019  1.00  0.00    -0.235 A  
HETATM   24  C   UNL     1      -9.468   9.123  70.540  1.00  0.00    -0.291 A  
HETATM   25  C   UNL     1     -11.498   7.780  70.903  1.00  0.00    -0.279 C  
HETATM   26  C   UNL     1      -8.601   9.788  69.671  1.00  0.00    -0.191 A  
HETATM   27  N   UNL     1     -12.255   7.263  71.613  1.00  0.00    -0.325 NA 
HETATM   28 CL   UNL     1      -7.245  10.639  70.311  1.00  0.00     0.045 Cl 
HETATM   29  C   UNL     1      -8.807   9.767  68.284  1.00  0.00    -0.119 A  
ENDBRANCH  20  21
ENDBRANCH  14  20
ENDBRANCH   8   9
ENDBRANCH   7   8
TORSDOF 4
ENDMDL
MODEL       76
REMARK 921   NORMALIZED FREE ENERGY PREDICTED BY IDOCK:   -6.46 KCAL/MOL
REMARK 922        TOTAL FREE ENERGY PREDICTED BY IDOCK:   -8.81 KCAL/MOL
REMARK 923 INTER-LIGAND FREE ENERGY PREDICTED BY IDOCK:   -8.41 KCAL/MOL
REMARK 924 INTRA-LIGAND FREE ENERGY PREDICTED BY IDOCK:   -0.40 KCAL/MOL
REMARK 927      BINDING AFFINITY PREDICTED BY RF-SCORE:    0.00 PKD
ROOT
HETATM    1  C   UNL     1     -10.545  17.042  69.313  1.00  0.00    -0.276 C  
HETATM    2  N   UNL     1      -9.904  17.913  68.356  1.00  0.00    -0.335 N  
HETATM    3  C   UNL     1      -9.875  19.280  68.499  1.00  0.00    -0.424 C  
HETATM    4  O   UNL     1     -10.308  19.957  69.415  1.00  0.00    -0.267 OA 
HETATM    5  N   UNL     1      -9.233  19.753  67.366  1.00  0.00    -0.324 NA 
HETATM    6  N   UNL     1      -8.844  18.718  66.569  1.00  0.00    -0.308 NA 
HETATM    7  C   UNL     1      -9.255  17.652  67.204  1.00  0.00    -0.245 C  
ENDROOT
BRANCH   7   8
HETATM    8  C   UNL     1      -8.885  16.268  66.698  1.00  0.00    -0.254 C  
BRANCH   8   9
HETATM    9  N   UNL     1      -9.885  15.364  66.139  1.00  0.00    -0.288 N  
HETATM   10  C   UNL     1     -10.611  15.702  65.009  1.00  0.00    -0.396 C  
HETATM   11  C   UNL     1     -11.310  14.765  64.347  1.00  0.00    -0.224 C  
HETATM   12  C   UNL     1     -11.450  13.420  64.898  1.00  0.00    -0.346 C  
HETATM   13  C   UNL     1     -12.252  12.397  64.152  1.00  0.00    -0.468 C  
HETATM   14  C   UNL     1     -10.832  13.102  66.054  1.00  0.00    -0.272 C  
HETATM   15  C   UNL     1      -9.708  14.010  66.442  1.00  0.00    -0.296 C  
HETATM   16  F   UNL     1     -12.644  12.831  62.925  1.00  0.00    -0.445 F  
HETATM   17  F   UNL     1     -11.531  11.263  63.935  1.00  0.00    -0.444 F  
HETATM   18  O   UNL     1      -8.705  13.560  66.989  1.00  0.00    -0.216 OA 
HETATM   19  F   UNL     1     -13.376  12.031  64.815  1.00  0.00    -0.173 F  
BRANCH  14  20
HETATM   20  O   UNL     1     -11.055  11.893  66.702  1.00  0.00    -0.280 OA 
BRANCH  20  21
HETATM   21  C   UNL     1     -10.293  10.763  66.470  1.00  0.00    -0.244 A  
HETATM   22  C   UNL     1     -10.784   9.597  67.088  1.00  0.00    -0.258 A  
HETATM   23  C   UNL     1     -10.155   8.354  66.908  1.00  0.00    -0.364 A  
HETATM   24  C   UNL     1      -9.018   8.272  66.100  1.00  0.00    -0.222 A  
HETATM   25  C   UNL     1     -10.676   7.173  67.550  1.00  0.00    -0.274 C  
HETATM   26  C   UNL     1      -8.505   9.433  65.519  1.00  0.00    -0.143 A  
HETATM   27  N   UNL     1     -11.087   6.227  68.079  1.00  0.00    -0.329 NA 
HETATM   28 CL   UNL     1      -7.100   9.336  64.525  1.00  0.00    -0.091 Cl 
HETATM   29  C   UNL     1      -9.120  10.678  65.721  1.00  0.00    -0.208 A  
ENDBRANCH  20  21
ENDBRANCH  14  20
ENDBRANCH   8   9
ENDBRANCH   7   8
TORSDOF 4
ENDMDL
MODEL       77
REMARK 921   NORMALIZED FREE ENERGY PREDICTED BY IDOCK:   -6.45 KCAL/MOL
REMARK 922        TOTAL FREE ENERGY PREDICTED BY IDOCK:   -8.80 KCAL/MOL
REMARK 923 INTER-LIGAND FREE ENERGY PREDICTED BY IDOCK:   -8.31 KCAL/MOL
REMARK 924 INTRA-LIGAND FREE ENERGY PREDICTED BY IDOCK:   -0.49 KCAL/MOL
REMARK 927      BINDING AFFINITY PREDICTED BY RF-SCORE:    0.00 PKD
ROOT
HETATM    1  C   UNL     1     -11.818   7.729  70.958  1.00  0.00    -0.272 C  
HETATM    2  N   UNL     1     -10.581   8.278  70.457  1.00  0.00    -0.215 N  
HETATM    3  C   UNL     1      -9.353   7.735  70.752  1.00  0.00    -0.161 C  
HETATM    4  O   UNL     1      -9.103   6.734  71.403  1.00  0.00    -0.143 OA 
HETATM    5  N   UNL     1      -8.428   8.569  70.146  1.00  0.00    -0.122 NA 
HETATM    6  N   UNL     1      -9.058   9.568  69.467  1.00  0.00    -0.172 NA 
HETATM    7  C   UNL     1     -10.329   9.346  69.674  1.00  0.00    -0.216 C  
ENDROOT
BRANCH   7   8
HETATM    8  C   UNL     1     -11.379  10.178  68.958  1.00  0.00    -0.133 C  
BRANCH   8   9
HETATM    9  N   UNL     1     -11.904  11.411  69.534  1.00  0.00    -0.328 N  
HETATM   10  C   UNL     1     -12.477  11.431  70.796  1.00  0.00    -0.365 C  
HETATM   11  C   UNL     1     -12.695  12.598  71.423  1.00  0.00    -0.347 C  
HETATM   12  C   UNL     1     -12.484  13.864  70.726  1.00  0.00    -0.445 C  
HETATM   13  C   UNL     1     -12.752  15.153  71.440  1.00  0.00    -0.372 C  
HETATM   14  C   UNL     1     -12.022  13.861  69.459  1.00  0.00    -0.343 C  
HETATM   15  C   UNL     1     -11.351  12.593  69.031  1.00  0.00    -0.292 C  
HETATM   16  F   UNL     1     -13.031  14.974  72.759  1.00  0.00    -0.366 F  
HETATM   17  F   UNL     1     -11.673  15.979  71.395  1.00  0.00    -0.377 F  
HETATM   18  O   UNL     1     -10.376  12.626  68.287  1.00  0.00    -0.229 OA 
HETATM   19  F   UNL     1     -13.797  15.836  70.910  1.00  0.00    -0.490 F  
BRANCH  14  20
HETATM   20  O   UNL     1     -11.952  15.021  68.697  1.00  0.00    -0.313 OA 
BRANCH  20  21
HETATM   21  C   UNL     1     -10.787  15.750  68.541  1.00  0.00    -0.290 A  
HETATM   22  C   UNL     1     -10.941  16.933  67.794  1.00  0.00    -0.212 A  
HETATM   23  C   UNL     1      -9.865  17.813  67.589  1.00  0.00    -0.299 A  
HETATM   24  C   UNL     1      -8.617  17.509  68.138  1.00  0.00    -0.258 A  
HETATM   25  C   UNL     1     -10.045  19.019  66.820  1.00  0.00    -0.379 C  
HETATM   26  C   UNL     1      -8.451  16.317  68.844  1.00  0.00    -0.253 A  
HETATM   27  N   UNL     1     -10.188  19.982  66.190  1.00  0.00    -0.481 NA 
HETATM   28 CL   UNL     1      -6.911  15.935  69.519  1.00  0.00    -0.201 Cl 
HETATM   29  C   UNL     1      -9.521  15.426  69.025  1.00  0.00    -0.236 A  
ENDBRANCH  20  21
ENDBRANCH  14  20
ENDBRANCH   8   9
ENDBRANCH   7   8
TORSDOF 4
ENDMDL
MODEL       78
REMARK 921   NORMALIZED FREE ENERGY PREDICTED BY IDOCK:   -6.45 KCAL/MOL
REMARK 922        TOTAL FREE ENERGY PREDICTED BY IDOCK:   -8.79 KCAL/MOL
REMARK 923 INTER-LIGAND FREE ENERGY PREDICTED BY IDOCK:   -7.60 KCAL/MOL
REMARK 924 INTRA-LIGAND FREE ENERGY PREDICTED BY IDOCK:   -1.19 KCAL/MOL
REMARK 927      BINDING AFFINITY PREDICTED BY RF-SCORE:    0.00 PKD
ROOT
HETATM    1  C   UNL     1     -10.891   6.227  69.305  1.00  0.00    -0.342 C  
HETATM    2  N   UNL     1      -9.620   6.362  69.977  1.00  0.00    -0.158 N  
HETATM    3  C   UNL     1      -8.667   5.371  69.970  1.00  0.00    -0.122 C  
HETATM    4  O   UNL     1      -8.695   4.295  69.396  1.00  0.00    -0.082 OA 
HETATM    5  N   UNL     1      -7.636   5.848  70.762  1.00  0.00    -0.090 NA 
HETATM    6  N   UNL     1      -7.920   7.103  71.211  1.00  0.00    -0.101 NA 
HETATM    7  C   UNL     1      -9.099   7.364  70.712  1.00  0.00    -0.151 C  
ENDROOT
BRANCH   7   8
HETATM    8  C   UNL     1      -9.711   8.744  70.874  1.00  0.00    -0.222 C  
BRANCH   8   9
HETATM    9  N   UNL     1      -9.846   9.661  69.746  1.00  0.00    -0.214 N  
HETATM   10  C   UNL     1      -9.060   9.530  68.613  1.00  0.00    -0.132 C  
HETATM   11  C   UNL     1      -9.381  10.187  67.486  1.00  0.00    -0.168 C  
HETATM   12  C   UNL     1     -10.460  11.170  67.485  1.00  0.00    -0.239 C  
HETATM   13  C   UNL     1     -10.787  11.905  66.220  1.00  0.00    -0.282 C  
HETATM   14  C   UNL     1     -11.172  11.385  68.610  1.00  0.00    -0.243 C  
HETATM   15  C   UNL     1     -11.088  10.294  69.631  1.00  0.00    -0.274 C  
HETATM   16  F   UNL     1     -10.099  11.433  65.147  1.00  0.00    -0.253 F  
HETATM   17  F   UNL     1     -12.104  11.785  65.903  1.00  0.00    -0.289 F  
HETATM   18  O   UNL     1     -12.069   9.997  70.306  1.00  0.00    -0.234 OA 
HETATM   19  F   UNL     1     -10.518  13.231  66.304  1.00  0.00    -0.270 F  
BRANCH  14  20
HETATM   20  O   UNL     1     -12.101  12.413  68.710  1.00  0.00    -0.269 OA 
BRANCH  20  21
HETATM   21  C   UNL     1     -11.945  13.487  69.567  1.00  0.00    -0.334 A  
HETATM   22  C   UNL     1     -11.271  14.586  69.001  1.00  0.00    -0.289 A  
HETATM   23  C   UNL     1     -11.078  15.776  69.723  1.00  0.00    -0.322 A  
HETATM   24  C   UNL     1     -11.566  15.872  71.028  1.00  0.00    -0.465 A  
HETATM   25  C   UNL     1     -10.384  16.888  69.123  1.00  0.00    -0.319 C  
HETATM   26  C   UNL     1     -12.199  14.771  71.606  1.00  0.00    -0.349 A  
HETATM   27  N   UNL     1      -9.813  17.776  68.644  1.00  0.00    -0.344 NA 
HETATM   28 CL   UNL     1     -12.798  14.885  73.219  1.00  0.00    -0.609 Cl 
HETATM   29  C   UNL     1     -12.367  13.574  70.893  1.00  0.00    -0.437 A  
ENDBRANCH  20  21
ENDBRANCH  14  20
ENDBRANCH   8   9
ENDBRANCH   7   8
TORSDOF 4
ENDMDL
MODEL       79
REMARK 921   NORMALIZED FREE ENERGY PREDICTED BY IDOCK:   -6.45 KCAL/MOL
REMARK 922        TOTAL FREE ENERGY PREDICTED BY IDOCK:   -8.79 KCAL/MOL
REMARK 923 INTER-LIGAND FREE ENERGY PREDICTED BY IDOCK:   -7.68 KCAL/MOL
REMARK 924 INTRA-LIGAND FREE ENERGY PREDICTED BY IDOCK:   -1.11 KCAL/MOL
REMARK 927      BINDING AFFINITY PREDICTED BY RF-SCORE:    0.00 PKD
ROOT
HETATM    1  C   UNL     1      -9.214   5.394  71.415  1.00  0.00    -0.146 C  
HETATM    2  N   UNL     1      -9.809   5.863  70.186  1.00  0.00    -0.170 N  
HETATM    3  C   UNL     1      -9.965   5.057  69.082  1.00  0.00    -0.196 C  
HETATM    4  O   UNL     1      -9.696   3.874  68.961  1.00  0.00    -0.164 OA 
HETATM    5  N   UNL     1     -10.507   5.876  68.105  1.00  0.00    -0.212 NA 
HETATM    6  N   UNL     1     -10.717   7.131  68.595  1.00  0.00    -0.194 NA 
HETATM    7  C   UNL     1     -10.297   7.068  69.831  1.00  0.00    -0.210 C  
ENDROOT
BRANCH   7   8
HETATM    8  C   UNL     1     -10.493   8.247  70.768  1.00  0.00    -0.196 C  
BRANCH   8   9
HETATM    9  N   UNL     1     -10.983   9.535  70.288  1.00  0.00    -0.252 N  
HETATM   10  C   UNL     1     -12.088  10.144  70.859  1.00  0.00    -0.356 C  
HETATM   11  C   UNL     1     -12.355  11.436  70.607  1.00  0.00    -0.466 C  
HETATM   12  C   UNL     1     -11.585  12.169  69.605  1.00  0.00    -0.361 C  
HETATM   13  C   UNL     1     -11.915  13.604  69.327  1.00  0.00    -0.336 C  
HETATM   14  C   UNL     1     -10.569  11.559  68.964  1.00  0.00    -0.173 C  
HETATM   15  C   UNL     1     -10.036  10.335  69.641  1.00  0.00    -0.207 C  
HETATM   16  F   UNL     1     -12.837  14.108  70.190  1.00  0.00    -0.382 F  
HETATM   17  F   UNL     1     -10.816  14.398  69.449  1.00  0.00    -0.241 F  
HETATM   18  O   UNL     1      -8.835  10.081  69.612  1.00  0.00    -0.194 OA 
HETATM   19  F   UNL     1     -12.405  13.794  68.077  1.00  0.00    -0.379 F  
BRANCH  14  20
HETATM   20  O   UNL     1      -9.906  12.153  67.896  1.00  0.00    -0.187 OA 
BRANCH  20  21
HETATM   21  C   UNL     1     -10.107  11.775  66.581  1.00  0.00    -0.204 A  
HETATM   22  C   UNL     1      -9.179  10.829  66.104  1.00  0.00    -0.202 A  
HETATM   23  C   UNL     1      -9.275  10.302  64.805  1.00  0.00    -0.287 A  
HETATM   24  C   UNL     1     -10.313  10.724  63.970  1.00  0.00    -0.357 A  
HETATM   25  C   UNL     1      -8.314   9.336  64.338  1.00  0.00    -0.171 C  
HETATM   26  C   UNL     1     -11.210  11.690  64.427  1.00  0.00    -0.291 A  
HETATM   27  N   UNL     1      -7.531   8.569  63.957  1.00  0.00    -0.110 NA 
HETATM   28 CL   UNL     1     -12.490  12.216  63.397  1.00  0.00    -0.677 Cl 
HETATM   29  C   UNL     1     -11.097  12.235  65.715  1.00  0.00    -0.362 A  
ENDBRANCH  20  21
ENDBRANCH  14  20
ENDBRANCH   8   9
ENDBRANCH   7   8
TORSDOF 4
ENDMDL
MODEL       80
REMARK 921   NORMALIZED FREE ENERGY PREDICTED BY IDOCK:   -6.45 KCAL/MOL
REMARK 922        TOTAL FREE ENERGY PREDICTED BY IDOCK:   -8.79 KCAL/MOL
REMARK 923 INTER-LIGAND FREE ENERGY PREDICTED BY IDOCK:   -7.67 KCAL/MOL
REMARK 924 INTRA-LIGAND FREE ENERGY PREDICTED BY IDOCK:   -1.12 KCAL/MOL
REMARK 927      BINDING AFFINITY PREDICTED BY RF-SCORE:    0.00 PKD
ROOT
HETATM    1  C   UNL     1      -8.569   6.750  65.730  1.00  0.00    -0.137 C  
HETATM    2  N   UNL     1      -9.481   6.852  66.845  1.00  0.00    -0.152 N  
HETATM    3  C   UNL     1     -10.191   5.776  67.324  1.00  0.00    -0.205 C  
HETATM    4  O   UNL     1     -10.150   4.614  66.956  1.00  0.00    -0.203 OA 
HETATM    5  N   UNL     1     -10.985   6.284  68.339  1.00  0.00    -0.321 NA 
HETATM    6  N   UNL     1     -10.748   7.615  68.511  1.00  0.00    -0.112 NA 
HETATM    7  C   UNL     1      -9.844   7.900  67.611  1.00  0.00    -0.165 C  
ENDROOT
BRANCH   7   8
HETATM    8  C   UNL     1      -9.207   9.278  67.573  1.00  0.00    -0.124 C  
BRANCH   8   9
HETATM    9  N   UNL     1      -9.749  10.350  66.743  1.00  0.00    -0.175 N  
HETATM   10  C   UNL     1      -9.891  10.200  65.374  1.00  0.00    -0.307 C  
HETATM   11  C   UNL     1     -10.640  11.066  64.671  1.00  0.00    -0.369 C  
HETATM   12  C   UNL     1     -11.178  12.265  65.308  1.00  0.00    -0.372 C  
HETATM   13  C   UNL     1     -11.994  13.227  64.500  1.00  0.00    -0.400 C  
HETATM   14  C   UNL     1     -10.962  12.479  66.622  1.00  0.00    -0.266 C  
HETATM   15  C   UNL     1     -10.571  11.266  67.407  1.00  0.00    -0.224 C  
HETATM   16  F   UNL     1     -12.266  12.763  63.251  1.00  0.00    -0.549 F  
HETATM   17  F   UNL     1     -13.201  13.465  65.081  1.00  0.00    -0.423 F  
HETATM   18  O   UNL     1     -10.969  11.115  68.557  1.00  0.00    -0.187 OA 
HETATM   19  F   UNL     1     -11.384  14.428  64.346  1.00  0.00    -0.362 F  
BRANCH  14  20
HETATM   20  O   UNL     1     -11.314  13.672  67.243  1.00  0.00    -0.298 OA 
BRANCH  20  21
HETATM   21  C   UNL     1     -10.498  14.788  67.245  1.00  0.00    -0.264 A  
HETATM   22  C   UNL     1      -9.127  14.504  67.396  1.00  0.00    -0.201 A  
HETATM   23  C   UNL     1      -8.161  15.522  67.366  1.00  0.00    -0.199 A  
HETATM   24  C   UNL     1      -8.567  16.847  67.181  1.00  0.00    -0.217 A  
HETATM   25  C   UNL     1      -6.763  15.207  67.524  1.00  0.00    -0.160 C  
HETATM   26  C   UNL     1      -9.928  17.137  67.071  1.00  0.00    -0.287 A  
HETATM   27  N   UNL     1      -5.641  14.954  67.665  1.00  0.00    -0.332 NA 
HETATM   28 CL   UNL     1     -10.433  18.770  66.847  1.00  0.00    -0.444 Cl 
HETATM   29  C   UNL     1     -10.894  16.120  67.128  1.00  0.00    -0.216 A  
ENDBRANCH  20  21
ENDBRANCH  14  20
ENDBRANCH   8   9
ENDBRANCH   7   8
TORSDOF 4
ENDMDL
MODEL       81
REMARK 921   NORMALIZED FREE ENERGY PREDICTED BY IDOCK:   -6.45 KCAL/MOL
REMARK 922        TOTAL FREE ENERGY PREDICTED BY IDOCK:   -8.79 KCAL/MOL
REMARK 923 INTER-LIGAND FREE ENERGY PREDICTED BY IDOCK:   -7.61 KCAL/MOL
REMARK 924 INTRA-LIGAND FREE ENERGY PREDICTED BY IDOCK:   -1.18 KCAL/MOL
REMARK 927      BINDING AFFINITY PREDICTED BY RF-SCORE:    0.00 PKD
ROOT
HETATM    1  C   UNL     1     -10.249   5.609  71.768  1.00  0.00    -0.202 C  
HETATM    2  N   UNL     1      -9.468   6.340  72.737  1.00  0.00    -0.148 N  
HETATM    3  C   UNL     1      -8.548   5.733  73.559  1.00  0.00    -0.120 C  
HETATM    4  O   UNL     1      -8.211   4.561  73.587  1.00  0.00    -0.100 OA 
HETATM    5  N   UNL     1      -8.062   6.743  74.373  1.00  0.00    -0.120 NA 
HETATM    6  N   UNL     1      -8.627   7.938  74.042  1.00  0.00    -0.265 NA 
HETATM    7  C   UNL     1      -9.443   7.647  73.064  1.00  0.00    -0.226 C  
ENDROOT
BRANCH   7   8
HETATM    8  C   UNL     1     -10.171   8.753  72.318  1.00  0.00    -0.240 C  
BRANCH   8   9
HETATM    9  N   UNL     1      -9.858   9.075  70.930  1.00  0.00    -0.240 N  
HETATM   10  C   UNL     1      -8.645   8.719  70.363  1.00  0.00    -0.163 C  
HETATM   11  C   UNL     1      -8.480   8.765  69.031  1.00  0.00    -0.130 C  
HETATM   12  C   UNL     1      -9.514   9.344  68.177  1.00  0.00    -0.146 C  
HETATM   13  C   UNL     1      -9.300   9.403  66.695  1.00  0.00    -0.163 C  
HETATM   14  C   UNL     1     -10.662   9.791  68.725  1.00  0.00    -0.215 C  
HETATM   15  C   UNL     1     -10.962   9.259  70.091  1.00  0.00    -0.246 C  
HETATM   16  F   UNL     1      -8.177   8.744  66.301  1.00  0.00    -0.106 F  
HETATM   17  F   UNL     1     -10.330   8.824  66.022  1.00  0.00    -0.344 F  
HETATM   18  O   UNL     1     -12.116   9.006  70.421  1.00  0.00    -0.040 OA 
HETATM   19  F   UNL     1      -9.188  10.673  66.234  1.00  0.00    -0.167 F  
BRANCH  14  20
HETATM   20  O   UNL     1     -11.610  10.490  67.986  1.00  0.00    -0.442 OA 
BRANCH  20  21
HETATM   21  C   UNL     1     -11.641  11.870  67.916  1.00  0.00    -0.323 A  
HETATM   22  C   UNL     1     -11.882  12.379  66.625  1.00  0.00    -0.394 A  
HETATM   23  C   UNL     1     -11.996  13.759  66.393  1.00  0.00    -0.473 A  
HETATM   24  C   UNL     1     -11.869  14.647  67.464  1.00  0.00    -0.375 A  
HETATM   25  C   UNL     1     -12.243  14.257  65.062  1.00  0.00    -0.433 C  
HETATM   26  C   UNL     1     -11.590  14.149  68.737  1.00  0.00    -0.327 A  
HETATM   27  N   UNL     1     -12.426  14.656  63.990  1.00  0.00    -0.813 NA 
HETATM   28 CL   UNL     1     -11.428  15.242  70.061  1.00  0.00    -0.286 Cl 
HETATM   29  C   UNL     1     -11.450  12.771  68.963  1.00  0.00    -0.360 A  
ENDBRANCH  20  21
ENDBRANCH  14  20
ENDBRANCH   8   9
ENDBRANCH   7   8
TORSDOF 4
ENDMDL
MODEL       82
REMARK 921   NORMALIZED FREE ENERGY PREDICTED BY IDOCK:   -6.44 KCAL/MOL
REMARK 922        TOTAL FREE ENERGY PREDICTED BY IDOCK:   -8.78 KCAL/MOL
REMARK 923 INTER-LIGAND FREE ENERGY PREDICTED BY IDOCK:   -7.71 KCAL/MOL
REMARK 924 INTRA-LIGAND FREE ENERGY PREDICTED BY IDOCK:   -1.07 KCAL/MOL
REMARK 927      BINDING AFFINITY PREDICTED BY RF-SCORE:    0.00 PKD
ROOT
HETATM    1  C   UNL     1     -12.787  14.252  65.352  1.00  0.00    -0.302 C  
HETATM    2  N   UNL     1     -11.467  14.789  65.582  1.00  0.00    -0.346 N  
HETATM    3  C   UNL     1     -10.973  15.868  64.886  1.00  0.00    -0.411 C  
HETATM    4  O   UNL     1     -11.532  16.550  64.045  1.00  0.00    -1.137 OA 
HETATM    5  N   UNL     1      -9.676  16.035  65.344  1.00  0.00    -0.419 NA 
HETATM    6  N   UNL     1      -9.390  15.122  66.314  1.00  0.00    -0.298 NA 
HETATM    7  C   UNL     1     -10.484  14.416  66.424  1.00  0.00    -0.295 C  
ENDROOT
BRANCH   7   8
HETATM    8  C   UNL     1     -10.614  13.368  67.516  1.00  0.00    -0.250 C  
BRANCH   8   9
HETATM    9  N   UNL     1     -10.301  11.964  67.272  1.00  0.00    -0.203 N  
HETATM   10  C   UNL     1     -10.638  11.347  66.078  1.00  0.00    -0.266 C  
HETATM   11  C   UNL     1     -10.104  10.158  65.756  1.00  0.00    -0.324 C  
HETATM   12  C   UNL     1      -9.294   9.424  66.724  1.00  0.00    -0.202 C  
HETATM   13  C   UNL     1      -8.725   8.089  66.348  1.00  0.00    -0.151 C  
HETATM   14  C   UNL     1      -9.040   9.965  67.932  1.00  0.00    -0.131 C  
HETATM   15  C   UNL     1      -9.236  11.446  68.017  1.00  0.00    -0.171 C  
HETATM   16  F   UNL     1      -8.924   7.784  65.038  1.00  0.00    -0.045 F  
HETATM   17  F   UNL     1      -7.379   8.052  66.541  1.00  0.00    -0.077 F  
HETATM   18  O   UNL     1      -8.489  12.135  68.705  1.00  0.00    -0.113 OA 
HETATM   19  F   UNL     1      -9.257   7.073  67.070  1.00  0.00    -0.130 F  
BRANCH  14  20
HETATM   20  O   UNL     1      -8.410   9.250  68.944  1.00  0.00    -0.116 OA 
BRANCH  20  21
HETATM   21  C   UNL     1      -8.994   9.015  70.175  1.00  0.00    -0.184 A  
HETATM   22  C   UNL     1     -10.401   8.977  70.151  1.00  0.00    -0.237 A  
HETATM   23  C   UNL     1     -11.146   8.696  71.308  1.00  0.00    -0.336 A  
HETATM   24  C   UNL     1     -10.476   8.450  72.510  1.00  0.00    -0.372 A  
HETATM   25  C   UNL     1     -12.586   8.662  71.259  1.00  0.00    -0.235 C  
HETATM   26  C   UNL     1      -9.083   8.527  72.547  1.00  0.00    -0.214 A  
HETATM   27  N   UNL     1     -13.745   8.650  71.222  1.00  0.00    -0.219 NA 
HETATM   28 CL   UNL     1      -8.254   8.228  74.028  1.00  0.00    -0.306 Cl 
HETATM   29  C   UNL     1      -8.343   8.834  71.394  1.00  0.00    -0.222 A  
ENDBRANCH  20  21
ENDBRANCH  14  20
ENDBRANCH   8   9
ENDBRANCH   7   8
TORSDOF 4
ENDMDL
MODEL       83
REMARK 921   NORMALIZED FREE ENERGY PREDICTED BY IDOCK:   -6.43 KCAL/MOL
REMARK 922        TOTAL FREE ENERGY PREDICTED BY IDOCK:   -8.78 KCAL/MOL
REMARK 923 INTER-LIGAND FREE ENERGY PREDICTED BY IDOCK:   -7.69 KCAL/MOL
REMARK 924 INTRA-LIGAND FREE ENERGY PREDICTED BY IDOCK:   -1.08 KCAL/MOL
REMARK 927      BINDING AFFINITY PREDICTED BY RF-SCORE:    0.00 PKD
ROOT
HETATM    1  C   UNL     1     -10.769   9.528  70.174  1.00  0.00    -0.257 C  
HETATM    2  N   UNL     1      -9.985   8.669  69.317  1.00  0.00    -0.189 N  
HETATM    3  C   UNL     1     -10.131   7.302  69.302  1.00  0.00    -0.183 C  
HETATM    4  O   UNL     1     -10.924   6.616  69.925  1.00  0.00    -0.266 OA 
HETATM    5  N   UNL     1      -9.176   6.841  68.411  1.00  0.00    -0.125 NA 
HETATM    6  N   UNL     1      -8.490   7.884  67.865  1.00  0.00    -0.125 NA 
HETATM    7  C   UNL     1      -9.012   8.942  68.426  1.00  0.00    -0.134 C  
ENDROOT
BRANCH   7   8
HETATM    8  C   UNL     1      -8.604  10.332  67.969  1.00  0.00    -0.118 C  
BRANCH   8   9
HETATM    9  N   UNL     1      -9.387  11.078  66.989  1.00  0.00    -0.170 N  
HETATM   10  C   UNL     1      -9.809  10.491  65.807  1.00  0.00    -0.237 C  
HETATM   11  C   UNL     1     -10.752  11.083  65.056  1.00  0.00    -0.264 C  
HETATM   12  C   UNL     1     -11.225  12.425  65.384  1.00  0.00    -0.358 C  
HETATM   13  C   UNL     1     -12.263  13.074  64.519  1.00  0.00    -0.416 C  
HETATM   14  C   UNL     1     -10.747  13.054  66.476  1.00  0.00    -0.278 C  
HETATM   15  C   UNL     1     -10.111  12.162  67.495  1.00  0.00    -0.196 C  
HETATM   16  F   UNL     1     -12.763  12.230  63.578  1.00  0.00    -0.566 F  
HETATM   17  F   UNL     1     -13.330  13.490  65.253  1.00  0.00    -0.394 F  
HETATM   18  O   UNL     1     -10.240  12.394  68.693  1.00  0.00    -0.218 OA 
HETATM   19  F   UNL     1     -11.788  14.158  63.859  1.00  0.00    -0.408 F  
BRANCH  14  20
HETATM   20  O   UNL     1     -11.041  14.385  66.750  1.00  0.00    -0.308 OA 
BRANCH  20  21
HETATM   21  C   UNL     1     -10.099  15.394  66.680  1.00  0.00    -0.265 A  
HETATM   22  C   UNL     1     -10.638  16.677  66.469  1.00  0.00    -0.203 A  
HETATM   23  C   UNL     1      -9.819  17.817  66.426  1.00  0.00    -0.328 A  
HETATM   24  C   UNL     1      -8.440  17.676  66.598  1.00  0.00    -0.285 A  
HETATM   25  C   UNL     1     -10.394  19.121  66.208  1.00  0.00    -0.474 C  
HETATM   26  C   UNL     1      -7.897  16.402  66.767  1.00  0.00    -0.266 A  
HETATM   27  N   UNL     1     -10.856  20.167  66.019  1.00  0.00    -0.184 NA 
HETATM   28 CL   UNL     1      -6.195  16.223  66.975  1.00  0.00    -0.173 Cl 
HETATM   29  C   UNL     1      -8.715  15.261  66.783  1.00  0.00    -0.304 A  
ENDBRANCH  20  21
ENDBRANCH  14  20
ENDBRANCH   8   9
ENDBRANCH   7   8
TORSDOF 4
ENDMDL
MODEL       84
REMARK 921   NORMALIZED FREE ENERGY PREDICTED BY IDOCK:   -6.41 KCAL/MOL
REMARK 922        TOTAL FREE ENERGY PREDICTED BY IDOCK:   -8.75 KCAL/MOL
REMARK 923 INTER-LIGAND FREE ENERGY PREDICTED BY IDOCK:   -8.42 KCAL/MOL
REMARK 924 INTRA-LIGAND FREE ENERGY PREDICTED BY IDOCK:   -0.33 KCAL/MOL
REMARK 927      BINDING AFFINITY PREDICTED BY RF-SCORE:    0.00 PKD
ROOT
HETATM    1  C   UNL     1     -12.089  13.379  63.786  1.00  0.00    -0.456 C  
HETATM    2  N   UNL     1     -11.295  14.337  64.518  1.00  0.00    -0.359 N  
HETATM    3  C   UNL     1     -11.463  15.696  64.387  1.00  0.00    -0.262 C  
HETATM    4  O   UNL     1     -12.285  16.298  63.717  1.00  0.00    -0.923 OA 
HETATM    5  N   UNL     1     -10.490  16.265  65.192  1.00  0.00    -0.632 NA 
HETATM    6  N   UNL     1      -9.771  15.298  65.829  1.00  0.00    -0.347 NA 
HETATM    7  C   UNL     1     -10.292  14.177  65.405  1.00  0.00    -0.365 C  
ENDROOT
BRANCH   7   8
HETATM    8  C   UNL     1      -9.848  12.852  65.999  1.00  0.00    -0.255 C  
BRANCH   8   9
HETATM    9  N   UNL     1     -10.372  12.369  67.272  1.00  0.00    -0.214 N  
HETATM   10  C   UNL     1     -11.519  12.909  67.831  1.00  0.00    -0.318 C  
HETATM   11  C   UNL     1     -12.143  12.278  68.840  1.00  0.00    -0.177 C  
HETATM   12  C   UNL     1     -11.535  11.109  69.470  1.00  0.00    -0.374 C  
HETATM   13  C   UNL     1     -12.240  10.434  70.607  1.00  0.00    -0.347 C  
HETATM   14  C   UNL     1     -10.365  10.630  69.003  1.00  0.00    -0.218 C  
HETATM   15  C   UNL     1     -10.010  11.062  67.615  1.00  0.00    -0.173 C  
HETATM   16  F   UNL     1     -13.486  10.933  70.822  1.00  0.00    -0.239 F  
HETATM   17  F   UNL     1     -12.405   9.105  70.370  1.00  0.00    -0.134 F  
HETATM   18  O   UNL     1      -9.441  10.291  66.849  1.00  0.00    -0.163 OA 
HETATM   19  F   UNL     1     -11.567  10.548  71.778  1.00  0.00    -0.232 F  
BRANCH  14  20
HETATM   20  O   UNL     1      -9.666   9.622  69.658  1.00  0.00    -0.186 OA 
BRANCH  20  21
HETATM   21  C   UNL     1      -9.873   8.278  69.407  1.00  0.00    -0.185 A  
HETATM   22  C   UNL     1      -9.729   7.450  70.537  1.00  0.00    -0.175 A  
HETATM   23  C   UNL     1      -9.958   6.066  70.462  1.00  0.00    -0.233 A  
HETATM   24  C   UNL     1     -10.336   5.499  69.243  1.00  0.00    -0.335 A  
HETATM   25  C   UNL     1      -9.805   5.238  71.632  1.00  0.00    -0.170 C  
HETATM   26  C   UNL     1     -10.440   6.311  68.112  1.00  0.00    -0.226 A  
HETATM   27  N   UNL     1      -9.667   4.570  72.570  1.00  0.00    -0.146 NA 
HETATM   28 CL   UNL     1     -10.902   5.613  66.605  1.00  0.00    -0.341 Cl 
HETATM   29  C   UNL     1     -10.185   7.689  68.183  1.00  0.00    -0.236 A  
ENDBRANCH  20  21
ENDBRANCH  14  20
ENDBRANCH   8   9
ENDBRANCH   7   8
TORSDOF 4
ENDMDL
MODEL       85
REMARK 921   NORMALIZED FREE ENERGY PREDICTED BY IDOCK:   -6.41 KCAL/MOL
REMARK 922        TOTAL FREE ENERGY PREDICTED BY IDOCK:   -8.74 KCAL/MOL
REMARK 923 INTER-LIGAND FREE ENERGY PREDICTED BY IDOCK:   -7.56 KCAL/MOL
REMARK 924 INTRA-LIGAND FREE ENERGY PREDICTED BY IDOCK:   -1.19 KCAL/MOL
REMARK 927      BINDING AFFINITY PREDICTED BY RF-SCORE:    0.00 PKD
ROOT
HETATM    1  C   UNL     1     -12.898  14.136  65.041  1.00  0.00    -0.221 C  
HETATM    2  N   UNL     1     -11.574  14.588  65.399  1.00  0.00    -0.349 N  
HETATM    3  C   UNL     1     -11.007  15.720  64.865  1.00  0.00    -0.427 C  
HETATM    4  O   UNL     1     -11.497  16.521  64.087  1.00  0.00    -1.059 OA 
HETATM    5  N   UNL     1      -9.731  15.779  65.402  1.00  0.00    -0.377 NA 
HETATM    6  N   UNL     1      -9.528  14.746  66.266  1.00  0.00    -0.299 NA 
HETATM    7  C   UNL     1     -10.650  14.076  66.236  1.00  0.00    -0.281 C  
ENDROOT
BRANCH   7   8
HETATM    8  C   UNL     1     -10.874  12.912  67.185  1.00  0.00    -0.256 C  
BRANCH   8   9
HETATM    9  N   UNL     1     -10.404  11.566  66.871  1.00  0.00    -0.216 N  
HETATM   10  C   UNL     1     -10.354  11.106  65.565  1.00  0.00    -0.268 C  
HETATM   11  C   UNL     1      -9.666   9.993  65.265  1.00  0.00    -0.373 C  
HETATM   12  C   UNL     1      -9.100   9.164  66.326  1.00  0.00    -0.222 C  
HETATM   13  C   UNL     1      -8.353   7.915  65.967  1.00  0.00    -0.128 C  
HETATM   14  C   UNL     1      -9.228   9.545  67.613  1.00  0.00    -0.124 C  
HETATM   15  C   UNL     1      -9.549  10.992  67.817  1.00  0.00    -0.170 C  
HETATM   16  F   UNL     1      -8.162   7.785  64.628  1.00  0.00    -0.138 F  
HETATM   17  F   UNL     1      -7.112   7.902  66.525  1.00  0.00    -0.068 F  
HETATM   18  O   UNL     1      -9.071  11.607  68.765  1.00  0.00    -0.133 OA 
HETATM   19  F   UNL     1      -8.987   6.791  66.382  1.00  0.00    -0.130 F  
BRANCH  14  20
HETATM   20  O   UNL     1      -8.849   8.722  68.667  1.00  0.00    -0.136 OA 
BRANCH  20  21
HETATM   21  C   UNL     1      -9.759   8.048  69.461  1.00  0.00    -0.170 A  
HETATM   22  C   UNL     1      -9.491   6.674  69.611  1.00  0.00    -0.144 A  
HETATM   23  C   UNL     1     -10.290   5.859  70.429  1.00  0.00    -0.294 A  
HETATM   24  C   UNL     1     -11.373   6.422  71.109  1.00  0.00    -0.376 A  
HETATM   25  C   UNL     1      -9.997   4.454  70.567  1.00  0.00    -0.185 C  
HETATM   26  C   UNL     1     -11.666   7.775  70.930  1.00  0.00    -0.265 A  
HETATM   27  N   UNL     1      -9.768   3.322  70.666  1.00  0.00    -0.149 NA 
HETATM   28 CL   UNL     1     -13.004   8.472  71.764  1.00  0.00    -0.359 Cl 
HETATM   29  C   UNL     1     -10.882   8.582  70.092  1.00  0.00    -0.238 A  
ENDBRANCH  20  21
ENDBRANCH  14  20
ENDBRANCH   8   9
ENDBRANCH   7   8
TORSDOF 4
ENDMDL
MODEL       86
REMARK 921   NORMALIZED FREE ENERGY PREDICTED BY IDOCK:   -6.37 KCAL/MOL
REMARK 922        TOTAL FREE ENERGY PREDICTED BY IDOCK:   -8.70 KCAL/MOL
REMARK 923 INTER-LIGAND FREE ENERGY PREDICTED BY IDOCK:   -7.65 KCAL/MOL
REMARK 924 INTRA-LIGAND FREE ENERGY PREDICTED BY IDOCK:   -1.05 KCAL/MOL
REMARK 927      BINDING AFFINITY PREDICTED BY RF-SCORE:    0.00 PKD
ROOT
HETATM    1  C   UNL     1      -6.857  16.535  69.233  1.00  0.00    -0.224 C  
HETATM    2  N   UNL     1      -7.810  17.379  68.551  1.00  0.00    -0.260 N  
HETATM    3  C   UNL     1      -7.535  18.682  68.208  1.00  0.00    -0.281 C  
HETATM    4  O   UNL     1      -6.497  19.304  68.358  1.00  0.00    -0.232 OA 
HETATM    5  N   UNL     1      -8.701  19.163  67.635  1.00  0.00    -0.291 NA 
HETATM    6  N   UNL     1      -9.650  18.187  67.589  1.00  0.00    -0.274 NA 
HETATM    7  C   UNL     1      -9.071  17.149  68.134  1.00  0.00    -0.247 C  
ENDROOT
BRANCH   7   8
HETATM    8  C   UNL     1      -9.767  15.800  68.143  1.00  0.00    -0.211 C  
BRANCH   8   9
HETATM    9  N   UNL     1     -10.462  15.304  69.327  1.00  0.00    -0.245 N  
HETATM   10  C   UNL     1     -10.392  15.974  70.537  1.00  0.00     0.261 C  
HETATM   11  C   UNL     1     -11.249  15.675  71.528  1.00  0.00    -0.373 C  
HETATM   12  C   UNL     1     -12.153  14.535  71.405  1.00  0.00    -0.420 C  
HETATM   13  C   UNL     1     -13.086  14.209  72.531  1.00  0.00    -0.463 C  
HETATM   14  C   UNL     1     -12.163  13.808  70.270  1.00  0.00    -0.359 C  
HETATM   15  C   UNL     1     -11.569  14.487  69.075  1.00  0.00    -0.298 C  
HETATM   16  F   UNL     1     -13.073  15.150  73.512  1.00  0.00    -0.522 F  
HETATM   17  F   UNL     1     -14.375  14.134  72.102  1.00  0.00    -0.517 F  
HETATM   18  O   UNL     1     -12.052  14.319  67.960  1.00  0.00    -0.338 OA 
HETATM   19  F   UNL     1     -12.795  13.025  73.123  1.00  0.00     0.030 F  
BRANCH  14  20
HETATM   20  O   UNL     1     -12.885  12.626  70.157  1.00  0.00     0.170 OA 
BRANCH  20  21
HETATM   21  C   UNL     1     -12.365  11.390  70.493  1.00  0.00    -0.349 A  
HETATM   22  C   UNL     1     -11.108  11.116  69.921  1.00  0.00    -0.234 A  
HETATM   23  C   UNL     1     -10.418   9.926  70.206  1.00  0.00    -0.348 A  
HETATM   24  C   UNL     1     -10.991   8.994  71.076  1.00  0.00    -0.352 A  
HETATM   25  C   UNL     1      -9.132   9.667  69.609  1.00  0.00    -0.210 C  
HETATM   26  C   UNL     1     -12.254   9.244  71.613  1.00  0.00    -0.370 A  
HETATM   27  N   UNL     1      -8.105   9.453  69.116  1.00  0.00    -0.103 NA 
HETATM   28 CL   UNL     1     -12.966   8.094  72.683  1.00  0.00    -0.067 Cl 
HETATM   29  C   UNL     1     -12.953  10.422  71.306  1.00  0.00    -0.517 A  
ENDBRANCH  20  21
ENDBRANCH  14  20
ENDBRANCH   8   9
ENDBRANCH   7   8
TORSDOF 4
ENDMDL
MODEL       87
REMARK 921   NORMALIZED FREE ENERGY PREDICTED BY IDOCK:   -6.34 KCAL/MOL
REMARK 922        TOTAL FREE ENERGY PREDICTED BY IDOCK:   -8.66 KCAL/MOL
REMARK 923 INTER-LIGAND FREE ENERGY PREDICTED BY IDOCK:   -7.53 KCAL/MOL
REMARK 924 INTRA-LIGAND FREE ENERGY PREDICTED BY IDOCK:   -1.13 KCAL/MOL
REMARK 927      BINDING AFFINITY PREDICTED BY RF-SCORE:    0.00 PKD
ROOT
HETATM    1  C   UNL     1      -8.377   5.668  68.488  1.00  0.00    -0.106 C  
HETATM    2  N   UNL     1      -8.191   4.932  69.717  1.00  0.00    -0.072 N  
HETATM    3  C   UNL     1      -7.891   3.591  69.741  1.00  0.00    -0.050 C  
HETATM    4  O   UNL     1      -7.692   2.840  68.801  1.00  0.00    -0.047 OA 
HETATM    5  N   UNL     1      -7.854   3.248  71.083  1.00  0.00    -0.050 NA 
HETATM    6  N   UNL     1      -8.083   4.342  71.862  1.00  0.00    -0.091 NA 
HETATM    7  C   UNL     1      -8.266   5.313  71.008  1.00  0.00    -0.116 C  
ENDROOT
BRANCH   7   8
HETATM    8  C   UNL     1      -8.415   6.744  71.494  1.00  0.00    -0.119 C  
BRANCH   8   9
HETATM    9  N   UNL     1      -9.685   7.457  71.400  1.00  0.00    -0.167 N  
HETATM   10  C   UNL     1     -10.830   6.975  72.014  1.00  0.00    -0.223 C  
HETATM   11  C   UNL     1     -11.905   7.766  72.161  1.00  0.00    -0.370 C  
HETATM   12  C   UNL     1     -11.944   9.085  71.534  1.00  0.00    -0.414 C  
HETATM   13  C   UNL     1     -13.163   9.942  71.694  1.00  0.00    -0.421 C  
HETATM   14  C   UNL     1     -10.875   9.530  70.844  1.00  0.00    -0.337 C  
HETATM   15  C   UNL     1      -9.588   8.829  71.147  1.00  0.00    -0.242 C  
HETATM   16  F   UNL     1     -14.062   9.417  72.568  1.00  0.00    -0.460 F  
HETATM   17  F   UNL     1     -12.843  11.172  72.180  1.00  0.00    -0.506 F  
HETATM   18  O   UNL     1      -8.530   9.452  71.169  1.00  0.00    -0.303 OA 
HETATM   19  F   UNL     1     -13.822  10.136  70.526  1.00  0.00    -0.272 F  
BRANCH  14  20
HETATM   20  O   UNL     1     -10.913  10.703  70.099  1.00  0.00    -0.282 OA 
BRANCH  20  21
HETATM   21  C   UNL     1     -10.867  10.719  68.717  1.00  0.00    -0.221 A  
HETATM   22  C   UNL     1     -11.549  11.801  68.128  1.00  0.00    -0.391 A  
HETATM   23  C   UNL     1     -11.554  11.992  66.737  1.00  0.00    -0.391 A  
HETATM   24  C   UNL     1     -10.867  11.090  65.919  1.00  0.00    -0.183 A  
HETATM   25  C   UNL     1     -12.259  13.106  66.156  1.00  0.00    -0.385 C  
HETATM   26  C   UNL     1     -10.224   9.995  66.497  1.00  0.00    -0.224 A  
HETATM   27  N   UNL     1     -12.839  13.995  65.689  1.00  0.00    -0.594 NA 
HETATM   28 CL   UNL     1      -9.379   8.877  65.491  1.00  0.00    -0.255 Cl 
HETATM   29  C   UNL     1     -10.243   9.791  67.885  1.00  0.00    -0.237 A  
ENDBRANCH  20  21
ENDBRANCH  14  20
ENDBRANCH   8   9
ENDBRANCH   7   8
TORSDOF 4
ENDMDL
MODEL       88
REMARK 921   NORMALIZED FREE ENERGY PREDICTED BY IDOCK:   -6.34 KCAL/MOL
REMARK 922        TOTAL FREE ENERGY PREDICTED BY IDOCK:   -8.66 KCAL/MOL
REMARK 923 INTER-LIGAND FREE ENERGY PREDICTED BY IDOCK:   -8.81 KCAL/MOL
REMARK 924 INTRA-LIGAND FREE ENERGY PREDICTED BY IDOCK:    0.16 KCAL/MOL
REMARK 927      BINDING AFFINITY PREDICTED BY RF-SCORE:    0.00 PKD
ROOT
HETATM    1  C   UNL     1      -8.911  10.925  62.351  1.00  0.00    -0.309 C  
HETATM    2  N   UNL     1      -9.129  10.278  63.623  1.00  0.00    -0.234 N  
HETATM    3  C   UNL     1      -8.355   9.232  64.066  1.00  0.00    -0.178 C  
HETATM    4  O   UNL     1      -7.382   8.727  63.531  1.00  0.00    -0.096 OA 
HETATM    5  N   UNL     1      -8.909   8.853  65.278  1.00  0.00    -0.197 NA 
HETATM    6  N   UNL     1      -9.962   9.658  65.594  1.00  0.00    -0.301 NA 
HETATM    7  C   UNL     1     -10.045  10.489  64.589  1.00  0.00    -0.338 C  
ENDROOT
BRANCH   7   8
HETATM    8  C   UNL     1     -11.024  11.649  64.632  1.00  0.00    -0.301 C  
BRANCH   8   9
HETATM    9  N   UNL     1     -10.704  12.898  65.316  1.00  0.00    -0.289 N  
HETATM   10  C   UNL     1     -10.581  14.090  64.621  1.00  0.00    -0.395 C  
HETATM   11  C   UNL     1     -10.569  15.261  65.279  1.00  0.00    -0.438 C  
HETATM   12  C   UNL     1     -10.520  15.288  66.739  1.00  0.00    -0.293 C  
HETATM   13  C   UNL     1     -10.487  16.606  67.451  1.00  0.00    -0.314 C  
HETATM   14  C   UNL     1     -10.536  14.131  67.431  1.00  0.00    -0.271 C  
HETATM   15  C   UNL     1     -11.043  12.945  66.672  1.00  0.00    -0.284 C  
HETATM   16  F   UNL     1     -10.664  17.660  66.611  1.00  0.00    -0.326 F  
HETATM   17  F   UNL     1     -11.480  16.694  68.377  1.00  0.00    -0.358 F  
HETATM   18  O   UNL     1     -11.715  12.087  67.236  1.00  0.00    -0.481 OA 
HETATM   19  F   UNL     1      -9.317  16.817  68.102  1.00  0.00    -0.216 F  
BRANCH  14  20
HETATM   20  O   UNL     1     -10.334  14.090  68.806  1.00  0.00    -0.240 OA 
BRANCH  20  21
HETATM   21  C   UNL     1     -11.250  13.544  69.685  1.00  0.00    -0.063 A  
HETATM   22  C   UNL     1     -12.001  14.494  70.403  1.00  0.00    -0.386 A  
HETATM   23  C   UNL     1     -13.011  14.103  71.297  1.00  0.00    -0.426 A  
HETATM   24  C   UNL     1     -13.277  12.743  71.479  1.00  0.00    -0.330 A  
HETATM   25  C   UNL     1     -13.767  15.094  72.022  1.00  0.00    -0.471 C  
HETATM   26  C   UNL     1     -12.507  11.798  70.800  1.00  0.00    -0.312 A  
HETATM   27  N   UNL     1     -14.365  15.891  72.615  1.00  0.00    -0.302 NA 
HETATM   28 CL   UNL     1     -12.829  10.119  71.025  1.00  0.00    -0.454 Cl 
HETATM   29  C   UNL     1     -11.481  12.190  69.926  1.00  0.00    -0.210 A  
ENDBRANCH  20  21
ENDBRANCH  14  20
ENDBRANCH   8   9
ENDBRANCH   7   8
TORSDOF 4
ENDMDL
MODEL       89
REMARK 921   NORMALIZED FREE ENERGY PREDICTED BY IDOCK:   -6.32 KCAL/MOL
REMARK 922        TOTAL FREE ENERGY PREDICTED BY IDOCK:   -8.63 KCAL/MOL
REMARK 923 INTER-LIGAND FREE ENERGY PREDICTED BY IDOCK:   -7.59 KCAL/MOL
REMARK 924 INTRA-LIGAND FREE ENERGY PREDICTED BY IDOCK:   -1.04 KCAL/MOL
REMARK 927      BINDING AFFINITY PREDICTED BY RF-SCORE:    0.00 PKD
ROOT
HETATM    1  C   UNL     1      -7.306  10.954  67.829  1.00  0.00    -0.093 C  
HETATM    2  N   UNL     1      -8.113  10.282  68.820  1.00  0.00    -0.112 N  
HETATM    3  C   UNL     1      -7.743  10.190  70.141  1.00  0.00    -0.069 C  
HETATM    4  O   UNL     1      -6.763  10.666  70.690  1.00  0.00    -0.332 OA 
HETATM    5  N   UNL     1      -8.731   9.432  70.746  1.00  0.00    -0.228 NA 
HETATM    6  N   UNL     1      -9.698   9.099  69.845  1.00  0.00    -0.181 NA 
HETATM    7  C   UNL     1      -9.291   9.634  68.725  1.00  0.00    -0.148 C  
ENDROOT
BRANCH   7   8
HETATM    8  C   UNL     1     -10.179   9.602  67.493  1.00  0.00    -0.220 C  
BRANCH   8   9
HETATM    9  N   UNL     1     -10.464  10.808  66.723  1.00  0.00    -0.243 N  
HETATM   10  C   UNL     1     -10.637  10.762  65.349  1.00  0.00    -0.154 C  
HETATM   11  C   UNL     1     -11.172  11.808  64.697  1.00  0.00    -0.349 C  
HETATM   12  C   UNL     1     -11.425  13.065  65.397  1.00  0.00    -0.344 C  
HETATM   13  C   UNL     1     -12.003  14.224  64.645  1.00  0.00    -0.455 C  
HETATM   14  C   UNL     1     -11.165  13.159  66.717  1.00  0.00    -0.299 C  
HETATM   15  C   UNL     1     -11.058  11.853  67.438  1.00  0.00    -0.279 C  
HETATM   16  F   UNL     1     -12.373  13.896  63.379  1.00  0.00    -0.532 F  
HETATM   17  F   UNL     1     -13.124  14.699  65.252  1.00  0.00    -0.334 F  
HETATM   18  O   UNL     1     -11.480  11.739  68.585  1.00  0.00    -0.236 OA 
HETATM   19  F   UNL     1     -11.137  15.263  64.542  1.00  0.00    -0.369 F  
BRANCH  14  20
HETATM   20  O   UNL     1     -11.238  14.369  67.399  1.00  0.00    -0.300 OA 
BRANCH  20  21
HETATM   21  C   UNL     1     -10.144  15.193  67.588  1.00  0.00    -0.231 A  
HETATM   22  C   UNL     1     -10.466  16.490  68.032  1.00  0.00    -0.313 A  
HETATM   23  C   UNL     1      -9.466  17.433  68.322  1.00  0.00    -0.290 A  
HETATM   24  C   UNL     1      -8.124  17.077  68.169  1.00  0.00    -0.212 A  
HETATM   25  C   UNL     1      -9.820  18.755  68.775  1.00  0.00    -0.384 C  
HETATM   26  C   UNL     1      -7.802  15.806  67.691  1.00  0.00    -0.150 A  
HETATM   27  N   UNL     1     -10.106  19.822  69.125  1.00  0.00    -0.388 NA 
HETATM   28 CL   UNL     1      -6.147  15.365  67.496  1.00  0.00    -0.141 Cl 
HETATM   29  C   UNL     1      -8.803  14.874  67.376  1.00  0.00    -0.204 A  
ENDBRANCH  20  21
ENDBRANCH  14  20
ENDBRANCH   8   9
ENDBRANCH   7   8
TORSDOF 4
ENDMDL
MODEL       90
REMARK 921   NORMALIZED FREE ENERGY PREDICTED BY IDOCK:   -6.29 KCAL/MOL
REMARK 922        TOTAL FREE ENERGY PREDICTED BY IDOCK:   -8.60 KCAL/MOL
REMARK 923 INTER-LIGAND FREE ENERGY PREDICTED BY IDOCK:   -7.82 KCAL/MOL
REMARK 924 INTRA-LIGAND FREE ENERGY PREDICTED BY IDOCK:   -0.78 KCAL/MOL
REMARK 927      BINDING AFFINITY PREDICTED BY RF-SCORE:    0.00 PKD
ROOT
HETATM    1  C   UNL     1      -8.851   5.269  71.266  1.00  0.00    -0.136 C  
HETATM    2  N   UNL     1      -9.828   5.667  70.280  1.00  0.00    -0.183 N  
HETATM    3  C   UNL     1      -9.873   5.122  69.018  1.00  0.00    -0.176 C  
HETATM    4  O   UNL     1      -9.182   4.233  68.549  1.00  0.00    -0.120 OA 
HETATM    5  N   UNL     1     -10.891   5.797  68.364  1.00  0.00    -0.224 NA 
HETATM    6  N   UNL     1     -11.481   6.697  69.199  1.00  0.00    -0.202 NA 
HETATM    7  C   UNL     1     -10.823   6.575  70.321  1.00  0.00    -0.279 C  
ENDROOT
BRANCH   7   8
HETATM    8  C   UNL     1     -11.276   7.324  71.562  1.00  0.00    -0.245 C  
BRANCH   8   9
HETATM    9  N   UNL     1     -11.893   8.644  71.478  1.00  0.00    -0.289 N  
HETATM   10  C   UNL     1     -13.003   8.970  72.240  1.00  0.00    -0.424 C  
HETATM   11  C   UNL     1     -13.385  10.252  72.367  1.00  0.00    -0.136 C  
HETATM   12  C   UNL     1     -12.740  11.298  71.578  1.00  0.00    -0.481 C  
HETATM   13  C   UNL     1     -13.196  12.717  71.722  1.00  0.00    -0.374 C  
HETATM   14  C   UNL     1     -11.723  10.981  70.752  1.00  0.00    -0.181 C  
HETATM   15  C   UNL     1     -11.054   9.674  71.041  1.00  0.00    -0.368 C  
HETATM   16  F   UNL     1     -14.098  12.879  72.727  1.00  0.00    -0.548 F  
HETATM   17  F   UNL     1     -12.157  13.545  72.015  1.00  0.00    -0.113 F  
HETATM   18  O   UNL     1      -9.842   9.549  70.895  1.00  0.00    -0.275 OA 
HETATM   19  F   UNL     1     -13.779  13.195  70.595  1.00  0.00     0.273 F  
BRANCH  14  20
HETATM   20  O   UNL     1     -11.178  11.903  69.865  1.00  0.00    -0.139 OA 
BRANCH  20  21
HETATM   21  C   UNL     1     -11.106  11.684  68.502  1.00  0.00    -0.235 A  
HETATM   22  C   UNL     1     -11.719  12.682  67.722  1.00  0.00    -0.412 A  
HETATM   23  C   UNL     1     -11.688  12.636  66.318  1.00  0.00    -0.460 A  
HETATM   24  C   UNL     1     -11.033  11.577  65.682  1.00  0.00    -0.296 A  
HETATM   25  C   UNL     1     -12.323  13.669  65.540  1.00  0.00    -0.482 C  
HETATM   26  C   UNL     1     -10.459  10.565  66.452  1.00  0.00    -0.192 A  
HETATM   27  N   UNL     1     -12.847  14.494  64.915  1.00  0.00    -0.537 NA 
HETATM   28 CL   UNL     1      -9.655   9.255  65.671  1.00  0.00    -0.340 Cl 
HETATM   29  C   UNL     1     -10.515  10.600  67.854  1.00  0.00    -0.243 A  
ENDBRANCH  20  21
ENDBRANCH  14  20
ENDBRANCH   8   9
ENDBRANCH   7   8
TORSDOF 4
ENDMDL
MODEL       91
REMARK 921   NORMALIZED FREE ENERGY PREDICTED BY IDOCK:   -6.28 KCAL/MOL
REMARK 922        TOTAL FREE ENERGY PREDICTED BY IDOCK:   -8.59 KCAL/MOL
REMARK 923 INTER-LIGAND FREE ENERGY PREDICTED BY IDOCK:   -7.55 KCAL/MOL
REMARK 924 INTRA-LIGAND FREE ENERGY PREDICTED BY IDOCK:   -1.04 KCAL/MOL
REMARK 927      BINDING AFFINITY PREDICTED BY RF-SCORE:    0.00 PKD
ROOT
HETATM    1  C   UNL     1     -12.215  10.392  70.965  1.00  0.00    -0.393 C  
HETATM    2  N   UNL     1     -12.385   8.980  71.212  1.00  0.00    -0.310 N  
HETATM    3  C   UNL     1     -13.361   8.484  72.044  1.00  0.00    -0.369 C  
HETATM    4  O   UNL     1     -14.230   9.093  72.643  1.00  0.00    -0.551 OA 
HETATM    5  N   UNL     1     -13.160   7.113  72.067  1.00  0.00    -0.197 NA 
HETATM    6  N   UNL     1     -12.125   6.768  71.251  1.00  0.00    -0.361 NA 
HETATM    7  C   UNL     1     -11.707   7.905  70.762  1.00  0.00    -0.218 C  
ENDROOT
BRANCH   7   8
HETATM    8  C   UNL     1     -10.637   7.930  69.685  1.00  0.00    -0.234 C  
BRANCH   8   9
HETATM    9  N   UNL     1      -9.631   8.986  69.629  1.00  0.00    -0.167 N  
HETATM   10  C   UNL     1      -8.663   9.114  70.612  1.00  0.00    -0.229 C  
HETATM   11  C   UNL     1      -7.590   9.894  70.410  1.00  0.00    -0.118 C  
HETATM   12  C   UNL     1      -7.506  10.744  69.225  1.00  0.00    -0.135 C  
HETATM   13  C   UNL     1      -6.307  11.622  69.030  1.00  0.00    -0.072 C  
HETATM   14  C   UNL     1      -8.490  10.708  68.304  1.00  0.00    -0.127 C  
HETATM   15  C   UNL     1      -9.360   9.491  68.353  1.00  0.00    -0.133 C  
HETATM   16  F   UNL     1      -5.335  11.394  69.953  1.00  0.00    -0.051 F  
HETATM   17  F   UNL     1      -5.728  11.409  67.817  1.00  0.00    -0.043 F  
HETATM   18  O   UNL     1      -9.789   8.992  67.317  1.00  0.00    -0.170 OA 
HETATM   19  F   UNL     1      -6.610  12.941  69.099  1.00  0.00    -0.090 F  
BRANCH  14  20
HETATM   20  O   UNL     1      -8.540  11.603  67.242  1.00  0.00    -0.143 OA 
BRANCH  20  21
HETATM   21  C   UNL     1      -9.612  12.448  67.020  1.00  0.00    -0.211 A  
HETATM   22  C   UNL     1     -10.372  12.131  65.878  1.00  0.00    -0.286 A  
HETATM   23  C   UNL     1     -11.525  12.859  65.542  1.00  0.00    -0.361 A  
HETATM   24  C   UNL     1     -11.926  13.921  66.356  1.00  0.00    -0.467 A  
HETATM   25  C   UNL     1     -12.288  12.516  64.368  1.00  0.00    -0.455 C  
HETATM   26  C   UNL     1     -11.152  14.264  67.466  1.00  0.00    -0.298 A  
HETATM   27  N   UNL     1     -12.893  12.248  63.415  1.00  0.00    -0.760 NA 
HETATM   28 CL   UNL     1     -11.642  15.577  68.471  1.00  0.00    -0.371 Cl 
HETATM   29  C   UNL     1      -9.986  13.552  67.785  1.00  0.00    -0.232 A  
ENDBRANCH  20  21
ENDBRANCH  14  20
ENDBRANCH   8   9
ENDBRANCH   7   8
TORSDOF 4
ENDMDL
MODEL       92
REMARK 921   NORMALIZED FREE ENERGY PREDICTED BY IDOCK:   -6.27 KCAL/MOL
REMARK 922        TOTAL FREE ENERGY PREDICTED BY IDOCK:   -8.57 KCAL/MOL
REMARK 923 INTER-LIGAND FREE ENERGY PREDICTED BY IDOCK:   -7.79 KCAL/MOL
REMARK 924 INTRA-LIGAND FREE ENERGY PREDICTED BY IDOCK:   -0.78 KCAL/MOL
REMARK 927      BINDING AFFINITY PREDICTED BY RF-SCORE:    0.00 PKD
ROOT
HETATM    1  C   UNL     1      -9.217   9.864  69.628  1.00  0.00    -0.227 C  
HETATM    2  N   UNL     1      -8.542   8.979  68.707  1.00  0.00    -0.130 N  
HETATM    3  C   UNL     1      -8.517   7.614  68.873  1.00  0.00    -0.129 C  
HETATM    4  O   UNL     1      -9.061   6.944  69.735  1.00  0.00    -0.144 OA 
HETATM    5  N   UNL     1      -7.734   7.134  67.837  1.00  0.00    -0.111 NA 
HETATM    6  N   UNL     1      -7.321   8.156  67.036  1.00  0.00    -0.086 NA 
HETATM    7  C   UNL     1      -7.833   9.224  67.588  1.00  0.00    -0.096 C  
ENDROOT
BRANCH   7   8
HETATM    8  C   UNL     1      -7.713  10.574  66.903  1.00  0.00    -0.114 C  
BRANCH   8   9
HETATM    9  N   UNL     1      -8.830  11.166  66.174  1.00  0.00    -0.187 N  
HETATM   10  C   UNL     1      -9.686  10.388  65.411  1.00  0.00    -0.265 C  
HETATM   11  C   UNL     1     -10.857  10.889  64.983  1.00  0.00    -0.142 C  
HETATM   12  C   UNL     1     -11.170  12.303  65.173  1.00  0.00    -0.369 C  
HETATM   13  C   UNL     1     -12.473  12.844  64.670  1.00  0.00    -0.434 C  
HETATM   14  C   UNL     1     -10.300  13.100  65.826  1.00  0.00    -0.289 C  
HETATM   15  C   UNL     1      -9.300  12.383  66.678  1.00  0.00    -0.227 C  
HETATM   16  F   UNL     1     -13.302  11.870  64.207  1.00  0.00    -0.442 F  
HETATM   17  F   UNL     1     -13.160  13.482  65.656  1.00  0.00    -0.486 F  
HETATM   18  O   UNL     1      -8.939  12.861  67.749  1.00  0.00    -0.172 OA 
HETATM   19  F   UNL     1     -12.313  13.733  63.658  1.00  0.00    -0.505 F  
BRANCH  14  20
HETATM   20  O   UNL     1     -10.472  14.477  65.899  1.00  0.00    -0.288 OA 
BRANCH  20  21
HETATM   21  C   UNL     1     -10.583  15.159  67.096  1.00  0.00    -0.295 A  
HETATM   22  C   UNL     1      -9.671  16.221  67.245  1.00  0.00    -0.237 A  
HETATM   23  C   UNL     1      -9.688  17.046  68.382  1.00  0.00    -0.279 A  
HETATM   24  C   UNL     1     -10.631  16.810  69.385  1.00  0.00    -0.318 A  
HETATM   25  C   UNL     1      -8.744  18.127  68.513  1.00  0.00    -0.296 C  
HETATM   26  C   UNL     1     -11.511  15.734  69.260  1.00  0.00    -0.365 A  
HETATM   27  N   UNL     1      -7.974  18.987  68.623  1.00  0.00    -0.345 NA 
HETATM   28 CL   UNL     1     -12.673  15.436  70.498  1.00  0.00    -0.461 Cl 
HETATM   29  C   UNL     1     -11.474  14.894  68.136  1.00  0.00    -0.348 A  
ENDBRANCH  20  21
ENDBRANCH  14  20
ENDBRANCH   8   9
ENDBRANCH   7   8
TORSDOF 4
ENDMDL
MODEL       93
REMARK 921   NORMALIZED FREE ENERGY PREDICTED BY IDOCK:   -6.24 KCAL/MOL
REMARK 922        TOTAL FREE ENERGY PREDICTED BY IDOCK:   -8.53 KCAL/MOL
REMARK 923 INTER-LIGAND FREE ENERGY PREDICTED BY IDOCK:   -8.74 KCAL/MOL
REMARK 924 INTRA-LIGAND FREE ENERGY PREDICTED BY IDOCK:    0.21 KCAL/MOL
REMARK 927      BINDING AFFINITY PREDICTED BY RF-SCORE:    0.00 PKD
ROOT
HETATM    1  C   UNL     1     -10.025  19.826  68.330  1.00  0.00    -0.444 C  
HETATM    2  N   UNL     1      -9.075  18.758  68.535  1.00  0.00    -0.334 N  
HETATM    3  C   UNL     1      -7.769  18.986  68.902  1.00  0.00    -0.309 C  
HETATM    4  O   UNL     1      -7.226  20.048  69.154  1.00  0.00    -0.263 OA 
HETATM    5  N   UNL     1      -7.175  17.735  68.936  1.00  0.00    -0.268 NA 
HETATM    6  N   UNL     1      -8.085  16.765  68.640  1.00  0.00    -0.240 NA 
HETATM    7  C   UNL     1      -9.194  17.420  68.420  1.00  0.00    -0.277 C  
ENDROOT
BRANCH   7   8
HETATM    8  C   UNL     1     -10.495  16.671  68.191  1.00  0.00    -0.321 C  
BRANCH   8   9
HETATM    9  N   UNL     1     -10.670  15.288  68.624  1.00  0.00    -0.238 N  
HETATM   10  C   UNL     1     -11.638  14.940  69.551  1.00  0.00    -0.303 C  
HETATM   11  C   UNL     1     -11.976  13.653  69.727  1.00  0.00    -0.404 C  
HETATM   12  C   UNL     1     -11.219  12.592  69.068  1.00  0.00    -0.322 C  
HETATM   13  C   UNL     1     -11.602  11.162  69.295  1.00  0.00    -0.318 C  
HETATM   14  C   UNL     1     -10.204  12.910  68.239  1.00  0.00    -0.245 C  
HETATM   15  C   UNL     1     -10.222  14.315  67.724  1.00  0.00    -0.235 C  
HETATM   16  F   UNL     1     -12.755  11.034  70.004  1.00  0.00    -0.337 F  
HETATM   17  F   UNL     1     -11.813  10.512  68.118  1.00  0.00    -0.331 F  
HETATM   18  O   UNL     1      -9.864  14.562  66.577  1.00  0.00    -0.262 OA 
HETATM   19  F   UNL     1     -10.651  10.467  69.966  1.00  0.00    -0.287 F  
BRANCH  14  20
HETATM   20  O   UNL     1      -9.354  11.947  67.710  1.00  0.00    -0.173 OA 
BRANCH  20  21
HETATM   21  C   UNL     1      -9.453  11.487  66.410  1.00  0.00    -0.213 A  
HETATM   22  C   UNL     1     -10.614  11.909  65.734  1.00  0.00    -0.309 A  
HETATM   23  C   UNL     1     -10.840  11.573  64.389  1.00  0.00    -0.405 A  
HETATM   24  C   UNL     1      -9.894  10.803  63.707  1.00  0.00    -0.396 A  
HETATM   25  C   UNL     1     -12.036  12.016  63.717  1.00  0.00    -0.499 C  
HETATM   26  C   UNL     1      -8.762  10.349  64.385  1.00  0.00    -0.198 A  
HETATM   27  N   UNL     1     -13.006  12.361  63.183  1.00  0.00    -0.511 NA 
HETATM   28 CL   UNL     1      -7.595   9.396  63.548  1.00  0.00    -0.111 Cl 
HETATM   29  C   UNL     1      -8.551  10.665  65.736  1.00  0.00    -0.186 A  
ENDBRANCH  20  21
ENDBRANCH  14  20
ENDBRANCH   8   9
ENDBRANCH   7   8
TORSDOF 4
ENDMDL
MODEL       94
REMARK 921   NORMALIZED FREE ENERGY PREDICTED BY IDOCK:   -6.23 KCAL/MOL
REMARK 922        TOTAL FREE ENERGY PREDICTED BY IDOCK:   -8.52 KCAL/MOL
REMARK 923 INTER-LIGAND FREE ENERGY PREDICTED BY IDOCK:   -7.30 KCAL/MOL
REMARK 924 INTRA-LIGAND FREE ENERGY PREDICTED BY IDOCK:   -1.22 KCAL/MOL
REMARK 927      BINDING AFFINITY PREDICTED BY RF-SCORE:    0.00 PKD
ROOT
HETATM    1  C   UNL     1     -14.103  14.438  72.170  1.00  0.00    -0.535 C  
HETATM    2  N   UNL     1     -12.868  14.801  71.516  1.00  0.00    -0.311 N  
HETATM    3  C   UNL     1     -12.085  15.849  71.938  1.00  0.00    -0.498 C  
HETATM    4  O   UNL     1     -12.248  16.580  72.900  1.00  0.00    -0.470 OA 
HETATM    5  N   UNL     1     -11.039  15.913  71.032  1.00  0.00    -0.300 NA 
HETATM    6  N   UNL     1     -11.147  14.919  70.106  1.00  0.00    -0.238 NA 
HETATM    7  C   UNL     1     -12.239  14.284  70.442  1.00  0.00    -0.342 C  
ENDROOT
BRANCH   7   8
HETATM    8  C   UNL     1     -12.635  13.006  69.724  1.00  0.00     0.224 C  
BRANCH   8   9
HETATM    9  N   UNL     1     -12.185  11.696  70.185  1.00  0.00    -0.306 N  
HETATM   10  C   UNL     1     -12.674  11.136  71.354  1.00  0.00    -0.418 C  
HETATM   11  C   UNL     1     -12.474   9.835  71.618  1.00  0.00    -0.500 C  
HETATM   12  C   UNL     1     -11.603   9.032  70.763  1.00  0.00    -0.313 C  
HETATM   13  C   UNL     1     -11.379   7.587  71.088  1.00  0.00    -0.267 C  
HETATM   14  C   UNL     1     -11.035   9.589  69.675  1.00  0.00    -0.212 C  
HETATM   15  C   UNL     1     -11.688  10.846  69.191  1.00  0.00    -0.326 C  
HETATM   16  F   UNL     1     -12.170   7.149  72.104  1.00  0.00    -0.311 F  
HETATM   17  F   UNL     1     -11.662   6.789  70.023  1.00  0.00    -0.374 F  
HETATM   18  O   UNL     1     -11.770  11.083  67.990  1.00  0.00    -0.532 OA 
HETATM   19  F   UNL     1     -10.099   7.326  71.451  1.00  0.00    -0.187 F  
BRANCH  14  20
HETATM   20  O   UNL     1     -10.080   8.922  68.917  1.00  0.00    -0.186 OA 
BRANCH  20  21
HETATM   21  C   UNL     1      -8.749   9.295  68.886  1.00  0.00    -0.131 A  
HETATM   22  C   UNL     1      -8.247   9.543  67.594  1.00  0.00    -0.121 A  
HETATM   23  C   UNL     1      -6.929   9.983  67.393  1.00  0.00    -0.083 A  
HETATM   24  C   UNL     1      -6.096  10.179  68.498  1.00  0.00    -0.044 A  
HETATM   25  C   UNL     1      -6.437  10.230  66.061  1.00  0.00    -0.107 C  
HETATM   26  C   UNL     1      -6.577   9.896  69.777  1.00  0.00    -0.066 A  
HETATM   27  N   UNL     1      -6.038  10.414  64.988  1.00  0.00    -0.129 NA 
HETATM   28 CL   UNL     1      -5.552  10.132  71.143  1.00  0.00    -0.086 Cl 
HETATM   29  C   UNL     1      -7.887   9.431  69.973  1.00  0.00    -0.135 A  
ENDBRANCH  20  21
ENDBRANCH  14  20
ENDBRANCH   8   9
ENDBRANCH   7   8
TORSDOF 4
ENDMDL
MODEL       95
REMARK 921   NORMALIZED FREE ENERGY PREDICTED BY IDOCK:   -6.22 KCAL/MOL
REMARK 922        TOTAL FREE ENERGY PREDICTED BY IDOCK:   -8.51 KCAL/MOL
REMARK 923 INTER-LIGAND FREE ENERGY PREDICTED BY IDOCK:   -7.25 KCAL/MOL
REMARK 924 INTRA-LIGAND FREE ENERGY PREDICTED BY IDOCK:   -1.26 KCAL/MOL
REMARK 927      BINDING AFFINITY PREDICTED BY RF-SCORE:    0.00 PKD
ROOT
HETATM    1  C   UNL     1     -10.280  15.708  69.817  1.00  0.00    -0.300 C  
HETATM    2  N   UNL     1     -10.105  14.985  68.580  1.00  0.00    -0.226 N  
HETATM    3  C   UNL     1      -9.014  15.164  67.763  1.00  0.00    -0.178 C  
HETATM    4  O   UNL     1      -8.041  15.877  67.942  1.00  0.00    -0.138 OA 
HETATM    5  N   UNL     1      -9.241  14.350  66.666  1.00  0.00    -0.266 NA 
HETATM    6  N   UNL     1     -10.407  13.662  66.813  1.00  0.00    -0.265 NA 
HETATM    7  C   UNL     1     -10.875  14.065  67.965  1.00  0.00    -0.246 C  
ENDROOT
BRANCH   7   8
HETATM    8  C   UNL     1     -12.113  13.416  68.560  1.00  0.00    -0.248 C  
BRANCH   8   9
HETATM    9  N   UNL     1     -12.018  12.338  69.538  1.00  0.00    -0.295 N  
HETATM   10  C   UNL     1     -12.633  12.432  70.776  1.00  0.00    -0.211 C  
HETATM   11  C   UNL     1     -12.778  11.340  71.545  1.00  0.00    -0.481 C  
HETATM   12  C   UNL     1     -12.149  10.079  71.166  1.00  0.00    -0.475 C  
HETATM   13  C   UNL     1     -12.308   8.879  72.050  1.00  0.00    -0.390 C  
HETATM   14  C   UNL     1     -11.458   9.996  70.011  1.00  0.00    -0.248 C  
HETATM   15  C   UNL     1     -11.762  11.068  69.011  1.00  0.00    -0.333 C  
HETATM   16  F   UNL     1     -13.183   9.091  73.068  1.00  0.00    -0.464 F  
HETATM   17  F   UNL     1     -12.791   7.813  71.357  1.00  0.00    -0.324 F  
HETATM   18  O   UNL     1     -11.782  10.812  67.811  1.00  0.00    -0.547 OA 
HETATM   19  F   UNL     1     -11.139   8.489  72.615  1.00  0.00    -0.413 F  
BRANCH  14  20
HETATM   20  O   UNL     1     -10.711   8.873  69.676  1.00  0.00    -0.233 OA 
BRANCH  20  21
HETATM   21  C   UNL     1      -9.371   8.739  69.990  1.00  0.00    -0.168 A  
HETATM   22  C   UNL     1      -8.975   7.420  70.285  1.00  0.00    -0.147 A  
HETATM   23  C   UNL     1      -7.636   7.106  70.572  1.00  0.00    -0.089 A  
HETATM   24  C   UNL     1      -6.677   8.123  70.564  1.00  0.00    -0.037 A  
HETATM   25  C   UNL     1      -7.253   5.749  70.872  1.00  0.00    -0.080 C  
HETATM   26  C   UNL     1      -7.073   9.437  70.312  1.00  0.00    -0.097 A  
HETATM   27  N   UNL     1      -6.950   4.660  71.128  1.00  0.00    -0.038 NA 
HETATM   28 CL   UNL     1      -5.894  10.694  70.306  1.00  0.00    -0.083 Cl 
HETATM   29  C   UNL     1      -8.416   9.752  70.051  1.00  0.00    -0.229 A  
ENDBRANCH  20  21
ENDBRANCH  14  20
ENDBRANCH   8   9
ENDBRANCH   7   8
TORSDOF 4
ENDMDL
MODEL       96
REMARK 921   NORMALIZED FREE ENERGY PREDICTED BY IDOCK:   -6.21 KCAL/MOL
REMARK 922        TOTAL FREE ENERGY PREDICTED BY IDOCK:   -8.50 KCAL/MOL
REMARK 923 INTER-LIGAND FREE ENERGY PREDICTED BY IDOCK:   -7.25 KCAL/MOL
REMARK 924 INTRA-LIGAND FREE ENERGY PREDICTED BY IDOCK:   -1.25 KCAL/MOL
REMARK 927      BINDING AFFINITY PREDICTED BY RF-SCORE:    0.00 PKD
ROOT
HETATM    1  C   UNL     1     -10.871  16.562  69.595  1.00  0.00    -0.322 C  
HETATM    2  N   UNL     1     -10.364  15.935  68.397  1.00  0.00    -0.234 N  
HETATM    3  C   UNL     1      -9.212  16.352  67.771  1.00  0.00    -0.201 C  
HETATM    4  O   UNL     1      -8.437  17.229  68.113  1.00  0.00    -0.223 OA 
HETATM    5  N   UNL     1      -9.099  15.554  66.645  1.00  0.00    -0.255 NA 
HETATM    6  N   UNL     1     -10.118  14.650  66.594  1.00  0.00    -0.266 NA 
HETATM    7  C   UNL     1     -10.832  14.911  67.657  1.00  0.00    -0.286 C  
ENDROOT
BRANCH   7   8
HETATM    8  C   UNL     1     -11.998  14.015  68.036  1.00  0.00    -0.350 C  
BRANCH   8   9
HETATM    9  N   UNL     1     -11.855  12.943  69.016  1.00  0.00    -0.311 N  
HETATM   10  C   UNL     1     -12.336  13.079  70.308  1.00  0.00    -0.241 C  
HETATM   11  C   UNL     1     -12.453  12.003  71.104  1.00  0.00    -0.353 C  
HETATM   12  C   UNL     1     -11.925  10.709  70.682  1.00  0.00    -0.466 C  
HETATM   13  C   UNL     1     -12.049   9.528  71.595  1.00  0.00    -0.398 C  
HETATM   14  C   UNL     1     -11.359  10.582  69.464  1.00  0.00    -0.278 C  
HETATM   15  C   UNL     1     -11.713  11.657  68.485  1.00  0.00    -0.315 C  
HETATM   16  F   UNL     1     -12.806   9.792  72.693  1.00  0.00    -0.379 F  
HETATM   17  F   UNL     1     -12.649   8.479  70.970  1.00  0.00    -0.285 F  
HETATM   18  O   UNL     1     -11.867  11.390  67.297  1.00  0.00    -0.594 OA 
HETATM   19  F   UNL     1     -10.849   9.088  72.045  1.00  0.00    -0.385 F  
BRANCH  14  20
HETATM   20  O   UNL     1     -10.703   9.421  69.073  1.00  0.00    -0.223 OA 
BRANCH  20  21
HETATM   21  C   UNL     1      -9.327   9.285  69.109  1.00  0.00    -0.157 A  
HETATM   22  C   UNL     1      -8.637  10.158  68.248  1.00  0.00    -0.116 A  
HETATM   23  C   UNL     1      -7.233  10.184  68.204  1.00  0.00    -0.081 A  
HETATM   24  C   UNL     1      -6.506   9.325  69.034  1.00  0.00    -0.047 A  
HETATM   25  C   UNL     1      -6.547  11.086  67.314  1.00  0.00    -0.078 C  
HETATM   26  C   UNL     1      -7.188   8.431  69.859  1.00  0.00    -0.055 A  
HETATM   27  N   UNL     1      -5.997  11.802  66.587  1.00  0.00    -0.182 NA 
HETATM   28 CL   UNL     1      -6.295   7.367  70.881  1.00  0.00    -0.039 Cl 
HETATM   29  C   UNL     1      -8.591   8.388  69.882  1.00  0.00    -0.131 A  
ENDBRANCH  20  21
ENDBRANCH  14  20
ENDBRANCH   8   9
ENDBRANCH   7   8
TORSDOF 4
ENDMDL
MODEL       97
REMARK 921   NORMALIZED FREE ENERGY PREDICTED BY IDOCK:   -6.19 KCAL/MOL
REMARK 922        TOTAL FREE ENERGY PREDICTED BY IDOCK:   -8.48 KCAL/MOL
REMARK 923 INTER-LIGAND FREE ENERGY PREDICTED BY IDOCK:   -7.34 KCAL/MOL
REMARK 924 INTRA-LIGAND FREE ENERGY PREDICTED BY IDOCK:   -1.14 KCAL/MOL
REMARK 927      BINDING AFFINITY PREDICTED BY RF-SCORE:    0.00 PKD
ROOT
HETATM    1  C   UNL     1     -12.540  10.504  70.835  1.00  0.00    -0.398 C  
HETATM    2  N   UNL     1     -12.457   9.092  71.123  1.00  0.00    -0.272 N  
HETATM    3  C   UNL     1     -13.284   8.468  72.027  1.00  0.00    -0.369 C  
HETATM    4  O   UNL     1     -14.205   8.945  72.669  1.00  0.00    -0.563 OA 
HETATM    5  N   UNL     1     -12.857   7.151  72.066  1.00  0.00    -0.225 NA 
HETATM    6  N   UNL     1     -11.831   6.955  71.191  1.00  0.00    -0.330 NA 
HETATM    7  C   UNL     1     -11.639   8.130  70.652  1.00  0.00    -0.194 C  
ENDROOT
BRANCH   7   8
HETATM    8  C   UNL     1     -10.655   8.297  69.507  1.00  0.00    -0.213 C  
BRANCH   8   9
HETATM    9  N   UNL     1      -9.820   9.487  69.381  1.00  0.00    -0.177 N  
HETATM   10  C   UNL     1      -8.607   9.589  70.043  1.00  0.00    -0.215 C  
HETATM   11  C   UNL     1      -7.728  10.547  69.703  1.00  0.00    -0.119 C  
HETATM   12  C   UNL     1      -8.102  11.590  68.752  1.00  0.00    -0.093 C  
HETATM   13  C   UNL     1      -7.112  12.659  68.403  1.00  0.00    -0.101 C  
HETATM   14  C   UNL     1      -9.320  11.563  68.173  1.00  0.00    -0.185 C  
HETATM   15  C   UNL     1     -10.014  10.238  68.218  1.00  0.00    -0.147 C  
HETATM   16  F   UNL     1      -5.881  12.427  68.932  1.00  0.00    -0.060 F  
HETATM   17  F   UNL     1      -6.931  12.748  67.058  1.00  0.00    -0.137 F  
HETATM   18  O   UNL     1     -10.701   9.864  67.273  1.00  0.00    -0.265 OA 
HETATM   19  F   UNL     1      -7.497  13.886  68.833  1.00  0.00    -0.113 F  
BRANCH  14  20
HETATM   20  O   UNL     1      -9.785  12.609  67.384  1.00  0.00    -0.194 OA 
BRANCH  20  21
HETATM   21  C   UNL     1     -10.406  13.728  67.908  1.00  0.00    -0.244 A  
HETATM   22  C   UNL     1     -11.233  13.466  69.016  1.00  0.00    -0.323 A  
HETATM   23  C   UNL     1     -11.894  14.502  69.697  1.00  0.00    -0.367 A  
HETATM   24  C   UNL     1     -11.726  15.820  69.266  1.00  0.00    -0.384 A  
HETATM   25  C   UNL     1     -12.737  14.210  70.829  1.00  0.00    -0.344 C  
HETATM   26  C   UNL     1     -10.939  16.079  68.143  1.00  0.00    -0.339 A  
HETATM   27  N   UNL     1     -13.426  13.972  71.731  1.00  0.00    -0.369 NA 
HETATM   28 CL   UNL     1     -10.734  17.705  67.605  1.00  0.00    -0.359 Cl 
HETATM   29  C   UNL     1     -10.301  15.040  67.449  1.00  0.00    -0.238 A  
ENDBRANCH  20  21
ENDBRANCH  14  20
ENDBRANCH   8   9
ENDBRANCH   7   8
TORSDOF 4
ENDMDL
MODEL       98
REMARK 921   NORMALIZED FREE ENERGY PREDICTED BY IDOCK:   -6.18 KCAL/MOL
REMARK 922        TOTAL FREE ENERGY PREDICTED BY IDOCK:   -8.46 KCAL/MOL
REMARK 923 INTER-LIGAND FREE ENERGY PREDICTED BY IDOCK:   -8.77 KCAL/MOL
REMARK 924 INTRA-LIGAND FREE ENERGY PREDICTED BY IDOCK:    0.31 KCAL/MOL
REMARK 927      BINDING AFFINITY PREDICTED BY RF-SCORE:    0.00 PKD
ROOT
HETATM    1  C   UNL     1      -9.153   8.924  71.408  1.00  0.00    -0.248 C  
HETATM    2  N   UNL     1      -8.550   9.335  70.162  1.00  0.00    -0.177 N  
HETATM    3  C   UNL     1      -7.198   9.247  69.928  1.00  0.00    -0.071 C  
HETATM    4  O   UNL     1      -6.329   8.794  70.653  1.00  0.00    -0.035 OA 
HETATM    5  N   UNL     1      -7.010   9.788  68.666  1.00  0.00    -0.062 NA 
HETATM    6  N   UNL     1      -8.202  10.159  68.122  1.00  0.00    -0.112 NA 
HETATM    7  C   UNL     1      -9.082   9.862  69.042  1.00  0.00    -0.164 C  
ENDROOT
BRANCH   7   8
HETATM    8  C   UNL     1     -10.567  10.002  68.756  1.00  0.00    -0.217 C  
BRANCH   8   9
HETATM    9  N   UNL     1     -11.384  11.010  69.423  1.00  0.00    -0.258 N  
HETATM   10  C   UNL     1     -12.077  10.722  70.588  1.00  0.00    -0.370 C  
HETATM   11  C   UNL     1     -12.587  11.714  71.336  1.00  0.00    -0.391 C  
HETATM   12  C   UNL     1     -12.563  13.092  70.854  1.00  0.00    -0.377 C  
HETATM   13  C   UNL     1     -13.155  14.180  71.697  1.00  0.00    -0.351 C  
HETATM   14  C   UNL     1     -11.981  13.377  69.671  1.00  0.00    -0.324 C  
HETATM   15  C   UNL     1     -11.030  12.338  69.165  1.00  0.00    -0.162 C  
HETATM   16  F   UNL     1     -13.527  13.743  72.930  1.00  0.00    -0.583 F  
HETATM   17  F   UNL     1     -12.263  15.185  71.909  1.00  0.00    -0.325 F  
HETATM   18  O   UNL     1     -10.010  12.667  68.567  1.00  0.00    -0.219 OA 
HETATM   19  F   UNL     1     -14.255  14.737  71.133  1.00  0.00    -0.456 F  
BRANCH  14  20
HETATM   20  O   UNL     1     -12.066  14.638  69.091  1.00  0.00    -0.299 OA 
BRANCH  20  21
HETATM   21  C   UNL     1     -11.416  14.972  67.918  1.00  0.00    -0.340 A  
HETATM   22  C   UNL     1     -11.987  14.410  66.760  1.00  0.00    -0.423 A  
HETATM   23  C   UNL     1     -11.478  14.694  65.482  1.00  0.00    -0.341 A  
HETATM   24  C   UNL     1     -10.382  15.553  65.356  1.00  0.00    -0.422 A  
HETATM   25  C   UNL     1     -12.079  14.107  64.310  1.00  0.00    -0.444 C  
HETATM   26  C   UNL     1      -9.789  16.079  66.504  1.00  0.00    -0.267 A  
HETATM   27  N   UNL     1     -12.554  13.623  63.370  1.00  0.00    -0.781 NA 
HETATM   28 CL   UNL     1      -8.434  17.135  66.353  1.00  0.00    -0.300 Cl 
HETATM   29  C   UNL     1     -10.283  15.773  67.782  1.00  0.00    -0.251 A  
ENDBRANCH  20  21
ENDBRANCH  14  20
ENDBRANCH   8   9
ENDBRANCH   7   8
TORSDOF 4
ENDMDL
MODEL       99
REMARK 921   NORMALIZED FREE ENERGY PREDICTED BY IDOCK:   -6.14 KCAL/MOL
REMARK 922        TOTAL FREE ENERGY PREDICTED BY IDOCK:   -8.41 KCAL/MOL
REMARK 923 INTER-LIGAND FREE ENERGY PREDICTED BY IDOCK:   -7.83 KCAL/MOL
REMARK 924 INTRA-LIGAND FREE ENERGY PREDICTED BY IDOCK:   -0.58 KCAL/MOL
REMARK 927      BINDING AFFINITY PREDICTED BY RF-SCORE:    0.00 PKD
ROOT
HETATM    1  C   UNL     1      -9.181   8.794  71.625  1.00  0.00    -0.263 C  
HETATM    2  N   UNL     1     -10.612   8.762  71.813  1.00  0.00    -0.320 N  
HETATM    3  C   UNL     1     -11.226   7.904  72.694  1.00  0.00    -0.398 C  
HETATM    4  O   UNL     1     -10.712   7.105  73.459  1.00  0.00    -0.368 OA 
HETATM    5  N   UNL     1     -12.583   8.133  72.543  1.00  0.00    -0.219 NA 
HETATM    6  N   UNL     1     -12.803   9.122  71.632  1.00  0.00    -0.342 NA 
HETATM    7  C   UNL     1     -11.606   9.468  71.238  1.00  0.00    -0.374 C  
ENDROOT
BRANCH   7   8
HETATM    8  C   UNL     1     -11.417  10.656  70.311  1.00  0.00    -0.337 C  
BRANCH   8   9
HETATM    9  N   UNL     1     -10.665  10.544  69.065  1.00  0.00    -0.209 N  
HETATM   10  C   UNL     1     -10.638   9.361  68.343  1.00  0.00    -0.204 C  
HETATM   11  C   UNL     1     -10.189   9.350  67.077  1.00  0.00    -0.322 C  
HETATM   12  C   UNL     1      -9.572  10.542  66.501  1.00  0.00    -0.216 C  
HETATM   13  C   UNL     1      -9.060  10.500  65.093  1.00  0.00    -0.197 C  
HETATM   14  C   UNL     1      -9.498  11.675  67.227  1.00  0.00    -0.168 C  
HETATM   15  C   UNL     1     -10.438  11.747  68.389  1.00  0.00    -0.215 C  
HETATM   16  F   UNL     1      -9.383   9.345  64.452  1.00  0.00    -0.282 F  
HETATM   17  F   UNL     1      -9.587  11.504  64.343  1.00  0.00    -0.237 F  
HETATM   18  O   UNL     1     -10.963  12.812  68.700  1.00  0.00    -0.242 OA 
HETATM   19  F   UNL     1      -7.711  10.620  65.025  1.00  0.00    -0.145 F  
BRANCH  14  20
HETATM   20  O   UNL     1      -8.786  12.787  66.790  1.00  0.00    -0.212 OA 
BRANCH  20  21
HETATM   21  C   UNL     1      -9.391  13.984  66.455  1.00  0.00    -0.255 A  
HETATM   22  C   UNL     1      -8.871  15.104  67.130  1.00  0.00    -0.236 A  
HETATM   23  C   UNL     1      -9.340  16.401  66.864  1.00  0.00    -0.244 A  
HETATM   24  C   UNL     1     -10.344  16.584  65.910  1.00  0.00    -0.365 A  
HETATM   25  C   UNL     1      -8.792  17.534  67.568  1.00  0.00    -0.229 C  
HETATM   26  C   UNL     1     -10.890  15.472  65.268  1.00  0.00    -0.411 A  
HETATM   27  N   UNL     1      -8.361  18.442  68.145  1.00  0.00    -0.277 NA 
HETATM   28 CL   UNL     1     -12.133  15.693  64.093  1.00  0.00    -0.194 Cl 
HETATM   29  C   UNL     1     -10.439  14.174  65.555  1.00  0.00    -0.352 A  
ENDBRANCH  20  21
ENDBRANCH  14  20
ENDBRANCH   8   9
ENDBRANCH   7   8
TORSDOF 4
ENDMDL
MODEL      100
REMARK 921   NORMALIZED FREE ENERGY PREDICTED BY IDOCK:   -6.13 KCAL/MOL
REMARK 922        TOTAL FREE ENERGY PREDICTED BY IDOCK:   -8.39 KCAL/MOL
REMARK 923 INTER-LIGAND FREE ENERGY PREDICTED BY IDOCK:   -7.82 KCAL/MOL
REMARK 924 INTRA-LIGAND FREE ENERGY PREDICTED BY IDOCK:   -0.57 KCAL/MOL
REMARK 927      BINDING AFFINITY PREDICTED BY RF-SCORE:    0.00 PKD
ROOT
HETATM    1  C   UNL     1      -5.708   7.823  71.889  1.00  0.00    -0.035 C  
HETATM    2  N   UNL     1      -6.332   7.038  70.849  1.00  0.00    -0.040 N  
HETATM    3  C   UNL     1      -6.152   5.680  70.735  1.00  0.00    -0.030 C  
HETATM    4  O   UNL     1      -5.521   4.934  71.465  1.00  0.00    -0.004 OA 
HETATM    5  N   UNL     1      -6.852   5.312  69.598  1.00  0.00    -0.054 NA 
HETATM    6  N   UNL     1      -7.474   6.393  69.049  1.00  0.00    -0.092 NA 
HETATM    7  C   UNL     1      -7.143   7.386  69.831  1.00  0.00    -0.065 C  
ENDROOT
BRANCH   7   8
HETATM    8  C   UNL     1      -7.761   8.759  69.630  1.00  0.00    -0.088 C  
BRANCH   8   9
HETATM    9  N   UNL     1      -9.149   9.035  69.987  1.00  0.00    -0.163 N  
HETATM   10  C   UNL     1      -9.668   8.650  71.212  1.00  0.00    -0.237 C  
HETATM   11  C   UNL     1     -10.840   9.150  71.638  1.00  0.00    -0.442 C  
HETATM   12  C   UNL     1     -11.659   9.974  70.754  1.00  0.00    -0.444 C  
HETATM   13  C   UNL     1     -12.971  10.504  71.245  1.00  0.00    -0.433 C  
HETATM   14  C   UNL     1     -11.213  10.275  69.517  1.00  0.00    -0.261 C  
HETATM   15  C   UNL     1      -9.739  10.112  69.317  1.00  0.00    -0.224 C  
HETATM   16  F   UNL     1     -13.174  10.259  72.566  1.00  0.00    -0.453 F  
HETATM   17  F   UNL     1     -13.047  11.854  71.098  1.00  0.00    -0.397 F  
HETATM   18  O   UNL     1      -9.118  10.894  68.604  1.00  0.00    -0.162 OA 
HETATM   19  F   UNL     1     -14.029   9.973  70.583  1.00  0.00    -0.267 F  
BRANCH  14  20
HETATM   20  O   UNL     1     -12.013  10.920  68.581  1.00  0.00    -0.484 OA 
BRANCH  20  21
HETATM   21  C   UNL     1     -11.846  12.249  68.236  1.00  0.00    -0.310 A  
HETATM   22  C   UNL     1     -12.075  12.527  66.875  1.00  0.00    -0.164 A  
HETATM   23  C   UNL     1     -11.998  13.836  66.373  1.00  0.00    -0.473 A  
HETATM   24  C   UNL     1     -11.689  14.886  67.243  1.00  0.00    -0.308 A  
HETATM   25  C   UNL     1     -12.236  14.097  64.976  1.00  0.00    -0.441 C  
HETATM   26  C   UNL     1     -11.423  14.609  68.584  1.00  0.00    -0.300 A  
HETATM   27  N   UNL     1     -12.413  14.303  63.849  1.00  0.00    -0.804 NA 
HETATM   28 CL   UNL     1     -11.037  15.901  69.658  1.00  0.00    -0.293 Cl 
HETATM   29  C   UNL     1     -11.474  13.296  69.078  1.00  0.00    -0.350 A  
ENDBRANCH  20  21
ENDBRANCH  14  20
ENDBRANCH   8   9
ENDBRANCH   7   8
TORSDOF 4
ENDMDL
MODEL      101
REMARK 921   NORMALIZED FREE ENERGY PREDICTED BY IDOCK:   -6.12 KCAL/MOL
REMARK 922        TOTAL FREE ENERGY PREDICTED BY IDOCK:   -8.39 KCAL/MOL
REMARK 923 INTER-LIGAND FREE ENERGY PREDICTED BY IDOCK:   -7.12 KCAL/MOL
REMARK 924 INTRA-LIGAND FREE ENERGY PREDICTED BY IDOCK:   -1.27 KCAL/MOL
REMARK 927      BINDING AFFINITY PREDICTED BY RF-SCORE:    0.00 PKD
ROOT
HETATM    1  C   UNL     1      -9.887   8.522  72.138  1.00  0.00    -0.318 C  
HETATM    2  N   UNL     1     -11.051   7.893  71.558  1.00  0.00    -0.237 N  
HETATM    3  C   UNL     1     -12.325   8.118  72.023  1.00  0.00    -0.338 C  
HETATM    4  O   UNL     1     -12.688   8.872  72.911  1.00  0.00    -0.301 OA 
HETATM    5  N   UNL     1     -13.143   7.300  71.261  1.00  0.00    -0.355 NA 
HETATM    6  N   UNL     1     -12.410   6.623  70.333  1.00  0.00    -0.137 NA 
HETATM    7  C   UNL     1     -11.182   7.015  70.544  1.00  0.00    -0.295 C  
ENDROOT
BRANCH   7   8
HETATM    8  C   UNL     1     -10.067   6.584  69.607  1.00  0.00    -0.181 C  
BRANCH   8   9
HETATM    9  N   UNL     1      -9.370   7.540  68.754  1.00  0.00    -0.148 N  
HETATM   10  C   UNL     1      -8.022   7.810  68.926  1.00  0.00    -0.124 C  
HETATM   11  C   UNL     1      -7.335   8.464  67.974  1.00  0.00    -0.096 C  
HETATM   12  C   UNL     1      -8.028   9.040  66.825  1.00  0.00    -0.107 C  
HETATM   13  C   UNL     1      -7.243   9.782  65.786  1.00  0.00    -0.104 C  
HETATM   14  C   UNL     1      -9.359   8.873  66.694  1.00  0.00    -0.185 C  
HETATM   15  C   UNL     1      -9.940   7.750  67.494  1.00  0.00    -0.185 C  
HETATM   16  F   UNL     1      -5.900   9.693  65.981  1.00  0.00    -0.055 F  
HETATM   17  F   UNL     1      -7.474   9.285  64.541  1.00  0.00    -0.096 F  
HETATM   18  O   UNL     1     -10.857   7.072  67.040  1.00  0.00    -0.348 OA 
HETATM   19  F   UNL     1      -7.545  11.103  65.749  1.00  0.00    -0.116 F  
BRANCH  14  20
HETATM   20  O   UNL     1     -10.092   9.528  65.710  1.00  0.00    -0.288 OA 
BRANCH  20  21
HETATM   21  C   UNL     1     -10.722  10.740  65.923  1.00  0.00    -0.073 A  
HETATM   22  C   UNL     1     -10.974  11.032  67.277  1.00  0.00    -0.356 A  
HETATM   23  C   UNL     1     -11.560  12.248  67.666  1.00  0.00    -0.421 A  
HETATM   24  C   UNL     1     -11.900  13.188  66.689  1.00  0.00    -0.449 A  
HETATM   25  C   UNL     1     -11.809  12.525  69.058  1.00  0.00    -0.296 C  
HETATM   26  C   UNL     1     -11.689  12.885  65.344  1.00  0.00    -0.375 A  
HETATM   27  N   UNL     1     -12.022  12.740  70.177  1.00  0.00    -0.337 NA 
HETATM   28 CL   UNL     1     -12.111  14.040  64.135  1.00  0.00    -0.489 Cl 
HETATM   29  C   UNL     1     -11.128  11.659  64.955  1.00  0.00    -0.312 A  
ENDBRANCH  20  21
ENDBRANCH  14  20
ENDBRANCH   8   9
ENDBRANCH   7   8
TORSDOF 4
ENDMDL
MODEL      102
REMARK 921   NORMALIZED FREE ENERGY PREDICTED BY IDOCK:   -6.11 KCAL/MOL
REMARK 922        TOTAL FREE ENERGY PREDICTED BY IDOCK:   -8.38 KCAL/MOL
REMARK 923 INTER-LIGAND FREE ENERGY PREDICTED BY IDOCK:   -7.20 KCAL/MOL
REMARK 924 INTRA-LIGAND FREE ENERGY PREDICTED BY IDOCK:   -1.18 KCAL/MOL
REMARK 927      BINDING AFFINITY PREDICTED BY RF-SCORE:    0.00 PKD
ROOT
HETATM    1  C   UNL     1      -7.837  17.244  66.893  1.00  0.00    -0.218 C  
HETATM    2  N   UNL     1      -9.104  17.657  67.449  1.00  0.00    -0.237 N  
HETATM    3  C   UNL     1      -9.561  18.952  67.375  1.00  0.00    -0.306 C  
HETATM    4  O   UNL     1      -9.044  19.909  66.824  1.00  0.00    -0.332 OA 
HETATM    5  N   UNL     1     -10.761  18.957  68.066  1.00  0.00    -0.291 NA 
HETATM    6  N   UNL     1     -11.058  17.706  68.518  1.00  0.00     0.087 NA 
HETATM    7  C   UNL     1     -10.053  16.973  68.119  1.00  0.00    -0.308 C  
ENDROOT
BRANCH   7   8
HETATM    8  C   UNL     1     -10.078  15.467  68.311  1.00  0.00    -0.218 C  
BRANCH   8   9
HETATM    9  N   UNL     1     -10.402  14.559  67.215  1.00  0.00    -0.259 N  
HETATM   10  C   UNL     1     -11.390  14.866  66.293  1.00  0.00    -0.306 C  
HETATM   11  C   UNL     1     -11.484  14.174  65.146  1.00  0.00    -0.336 C  
HETATM   12  C   UNL     1     -10.658  12.990  64.925  1.00  0.00    -0.355 C  
HETATM   13  C   UNL     1     -10.794  12.223  63.646  1.00  0.00    -0.469 C  
HETATM   14  C   UNL     1      -9.760  12.617  65.860  1.00  0.00    -0.207 C  
HETATM   15  C   UNL     1      -9.377  13.687  66.834  1.00  0.00    -0.257 C  
HETATM   16  F   UNL     1     -11.605  12.842  62.747  1.00  0.00    -0.335 F  
HETATM   17  F   UNL     1      -9.593  12.075  63.025  1.00  0.00    -0.386 F  
HETATM   18  O   UNL     1      -8.226  13.766  67.251  1.00  0.00    -0.180 OA 
HETATM   19  F   UNL     1     -11.299  10.979  63.835  1.00  0.00    -0.379 F  
BRANCH  14  20
HETATM   20  O   UNL     1      -9.061  11.418  65.775  1.00  0.00    -0.211 OA 
BRANCH  20  21
HETATM   21  C   UNL     1      -9.338  10.328  66.579  1.00  0.00    -0.166 A  
HETATM   22  C   UNL     1      -8.766  10.397  67.864  1.00  0.00    -0.118 A  
HETATM   23  C   UNL     1      -8.995   9.394  68.821  1.00  0.00    -0.132 A  
HETATM   24  C   UNL     1      -9.807   8.306  68.491  1.00  0.00    -0.188 A  
HETATM   25  C   UNL     1      -8.399   9.485  70.130  1.00  0.00    -0.192 C  
HETATM   26  C   UNL     1     -10.342   8.214  67.205  1.00  0.00    -0.303 A  
HETATM   27  N   UNL     1      -7.908   9.553  71.178  1.00  0.00    -0.295 NA 
HETATM   28 CL   UNL     1     -11.341   6.870  66.794  1.00  0.00     0.018 Cl 
HETATM   29  C   UNL     1     -10.090   9.204  66.243  1.00  0.00    -0.319 A  
ENDBRANCH  20  21
ENDBRANCH  14  20
ENDBRANCH   8   9
ENDBRANCH   7   8
TORSDOF 4
ENDMDL
MODEL      103
REMARK 921   NORMALIZED FREE ENERGY PREDICTED BY IDOCK:   -6.11 KCAL/MOL
REMARK 922        TOTAL FREE ENERGY PREDICTED BY IDOCK:   -8.37 KCAL/MOL
REMARK 923 INTER-LIGAND FREE ENERGY PREDICTED BY IDOCK:   -7.11 KCAL/MOL
REMARK 924 INTRA-LIGAND FREE ENERGY PREDICTED BY IDOCK:   -1.26 KCAL/MOL
REMARK 927      BINDING AFFINITY PREDICTED BY RF-SCORE:    0.00 PKD
ROOT
HETATM    1  C   UNL     1      -7.893   7.226  70.897  1.00  0.00    -0.094 C  
HETATM    2  N   UNL     1      -9.189   6.904  70.347  1.00  0.00    -0.156 N  
HETATM    3  C   UNL     1     -10.153   6.235  71.064  1.00  0.00    -0.185 C  
HETATM    4  O   UNL     1     -10.115   5.861  72.224  1.00  0.00    -0.178 OA 
HETATM    5  N   UNL     1     -11.210   6.066  70.185  1.00  0.00    -0.369 NA 
HETATM    6  N   UNL     1     -10.930   6.643  68.982  1.00  0.00    -0.279 NA 
HETATM    7  C   UNL     1      -9.727   7.132  69.133  1.00  0.00    -0.158 C  
ENDROOT
BRANCH   7   8
HETATM    8  C   UNL     1      -9.105   7.986  68.043  1.00  0.00    -0.129 C  
BRANCH   8   9
HETATM    9  N   UNL     1      -8.971   9.432  68.184  1.00  0.00    -0.128 N  
HETATM   10  C   UNL     1      -7.734  10.052  68.109  1.00  0.00    -0.085 C  
HETATM   11  C   UNL     1      -7.651  11.384  67.957  1.00  0.00    -0.110 C  
HETATM   12  C   UNL     1      -8.852  12.213  68.032  1.00  0.00    -0.181 C  
HETATM   13  C   UNL     1      -8.733  13.699  67.880  1.00  0.00    -0.184 C  
HETATM   14  C   UNL     1     -10.056  11.632  68.207  1.00  0.00    -0.202 C  
HETATM   15  C   UNL     1     -10.113  10.176  67.870  1.00  0.00    -0.176 C  
HETATM   16  F   UNL     1      -7.480  14.091  67.527  1.00  0.00    -0.134 F  
HETATM   17  F   UNL     1      -9.559  14.165  66.904  1.00  0.00    -0.233 F  
HETATM   18  O   UNL     1     -11.115   9.697  67.348  1.00  0.00    -0.183 OA 
HETATM   19  F   UNL     1      -9.045  14.367  69.017  1.00  0.00    -0.181 F  
BRANCH  14  20
HETATM   20  O   UNL     1     -11.207  12.376  68.441  1.00  0.00    -0.233 OA 
BRANCH  20  21
HETATM   21  C   UNL     1     -11.901  12.333  69.636  1.00  0.00    -0.324 A  
HETATM   22  C   UNL     1     -12.097  13.591  70.238  1.00  0.00    -0.425 A  
HETATM   23  C   UNL     1     -12.829  13.725  71.429  1.00  0.00    -0.449 A  
HETATM   24  C   UNL     1     -13.375  12.588  72.029  1.00  0.00    -0.528 A  
HETATM   25  C   UNL     1     -13.017  15.023  72.027  1.00  0.00    -0.343 C  
HETATM   26  C   UNL     1     -13.148  11.335  71.458  1.00  0.00    -0.355 A  
HETATM   27  N   UNL     1     -13.155  16.066  72.514  1.00  0.00    -0.427 NA 
HETATM   28 CL   UNL     1     -13.816   9.929  72.199  1.00  0.00    -0.281 Cl 
HETATM   29  C   UNL     1     -12.394  11.200  70.282  1.00  0.00    -0.397 A  
ENDBRANCH  20  21
ENDBRANCH  14  20
ENDBRANCH   8   9
ENDBRANCH   7   8
TORSDOF 4
ENDMDL
MODEL      104
REMARK 921   NORMALIZED FREE ENERGY PREDICTED BY IDOCK:   -6.10 KCAL/MOL
REMARK 922        TOTAL FREE ENERGY PREDICTED BY IDOCK:   -8.37 KCAL/MOL
REMARK 923 INTER-LIGAND FREE ENERGY PREDICTED BY IDOCK:   -8.28 KCAL/MOL
REMARK 924 INTRA-LIGAND FREE ENERGY PREDICTED BY IDOCK:   -0.09 KCAL/MOL
REMARK 927      BINDING AFFINITY PREDICTED BY RF-SCORE:    0.00 PKD
ROOT
HETATM    1  C   UNL     1      -5.899  17.883  66.505  1.00  0.00    -0.172 C  
HETATM    2  N   UNL     1      -7.160  18.362  67.020  1.00  0.00    -0.191 N  
HETATM    3  C   UNL     1      -7.748  19.524  66.581  1.00  0.00    -0.270 C  
HETATM    4  O   UNL     1      -7.368  20.284  65.706  1.00  0.00    -0.280 OA 
HETATM    5  N   UNL     1      -8.894  19.667  67.346  1.00  0.00    -0.306 NA 
HETATM    6  N   UNL     1      -9.033  18.614  68.200  1.00  0.00    -0.302 NA 
HETATM    7  C   UNL     1      -7.988  17.866  67.961  1.00  0.00    -0.250 C  
ENDROOT
BRANCH   7   8
HETATM    8  C   UNL     1      -7.849  16.508  68.626  1.00  0.00    -0.226 C  
BRANCH   8   9
HETATM    9  N   UNL     1      -8.551  15.332  68.121  1.00  0.00    -0.157 N  
HETATM   10  C   UNL     1      -7.893  14.361  67.385  1.00  0.00    -0.190 C  
HETATM   11  C   UNL     1      -8.469  13.166  67.172  1.00  0.00    -0.173 C  
HETATM   12  C   UNL     1      -9.854  12.931  67.570  1.00  0.00    -0.208 C  
HETATM   13  C   UNL     1     -10.481  11.596  67.304  1.00  0.00    -0.216 C  
HETATM   14  C   UNL     1     -10.545  13.904  68.198  1.00  0.00    -0.252 C  
HETATM   15  C   UNL     1      -9.706  14.974  68.824  1.00  0.00    -0.227 C  
HETATM   16  F   UNL     1      -9.591  10.682  66.837  1.00  0.00    -0.177 F  
HETATM   17  F   UNL     1     -11.007  11.060  68.439  1.00  0.00    -0.198 F  
HETATM   18  O   UNL     1     -10.039  15.481  69.891  1.00  0.00    -0.286 OA 
HETATM   19  F   UNL     1     -11.485  11.663  66.396  1.00  0.00    -0.363 F  
BRANCH  14  20
HETATM   20  O   UNL     1     -11.906  13.793  68.458  1.00  0.00    -0.336 OA 
BRANCH  20  21
HETATM   21  C   UNL     1     -12.420  13.667  69.735  1.00  0.00    -0.137 A  
HETATM   22  C   UNL     1     -12.532  12.338  70.186  1.00  0.00    -0.095 A  
HETATM   23  C   UNL     1     -12.987  12.041  71.481  1.00  0.00    -0.407 A  
HETATM   24  C   UNL     1     -13.336  13.086  72.341  1.00  0.00    -0.563 A  
HETATM   25  C   UNL     1     -13.094  10.673  71.921  1.00  0.00    -0.458 C  
HETATM   26  C   UNL     1     -13.265  14.402  71.883  1.00  0.00    -0.365 A  
HETATM   27  N   UNL     1     -13.193   9.571  72.268  1.00  0.00    -0.435 NA 
HETATM   28 CL   UNL     1     -13.699  15.694  72.940  1.00  0.00    -0.642 Cl 
HETATM   29  C   UNL     1     -12.835  14.696  70.580  1.00  0.00    -0.399 A  
ENDBRANCH  20  21
ENDBRANCH  14  20
ENDBRANCH   8   9
ENDBRANCH   7   8
TORSDOF 4
ENDMDL
MODEL      105
REMARK 921   NORMALIZED FREE ENERGY PREDICTED BY IDOCK:   -6.06 KCAL/MOL
REMARK 922        TOTAL FREE ENERGY PREDICTED BY IDOCK:   -8.31 KCAL/MOL
REMARK 923 INTER-LIGAND FREE ENERGY PREDICTED BY IDOCK:   -8.23 KCAL/MOL
REMARK 924 INTRA-LIGAND FREE ENERGY PREDICTED BY IDOCK:   -0.08 KCAL/MOL
REMARK 927      BINDING AFFINITY PREDICTED BY RF-SCORE:    0.00 PKD
ROOT
HETATM    1  C   UNL     1      -6.291  17.598  66.190  1.00  0.00    -0.239 C  
HETATM    2  N   UNL     1      -7.407  18.115  66.946  1.00  0.00    -0.198 N  
HETATM    3  C   UNL     1      -8.044  19.290  66.620  1.00  0.00    -0.289 C  
HETATM    4  O   UNL     1      -7.833  20.031  65.675  1.00  0.00    -0.305 OA 
HETATM    5  N   UNL     1      -9.003  19.471  67.603  1.00  0.00    -0.306 NA 
HETATM    6  N   UNL     1      -8.989  18.430  68.482  1.00  0.00    -0.317 NA 
HETATM    7  C   UNL     1      -8.035  17.651  68.044  1.00  0.00    -0.241 C  
ENDROOT
BRANCH   7   8
HETATM    8  C   UNL     1      -7.796  16.296  68.686  1.00  0.00    -0.202 C  
BRANCH   8   9
HETATM    9  N   UNL     1      -8.396  15.078  68.150  1.00  0.00    -0.138 N  
HETATM   10  C   UNL     1      -7.650  14.167  67.421  1.00  0.00    -0.158 C  
HETATM   11  C   UNL     1      -8.129  12.936  67.180  1.00  0.00    -0.122 C  
HETATM   12  C   UNL     1      -9.503  12.594  67.539  1.00  0.00    -0.186 C  
HETATM   13  C   UNL     1     -10.022  11.220  67.243  1.00  0.00    -0.183 C  
HETATM   14  C   UNL     1     -10.279  13.505  68.160  1.00  0.00    -0.249 C  
HETATM   15  C   UNL     1      -9.538  14.626  68.819  1.00  0.00    -0.210 C  
HETATM   16  F   UNL     1      -9.054  10.380  66.788  1.00  0.00    -0.144 F  
HETATM   17  F   UNL     1     -10.534  10.632  68.357  1.00  0.00    -0.172 F  
HETATM   18  O   UNL     1      -9.935  15.093  69.882  1.00  0.00    -0.198 OA 
HETATM   19  F   UNL     1     -11.005  11.224  66.309  1.00  0.00    -0.313 F  
BRANCH  14  20
HETATM   20  O   UNL     1     -11.634  13.290  68.383  1.00  0.00    -0.292 OA 
BRANCH  20  21
HETATM   21  C   UNL     1     -12.151  12.968  69.625  1.00  0.00    -0.241 A  
HETATM   22  C   UNL     1     -12.638  14.071  70.353  1.00  0.00    -0.374 A  
HETATM   23  C   UNL     1     -13.243  13.907  71.610  1.00  0.00    -0.446 A  
HETATM   24  C   UNL     1     -13.365  12.624  72.149  1.00  0.00    -0.570 A  
HETATM   25  C   UNL     1     -13.733  15.050  72.337  1.00  0.00    -0.480 C  
HETATM   26  C   UNL     1     -12.847  11.534  71.449  1.00  0.00    -0.384 A  
HETATM   27  N   UNL     1     -14.115  15.973  72.927  1.00  0.00    -0.376 NA 
HETATM   28 CL   UNL     1     -12.992   9.950  72.114  1.00  0.00    -0.494 Cl 
HETATM   29  C   UNL     1     -12.219  11.702  70.205  1.00  0.00    -0.401 A  
ENDBRANCH  20  21
ENDBRANCH  14  20
ENDBRANCH   8   9
ENDBRANCH   7   8
TORSDOF 4
ENDMDL
MODEL      106
REMARK 921   NORMALIZED FREE ENERGY PREDICTED BY IDOCK:   -5.97 KCAL/MOL
REMARK 922        TOTAL FREE ENERGY PREDICTED BY IDOCK:   -8.20 KCAL/MOL
REMARK 923 INTER-LIGAND FREE ENERGY PREDICTED BY IDOCK:   -7.72 KCAL/MOL
REMARK 924 INTRA-LIGAND FREE ENERGY PREDICTED BY IDOCK:   -0.48 KCAL/MOL
REMARK 927      BINDING AFFINITY PREDICTED BY RF-SCORE:    0.00 PKD
ROOT
HETATM    1  C   UNL     1      -7.328   7.472  66.844  1.00  0.00    -0.093 C  
HETATM    2  N   UNL     1      -7.799   8.246  67.968  1.00  0.00    -0.116 N  
HETATM    3  C   UNL     1      -8.056   7.689  69.198  1.00  0.00    -0.125 C  
HETATM    4  O   UNL     1      -7.899   6.535  69.557  1.00  0.00    -0.101 OA 
HETATM    5  N   UNL     1      -8.541   8.728  69.976  1.00  0.00    -0.129 NA 
HETATM    6  N   UNL     1      -8.547   9.893  69.269  1.00  0.00    -0.154 NA 
HETATM    7  C   UNL     1      -8.090   9.556  68.092  1.00  0.00    -0.102 C  
ENDROOT
BRANCH   7   8
HETATM    8  C   UNL     1      -7.812  10.621  67.045  1.00  0.00    -0.117 C  
BRANCH   8   9
HETATM    9  N   UNL     1      -8.883  11.208  66.246  1.00  0.00    -0.181 N  
HETATM   10  C   UNL     1      -9.777  10.416  65.544  1.00  0.00    -0.249 C  
HETATM   11  C   UNL     1     -10.910  10.944  65.052  1.00  0.00    -0.142 C  
HETATM   12  C   UNL     1     -11.138  12.385  65.106  1.00  0.00    -0.348 C  
HETATM   13  C   UNL     1     -12.401  12.954  64.533  1.00  0.00    -0.417 C  
HETATM   14  C   UNL     1     -10.228  13.186  65.697  1.00  0.00    -0.286 C  
HETATM   15  C   UNL     1      -9.283  12.493  66.628  1.00  0.00    -0.223 C  
HETATM   16  F   UNL     1     -13.282  11.993  64.149  1.00  0.00    -0.520 F  
HETATM   17  F   UNL     1     -13.057  13.721  65.445  1.00  0.00    -0.517 F  
HETATM   18  O   UNL     1      -8.906  13.046  67.656  1.00  0.00    -0.169 OA 
HETATM   19  F   UNL     1     -12.176  13.733  63.447  1.00  0.00    -0.529 F  
BRANCH  14  20
HETATM   20  O   UNL     1     -10.316  14.572  65.639  1.00  0.00    -0.310 OA 
BRANCH  20  21
HETATM   21  C   UNL     1     -10.278  15.376  66.764  1.00  0.00    -0.271 A  
HETATM   22  C   UNL     1     -11.235  15.046  67.743  1.00  0.00    -0.327 A  
HETATM   23  C   UNL     1     -11.294  15.732  68.967  1.00  0.00    -0.354 A  
HETATM   24  C   UNL     1     -10.384  16.762  69.220  1.00  0.00    -0.309 A  
HETATM   25  C   UNL     1     -12.282  15.377  69.955  1.00  0.00    -0.361 C  
HETATM   26  C   UNL     1      -9.462  17.118  68.235  1.00  0.00    -0.276 A  
HETATM   27  N   UNL     1     -13.086  15.101  70.743  1.00  0.00    -0.408 NA 
HETATM   28 CL   UNL     1      -8.341  18.392  68.541  1.00  0.00    -0.341 Cl 
HETATM   29  C   UNL     1      -9.422  16.449  67.002  1.00  0.00    -0.240 A  
ENDBRANCH  20  21
ENDBRANCH  14  20
ENDBRANCH   8   9
ENDBRANCH   7   8
TORSDOF 4
ENDMDL
MODEL      107
REMARK 921   NORMALIZED FREE ENERGY PREDICTED BY IDOCK:   -5.96 KCAL/MOL
REMARK 922        TOTAL FREE ENERGY PREDICTED BY IDOCK:   -8.19 KCAL/MOL
REMARK 923 INTER-LIGAND FREE ENERGY PREDICTED BY IDOCK:   -7.04 KCAL/MOL
REMARK 924 INTRA-LIGAND FREE ENERGY PREDICTED BY IDOCK:   -1.15 KCAL/MOL
REMARK 927      BINDING AFFINITY PREDICTED BY RF-SCORE:    0.00 PKD
ROOT
HETATM    1  C   UNL     1     -13.317  12.666  72.135  1.00  0.00    -0.466 C  
HETATM    2  N   UNL     1     -12.629  12.080  71.010  1.00  0.00    -0.336 N  
HETATM    3  C   UNL     1     -12.156  12.827  69.957  1.00  0.00    -0.285 C  
HETATM    4  O   UNL     1     -12.184  14.038  69.812  1.00  0.00    -0.327 OA 
HETATM    5  N   UNL     1     -11.622  11.910  69.067  1.00  0.00    -0.291 NA 
HETATM    6  N   UNL     1     -11.724  10.646  69.565  1.00  0.00    -0.284 NA 
HETATM    7  C   UNL     1     -12.317  10.801  70.719  1.00  0.00    -0.383 C  
ENDROOT
BRANCH   7   8
HETATM    8  C   UNL     1     -12.489   9.620  71.658  1.00  0.00    -0.407 C  
BRANCH   8   9
HETATM    9  N   UNL     1     -11.541   8.511  71.676  1.00  0.00    -0.279 N  
HETATM   10  C   UNL     1     -10.584   8.397  72.671  1.00  0.00    -0.242 C  
HETATM   11  C   UNL     1      -9.914   7.245  72.839  1.00  0.00    -0.257 C  
HETATM   12  C   UNL     1     -10.065   6.155  71.879  1.00  0.00    -0.216 C  
HETATM   13  C   UNL     1      -9.293   4.886  72.076  1.00  0.00    -0.141 C  
HETATM   14  C   UNL     1     -10.919   6.288  70.844  1.00  0.00    -0.286 C  
HETATM   15  C   UNL     1     -11.957   7.353  71.011  1.00  0.00    -0.306 C  
HETATM   16  F   UNL     1      -8.629   4.855  73.262  1.00  0.00    -0.103 F  
HETATM   17  F   UNL     1     -10.113   3.801  72.079  1.00  0.00    -0.227 F  
HETATM   18  O   UNL     1     -13.095   7.186  70.582  1.00  0.00    -0.059 OA 
HETATM   19  F   UNL     1      -8.368   4.682  71.106  1.00  0.00    -0.093 F  
BRANCH  14  20
HETATM   20  O   UNL     1     -10.988   5.352  69.819  1.00  0.00    -0.246 OA 
BRANCH  20  21
HETATM   21  C   UNL     1     -10.372   5.532  68.594  1.00  0.00    -0.185 A  
HETATM   22  C   UNL     1     -10.433   6.850  68.103  1.00  0.00    -0.243 A  
HETATM   23  C   UNL     1      -9.810   7.211  66.897  1.00  0.00    -0.271 A  
HETATM   24  C   UNL     1      -9.115   6.242  66.168  1.00  0.00    -0.153 A  
HETATM   25  C   UNL     1      -9.886   8.567  66.414  1.00  0.00    -0.257 C  
HETATM   26  C   UNL     1      -9.087   4.926  66.631  1.00  0.00    -0.119 A  
HETATM   27  N   UNL     1      -9.960   9.654  66.020  1.00  0.00    -0.280 NA 
HETATM   28 CL   UNL     1      -8.235   3.727  65.732  1.00  0.00    -0.104 Cl 
HETATM   29  C   UNL     1      -9.733   4.562  67.823  1.00  0.00    -0.199 A  
ENDBRANCH  20  21
ENDBRANCH  14  20
ENDBRANCH   8   9
ENDBRANCH   7   8
TORSDOF 4
ENDMDL
MODEL      108
REMARK 921   NORMALIZED FREE ENERGY PREDICTED BY IDOCK:   -5.93 KCAL/MOL
REMARK 922        TOTAL FREE ENERGY PREDICTED BY IDOCK:   -8.15 KCAL/MOL
REMARK 923 INTER-LIGAND FREE ENERGY PREDICTED BY IDOCK:   -7.28 KCAL/MOL
REMARK 924 INTRA-LIGAND FREE ENERGY PREDICTED BY IDOCK:   -0.88 KCAL/MOL
REMARK 927      BINDING AFFINITY PREDICTED BY RF-SCORE:    0.00 PKD
ROOT
HETATM    1  C   UNL     1     -10.308  13.167  65.028  1.00  0.00    -0.330 C  
HETATM    2  N   UNL     1      -9.879  11.808  64.798  1.00  0.00    -0.236 N  
HETATM    3  C   UNL     1      -9.772  11.266  63.538  1.00  0.00    -0.336 C  
HETATM    4  O   UNL     1      -9.957  11.807  62.461  1.00  0.00     0.120 OA 
HETATM    5  N   UNL     1      -9.398   9.948  63.738  1.00  0.00    -0.252 NA 
HETATM    6  N   UNL     1      -9.240   9.691  65.067  1.00  0.00    -0.239 NA 
HETATM    7  C   UNL     1      -9.527  10.825  65.649  1.00  0.00    -0.209 C  
ENDROOT
BRANCH   7   8
HETATM    8  C   UNL     1      -9.332  10.988  67.147  1.00  0.00    -0.164 C  
BRANCH   8   9
HETATM    9  N   UNL     1     -10.306  11.691  67.975  1.00  0.00    -0.186 N  
HETATM   10  C   UNL     1     -11.370  11.024  68.560  1.00  0.00    -0.287 C  
HETATM   11  C   UNL     1     -12.086  11.611  69.533  1.00  0.00    -0.336 C  
HETATM   12  C   UNL     1     -11.860  13.013  69.874  1.00  0.00    -0.377 C  
HETATM   13  C   UNL     1     -12.685  13.652  70.950  1.00  0.00    -0.310 C  
HETATM   14  C   UNL     1     -10.895  13.709  69.241  1.00  0.00    -0.082 C  
HETATM   15  C   UNL     1      -9.852  12.876  68.564  1.00  0.00    -0.144 C  
HETATM   16  F   UNL     1     -13.475  12.760  71.604  1.00  0.00    -0.457 F  
HETATM   17  F   UNL     1     -11.900  14.225  71.902  1.00  0.00    -0.335 F  
HETATM   18  O   UNL     1      -8.680  13.237  68.549  1.00  0.00    -0.151 OA 
HETATM   19  F   UNL     1     -13.503  14.622  70.473  1.00  0.00    -0.364 F  
BRANCH  14  20
HETATM   20  O   UNL     1     -10.741  15.080  69.411  1.00  0.00    -0.244 OA 
BRANCH  20  21
HETATM   21  C   UNL     1     -10.457  15.941  68.367  1.00  0.00    -0.254 A  
HETATM   22  C   UNL     1      -9.557  16.972  68.696  1.00  0.00    -0.275 A  
HETATM   23  C   UNL     1      -9.124  17.899  67.734  1.00  0.00    -0.258 A  
HETATM   24  C   UNL     1      -9.597  17.797  66.423  1.00  0.00    -0.293 A  
HETATM   25  C   UNL     1      -8.202  18.947  68.093  1.00  0.00    -0.311 C  
HETATM   26  C   UNL     1     -10.520  16.801  66.103  1.00  0.00    -0.277 A  
HETATM   27  N   UNL     1      -7.472  19.798  68.387  1.00  0.00    -0.321 NA 
HETATM   28 CL   UNL     1     -11.109  16.674  64.487  1.00  0.00    -0.180 Cl 
HETATM   29  C   UNL     1     -10.971  15.891  67.072  1.00  0.00    -0.189 A  
ENDBRANCH  20  21
ENDBRANCH  14  20
ENDBRANCH   8   9
ENDBRANCH   7   8
TORSDOF 4
ENDMDL
MODEL      109
REMARK 921   NORMALIZED FREE ENERGY PREDICTED BY IDOCK:   -5.88 KCAL/MOL
REMARK 922        TOTAL FREE ENERGY PREDICTED BY IDOCK:   -8.10 KCAL/MOL
REMARK 923 INTER-LIGAND FREE ENERGY PREDICTED BY IDOCK:   -6.98 KCAL/MOL
REMARK 924 INTRA-LIGAND FREE ENERGY PREDICTED BY IDOCK:   -1.12 KCAL/MOL
REMARK 927      BINDING AFFINITY PREDICTED BY RF-SCORE:    0.00 PKD
ROOT
HETATM    1  C   UNL     1     -10.351   4.664  71.032  1.00  0.00    -0.073 C  
HETATM    2  N   UNL     1     -10.216   4.846  72.458  1.00  0.00    -0.189 N  
HETATM    3  C   UNL     1      -9.604   3.920  73.269  1.00  0.00    -0.112 C  
HETATM    4  O   UNL     1      -9.060   2.875  72.954  1.00  0.00    -0.085 OA 
HETATM    5  N   UNL     1      -9.729   4.421  74.555  1.00  0.00    -0.130 NA 
HETATM    6  N   UNL     1     -10.357   5.630  74.538  1.00  0.00    -0.262 NA 
HETATM    7  C   UNL     1     -10.615   5.840  73.275  1.00  0.00    -0.254 C  
ENDROOT
BRANCH   7   8
HETATM    8  C   UNL     1     -11.198   7.168  72.822  1.00  0.00    -0.275 C  
BRANCH   8   9
HETATM    9  N   UNL     1     -10.433   8.100  71.999  1.00  0.00    -0.241 N  
HETATM   10  C   UNL     1      -9.088   8.335  72.236  1.00  0.00    -0.221 C  
HETATM   11  C   UNL     1      -8.338   8.963  71.316  1.00  0.00    -0.223 C  
HETATM   12  C   UNL     1      -8.957   9.549  70.131  1.00  0.00    -0.269 C  
HETATM   13  C   UNL     1      -8.103  10.262  69.128  1.00  0.00    -0.138 C  
HETATM   14  C   UNL     1     -10.285   9.417  69.934  1.00  0.00    -0.222 C  
HETATM   15  C   UNL     1     -10.934   8.315  70.711  1.00  0.00    -0.243 C  
HETATM   16  F   UNL     1      -6.774  10.139  69.389  1.00  0.00    -0.049 F  
HETATM   17  F   UNL     1      -8.285   9.763  67.876  1.00  0.00    -0.109 F  
HETATM   18  O   UNL     1     -11.846   7.659  70.217  1.00  0.00    -0.085 OA 
HETATM   19  F   UNL     1      -8.367  11.590  69.067  1.00  0.00    -0.131 F  
BRANCH  14  20
HETATM   20  O   UNL     1     -10.950  10.084  68.912  1.00  0.00    -0.225 OA 
BRANCH  20  21
HETATM   21  C   UNL     1     -11.391  11.389  69.026  1.00  0.00    -0.280 A  
HETATM   22  C   UNL     1     -12.040  11.677  70.242  1.00  0.00    -0.443 A  
HETATM   23  C   UNL     1     -12.500  12.970  70.537  1.00  0.00    -0.306 A  
HETATM   24  C   UNL     1     -12.310  13.994  69.606  1.00  0.00    -0.309 A  
HETATM   25  C   UNL     1     -13.162  13.241  71.789  1.00  0.00    -0.405 C  
HETATM   26  C   UNL     1     -11.703  13.704  68.383  1.00  0.00    -0.358 A  
HETATM   27  N   UNL     1     -13.707  13.454  72.790  1.00  0.00    -0.664 NA 
HETATM   28 CL   UNL     1     -11.471  14.964  67.229  1.00  0.00    -0.358 Cl 
HETATM   29  C   UNL     1     -11.268  12.405  68.079  1.00  0.00    -0.317 A  
ENDBRANCH  20  21
ENDBRANCH  14  20
ENDBRANCH   8   9
ENDBRANCH   7   8
TORSDOF 4
ENDMDL
MODEL      110
REMARK 921   NORMALIZED FREE ENERGY PREDICTED BY IDOCK:   -5.85 KCAL/MOL
REMARK 922        TOTAL FREE ENERGY PREDICTED BY IDOCK:   -8.06 KCAL/MOL
REMARK 923 INTER-LIGAND FREE ENERGY PREDICTED BY IDOCK:   -8.07 KCAL/MOL
REMARK 924 INTRA-LIGAND FREE ENERGY PREDICTED BY IDOCK:    0.01 KCAL/MOL
REMARK 927      BINDING AFFINITY PREDICTED BY RF-SCORE:    0.00 PKD
ROOT
HETATM    1  C   UNL     1     -11.807   7.754  70.882  1.00  0.00    -0.239 C  
HETATM    2  N   UNL     1     -10.581   8.367  70.426  1.00  0.00    -0.218 N  
HETATM    3  C   UNL     1      -9.341   7.844  70.707  1.00  0.00    -0.157 C  
HETATM    4  O   UNL     1      -9.067   6.816  71.303  1.00  0.00    -0.150 OA 
HETATM    5  N   UNL     1      -8.435   8.737  70.159  1.00  0.00    -0.128 NA 
HETATM    6  N   UNL     1      -9.087   9.754  69.529  1.00  0.00    -0.200 NA 
HETATM    7  C   UNL     1     -10.353   9.484  69.708  1.00  0.00    -0.230 C  
ENDROOT
BRANCH   7   8
HETATM    8  C   UNL     1     -11.419  10.323  69.026  1.00  0.00    -0.137 C  
BRANCH   8   9
HETATM    9  N   UNL     1     -11.945  11.539  69.638  1.00  0.00    -0.332 N  
HETATM   10  C   UNL     1     -12.448  11.538  70.928  1.00  0.00    -0.366 C  
HETATM   11  C   UNL     1     -12.662  12.696  71.574  1.00  0.00    -0.326 C  
HETATM   12  C   UNL     1     -12.524  13.970  70.873  1.00  0.00    -0.439 C  
HETATM   13  C   UNL     1     -12.787  15.248  71.609  1.00  0.00    -0.395 C  
HETATM   14  C   UNL     1     -12.133  13.985  69.583  1.00  0.00    -0.355 C  
HETATM   15  C   UNL     1     -11.453  12.738  69.112  1.00  0.00    -0.306 C  
HETATM   16  F   UNL     1     -12.988  15.056  72.940  1.00  0.00    -0.384 F  
HETATM   17  F   UNL     1     -11.734  16.104  71.509  1.00  0.00    -0.415 F  
HETATM   18  O   UNL     1     -10.522  12.801  68.315  1.00  0.00    -0.228 OA 
HETATM   19  F   UNL     1     -13.877  15.905  71.141  1.00  0.00    -0.462 F  
BRANCH  14  20
HETATM   20  O   UNL     1     -12.136  15.150  68.825  1.00  0.00    -0.265 OA 
BRANCH  20  21
HETATM   21  C   UNL     1     -11.031  15.973  68.705  1.00  0.00    -0.323 A  
HETATM   22  C   UNL     1      -9.839  15.419  69.209  1.00  0.00    -0.262 A  
HETATM   23  C   UNL     1      -8.617  16.105  69.115  1.00  0.00    -0.235 A  
HETATM   24  C   UNL     1      -8.583  17.363  68.509  1.00  0.00    -0.270 A  
HETATM   25  C   UNL     1      -7.409  15.518  69.639  1.00  0.00    -0.163 C  
HETATM   26  C   UNL     1      -9.769  17.933  68.045  1.00  0.00    -0.303 A  
HETATM   27  N   UNL     1      -6.441  15.050  70.073  1.00  0.00    -0.166 NA 
HETATM   28 CL   UNL     1      -9.731  19.488  67.301  1.00  0.00    -0.421 Cl 
HETATM   29  C   UNL     1     -10.993  17.257  68.163  1.00  0.00    -0.193 A  
ENDBRANCH  20  21
ENDBRANCH  14  20
ENDBRANCH   8   9
ENDBRANCH   7   8
TORSDOF 4
ENDMDL
MODEL      111
REMARK 921   NORMALIZED FREE ENERGY PREDICTED BY IDOCK:   -5.84 KCAL/MOL
REMARK 922        TOTAL FREE ENERGY PREDICTED BY IDOCK:   -8.04 KCAL/MOL
REMARK 923 INTER-LIGAND FREE ENERGY PREDICTED BY IDOCK:   -7.36 KCAL/MOL
REMARK 924 INTRA-LIGAND FREE ENERGY PREDICTED BY IDOCK:   -0.68 KCAL/MOL
REMARK 927      BINDING AFFINITY PREDICTED BY RF-SCORE:    0.00 PKD
ROOT
HETATM    1  C   UNL     1     -12.381  15.611  70.256  1.00  0.00    -0.370 C  
HETATM    2  N   UNL     1     -11.575  15.547  69.060  1.00  0.00    -0.344 N  
HETATM    3  C   UNL     1     -10.714  16.553  68.690  1.00  0.00    -0.334 C  
HETATM    4  O   UNL     1     -10.452  17.586  69.283  1.00  0.00    -0.321 OA 
HETATM    5  N   UNL     1     -10.182  16.152  67.475  1.00  0.00    -0.261 NA 
HETATM    6  N   UNL     1     -10.664  14.926  67.124  1.00  0.00    -0.290 NA 
HETATM    7  C   UNL     1     -11.475  14.609  68.098  1.00  0.00    -0.323 C  
ENDROOT
BRANCH   7   8
HETATM    8  C   UNL     1     -12.115  13.232  68.145  1.00  0.00    -0.211 C  
BRANCH   8   9
HETATM    9  N   UNL     1     -11.706  12.230  69.123  1.00  0.00    -0.309 N  
HETATM   10  C   UNL     1     -12.393  12.063  70.315  1.00  0.00    -0.195 C  
HETATM   11  C   UNL     1     -12.189  10.969  71.067  1.00  0.00    -0.456 C  
HETATM   12  C   UNL     1     -11.129  10.025  70.728  1.00  0.00    -0.407 C  
HETATM   13  C   UNL     1     -10.907   8.822  71.593  1.00  0.00    -0.329 C  
HETATM   14  C   UNL     1     -10.381  10.226  69.624  1.00  0.00    -0.248 C  
HETATM   15  C   UNL     1     -10.981  11.149  68.610  1.00  0.00    -0.220 C  
HETATM   16  F   UNL     1     -11.865   8.680  72.548  1.00  0.00    -0.424 F  
HETATM   17  F   UNL     1     -10.933   7.674  70.864  1.00  0.00    -0.234 F  
HETATM   18  O   UNL     1     -10.831  10.938  67.411  1.00  0.00    -0.242 OA 
HETATM   19  F   UNL     1      -9.715   8.856  72.238  1.00  0.00    -0.368 F  
BRANCH  14  20
HETATM   20  O   UNL     1      -9.262   9.452  69.339  1.00  0.00    -0.150 OA 
BRANCH  20  21
HETATM   21  C   UNL     1      -9.186   8.616  68.239  1.00  0.00    -0.137 A  
HETATM   22  C   UNL     1      -8.099   8.882  67.385  1.00  0.00    -0.108 A  
HETATM   23  C   UNL     1      -7.849   8.091  66.252  1.00  0.00    -0.099 A  
HETATM   24  C   UNL     1      -8.696   7.017  65.967  1.00  0.00    -0.156 A  
HETATM   25  C   UNL     1      -6.730   8.382  65.392  1.00  0.00    -0.056 C  
HETATM   26  C   UNL     1      -9.797   6.775  66.788  1.00  0.00    -0.178 A  
HETATM   27  N   UNL     1      -5.838   8.626  64.692  1.00  0.00    -0.063 NA 
HETATM   28 CL   UNL     1     -10.847   5.454  66.436  1.00  0.00    -0.299 Cl 
HETATM   29  C   UNL     1     -10.061   7.584  67.905  1.00  0.00    -0.226 A  
ENDBRANCH  20  21
ENDBRANCH  14  20
ENDBRANCH   8   9
ENDBRANCH   7   8
TORSDOF 4
ENDMDL
MODEL      112
REMARK 921   NORMALIZED FREE ENERGY PREDICTED BY IDOCK:   -5.84 KCAL/MOL
REMARK 922        TOTAL FREE ENERGY PREDICTED BY IDOCK:   -8.04 KCAL/MOL
REMARK 923 INTER-LIGAND FREE ENERGY PREDICTED BY IDOCK:   -6.89 KCAL/MOL
REMARK 924 INTRA-LIGAND FREE ENERGY PREDICTED BY IDOCK:   -1.15 KCAL/MOL
REMARK 927      BINDING AFFINITY PREDICTED BY RF-SCORE:    0.00 PKD
ROOT
HETATM    1  C   UNL     1     -11.350   8.000  72.650  1.00  0.00    -0.405 C  
HETATM    2  N   UNL     1     -10.956   6.823  71.914  1.00  0.00    -0.233 N  
HETATM    3  C   UNL     1     -10.833   5.586  72.502  1.00  0.00    -0.252 C  
HETATM    4  O   UNL     1     -11.065   5.267  73.656  1.00  0.00    -0.297 OA 
HETATM    5  N   UNL     1     -10.384   4.746  71.496  1.00  0.00    -0.171 NA 
HETATM    6  N   UNL     1     -10.270   5.425  70.321  1.00  0.00    -0.245 NA 
HETATM    7  C   UNL     1     -10.629   6.646  70.619  1.00  0.00    -0.227 C  
ENDROOT
BRANCH   7   8
HETATM    8  C   UNL     1     -10.769   7.692  69.526  1.00  0.00    -0.209 C  
BRANCH   8   9
HETATM    9  N   UNL     1      -9.794   8.765  69.363  1.00  0.00    -0.182 N  
HETATM   10  C   UNL     1      -8.647   8.821  70.138  1.00  0.00    -0.146 C  
HETATM   11  C   UNL     1      -7.636   9.635  69.793  1.00  0.00    -0.123 C  
HETATM   12  C   UNL     1      -7.793  10.588  68.698  1.00  0.00    -0.116 C  
HETATM   13  C   UNL     1      -6.658  11.499  68.344  1.00  0.00    -0.060 C  
HETATM   14  C   UNL     1      -8.945  10.617  67.996  1.00  0.00    -0.140 C  
HETATM   15  C   UNL     1      -9.788   9.387  68.110  1.00  0.00    -0.160 C  
HETATM   16  F   UNL     1      -5.519  11.208  69.026  1.00  0.00    -0.042 F  
HETATM   17  F   UNL     1      -6.339  11.405  67.025  1.00  0.00    -0.073 F  
HETATM   18  O   UNL     1     -10.420   8.974  67.142  1.00  0.00    -0.266 OA 
HETATM   19  F   UNL     1      -6.939  12.802  68.592  1.00  0.00    -0.079 F  
BRANCH  14  20
HETATM   20  O   UNL     1      -9.208  11.602  67.052  1.00  0.00    -0.175 OA 
BRANCH  20  21
HETATM   21  C   UNL     1     -10.015  12.696  67.309  1.00  0.00    -0.212 A  
HETATM   22  C   UNL     1     -10.165  13.574  66.219  1.00  0.00    -0.299 A  
HETATM   23  C   UNL     1     -10.994  14.705  66.300  1.00  0.00    -0.327 A  
HETATM   24  C   UNL     1     -11.685  14.964  67.487  1.00  0.00    -0.328 A  
HETATM   25  C   UNL     1     -11.132  15.590  65.171  1.00  0.00    -0.374 C  
HETATM   26  C   UNL     1     -11.507  14.118  68.582  1.00  0.00    -0.299 A  
HETATM   27  N   UNL     1     -11.231  16.309  64.267  1.00  0.00    -0.786 NA 
HETATM   28 CL   UNL     1     -12.354  14.438  70.049  1.00  0.00    -0.390 Cl 
HETATM   29  C   UNL     1     -10.657  13.004  68.508  1.00  0.00    -0.274 A  
ENDBRANCH  20  21
ENDBRANCH  14  20
ENDBRANCH   8   9
ENDBRANCH   7   8
TORSDOF 4
ENDMDL
MODEL      113
REMARK 921   NORMALIZED FREE ENERGY PREDICTED BY IDOCK:   -5.84 KCAL/MOL
REMARK 922        TOTAL FREE ENERGY PREDICTED BY IDOCK:   -8.04 KCAL/MOL
REMARK 923 INTER-LIGAND FREE ENERGY PREDICTED BY IDOCK:   -7.13 KCAL/MOL
REMARK 924 INTRA-LIGAND FREE ENERGY PREDICTED BY IDOCK:   -0.91 KCAL/MOL
REMARK 927      BINDING AFFINITY PREDICTED BY RF-SCORE:    0.00 PKD
ROOT
HETATM    1  C   UNL     1      -7.694   5.262  67.561  1.00  0.00    -0.096 C  
HETATM    2  N   UNL     1      -7.912   6.509  66.866  1.00  0.00    -0.110 N  
HETATM    3  C   UNL     1      -7.964   6.594  65.495  1.00  0.00    -0.118 C  
HETATM    4  O   UNL     1      -7.892   5.695  64.674  1.00  0.00    -0.099 OA 
HETATM    5  N   UNL     1      -8.123   7.943  65.218  1.00  0.00    -0.129 NA 
HETATM    6  N   UNL     1      -8.206   8.661  66.372  1.00  0.00    -0.109 NA 
HETATM    7  C   UNL     1      -8.086   7.767  67.317  1.00  0.00    -0.119 C  
ENDROOT
BRANCH   7   8
HETATM    8  C   UNL     1      -8.267   8.160  68.773  1.00  0.00    -0.125 C  
BRANCH   8   9
HETATM    9  N   UNL     1      -9.584   8.456  69.329  1.00  0.00    -0.162 N  
HETATM   10  C   UNL     1     -10.303   7.500  70.027  1.00  0.00    -0.221 C  
HETATM   11  C   UNL     1     -11.366   7.857  70.766  1.00  0.00    -0.283 C  
HETATM   12  C   UNL     1     -11.876   9.224  70.715  1.00  0.00    -0.303 C  
HETATM   13  C   UNL     1     -13.075   9.595  71.533  1.00  0.00    -0.400 C  
HETATM   14  C   UNL     1     -11.247  10.146  69.959  1.00  0.00    -0.299 C  
HETATM   15  C   UNL     1      -9.837   9.807  69.588  1.00  0.00    -0.221 C  
HETATM   16  F   UNL     1     -13.466   8.599  72.372  1.00  0.00    -0.354 F  
HETATM   17  F   UNL     1     -12.823  10.672  72.324  1.00  0.00    -0.496 F  
HETATM   18  O   UNL     1      -8.981  10.684  69.527  1.00  0.00    -0.104 OA 
HETATM   19  F   UNL     1     -14.152   9.907  70.770  1.00  0.00    -0.254 F  
BRANCH  14  20
HETATM   20  O   UNL     1     -11.774  11.415  69.751  1.00  0.00    -0.287 OA 
BRANCH  20  21
HETATM   21  C   UNL     1     -11.621  12.108  68.564  1.00  0.00    -0.315 A  
HETATM   22  C   UNL     1     -11.290  13.467  68.726  1.00  0.00    -0.329 A  
HETATM   23  C   UNL     1     -11.048  14.297  67.619  1.00  0.00    -0.305 A  
HETATM   24  C   UNL     1     -11.138  13.765  66.330  1.00  0.00    -0.309 A  
HETATM   25  C   UNL     1     -10.711  15.686  67.809  1.00  0.00    -0.297 C  
HETATM   26  C   UNL     1     -11.505  12.429  66.165  1.00  0.00    -0.379 A  
HETATM   27  N   UNL     1     -10.453  16.806  67.963  1.00  0.00    -0.319 NA 
HETATM   28 CL   UNL     1     -11.621  11.769  64.577  1.00  0.00    -0.337 Cl 
HETATM   29  C   UNL     1     -11.772  11.608  67.272  1.00  0.00    -0.255 A  
ENDBRANCH  20  21
ENDBRANCH  14  20
ENDBRANCH   8   9
ENDBRANCH   7   8
TORSDOF 4
ENDMDL
MODEL      114
REMARK 921   NORMALIZED FREE ENERGY PREDICTED BY IDOCK:   -5.83 KCAL/MOL
REMARK 922        TOTAL FREE ENERGY PREDICTED BY IDOCK:   -8.03 KCAL/MOL
REMARK 923 INTER-LIGAND FREE ENERGY PREDICTED BY IDOCK:   -7.70 KCAL/MOL
REMARK 924 INTRA-LIGAND FREE ENERGY PREDICTED BY IDOCK:   -0.33 KCAL/MOL
REMARK 927      BINDING AFFINITY PREDICTED BY RF-SCORE:    0.00 PKD
ROOT
HETATM    1  C   UNL     1     -11.301  15.558  64.647  1.00  0.00    -0.357 C  
HETATM    2  N   UNL     1     -10.845  15.745  66.004  1.00  0.00    -0.294 N  
HETATM    3  C   UNL     1     -10.027  16.786  66.376  1.00  0.00    -0.304 C  
HETATM    4  O   UNL     1      -9.607  17.704  65.691  1.00  0.00    -0.503 OA 
HETATM    5  N   UNL     1      -9.768  16.586  67.722  1.00  0.00    -0.233 NA 
HETATM    6  N   UNL     1     -10.431  15.487  68.178  1.00  0.00    -0.254 NA 
HETATM    7  C   UNL     1     -11.060  15.031  67.127  1.00  0.00    -0.332 C  
ENDROOT
BRANCH   7   8
HETATM    8  C   UNL     1     -12.035  13.875  67.258  1.00  0.00    -0.411 C  
BRANCH   8   9
HETATM    9  N   UNL     1     -11.633  12.498  66.986  1.00  0.00    -0.351 N  
HETATM   10  C   UNL     1     -11.177  12.115  65.735  1.00  0.00    -0.339 C  
HETATM   11  C   UNL     1     -10.552  10.937  65.573  1.00  0.00    -0.240 C  
HETATM   12  C   UNL     1     -10.488   9.976  66.671  1.00  0.00    -0.244 C  
HETATM   13  C   UNL     1      -9.803   8.661  66.462  1.00  0.00    -0.278 C  
HETATM   14  C   UNL     1     -11.019  10.293  67.869  1.00  0.00    -0.292 C  
HETATM   15  C   UNL     1     -11.233  11.756  68.102  1.00  0.00    -0.260 C  
HETATM   16  F   UNL     1      -9.168   8.586  65.262  1.00  0.00    -0.210 F  
HETATM   17  F   UNL     1      -8.847   8.444  67.405  1.00  0.00    -0.129 F  
HETATM   18  O   UNL     1     -11.056  12.242  69.214  1.00  0.00    -0.225 OA 
HETATM   19  F   UNL     1     -10.660   7.612  66.516  1.00  0.00    -0.354 F  
BRANCH  14  20
HETATM   20  O   UNL     1     -11.127   9.365  68.898  1.00  0.00    -0.112 OA 
BRANCH  20  21
HETATM   21  C   UNL     1     -10.142   9.179  69.851  1.00  0.00    -0.202 A  
HETATM   22  C   UNL     1     -10.543   8.403  70.955  1.00  0.00    -0.243 A  
HETATM   23  C   UNL     1      -9.645   8.078  71.985  1.00  0.00    -0.262 A  
HETATM   24  C   UNL     1      -8.326   8.533  71.913  1.00  0.00    -0.218 A  
HETATM   25  C   UNL     1     -10.078   7.281  73.106  1.00  0.00    -0.273 C  
HETATM   26  C   UNL     1      -7.936   9.337  70.841  1.00  0.00    -0.122 A  
HETATM   27  N   UNL     1     -10.432   6.653  74.013  1.00  0.00    -0.340 NA 
HETATM   28 CL   UNL     1      -6.310   9.904  70.752  1.00  0.00    -0.099 Cl 
HETATM   29  C   UNL     1      -8.842   9.683  69.826  1.00  0.00    -0.224 A  
ENDBRANCH  20  21
ENDBRANCH  14  20
ENDBRANCH   8   9
ENDBRANCH   7   8
TORSDOF 4
ENDMDL
MODEL      115
REMARK 921   NORMALIZED FREE ENERGY PREDICTED BY IDOCK:   -5.82 KCAL/MOL
REMARK 922        TOTAL FREE ENERGY PREDICTED BY IDOCK:   -8.02 KCAL/MOL
REMARK 923 INTER-LIGAND FREE ENERGY PREDICTED BY IDOCK:   -6.93 KCAL/MOL
REMARK 924 INTRA-LIGAND FREE ENERGY PREDICTED BY IDOCK:   -1.09 KCAL/MOL
REMARK 927      BINDING AFFINITY PREDICTED BY RF-SCORE:    0.00 PKD
ROOT
HETATM    1  C   UNL     1     -11.657  15.237  66.547  1.00  0.00    -0.015 C  
HETATM    2  N   UNL     1     -12.018  14.338  65.476  1.00  0.00    -0.375 N  
HETATM    3  C   UNL     1     -12.241  14.768  64.190  1.00  0.00    -0.295 C  
HETATM    4  O   UNL     1     -12.136  15.895  63.736  1.00  0.00    -0.780 OA 
HETATM    5  N   UNL     1     -12.617  13.636  63.485  1.00  0.00    -0.784 NA 
HETATM    6  N   UNL     1     -12.590  12.539  64.293  1.00  0.00    -0.658 NA 
HETATM    7  C   UNL     1     -12.220  13.006  65.457  1.00  0.00    -0.469 C  
ENDROOT
BRANCH   7   8
HETATM    8  C   UNL     1     -11.936  12.057  66.608  1.00  0.00     0.001 C  
BRANCH   8   9
HETATM    9  N   UNL     1     -10.572  11.733  67.015  1.00  0.00    -0.223 N  
HETATM   10  C   UNL     1      -9.477  12.272  66.360  1.00  0.00    -0.237 C  
HETATM   11  C   UNL     1      -8.254  12.197  66.909  1.00  0.00    -0.134 C  
HETATM   12  C   UNL     1      -8.033  11.408  68.118  1.00  0.00    -0.133 C  
HETATM   13  C   UNL     1      -6.656  11.322  68.701  1.00  0.00    -0.064 C  
HETATM   14  C   UNL     1      -9.073  10.790  68.713  1.00  0.00    -0.178 C  
HETATM   15  C   UNL     1     -10.422  11.322  68.343  1.00  0.00    -0.197 C  
HETATM   16  F   UNL     1      -5.772  12.150  68.084  1.00  0.00    -0.046 F  
HETATM   17  F   UNL     1      -6.650  11.680  70.014  1.00  0.00    -0.134 F  
HETATM   18  O   UNL     1     -11.318  11.381  69.179  1.00  0.00    -0.238 OA 
HETATM   19  F   UNL     1      -6.136  10.072  68.629  1.00  0.00    -0.044 F  
BRANCH  14  20
HETATM   20  O   UNL     1      -8.899   9.903  69.770  1.00  0.00    -0.196 OA 
BRANCH  20  21
HETATM   21  C   UNL     1      -9.150   8.548  69.663  1.00  0.00    -0.149 A  
HETATM   22  C   UNL     1      -9.925   8.019  70.713  1.00  0.00    -0.202 A  
HETATM   23  C   UNL     1     -10.313   6.669  70.727  1.00  0.00    -0.232 A  
HETATM   24  C   UNL     1      -9.924   5.834  69.677  1.00  0.00    -0.249 A  
HETATM   25  C   UNL     1     -11.106   6.150  71.813  1.00  0.00    -0.274 C  
HETATM   26  C   UNL     1      -9.122   6.345  68.656  1.00  0.00    -0.127 A  
HETATM   27  N   UNL     1     -11.732   5.729  72.694  1.00  0.00    -0.266 NA 
HETATM   28 CL   UNL     1      -8.636   5.315  67.361  1.00  0.00    -0.106 Cl 
HETATM   29  C   UNL     1      -8.713   7.687  68.658  1.00  0.00    -0.128 A  
ENDBRANCH  20  21
ENDBRANCH  14  20
ENDBRANCH   8   9
ENDBRANCH   7   8
TORSDOF 4
ENDMDL
MODEL      116
REMARK 921   NORMALIZED FREE ENERGY PREDICTED BY IDOCK:   -5.81 KCAL/MOL
REMARK 922        TOTAL FREE ENERGY PREDICTED BY IDOCK:   -8.00 KCAL/MOL
REMARK 923 INTER-LIGAND FREE ENERGY PREDICTED BY IDOCK:   -6.89 KCAL/MOL
REMARK 924 INTRA-LIGAND FREE ENERGY PREDICTED BY IDOCK:   -1.12 KCAL/MOL
REMARK 927      BINDING AFFINITY PREDICTED BY RF-SCORE:    0.00 PKD
ROOT
HETATM    1  C   UNL     1     -12.492  10.652  70.811  1.00  0.00    -0.385 C  
HETATM    2  N   UNL     1     -12.351   9.232  71.035  1.00  0.00    -0.270 N  
HETATM    3  C   UNL     1     -13.107   8.548  71.956  1.00  0.00    -0.371 C  
HETATM    4  O   UNL     1     -14.005   8.969  72.666  1.00  0.00    -0.463 OA 
HETATM    5  N   UNL     1     -12.640   7.244  71.918  1.00  0.00    -0.311 NA 
HETATM    6  N   UNL     1     -11.659   7.116  70.981  1.00  0.00    -0.294 NA 
HETATM    7  C   UNL     1     -11.532   8.316  70.481  1.00  0.00    -0.175 C  
ENDROOT
BRANCH   7   8
HETATM    8  C   UNL     1     -10.618   8.559  69.293  1.00  0.00    -0.181 C  
BRANCH   8   9
HETATM    9  N   UNL     1      -9.759   9.737  69.214  1.00  0.00    -0.185 N  
HETATM   10  C   UNL     1      -8.497   9.747  69.784  1.00  0.00    -0.193 C  
HETATM   11  C   UNL     1      -7.618  10.713  69.468  1.00  0.00    -0.128 C  
HETATM   12  C   UNL     1      -8.032  11.851  68.651  1.00  0.00    -0.101 C  
HETATM   13  C   UNL     1      -7.040  12.926  68.328  1.00  0.00    -0.102 C  
HETATM   14  C   UNL     1      -9.291  11.908  68.172  1.00  0.00    -0.191 C  
HETATM   15  C   UNL     1     -10.020  10.601  68.146  1.00  0.00    -0.158 C  
HETATM   16  F   UNL     1      -5.780  12.616  68.734  1.00  0.00    -0.063 F  
HETATM   17  F   UNL     1      -6.960  13.140  66.987  1.00  0.00    -0.128 F  
HETATM   18  O   UNL     1     -10.789  10.336  67.227  1.00  0.00    -0.277 OA 
HETATM   19  F   UNL     1      -7.354  14.114  68.901  1.00  0.00    -0.109 F  
BRANCH  14  20
HETATM   20  O   UNL     1      -9.784  13.035  67.524  1.00  0.00    -0.198 OA 
BRANCH  20  21
HETATM   21  C   UNL     1     -10.348  14.103  68.198  1.00  0.00    -0.239 A  
HETATM   22  C   UNL     1     -10.216  15.339  67.536  1.00  0.00    -0.239 A  
HETATM   23  C   UNL     1     -10.781  16.513  68.061  1.00  0.00    -0.343 A  
HETATM   24  C   UNL     1     -11.488  16.454  69.264  1.00  0.00    -0.165 A  
HETATM   25  C   UNL     1     -10.633  17.767  67.366  1.00  0.00    -0.335 C  
HETATM   26  C   UNL     1     -11.586  15.239  69.943  1.00  0.00    -0.311 A  
HETATM   27  N   UNL     1     -10.501  18.778  66.814  1.00  0.00    -0.404 NA 
HETATM   28 CL   UNL     1     -12.454  15.164  71.431  1.00  0.00    -0.373 Cl 
HETATM   29  C   UNL     1     -10.999  14.072  69.430  1.00  0.00    -0.194 A  
ENDBRANCH  20  21
ENDBRANCH  14  20
ENDBRANCH   8   9
ENDBRANCH   7   8
TORSDOF 4
ENDMDL
MODEL      117
REMARK 921   NORMALIZED FREE ENERGY PREDICTED BY IDOCK:   -5.81 KCAL/MOL
REMARK 922        TOTAL FREE ENERGY PREDICTED BY IDOCK:   -8.00 KCAL/MOL
REMARK 923 INTER-LIGAND FREE ENERGY PREDICTED BY IDOCK:   -7.58 KCAL/MOL
REMARK 924 INTRA-LIGAND FREE ENERGY PREDICTED BY IDOCK:   -0.42 KCAL/MOL
REMARK 927      BINDING AFFINITY PREDICTED BY RF-SCORE:    0.00 PKD
ROOT
HETATM    1  C   UNL     1     -11.429  16.290  71.254  1.00  0.00    -0.311 C  
HETATM    2  N   UNL     1     -12.259  15.161  71.604  1.00  0.00    -0.319 N  
HETATM    3  C   UNL     1     -12.722  14.948  72.881  1.00  0.00    -0.435 C  
HETATM    4  O   UNL     1     -12.572  15.645  73.870  1.00  0.00    -0.521 OA 
HETATM    5  N   UNL     1     -13.418  13.751  72.823  1.00  0.00    -0.666 NA 
HETATM    6  N   UNL     1     -13.421  13.261  71.552  1.00  0.00    -0.252 NA 
HETATM    7  C   UNL     1     -12.731  14.135  70.868  1.00  0.00    -0.361 C  
ENDROOT
BRANCH   7   8
HETATM    8  C   UNL     1     -12.622  14.015  69.358  1.00  0.00     0.120 C  
BRANCH   8   9
HETATM    9  N   UNL     1     -11.459  13.407  68.720  1.00  0.00    -0.282 N  
HETATM   10  C   UNL     1     -10.218  14.023  68.745  1.00  0.00    -0.197 C  
HETATM   11  C   UNL     1      -9.113  13.337  68.411  1.00  0.00    -0.137 C  
HETATM   12  C   UNL     1      -9.218  11.988  67.860  1.00  0.00    -0.190 C  
HETATM   13  C   UNL     1      -7.973  11.250  67.475  1.00  0.00    -0.124 C  
HETATM   14  C   UNL     1     -10.430  11.410  67.733  1.00  0.00    -0.185 C  
HETATM   15  C   UNL     1     -11.514  12.018  68.566  1.00  0.00    -0.293 C  
HETATM   16  F   UNL     1      -6.840  11.905  67.842  1.00  0.00    -0.067 F  
HETATM   17  F   UNL     1      -7.913  10.032  68.078  1.00  0.00    -0.097 F  
HETATM   18  O   UNL     1     -12.380  11.311  69.072  1.00  0.00    -0.446 OA 
HETATM   19  F   UNL     1      -7.885  11.036  66.139  1.00  0.00    -0.153 F  
BRANCH  14  20
HETATM   20  O   UNL     1     -10.603  10.198  67.074  1.00  0.00    -0.244 OA 
BRANCH  20  21
HETATM   21  C   UNL     1     -10.618   8.981  67.730  1.00  0.00    -0.214 A  
HETATM   22  C   UNL     1     -10.612   7.863  66.874  1.00  0.00    -0.333 A  
HETATM   23  C   UNL     1     -10.572   6.554  67.382  1.00  0.00    -0.364 A  
HETATM   24  C   UNL     1     -10.538   6.357  68.765  1.00  0.00    -0.295 A  
HETATM   25  C   UNL     1     -10.566   5.424  66.487  1.00  0.00    -0.289 C  
HETATM   26  C   UNL     1     -10.585   7.461  69.616  1.00  0.00    -0.236 A  
HETATM   27  N   UNL     1     -10.576   4.516  65.766  1.00  0.00    -0.262 NA 
HETATM   28 CL   UNL     1     -10.548   7.221  71.323  1.00  0.00    -0.229 Cl 
HETATM   29  C   UNL     1     -10.652   8.767  69.107  1.00  0.00    -0.200 A  
ENDBRANCH  20  21
ENDBRANCH  14  20
ENDBRANCH   8   9
ENDBRANCH   7   8
TORSDOF 4
ENDMDL
MODEL      118
REMARK 921   NORMALIZED FREE ENERGY PREDICTED BY IDOCK:   -5.80 KCAL/MOL
REMARK 922        TOTAL FREE ENERGY PREDICTED BY IDOCK:   -7.99 KCAL/MOL
REMARK 923 INTER-LIGAND FREE ENERGY PREDICTED BY IDOCK:   -6.87 KCAL/MOL
REMARK 924 INTRA-LIGAND FREE ENERGY PREDICTED BY IDOCK:   -1.12 KCAL/MOL
REMARK 927      BINDING AFFINITY PREDICTED BY RF-SCORE:    0.00 PKD
ROOT
HETATM    1  C   UNL     1      -7.338   3.801  71.485  1.00  0.00    -0.040 C  
HETATM    2  N   UNL     1      -7.132   4.844  72.462  1.00  0.00    -0.075 N  
HETATM    3  C   UNL     1      -6.471   4.630  73.648  1.00  0.00    -0.056 C  
HETATM    4  O   UNL     1      -5.934   3.610  74.045  1.00  0.00    -0.010 OA 
HETATM    5  N   UNL     1      -6.534   5.837  74.326  1.00  0.00    -0.073 NA 
HETATM    6  N   UNL     1      -7.174   6.775  73.572  1.00  0.00    -0.079 NA 
HETATM    7  C   UNL     1      -7.499   6.141  72.477  1.00  0.00    -0.097 C  
ENDROOT
BRANCH   7   8
HETATM    8  C   UNL     1      -8.116   6.893  71.310  1.00  0.00    -0.110 C  
BRANCH   8   9
HETATM    9  N   UNL     1      -9.551   7.145  71.233  1.00  0.00    -0.164 N  
HETATM   10  C   UNL     1     -10.472   6.126  71.413  1.00  0.00    -0.225 C  
HETATM   11  C   UNL     1     -11.768   6.413  71.621  1.00  0.00    -0.367 C  
HETATM   12  C   UNL     1     -12.251   7.785  71.498  1.00  0.00    -0.344 C  
HETATM   13  C   UNL     1     -13.704   8.078  71.715  1.00  0.00    -0.359 C  
HETATM   14  C   UNL     1     -11.381   8.779  71.223  1.00  0.00    -0.291 C  
HETATM   15  C   UNL     1      -9.946   8.460  71.499  1.00  0.00    -0.217 C  
HETATM   16  F   UNL     1     -14.396   6.997  72.164  1.00  0.00    -0.418 F  
HETATM   17  F   UNL     1     -13.880   9.050  72.651  1.00  0.00    -0.449 F  
HETATM   18  O   UNL     1      -9.190   9.322  71.936  1.00  0.00    -0.298 OA 
HETATM   19  F   UNL     1     -14.326   8.498  70.586  1.00  0.00    -0.100 F  
BRANCH  14  20
HETATM   20  O   UNL     1     -11.804  10.073  70.942  1.00  0.00    -0.311 OA 
BRANCH  20  21
HETATM   21  C   UNL     1     -11.558  10.700  69.734  1.00  0.00    -0.309 A  
HETATM   22  C   UNL     1     -11.810  12.085  69.739  1.00  0.00    -0.401 A  
HETATM   23  C   UNL     1     -11.560  12.877  68.607  1.00  0.00    -0.353 A  
HETATM   24  C   UNL     1     -11.049  12.280  67.452  1.00  0.00    -0.333 A  
HETATM   25  C   UNL     1     -11.826  14.294  68.635  1.00  0.00    -0.344 C  
HETATM   26  C   UNL     1     -10.836  10.901  67.431  1.00  0.00    -0.279 A  
HETATM   27  N   UNL     1     -12.055  15.430  68.654  1.00  0.00    -0.196 NA 
HETATM   28 CL   UNL     1     -10.210  10.160  66.005  1.00  0.00    -0.311 Cl 
HETATM   29  C   UNL     1     -11.111  10.107  68.554  1.00  0.00    -0.266 A  
ENDBRANCH  20  21
ENDBRANCH  14  20
ENDBRANCH   8   9
ENDBRANCH   7   8
TORSDOF 4
ENDMDL
MODEL      119
REMARK 921   NORMALIZED FREE ENERGY PREDICTED BY IDOCK:   -5.79 KCAL/MOL
REMARK 922        TOTAL FREE ENERGY PREDICTED BY IDOCK:   -7.99 KCAL/MOL
REMARK 923 INTER-LIGAND FREE ENERGY PREDICTED BY IDOCK:   -6.93 KCAL/MOL
REMARK 924 INTRA-LIGAND FREE ENERGY PREDICTED BY IDOCK:   -1.06 KCAL/MOL
REMARK 927      BINDING AFFINITY PREDICTED BY RF-SCORE:    0.00 PKD
ROOT
HETATM    1  C   UNL     1     -12.877  13.688  64.971  1.00  0.00    -0.272 C  
HETATM    2  N   UNL     1     -11.704  14.508  65.164  1.00  0.00    -0.365 N  
HETATM    3  C   UNL     1     -11.546  15.732  64.558  1.00  0.00    -0.247 C  
HETATM    4  O   UNL     1     -12.328  16.330  63.839  1.00  0.00    -0.874 OA 
HETATM    5  N   UNL     1     -10.287  16.168  64.937  1.00  0.00    -0.526 NA 
HETATM    6  N   UNL     1      -9.702  15.269  65.777  1.00  0.00    -0.347 NA 
HETATM    7  C   UNL     1     -10.584  14.311  65.887  1.00  0.00    -0.302 C  
ENDROOT
BRANCH   7   8
HETATM    8  C   UNL     1     -10.359  13.169  66.863  1.00  0.00    -0.247 C  
BRANCH   8   9
HETATM    9  N   UNL     1      -9.913  11.854  66.415  1.00  0.00    -0.209 N  
HETATM   10  C   UNL     1     -10.169  11.406  65.129  1.00  0.00    -0.277 C  
HETATM   11  C   UNL     1      -9.521  10.334  64.643  1.00  0.00    -0.351 C  
HETATM   12  C   UNL     1      -8.665   9.531  65.512  1.00  0.00    -0.180 C  
HETATM   13  C   UNL     1      -7.968   8.328  64.953  1.00  0.00    -0.144 C  
HETATM   14  C   UNL     1      -8.485   9.896  66.798  1.00  0.00    -0.125 C  
HETATM   15  C   UNL     1      -8.819  11.322  67.105  1.00  0.00    -0.153 C  
HETATM   16  F   UNL     1      -8.113   8.217  63.606  1.00  0.00    -0.146 F  
HETATM   17  F   UNL     1      -6.628   8.380  65.182  1.00  0.00    -0.059 F  
HETATM   18  O   UNL     1      -8.152  11.956  67.916  1.00  0.00    -0.130 OA 
HETATM   19  F   UNL     1      -8.418   7.168  65.491  1.00  0.00    -0.128 F  
BRANCH  14  20
HETATM   20  O   UNL     1      -7.812   9.088  67.707  1.00  0.00    -0.100 OA 
BRANCH  20  21
HETATM   21  C   UNL     1      -8.433   8.491  68.788  1.00  0.00    -0.123 A  
HETATM   22  C   UNL     1      -7.816   8.750  70.026  1.00  0.00    -0.094 A  
HETATM   23  C   UNL     1      -8.354   8.260  71.228  1.00  0.00    -0.156 A  
HETATM   24  C   UNL     1      -9.526   7.501  71.195  1.00  0.00    -0.163 A  
HETATM   25  C   UNL     1      -7.703   8.537  72.484  1.00  0.00    -0.030 C  
HETATM   26  C   UNL     1     -10.119   7.209  69.965  1.00  0.00    -0.188 A  
HETATM   27  N   UNL     1      -7.172   8.749  73.493  1.00  0.00    -0.365 NA 
HETATM   28 CL   UNL     1     -11.564   6.269  69.920  1.00  0.00    -0.472 Cl 
HETATM   29  C   UNL     1      -9.565   7.677  68.764  1.00  0.00    -0.153 A  
ENDBRANCH  20  21
ENDBRANCH  14  20
ENDBRANCH   8   9
ENDBRANCH   7   8
TORSDOF 4
ENDMDL
MODEL      120
REMARK 921   NORMALIZED FREE ENERGY PREDICTED BY IDOCK:   -5.79 KCAL/MOL
REMARK 922        TOTAL FREE ENERGY PREDICTED BY IDOCK:   -7.98 KCAL/MOL
REMARK 923 INTER-LIGAND FREE ENERGY PREDICTED BY IDOCK:   -6.76 KCAL/MOL
REMARK 924 INTRA-LIGAND FREE ENERGY PREDICTED BY IDOCK:   -1.22 KCAL/MOL
REMARK 927      BINDING AFFINITY PREDICTED BY RF-SCORE:    0.00 PKD
ROOT
HETATM    1  C   UNL     1     -12.322  14.322  70.249  1.00  0.00    -0.354 C  
HETATM    2  N   UNL     1     -12.725  13.063  70.830  1.00  0.00    -0.266 N  
HETATM    3  C   UNL     1     -13.436  12.981  72.004  1.00  0.00    -0.492 C  
HETATM    4  O   UNL     1     -13.868  13.888  72.695  1.00  0.00    -0.666 OA 
HETATM    5  N   UNL     1     -13.573  11.626  72.256  1.00  0.00    -0.140 NA 
HETATM    6  N   UNL     1     -13.004  10.894  71.257  1.00  0.00    -0.403 NA 
HETATM    7  C   UNL     1     -12.526  11.790  70.435  1.00  0.00    -0.197 C  
ENDROOT
BRANCH   7   8
HETATM    8  C   UNL     1     -11.927  11.368  69.104  1.00  0.00    -0.328 C  
BRANCH   8   9
HETATM    9  N   UNL     1     -10.494  11.459  68.845  1.00  0.00    -0.204 N  
HETATM   10  C   UNL     1      -9.605  10.541  69.379  1.00  0.00    -0.148 C  
HETATM   11  C   UNL     1      -8.348  10.465  68.912  1.00  0.00    -0.138 C  
HETATM   12  C   UNL     1      -7.852  11.452  67.957  1.00  0.00    -0.121 C  
HETATM   13  C   UNL     1      -6.439  11.359  67.466  1.00  0.00    -0.074 C  
HETATM   14  C   UNL     1      -8.677  12.417  67.504  1.00  0.00    -0.179 C  
HETATM   15  C   UNL     1     -10.137  12.136  67.674  1.00  0.00    -0.199 C  
HETATM   16  F   UNL     1      -5.814  10.225  67.881  1.00  0.00    -0.042 F  
HETATM   17  F   UNL     1      -6.387  11.339  66.107  1.00  0.00    -0.131 F  
HETATM   18  O   UNL     1     -10.942  12.489  66.819  1.00  0.00    -0.250 OA 
HETATM   19  F   UNL     1      -5.674  12.400  67.878  1.00  0.00    -0.054 F  
BRANCH  14  20
HETATM   20  O   UNL     1      -8.219  13.470  66.719  1.00  0.00    -0.012 OA 
BRANCH  20  21
HETATM   21  C   UNL     1      -8.061  14.756  67.203  1.00  0.00    -0.197 A  
HETATM   22  C   UNL     1      -8.873  15.716  66.571  1.00  0.00    -0.345 A  
HETATM   23  C   UNL     1      -8.871  17.060  66.981  1.00  0.00    -0.242 A  
HETATM   24  C   UNL     1      -8.047  17.452  68.039  1.00  0.00    -0.227 A  
HETATM   25  C   UNL     1      -9.710  18.026  66.318  1.00  0.00    -0.270 C  
HETATM   26  C   UNL     1      -7.211  16.510  68.642  1.00  0.00    -0.186 A  
HETATM   27  N   UNL     1     -10.375  18.805  65.775  1.00  0.00    -0.582 NA 
HETATM   28 CL   UNL     1      -6.189  16.991  69.945  1.00  0.00    -0.200 Cl 
HETATM   29  C   UNL     1      -7.195  15.174  68.213  1.00  0.00    -0.112 A  
ENDBRANCH  20  21
ENDBRANCH  14  20
ENDBRANCH   8   9
ENDBRANCH   7   8
TORSDOF 4
ENDMDL
MODEL      121
REMARK 921   NORMALIZED FREE ENERGY PREDICTED BY IDOCK:   -5.78 KCAL/MOL
REMARK 922        TOTAL FREE ENERGY PREDICTED BY IDOCK:   -7.96 KCAL/MOL
REMARK 923 INTER-LIGAND FREE ENERGY PREDICTED BY IDOCK:   -6.78 KCAL/MOL
REMARK 924 INTRA-LIGAND FREE ENERGY PREDICTED BY IDOCK:   -1.18 KCAL/MOL
REMARK 927      BINDING AFFINITY PREDICTED BY RF-SCORE:    0.00 PKD
ROOT
HETATM    1  C   UNL     1     -13.514  12.733  72.275  1.00  0.00    -0.490 C  
HETATM    2  N   UNL     1     -12.733  12.153  71.209  1.00  0.00    -0.330 N  
HETATM    3  C   UNL     1     -12.237  12.895  70.163  1.00  0.00    -0.266 C  
HETATM    4  O   UNL     1     -12.317  14.098  69.981  1.00  0.00    -0.332 OA 
HETATM    5  N   UNL     1     -11.607  11.983  69.332  1.00  0.00    -0.310 NA 
HETATM    6  N   UNL     1     -11.675  10.729  69.861  1.00  0.00    -0.303 NA 
HETATM    7  C   UNL     1     -12.341  10.885  70.974  1.00  0.00    -0.393 C  
ENDROOT
BRANCH   7   8
HETATM    8  C   UNL     1     -12.509   9.722  71.936  1.00  0.00    -0.366 C  
BRANCH   8   9
HETATM    9  N   UNL     1     -11.602   8.578  71.923  1.00  0.00    -0.316 N  
HETATM   10  C   UNL     1     -10.675   8.382  72.933  1.00  0.00     0.014 C  
HETATM   11  C   UNL     1     -10.051   7.199  73.060  1.00  0.00    -0.267 C  
HETATM   12  C   UNL     1     -10.217   6.163  72.044  1.00  0.00    -0.223 C  
HETATM   13  C   UNL     1      -9.496   4.858  72.197  1.00  0.00    -0.145 C  
HETATM   14  C   UNL     1     -11.039   6.377  70.997  1.00  0.00    -0.294 C  
HETATM   15  C   UNL     1     -12.042   7.470  71.192  1.00  0.00    -0.307 C  
HETATM   16  F   UNL     1      -8.864   4.746  73.396  1.00  0.00    -0.106 F  
HETATM   17  F   UNL     1     -10.354   3.805  72.127  1.00  0.00    -0.244 F  
HETATM   18  O   UNL     1     -13.173   7.366  70.728  1.00  0.00    -0.074 OA 
HETATM   19  F   UNL     1      -8.554   4.668  71.240  1.00  0.00    -0.103 F  
BRANCH  14  20
HETATM   20  O   UNL     1     -11.114   5.495  69.926  1.00  0.00    -0.260 OA 
BRANCH  20  21
HETATM   21  C   UNL     1     -10.542   5.756  68.694  1.00  0.00    -0.235 A  
HETATM   22  C   UNL     1     -10.148   4.606  67.984  1.00  0.00    -0.077 A  
HETATM   23  C   UNL     1      -9.599   4.696  66.694  1.00  0.00    -0.192 A  
HETATM   24  C   UNL     1      -9.440   5.952  66.103  1.00  0.00    -0.131 A  
HETATM   25  C   UNL     1      -9.202   3.505  65.985  1.00  0.00    -0.165 C  
HETATM   26  C   UNL     1      -9.791   7.096  66.821  1.00  0.00    -0.205 A  
HETATM   27  N   UNL     1      -8.870   2.547  65.422  1.00  0.00    -0.122 NA 
HETATM   28 CL   UNL     1      -9.592   8.648  66.097  1.00  0.00    -0.316 Cl 
HETATM   29  C   UNL     1     -10.315   7.006  68.119  1.00  0.00    -0.226 A  
ENDBRANCH  20  21
ENDBRANCH  14  20
ENDBRANCH   8   9
ENDBRANCH   7   8
TORSDOF 4
ENDMDL
MODEL      122
REMARK 921   NORMALIZED FREE ENERGY PREDICTED BY IDOCK:   -5.77 KCAL/MOL
REMARK 922        TOTAL FREE ENERGY PREDICTED BY IDOCK:   -7.96 KCAL/MOL
REMARK 923 INTER-LIGAND FREE ENERGY PREDICTED BY IDOCK:   -7.24 KCAL/MOL
REMARK 924 INTRA-LIGAND FREE ENERGY PREDICTED BY IDOCK:   -0.72 KCAL/MOL
REMARK 927      BINDING AFFINITY PREDICTED BY RF-SCORE:    0.00 PKD
ROOT
HETATM    1  C   UNL     1      -6.982  11.428  66.331  1.00  0.00     0.000 C  
HETATM    2  N   UNL     1      -8.093  10.733  65.725  1.00  0.00    -0.158 N  
HETATM    3  C   UNL     1      -8.067   9.385  65.454  1.00  0.00    -0.118 C  
HETATM    4  O   UNL     1      -7.188   8.578  65.703  1.00  0.00    -0.077 OA 
HETATM    5  N   UNL     1      -9.273   9.114  64.828  1.00  0.00    -0.112 NA 
HETATM    6  N   UNL     1     -10.035  10.241  64.749  1.00  0.00    -0.341 NA 
HETATM    7  C   UNL     1      -9.297  11.168  65.301  1.00  0.00    -0.219 C  
ENDROOT
BRANCH   7   8
HETATM    8  C   UNL     1      -9.859  12.559  65.532  1.00  0.00    -0.183 C  
BRANCH   8   9
HETATM    9  N   UNL     1     -10.289  13.002  66.855  1.00  0.00    -0.244 N  
HETATM   10  C   UNL     1     -10.140  14.319  67.258  1.00  0.00    -0.252 C  
HETATM   11  C   UNL     1     -10.786  14.773  68.345  1.00  0.00    -0.248 C  
HETATM   12  C   UNL     1     -11.519  13.851  69.208  1.00  0.00    -0.348 C  
HETATM   13  C   UNL     1     -12.216  14.376  70.426  1.00  0.00    -0.338 C  
HETATM   14  C   UNL     1     -11.589  12.544  68.884  1.00  0.00    -0.318 C  
HETATM   15  C   UNL     1     -11.288  12.227  67.453  1.00  0.00    -0.325 C  
HETATM   16  F   UNL     1     -12.197  15.734  70.496  1.00  0.00    -0.342 F  
HETATM   17  F   UNL     1     -13.528  14.019  70.440  1.00  0.00    -0.173 F  
HETATM   18  O   UNL     1     -11.900  11.338  66.870  1.00  0.00    -0.423 OA 
HETATM   19  F   UNL     1     -11.667  13.919  71.578  1.00  0.00    -0.242 F  
BRANCH  14  20
HETATM   20  O   UNL     1     -12.137  11.599  69.745  1.00  0.00    -0.304 OA 
BRANCH  20  21
HETATM   21  C   UNL     1     -11.391  10.594  70.332  1.00  0.00    -0.304 A  
HETATM   22  C   UNL     1     -10.087  10.463  69.816  1.00  0.00    -0.201 A  
HETATM   23  C   UNL     1      -9.184   9.525  70.341  1.00  0.00    -0.305 A  
HETATM   24  C   UNL     1      -9.586   8.704  71.398  1.00  0.00    -0.313 A  
HETATM   25  C   UNL     1      -7.854   9.409  69.797  1.00  0.00    -0.115 C  
HETATM   26  C   UNL     1     -10.889   8.803  71.885  1.00  0.00    -0.360 A  
HETATM   27  N   UNL     1      -6.790   9.306  69.348  1.00  0.00    -0.048 NA 
HETATM   28 CL   UNL     1     -11.390   7.789  73.187  1.00  0.00    -0.345 Cl 
HETATM   29  C   UNL     1     -11.799   9.723  71.342  1.00  0.00    -0.488 A  
ENDBRANCH  20  21
ENDBRANCH  14  20
ENDBRANCH   8   9
ENDBRANCH   7   8
TORSDOF 4
ENDMDL
MODEL      123
REMARK 921   NORMALIZED FREE ENERGY PREDICTED BY IDOCK:   -5.76 KCAL/MOL
REMARK 922        TOTAL FREE ENERGY PREDICTED BY IDOCK:   -7.94 KCAL/MOL
REMARK 923 INTER-LIGAND FREE ENERGY PREDICTED BY IDOCK:   -6.66 KCAL/MOL
REMARK 924 INTRA-LIGAND FREE ENERGY PREDICTED BY IDOCK:   -1.28 KCAL/MOL
REMARK 927      BINDING AFFINITY PREDICTED BY RF-SCORE:    0.00 PKD
ROOT
HETATM    1  C   UNL     1     -10.135   8.580  72.108  1.00  0.00    -0.323 C  
HETATM    2  N   UNL     1     -10.460   7.671  71.034  1.00  0.00    -0.210 N  
HETATM    3  C   UNL     1     -11.723   7.158  70.851  1.00  0.00    -0.328 C  
HETATM    4  O   UNL     1     -12.738   7.397  71.484  1.00  0.00    -0.343 OA 
HETATM    5  N   UNL     1     -11.615   6.295  69.774  1.00  0.00    -0.389 NA 
HETATM    6  N   UNL     1     -10.345   6.300  69.281  1.00  0.00    -0.198 NA 
HETATM    7  C   UNL     1      -9.704   7.137  70.054  1.00  0.00    -0.171 C  
ENDROOT
BRANCH   7   8
HETATM    8  C   UNL     1      -8.271   7.527  69.739  1.00  0.00    -0.128 C  
BRANCH   8   9
HETATM    9  N   UNL     1      -7.918   8.883  69.329  1.00  0.00    -0.102 N  
HETATM   10  C   UNL     1      -7.160   9.708  70.145  1.00  0.00    -0.116 C  
HETATM   11  C   UNL     1      -6.609  10.829  69.650  1.00  0.00    -0.114 C  
HETATM   12  C   UNL     1      -6.933  11.278  68.298  1.00  0.00    -0.071 C  
HETATM   13  C   UNL     1      -6.321  12.541  67.775  1.00  0.00    -0.121 C  
HETATM   14  C   UNL     1      -7.751  10.537  67.525  1.00  0.00    -0.098 C  
HETATM   15  C   UNL     1      -7.906   9.110  67.949  1.00  0.00    -0.100 C  
HETATM   16  F   UNL     1      -5.383  13.056  68.613  1.00  0.00    -0.061 F  
HETATM   17  F   UNL     1      -5.688  12.332  66.589  1.00  0.00    -0.110 F  
HETATM   18  O   UNL     1      -8.011   8.219  67.112  1.00  0.00    -0.103 OA 
HETATM   19  F   UNL     1      -7.238  13.518  67.568  1.00  0.00    -0.131 F  
BRANCH  14  20
HETATM   20  O   UNL     1      -8.216  10.990  66.295  1.00  0.00    -0.161 OA 
BRANCH  20  21
HETATM   21  C   UNL     1      -9.491  11.493  66.112  1.00  0.00    -0.220 A  
HETATM   22  C   UNL     1     -10.033  12.124  67.247  1.00  0.00    -0.211 A  
HETATM   23  C   UNL     1     -11.298  12.734  67.211  1.00  0.00    -0.364 A  
HETATM   24  C   UNL     1     -12.033  12.716  66.022  1.00  0.00    -0.478 A  
HETATM   25  C   UNL     1     -11.833  13.374  68.386  1.00  0.00    -0.366 C  
HETATM   26  C   UNL     1     -11.516  12.056  64.907  1.00  0.00    -0.294 A  
HETATM   27  N   UNL     1     -12.269  13.876  69.336  1.00  0.00    -0.335 NA 
HETATM   28 CL   UNL     1     -12.422  12.027  63.440  1.00  0.00    -0.688 Cl 
HETATM   29  C   UNL     1     -10.264  11.424  64.953  1.00  0.00    -0.330 A  
ENDBRANCH  20  21
ENDBRANCH  14  20
ENDBRANCH   8   9
ENDBRANCH   7   8
TORSDOF 4
ENDMDL
MODEL      124
REMARK 921   NORMALIZED FREE ENERGY PREDICTED BY IDOCK:   -5.73 KCAL/MOL
REMARK 922        TOTAL FREE ENERGY PREDICTED BY IDOCK:   -7.91 KCAL/MOL
REMARK 923 INTER-LIGAND FREE ENERGY PREDICTED BY IDOCK:   -6.82 KCAL/MOL
REMARK 924 INTRA-LIGAND FREE ENERGY PREDICTED BY IDOCK:   -1.10 KCAL/MOL
REMARK 927      BINDING AFFINITY PREDICTED BY RF-SCORE:    0.00 PKD
ROOT
HETATM    1  C   UNL     1     -11.394  16.522  68.835  1.00  0.00    -0.206 C  
HETATM    2  N   UNL     1     -10.256  16.715  67.968  1.00  0.00    -0.268 N  
HETATM    3  C   UNL     1     -10.066  17.864  67.236  1.00  0.00    -0.343 C  
HETATM    4  O   UNL     1     -10.746  18.876  67.221  1.00  0.00    -0.445 OA 
HETATM    5  N   UNL     1      -8.915  17.641  66.498  1.00  0.00    -0.276 NA 
HETATM    6  N   UNL     1      -8.389  16.419  66.789  1.00  0.00    -0.221 NA 
HETATM    7  C   UNL     1      -9.212  15.916  67.670  1.00  0.00    -0.208 C  
ENDROOT
BRANCH   7   8
HETATM    8  C   UNL     1      -8.891  14.599  68.356  1.00  0.00    -0.181 C  
BRANCH   8   9
HETATM    9  N   UNL     1      -9.284  13.318  67.777  1.00  0.00    -0.199 N  
HETATM   10  C   UNL     1     -10.025  13.252  66.608  1.00  0.00    -0.272 C  
HETATM   11  C   UNL     1     -10.136  12.091  65.942  1.00  0.00    -0.264 C  
HETATM   12  C   UNL     1      -9.619  10.854  66.520  1.00  0.00    -0.224 C  
HETATM   13  C   UNL     1      -9.772   9.568  65.766  1.00  0.00    -0.287 C  
HETATM   14  C   UNL     1      -8.984  10.884  67.708  1.00  0.00    -0.139 C  
HETATM   15  C   UNL     1      -8.476  12.230  68.122  1.00  0.00    -0.176 C  
HETATM   16  F   UNL     1     -10.266   9.750  64.513  1.00  0.00    -0.264 F  
HETATM   17  F   UNL     1      -8.576   8.939  65.609  1.00  0.00    -0.129 F  
HETATM   18  O   UNL     1      -7.411  12.335  68.722  1.00  0.00    -0.112 OA 
HETATM   19  F   UNL     1     -10.601   8.694  66.389  1.00  0.00    -0.328 F  
BRANCH  14  20
HETATM   20  O   UNL     1      -8.612   9.723  68.377  1.00  0.00    -0.117 OA 
BRANCH  20  21
HETATM   21  C   UNL     1      -9.456   9.049  69.240  1.00  0.00    -0.157 A  
HETATM   22  C   UNL     1      -9.241   7.659  69.292  1.00  0.00    -0.145 A  
HETATM   23  C   UNL     1      -9.979   6.836  70.159  1.00  0.00    -0.191 A  
HETATM   24  C   UNL     1     -10.946   7.409  70.989  1.00  0.00    -0.268 A  
HETATM   25  C   UNL     1      -9.742   5.415  70.194  1.00  0.00    -0.188 C  
HETATM   26  C   UNL     1     -11.189   8.781  70.912  1.00  0.00    -0.270 A  
HETATM   27  N   UNL     1      -9.560   4.270  70.210  1.00  0.00    -0.183 NA 
HETATM   28 CL   UNL     1     -12.385   9.491  71.931  1.00  0.00    -0.455 Cl 
HETATM   29  C   UNL     1     -10.469   9.597  70.026  1.00  0.00    -0.301 A  
ENDBRANCH  20  21
ENDBRANCH  14  20
ENDBRANCH   8   9
ENDBRANCH   7   8
TORSDOF 4
ENDMDL
MODEL      125
REMARK 921   NORMALIZED FREE ENERGY PREDICTED BY IDOCK:   -5.73 KCAL/MOL
REMARK 922        TOTAL FREE ENERGY PREDICTED BY IDOCK:   -7.91 KCAL/MOL
REMARK 923 INTER-LIGAND FREE ENERGY PREDICTED BY IDOCK:   -8.08 KCAL/MOL
REMARK 924 INTRA-LIGAND FREE ENERGY PREDICTED BY IDOCK:    0.17 KCAL/MOL
REMARK 927      BINDING AFFINITY PREDICTED BY RF-SCORE:    0.00 PKD
ROOT
HETATM    1  C   UNL     1      -9.976  11.306  63.933  1.00  0.00    -0.321 C  
HETATM    2  N   UNL     1     -11.061  11.939  64.645  1.00  0.00    -0.312 N  
HETATM    3  C   UNL     1     -12.235  12.309  64.033  1.00  0.00    -0.475 C  
HETATM    4  O   UNL     1     -12.573  12.138  62.874  1.00  0.00    -0.228 OA 
HETATM    5  N   UNL     1     -12.984  12.928  65.020  1.00  0.00    -0.815 NA 
HETATM    6  N   UNL     1     -12.317  12.909  66.208  1.00  0.00    -0.476 NA 
HETATM    7  C   UNL     1     -11.191  12.306  65.936  1.00  0.00    -0.340 C  
ENDROOT
BRANCH   7   8
HETATM    8  C   UNL     1     -10.217  11.961  67.049  1.00  0.00    -0.210 C  
BRANCH   8   9
HETATM    9  N   UNL     1     -10.666  11.369  68.305  1.00  0.00    -0.192 N  
HETATM   10  C   UNL     1     -11.348  12.116  69.251  1.00  0.00    -0.266 C  
HETATM   11  C   UNL     1     -11.996  11.507  70.257  1.00  0.00    -0.455 C  
HETATM   12  C   UNL     1     -11.855  10.068  70.464  1.00  0.00    -0.387 C  
HETATM   13  C   UNL     1     -12.570   9.413  71.606  1.00  0.00    -0.375 C  
HETATM   14  C   UNL     1     -11.108   9.339  69.609  1.00  0.00    -0.116 C  
HETATM   15  C   UNL     1     -10.851   9.983  68.283  1.00  0.00    -0.241 C  
HETATM   16  F   UNL     1     -13.419  10.259  72.248  1.00  0.00    -0.499 F  
HETATM   17  F   UNL     1     -13.333   8.370  71.180  1.00  0.00    -0.284 F  
HETATM   18  O   UNL     1     -10.816   9.307  67.260  1.00  0.00    -0.238 OA 
HETATM   19  F   UNL     1     -11.721   8.926  72.543  1.00  0.00    -0.414 F  
BRANCH  14  20
HETATM   20  O   UNL     1     -10.812   8.001  69.844  1.00  0.00    -0.248 OA 
BRANCH  20  21
HETATM   21  C   UNL     1     -10.027   7.244  68.995  1.00  0.00    -0.177 A  
HETATM   22  C   UNL     1      -8.662   7.214  69.341  1.00  0.00    -0.134 A  
HETATM   23  C   UNL     1      -7.740   6.447  68.611  1.00  0.00    -0.101 A  
HETATM   24  C   UNL     1      -8.184   5.698  67.519  1.00  0.00    -0.101 A  
HETATM   25  C   UNL     1      -6.347   6.433  68.984  1.00  0.00    -0.038 C  
HETATM   26  C   UNL     1      -9.528   5.756  67.149  1.00  0.00    -0.117 A  
HETATM   27  N   UNL     1      -5.225   6.433  69.276  1.00  0.00    -0.012 NA 
HETATM   28 CL   UNL     1     -10.079   4.836  65.799  1.00  0.00    -0.235 Cl 
HETATM   29  C   UNL     1     -10.444   6.544  67.864  1.00  0.00    -0.273 A  
ENDBRANCH  20  21
ENDBRANCH  14  20
ENDBRANCH   8   9
ENDBRANCH   7   8
TORSDOF 4
ENDMDL
MODEL      126
REMARK 921   NORMALIZED FREE ENERGY PREDICTED BY IDOCK:   -5.72 KCAL/MOL
REMARK 922        TOTAL FREE ENERGY PREDICTED BY IDOCK:   -7.89 KCAL/MOL
REMARK 923 INTER-LIGAND FREE ENERGY PREDICTED BY IDOCK:   -6.85 KCAL/MOL
REMARK 924 INTRA-LIGAND FREE ENERGY PREDICTED BY IDOCK:   -1.05 KCAL/MOL
REMARK 927      BINDING AFFINITY PREDICTED BY RF-SCORE:    0.00 PKD
ROOT
HETATM    1  C   UNL     1      -9.099   9.367  64.630  1.00  0.00    -0.173 C  
HETATM    2  N   UNL     1      -9.788  10.423  65.334  1.00  0.00    -0.263 N  
HETATM    3  C   UNL     1     -10.660  11.284  64.710  1.00  0.00    -0.312 C  
HETATM    4  O   UNL     1     -11.024  11.286  63.547  1.00  0.00    -0.381 OA 
HETATM    5  N   UNL     1     -11.059  12.176  65.693  1.00  0.00    -0.306 NA 
HETATM    6  N   UNL     1     -10.488  11.857  66.888  1.00  0.00    -0.217 NA 
HETATM    7  C   UNL     1      -9.754  10.808  66.625  1.00  0.00    -0.190 C  
ENDROOT
BRANCH   7   8
HETATM    8  C   UNL     1      -9.055  10.060  67.746  1.00  0.00    -0.131 C  
BRANCH   8   9
HETATM    9  N   UNL     1      -9.793   9.521  68.884  1.00  0.00    -0.169 N  
HETATM   10  C   UNL     1     -10.180  10.330  69.941  1.00  0.00    -0.202 C  
HETATM   11  C   UNL     1     -11.088   9.895  70.830  1.00  0.00    -0.417 C  
HETATM   12  C   UNL     1     -11.556   8.512  70.793  1.00  0.00    -0.257 C  
HETATM   13  C   UNL     1     -12.554   8.044  71.807  1.00  0.00    -0.325 C  
HETATM   14  C   UNL     1     -11.110   7.680  69.830  1.00  0.00    -0.150 C  
HETATM   15  C   UNL     1     -10.522   8.354  68.631  1.00  0.00    -0.166 C  
HETATM   16  F   UNL     1     -13.031   9.056  72.580  1.00  0.00    -0.460 F  
HETATM   17  F   UNL     1     -13.642   7.484  71.212  1.00  0.00    -0.386 F  
HETATM   18  O   UNL     1     -10.691   7.888  67.509  1.00  0.00    -0.247 OA 
HETATM   19  F   UNL     1     -12.043   7.115  72.652  1.00  0.00    -0.222 F  
BRANCH  14  20
HETATM   20  O   UNL     1     -11.399   6.320  69.838  1.00  0.00    -0.397 OA 
BRANCH  20  21
HETATM   21  C   UNL     1     -10.424   5.345  69.944  1.00  0.00    -0.308 A  
HETATM   22  C   UNL     1     -10.099   4.991  71.267  1.00  0.00    -0.276 A  
HETATM   23  C   UNL     1      -9.166   3.979  71.546  1.00  0.00    -0.190 A  
HETATM   24  C   UNL     1      -8.548   3.308  70.488  1.00  0.00    -0.113 A  
HETATM   25  C   UNL     1      -8.849   3.634  72.909  1.00  0.00    -0.093 C  
HETATM   26  C   UNL     1      -8.837   3.683  69.175  1.00  0.00    -0.102 A  
HETATM   27  N   UNL     1      -8.584   3.368  74.006  1.00  0.00    -0.087 NA 
HETATM   28 CL   UNL     1      -8.072   2.860  67.868  1.00  0.00    -0.072 Cl 
HETATM   29  C   UNL     1      -9.750   4.713  68.900  1.00  0.00    -0.236 A  
ENDBRANCH  20  21
ENDBRANCH  14  20
ENDBRANCH   8   9
ENDBRANCH   7   8
TORSDOF 4
ENDMDL
MODEL      127
REMARK 921   NORMALIZED FREE ENERGY PREDICTED BY IDOCK:   -5.70 KCAL/MOL
REMARK 922        TOTAL FREE ENERGY PREDICTED BY IDOCK:   -7.87 KCAL/MOL
REMARK 923 INTER-LIGAND FREE ENERGY PREDICTED BY IDOCK:   -6.88 KCAL/MOL
REMARK 924 INTRA-LIGAND FREE ENERGY PREDICTED BY IDOCK:   -1.00 KCAL/MOL
REMARK 927      BINDING AFFINITY PREDICTED BY RF-SCORE:    0.00 PKD
ROOT
HETATM    1  C   UNL     1      -7.867   3.155  71.123  1.00  0.00    -0.050 C  
HETATM    2  N   UNL     1      -7.759   4.198  72.114  1.00  0.00    -0.078 N  
HETATM    3  C   UNL     1      -7.239   3.980  73.368  1.00  0.00    -0.069 C  
HETATM    4  O   UNL     1      -6.762   2.955  73.825  1.00  0.00    -0.028 OA 
HETATM    5  N   UNL     1      -7.362   5.190  74.031  1.00  0.00    -0.083 NA 
HETATM    6  N   UNL     1      -7.901   6.133  73.209  1.00  0.00    -0.100 NA 
HETATM    7  C   UNL     1      -8.108   5.500  72.085  1.00  0.00    -0.111 C  
ENDROOT
BRANCH   7   8
HETATM    8  C   UNL     1      -8.580   6.255  70.855  1.00  0.00    -0.135 C  
BRANCH   8   9
HETATM    9  N   UNL     1      -9.821   7.023  70.856  1.00  0.00    -0.185 N  
HETATM   10  C   UNL     1     -11.045   6.416  71.087  1.00  0.00    -0.291 C  
HETATM   11  C   UNL     1     -12.128   7.159  71.365  1.00  0.00    -0.381 C  
HETATM   12  C   UNL     1     -12.072   8.615  71.266  1.00  0.00    -0.333 C  
HETATM   13  C   UNL     1     -13.300   9.422  71.562  1.00  0.00    -0.386 C  
HETATM   14  C   UNL     1     -10.912   9.219  70.942  1.00  0.00    -0.299 C  
HETATM   15  C   UNL     1      -9.685   8.386  71.141  1.00  0.00    -0.186 C  
HETATM   16  F   UNL     1     -14.319   8.667  72.050  1.00  0.00    -0.429 F  
HETATM   17  F   UNL     1     -13.054  10.372  72.503  1.00  0.00    -0.438 F  
HETATM   18  O   UNL     1      -8.641   8.898  71.533  1.00  0.00    -0.234 OA 
HETATM   19  F   UNL     1     -13.778  10.062  70.467  1.00  0.00    -0.347 F  
BRANCH  14  20
HETATM   20  O   UNL     1     -10.837  10.583  70.682  1.00  0.00    -0.173 OA 
BRANCH  20  21
HETATM   21  C   UNL     1     -10.849  11.107  69.402  1.00  0.00    -0.216 A  
HETATM   22  C   UNL     1     -10.336  10.241  68.417  1.00  0.00    -0.202 A  
HETATM   23  C   UNL     1     -10.326  10.602  67.060  1.00  0.00    -0.280 A  
HETATM   24  C   UNL     1     -10.837  11.845  66.678  1.00  0.00    -0.315 A  
HETATM   25  C   UNL     1      -9.795   9.699  66.069  1.00  0.00    -0.274 C  
HETATM   26  C   UNL     1     -11.310  12.721  67.655  1.00  0.00    -0.310 A  
HETATM   27  N   UNL     1      -9.354   8.979  65.275  1.00  0.00    -0.158 NA 
HETATM   28 CL   UNL     1     -11.937  14.258  67.188  1.00  0.00    -0.449 Cl 
HETATM   29  C   UNL     1     -11.294  12.370  69.014  1.00  0.00    -0.336 A  
ENDBRANCH  20  21
ENDBRANCH  14  20
ENDBRANCH   8   9
ENDBRANCH   7   8
TORSDOF 4
ENDMDL
MODEL      128
REMARK 921   NORMALIZED FREE ENERGY PREDICTED BY IDOCK:   -5.70 KCAL/MOL
REMARK 922        TOTAL FREE ENERGY PREDICTED BY IDOCK:   -7.87 KCAL/MOL
REMARK 923 INTER-LIGAND FREE ENERGY PREDICTED BY IDOCK:   -7.67 KCAL/MOL
REMARK 924 INTRA-LIGAND FREE ENERGY PREDICTED BY IDOCK:   -0.19 KCAL/MOL
REMARK 927      BINDING AFFINITY PREDICTED BY RF-SCORE:    0.00 PKD
ROOT
HETATM    1  C   UNL     1     -10.666  15.997  65.455  1.00  0.00    -0.383 C  
HETATM    2  N   UNL     1     -11.108  15.640  66.782  1.00  0.00    -0.235 N  
HETATM    3  C   UNL     1     -10.848  16.418  67.886  1.00  0.00    -0.328 C  
HETATM    4  O   UNL     1     -10.283  17.497  67.938  1.00  0.00    -0.315 OA 
HETATM    5  N   UNL     1     -11.374  15.718  68.959  1.00  0.00    -0.329 NA 
HETATM    6  N   UNL     1     -11.971  14.569  68.535  1.00  0.00    -0.315 NA 
HETATM    7  C   UNL     1     -11.795  14.575  67.240  1.00  0.00    -0.392 C  
ENDROOT
BRANCH   7   8
HETATM    8  C   UNL     1     -12.448  13.512  66.373  1.00  0.00    -0.292 C  
BRANCH   8   9
HETATM    9  N   UNL     1     -11.659  12.506  65.669  1.00  0.00    -0.370 N  
HETATM   10  C   UNL     1     -11.650  12.434  64.286  1.00  0.00    -0.368 C  
HETATM   11  C   UNL     1     -10.718  11.705  63.651  1.00  0.00    -0.500 C  
HETATM   12  C   UNL     1      -9.807  10.850  64.406  1.00  0.00    -0.365 C  
HETATM   13  C   UNL     1      -8.788  10.030  63.674  1.00  0.00    -0.232 C  
HETATM   14  C   UNL     1      -9.869  10.830  65.752  1.00  0.00    -0.240 C  
HETATM   15  C   UNL     1     -10.560  12.003  66.373  1.00  0.00    -0.243 C  
HETATM   16  F   UNL     1      -8.744  10.312  62.345  1.00  0.00    -0.157 F  
HETATM   17  F   UNL     1      -7.533  10.260  64.147  1.00  0.00    -0.138 F  
HETATM   18  O   UNL     1     -10.158  12.472  67.434  1.00  0.00    -0.207 OA 
HETATM   19  F   UNL     1      -9.015   8.698  63.783  1.00  0.00    -0.077 F  
BRANCH  14  20
HETATM   20  O   UNL     1      -9.137   9.924  66.512  1.00  0.00    -0.147 OA 
BRANCH  20  21
HETATM   21  C   UNL     1      -9.709   8.835  67.142  1.00  0.00    -0.191 A  
HETATM   22  C   UNL     1      -9.800   7.683  66.338  1.00  0.00    -0.174 A  
HETATM   23  C   UNL     1     -10.309   6.475  66.845  1.00  0.00    -0.311 A  
HETATM   24  C   UNL     1     -10.733   6.416  68.175  1.00  0.00    -0.359 A  
HETATM   25  C   UNL     1     -10.393   5.309  66.002  1.00  0.00    -0.130 C  
HETATM   26  C   UNL     1     -10.682   7.566  68.962  1.00  0.00    -0.134 A  
HETATM   27  N   UNL     1     -10.473   4.375  65.320  1.00  0.00    -0.234 NA 
HETATM   28 CL   UNL     1     -11.209   7.497  70.603  1.00  0.00    -0.280 Cl 
HETATM   29  C   UNL     1     -10.198   8.778  68.446  1.00  0.00    -0.228 A  
ENDBRANCH  20  21
ENDBRANCH  14  20
ENDBRANCH   8   9
ENDBRANCH   7   8
TORSDOF 4
ENDMDL
MODEL      129
REMARK 921   NORMALIZED FREE ENERGY PREDICTED BY IDOCK:   -5.70 KCAL/MOL
REMARK 922        TOTAL FREE ENERGY PREDICTED BY IDOCK:   -7.86 KCAL/MOL
REMARK 923 INTER-LIGAND FREE ENERGY PREDICTED BY IDOCK:   -6.54 KCAL/MOL
REMARK 924 INTRA-LIGAND FREE ENERGY PREDICTED BY IDOCK:   -1.32 KCAL/MOL
REMARK 927      BINDING AFFINITY PREDICTED BY RF-SCORE:    0.00 PKD
ROOT
HETATM    1  C   UNL     1      -9.731   8.596  71.876  1.00  0.00    -0.313 C  
HETATM    2  N   UNL     1      -9.162   7.531  72.668  1.00  0.00    -0.143 N  
HETATM    3  C   UNL     1      -8.301   7.762  73.714  1.00  0.00    -0.220 C  
HETATM    4  O   UNL     1      -7.925   8.830  74.167  1.00  0.00    -0.387 OA 
HETATM    5  N   UNL     1      -7.935   6.506  74.171  1.00  0.00    -0.113 NA 
HETATM    6  N   UNL     1      -8.574   5.534  73.462  1.00  0.00    -0.115 NA 
HETATM    7  C   UNL     1      -9.294   6.191  72.592  1.00  0.00    -0.146 C  
ENDROOT
BRANCH   7   8
HETATM    8  C   UNL     1     -10.272   5.455  71.694  1.00  0.00    -0.209 C  
BRANCH   8   9
HETATM    9  N   UNL     1     -10.044   5.322  70.258  1.00  0.00    -0.237 N  
HETATM   10  C   UNL     1      -9.377   4.228  69.732  1.00  0.00    -0.161 C  
HETATM   11  C   UNL     1      -9.421   3.977  68.414  1.00  0.00    -0.211 C  
HETATM   12  C   UNL     1     -10.030   4.937  67.498  1.00  0.00    -0.202 C  
HETATM   13  C   UNL     1     -10.050   4.645  66.028  1.00  0.00    -0.264 C  
HETATM   14  C   UNL     1     -10.595   6.061  67.984  1.00  0.00    -0.262 C  
HETATM   15  C   UNL     1     -10.940   6.018  69.440  1.00  0.00    -0.385 C  
HETATM   16  F   UNL     1      -9.607   3.393  65.737  1.00  0.00    -0.166 F  
HETATM   17  F   UNL     1     -11.311   4.723  65.524  1.00  0.00    -0.293 F  
HETATM   18  O   UNL     1     -11.955   6.568  69.855  1.00  0.00    -0.319 OA 
HETATM   19  F   UNL     1      -9.284   5.506  65.315  1.00  0.00    -0.157 F  
BRANCH  14  20
HETATM   20  O   UNL     1     -11.048   7.079  67.153  1.00  0.00    -0.350 OA 
BRANCH  20  21
HETATM   21  C   UNL     1     -10.473   8.336  67.121  1.00  0.00    -0.316 A  
HETATM   22  C   UNL     1      -9.501   8.501  66.115  1.00  0.00    -0.286 A  
HETATM   23  C   UNL     1      -8.860   9.735  65.914  1.00  0.00    -0.175 A  
HETATM   24  C   UNL     1      -9.193  10.821  66.728  1.00  0.00    -0.174 A  
HETATM   25  C   UNL     1      -7.868   9.881  64.879  1.00  0.00    -0.136 C  
HETATM   26  C   UNL     1     -10.126  10.649  67.751  1.00  0.00    -0.174 A  
HETATM   27  N   UNL     1      -7.060   9.993  64.055  1.00  0.00    -0.129 NA 
HETATM   28 CL   UNL     1     -10.537  11.986  68.760  1.00  0.00    -0.248 Cl 
HETATM   29  C   UNL     1     -10.746   9.409  67.967  1.00  0.00    -0.246 A  
ENDBRANCH  20  21
ENDBRANCH  14  20
ENDBRANCH   8   9
ENDBRANCH   7   8
TORSDOF 4
ENDMDL
MODEL      130
REMARK 921   NORMALIZED FREE ENERGY PREDICTED BY IDOCK:   -5.68 KCAL/MOL
REMARK 922        TOTAL FREE ENERGY PREDICTED BY IDOCK:   -7.85 KCAL/MOL
REMARK 923 INTER-LIGAND FREE ENERGY PREDICTED BY IDOCK:   -6.49 KCAL/MOL
REMARK 924 INTRA-LIGAND FREE ENERGY PREDICTED BY IDOCK:   -1.36 KCAL/MOL
REMARK 927      BINDING AFFINITY PREDICTED BY RF-SCORE:    0.00 PKD
ROOT
HETATM    1  C   UNL     1     -10.041   8.564  72.113  1.00  0.00    -0.323 C  
HETATM    2  N   UNL     1      -9.336   7.478  72.752  1.00  0.00    -0.154 N  
HETATM    3  C   UNL     1      -8.428   7.676  73.765  1.00  0.00    -0.212 C  
HETATM    4  O   UNL     1      -8.110   8.721  74.306  1.00  0.00    -0.341 OA 
HETATM    5  N   UNL     1      -7.932   6.417  74.063  1.00  0.00    -0.100 NA 
HETATM    6  N   UNL     1      -8.537   5.470  73.293  1.00  0.00    -0.117 NA 
HETATM    7  C   UNL     1      -9.365   6.147  72.542  1.00  0.00    -0.140 C  
ENDROOT
BRANCH   7   8
HETATM    8  C   UNL     1     -10.339   5.422  71.630  1.00  0.00    -0.218 C  
BRANCH   8   9
HETATM    9  N   UNL     1     -10.072   5.250  70.205  1.00  0.00    -0.237 N  
HETATM   10  C   UNL     1      -9.441   4.115  69.722  1.00  0.00    -0.195 C  
HETATM   11  C   UNL     1      -9.455   3.840  68.407  1.00  0.00    -0.211 C  
HETATM   12  C   UNL     1      -9.988   4.810  67.454  1.00  0.00    -0.204 C  
HETATM   13  C   UNL     1      -9.975   4.489  65.991  1.00  0.00    -0.248 C  
HETATM   14  C   UNL     1     -10.514   5.968  67.901  1.00  0.00    -0.234 C  
HETATM   15  C   UNL     1     -10.907   5.971  69.345  1.00  0.00    -0.363 C  
HETATM   16  F   UNL     1      -9.583   3.212  65.737  1.00  0.00    -0.160 F  
HETATM   17  F   UNL     1     -11.214   4.616  65.444  1.00  0.00    -0.351 F  
HETATM   18  O   UNL     1     -11.907   6.576  69.717  1.00  0.00    -0.345 OA 
HETATM   19  F   UNL     1      -9.146   5.299  65.287  1.00  0.00    -0.158 F  
BRANCH  14  20
HETATM   20  O   UNL     1     -10.891   6.989  67.037  1.00  0.00    -0.348 OA 
BRANCH  20  21
HETATM   21  C   UNL     1     -10.260   8.219  67.005  1.00  0.00    -0.310 A  
HETATM   22  C   UNL     1     -10.964   9.248  67.660  1.00  0.00    -0.071 A  
HETATM   23  C   UNL     1     -10.435  10.545  67.764  1.00  0.00    -0.263 A  
HETATM   24  C   UNL     1      -9.184  10.821  67.206  1.00  0.00    -0.158 A  
HETATM   25  C   UNL     1     -11.174  11.582  68.439  1.00  0.00    -0.255 C  
HETATM   26  C   UNL     1      -8.502   9.814  66.522  1.00  0.00    -0.124 A  
HETATM   27  N   UNL     1     -11.775  12.419  68.969  1.00  0.00    -0.309 NA 
HETATM   28 CL   UNL     1      -6.959  10.152  65.828  1.00  0.00    -0.116 Cl 
HETATM   29  C   UNL     1      -9.044   8.526  66.396  1.00  0.00    -0.229 A  
ENDBRANCH  20  21
ENDBRANCH  14  20
ENDBRANCH   8   9
ENDBRANCH   7   8
TORSDOF 4
ENDMDL
MODEL      131
REMARK 921   NORMALIZED FREE ENERGY PREDICTED BY IDOCK:   -5.67 KCAL/MOL
REMARK 922        TOTAL FREE ENERGY PREDICTED BY IDOCK:   -7.83 KCAL/MOL
REMARK 923 INTER-LIGAND FREE ENERGY PREDICTED BY IDOCK:   -8.03 KCAL/MOL
REMARK 924 INTRA-LIGAND FREE ENERGY PREDICTED BY IDOCK:    0.20 KCAL/MOL
REMARK 927      BINDING AFFINITY PREDICTED BY RF-SCORE:    0.00 PKD
ROOT
HETATM    1  C   UNL     1      -6.489  18.671  65.685  1.00  0.00    -0.276 C  
HETATM    2  N   UNL     1      -7.274  18.861  66.882  1.00  0.00    -0.212 N  
HETATM    3  C   UNL     1      -7.543  20.105  67.403  1.00  0.00    -0.299 C  
HETATM    4  O   UNL     1      -7.236  21.198  66.957  1.00  0.00    -0.368 OA 
HETATM    5  N   UNL     1      -8.257  19.868  68.566  1.00  0.00    -0.222 NA 
HETATM    6  N   UNL     1      -8.458  18.532  68.740  1.00  0.00    -0.287 NA 
HETATM    7  C   UNL     1      -7.865  17.981  67.714  1.00  0.00    -0.223 C  
ENDROOT
BRANCH   7   8
HETATM    8  C   UNL     1      -7.985  16.487  67.470  1.00  0.00    -0.158 C  
BRANCH   8   9
HETATM    9  N   UNL     1      -9.192  15.898  66.898  1.00  0.00    -0.215 N  
HETATM   10  C   UNL     1      -9.423  15.914  65.532  1.00  0.00    -0.054 C  
HETATM   11  C   UNL     1     -10.377  15.134  64.997  1.00  0.00    -0.377 C  
HETATM   12  C   UNL     1     -11.289  14.385  65.858  1.00  0.00    -0.332 C  
HETATM   13  C   UNL     1     -12.358  13.537  65.239  1.00  0.00    -0.467 C  
HETATM   14  C   UNL     1     -11.141  14.439  67.197  1.00  0.00    -0.312 C  
HETATM   15  C   UNL     1      -9.799  14.902  67.669  1.00  0.00    -0.217 C  
HETATM   16  F   UNL     1     -12.244  13.453  63.887  1.00  0.00    -0.447 F  
HETATM   17  F   UNL     1     -12.304  12.258  65.698  1.00  0.00    -0.474 F  
HETATM   18  O   UNL     1      -9.290  14.413  68.673  1.00  0.00    -0.201 OA 
HETATM   19  F   UNL     1     -13.606  13.999  65.497  1.00  0.00    -0.357 F  
BRANCH  14  20
HETATM   20  O   UNL     1     -12.070  13.876  68.065  1.00  0.00    -0.367 OA 
BRANCH  20  21
HETATM   21  C   UNL     1     -11.817  12.733  68.800  1.00  0.00    -0.307 A  
HETATM   22  C   UNL     1     -10.671  12.024  68.391  1.00  0.00    -0.255 A  
HETATM   23  C   UNL     1     -10.245  10.870  69.069  1.00  0.00    -0.219 A  
HETATM   24  C   UNL     1     -10.973  10.414  70.171  1.00  0.00    -0.365 A  
HETATM   25  C   UNL     1      -9.069  10.160  68.632  1.00  0.00    -0.143 C  
HETATM   26  C   UNL     1     -12.132  11.091  70.553  1.00  0.00    -0.377 A  
HETATM   27  N   UNL     1      -8.131   9.582  68.271  1.00  0.00    -0.101 NA 
HETATM   28 CL   UNL     1     -13.036  10.530  71.910  1.00  0.00    -0.571 Cl 
HETATM   29  C   UNL     1     -12.570  12.229  69.859  1.00  0.00     0.173 A  
ENDBRANCH  20  21
ENDBRANCH  14  20
ENDBRANCH   8   9
ENDBRANCH   7   8
TORSDOF 4
ENDMDL
MODEL      132
REMARK 921   NORMALIZED FREE ENERGY PREDICTED BY IDOCK:   -5.65 KCAL/MOL
REMARK 922        TOTAL FREE ENERGY PREDICTED BY IDOCK:   -7.81 KCAL/MOL
REMARK 923 INTER-LIGAND FREE ENERGY PREDICTED BY IDOCK:   -7.32 KCAL/MOL
REMARK 924 INTRA-LIGAND FREE ENERGY PREDICTED BY IDOCK:   -0.49 KCAL/MOL
REMARK 927      BINDING AFFINITY PREDICTED BY RF-SCORE:    0.00 PKD
ROOT
HETATM    1  C   UNL     1     -12.146  14.739  70.758  1.00  0.00    -0.309 C  
HETATM    2  N   UNL     1     -12.445  13.359  71.061  1.00  0.00    -0.371 N  
HETATM    3  C   UNL     1     -13.490  12.987  71.873  1.00  0.00    -0.408 C  
HETATM    4  O   UNL     1     -14.326  13.696  72.409  1.00  0.00    -0.661 OA 
HETATM    5  N   UNL     1     -13.409  11.607  71.966  1.00  0.00    -0.429 NA 
HETATM    6  N   UNL     1     -12.378  11.137  71.208  1.00  0.00    -0.331 NA 
HETATM    7  C   UNL     1     -11.847  12.211  70.686  1.00  0.00     0.032 C  
ENDROOT
BRANCH   7   8
HETATM    8  C   UNL     1     -10.739  12.094  69.654  1.00  0.00     0.378 C  
BRANCH   8   9
HETATM    9  N   UNL     1     -10.870  12.672  68.320  1.00  0.00    -0.229 N  
HETATM   10  C   UNL     1     -12.030  12.517  67.578  1.00  0.00    -0.219 C  
HETATM   11  C   UNL     1     -12.246  13.277  66.492  1.00  0.00    -0.389 C  
HETATM   12  C   UNL     1     -11.197  14.157  65.985  1.00  0.00    -0.319 C  
HETATM   13  C   UNL     1     -11.454  14.981  64.760  1.00  0.00    -0.403 C  
HETATM   14  C   UNL     1     -10.021  14.244  66.639  1.00  0.00    -0.275 C  
HETATM   15  C   UNL     1     -10.049  13.774  68.059  1.00  0.00    -0.245 C  
HETATM   16  F   UNL     1     -12.746  14.910  64.342  1.00  0.00    -0.460 F  
HETATM   17  F   UNL     1     -11.207  16.299  64.987  1.00  0.00    -0.341 F  
HETATM   18  O   UNL     1      -9.384  14.346  68.917  1.00  0.00    -0.183 OA 
HETATM   19  F   UNL     1     -10.683  14.608  63.709  1.00  0.00     0.410 F  
BRANCH  14  20
HETATM   20  O   UNL     1      -8.937  14.942  66.119  1.00  0.00    -0.232 OA 
BRANCH  20  21
HETATM   21  C   UNL     1      -8.366  16.029  66.754  1.00  0.00    -0.270 A  
HETATM   22  C   UNL     1      -9.130  17.209  66.681  1.00  0.00    -0.280 A  
HETATM   23  C   UNL     1      -8.716  18.389  67.320  1.00  0.00    -0.261 A  
HETATM   24  C   UNL     1      -7.522  18.393  68.045  1.00  0.00    -0.263 A  
HETATM   25  C   UNL     1      -9.515  19.586  67.230  1.00  0.00    -0.329 C  
HETATM   26  C   UNL     1      -6.742  17.236  68.087  1.00  0.00    -0.179 A  
HETATM   27  N   UNL     1     -10.150  20.552  67.145  1.00  0.00    -0.378 NA 
HETATM   28 CL   UNL     1      -5.266  17.238  68.977  1.00  0.00    -0.149 Cl 
HETATM   29  C   UNL     1      -7.145  16.066  67.425  1.00  0.00    -0.222 A  
ENDBRANCH  20  21
ENDBRANCH  14  20
ENDBRANCH   8   9
ENDBRANCH   7   8
TORSDOF 4
ENDMDL
MODEL      133
REMARK 921   NORMALIZED FREE ENERGY PREDICTED BY IDOCK:   -5.61 KCAL/MOL
REMARK 922        TOTAL FREE ENERGY PREDICTED BY IDOCK:   -7.76 KCAL/MOL
REMARK 923 INTER-LIGAND FREE ENERGY PREDICTED BY IDOCK:   -7.39 KCAL/MOL
REMARK 924 INTRA-LIGAND FREE ENERGY PREDICTED BY IDOCK:   -0.37 KCAL/MOL
REMARK 927      BINDING AFFINITY PREDICTED BY RF-SCORE:    0.00 PKD
ROOT
HETATM    1  C   UNL     1      -9.318   6.974  72.602  1.00  0.00    -0.138 C  
HETATM    2  N   UNL     1     -10.669   7.139  72.121  1.00  0.00    -0.210 N  
HETATM    3  C   UNL     1     -11.670   6.237  72.395  1.00  0.00    -0.257 C  
HETATM    4  O   UNL     1     -11.619   5.233  73.085  1.00  0.00    -0.297 OA 
HETATM    5  N   UNL     1     -12.783   6.708  71.718  1.00  0.00    -0.315 NA 
HETATM    6  N   UNL     1     -12.495   7.877  71.080  1.00  0.00    -0.253 NA 
HETATM    7  C   UNL     1     -11.237   8.094  71.357  1.00  0.00    -0.254 C  
ENDROOT
BRANCH   7   8
HETATM    8  C   UNL     1     -10.571   9.392  70.935  1.00  0.00    -0.320 C  
BRANCH   8   9
HETATM    9  N   UNL     1      -9.777   9.485  69.714  1.00  0.00    -0.199 N  
HETATM   10  C   UNL     1      -9.189   8.364  69.150  1.00  0.00    -0.150 C  
HETATM   11  C   UNL     1      -8.709   8.410  67.896  1.00  0.00    -0.138 C  
HETATM   12  C   UNL     1      -8.651   9.676  67.172  1.00  0.00    -0.133 C  
HETATM   13  C   UNL     1      -8.093   9.706  65.781  1.00  0.00    -0.113 C  
HETATM   14  C   UNL     1      -9.127  10.799  67.747  1.00  0.00    -0.151 C  
HETATM   15  C   UNL     1     -10.067  10.577  68.890  1.00  0.00    -0.202 C  
HETATM   16  F   UNL     1      -7.835   8.464  65.293  1.00  0.00    -0.090 F  
HETATM   17  F   UNL     1      -8.966  10.277  64.908  1.00  0.00    -0.165 F  
HETATM   18  O   UNL     1     -11.025  11.324  69.061  1.00  0.00    -0.209 OA 
HETATM   19  F   UNL     1      -6.935  10.406  65.699  1.00  0.00    -0.113 F  
BRANCH  14  20
HETATM   20  O   UNL     1      -8.956  12.053  67.172  1.00  0.00    -0.173 OA 
BRANCH  20  21
HETATM   21  C   UNL     1      -9.918  12.657  66.384  1.00  0.00    -0.255 A  
HETATM   22  C   UNL     1      -9.817  14.060  66.319  1.00  0.00    -0.318 A  
HETATM   23  C   UNL     1     -10.686  14.819  65.519  1.00  0.00    -0.369 A  
HETATM   24  C   UNL     1     -11.672  14.170  64.771  1.00  0.00    -0.416 A  
HETATM   25  C   UNL     1     -10.564  16.255  65.469  1.00  0.00    -0.353 C  
HETATM   26  C   UNL     1     -11.801  12.784  64.863  1.00  0.00    -0.379 A  
HETATM   27  N   UNL     1     -10.474  17.410  65.441  1.00  0.00    -0.651 NA 
HETATM   28 CL   UNL     1     -13.018  11.980  63.945  1.00  0.00    -0.427 Cl 
HETATM   29  C   UNL     1     -10.948  12.029  65.684  1.00  0.00    -0.343 A  
ENDBRANCH  20  21
ENDBRANCH  14  20
ENDBRANCH   8   9
ENDBRANCH   7   8
TORSDOF 4
ENDMDL
MODEL      134
REMARK 921   NORMALIZED FREE ENERGY PREDICTED BY IDOCK:   -5.60 KCAL/MOL
REMARK 922        TOTAL FREE ENERGY PREDICTED BY IDOCK:   -7.75 KCAL/MOL
REMARK 923 INTER-LIGAND FREE ENERGY PREDICTED BY IDOCK:   -7.29 KCAL/MOL
REMARK 924 INTRA-LIGAND FREE ENERGY PREDICTED BY IDOCK:   -0.46 KCAL/MOL
REMARK 927      BINDING AFFINITY PREDICTED BY RF-SCORE:    0.00 PKD
ROOT
HETATM    1  C   UNL     1      -5.225  18.290  66.723  1.00  0.00    -0.136 C  
HETATM    2  N   UNL     1      -6.292  19.097  67.266  1.00  0.00    -0.184 N  
HETATM    3  C   UNL     1      -6.457  20.423  66.944  1.00  0.00    -0.225 C  
HETATM    4  O   UNL     1      -5.813  21.100  66.161  1.00  0.00    -0.239 OA 
HETATM    5  N   UNL     1      -7.533  20.853  67.703  1.00  0.00    -0.248 NA 
HETATM    6  N   UNL     1      -8.042  19.824  68.437  1.00  0.00    -0.306 NA 
HETATM    7  C   UNL     1      -7.279  18.806  68.136  1.00  0.00    -0.252 C  
ENDROOT
BRANCH   7   8
HETATM    8  C   UNL     1      -7.612  17.418  68.655  1.00  0.00    -0.265 C  
BRANCH   8   9
HETATM    9  N   UNL     1      -8.662  16.605  68.049  1.00  0.00    -0.191 N  
HETATM   10  C   UNL     1      -9.681  17.180  67.306  1.00  0.00    -0.254 C  
HETATM   11  C   UNL     1     -10.466  16.417  66.529  1.00  0.00    -0.282 C  
HETATM   12  C   UNL     1     -10.366  14.961  66.579  1.00  0.00    -0.295 C  
HETATM   13  C   UNL     1     -11.266  14.129  65.717  1.00  0.00    -0.312 C  
HETATM   14  C   UNL     1      -9.446  14.380  67.375  1.00  0.00    -0.207 C  
HETATM   15  C   UNL     1      -8.321  15.272  67.801  1.00  0.00    -0.153 C  
HETATM   16  F   UNL     1     -11.996  14.877  64.847  1.00  0.00    -0.365 F  
HETATM   17  F   UNL     1     -10.554  13.256  64.954  1.00  0.00    -0.295 F  
HETATM   18  O   UNL     1      -7.183  14.828  67.911  1.00  0.00    -0.123 OA 
HETATM   19  F   UNL     1     -12.149  13.397  66.439  1.00  0.00    -0.390 F  
BRANCH  14  20
HETATM   20  O   UNL     1      -9.409  13.006  67.581  1.00  0.00    -0.188 OA 
BRANCH  20  21
HETATM   21  C   UNL     1     -10.242  12.356  68.473  1.00  0.00    -0.205 A  
HETATM   22  C   UNL     1     -11.099  13.211  69.193  1.00  0.00    -0.248 A  
HETATM   23  C   UNL     1     -12.044  12.704  70.100  1.00  0.00    -0.368 A  
HETATM   24  C   UNL     1     -12.137  11.323  70.293  1.00  0.00    -0.459 A  
HETATM   25  C   UNL     1     -12.910  13.598  70.826  1.00  0.00    -0.202 C  
HETATM   26  C   UNL     1     -11.262  10.476  69.612  1.00  0.00    -0.282 A  
HETATM   27  N   UNL     1     -13.597  14.320  71.420  1.00  0.00    -0.346 NA 
HETATM   28 CL   UNL     1     -11.370   8.772  69.851  1.00  0.00    -0.053 Cl 
HETATM   29  C   UNL     1     -10.301  10.986  68.725  1.00  0.00    -0.217 A  
ENDBRANCH  20  21
ENDBRANCH  14  20
ENDBRANCH   8   9
ENDBRANCH   7   8
TORSDOF 4
ENDMDL
MODEL      135
REMARK 921   NORMALIZED FREE ENERGY PREDICTED BY IDOCK:   -5.59 KCAL/MOL
REMARK 922        TOTAL FREE ENERGY PREDICTED BY IDOCK:   -7.74 KCAL/MOL
REMARK 923 INTER-LIGAND FREE ENERGY PREDICTED BY IDOCK:   -6.80 KCAL/MOL
REMARK 924 INTRA-LIGAND FREE ENERGY PREDICTED BY IDOCK:   -0.93 KCAL/MOL
REMARK 927      BINDING AFFINITY PREDICTED BY RF-SCORE:    0.00 PKD
ROOT
HETATM    1  C   UNL     1     -11.645   6.240  70.230  1.00  0.00    -0.309 C  
HETATM    2  N   UNL     1     -11.062   6.088  71.543  1.00  0.00    -0.278 N  
HETATM    3  C   UNL     1     -10.284   5.009  71.889  1.00  0.00    -0.204 C  
HETATM    4  O   UNL     1      -9.926   4.075  71.191  1.00  0.00    -0.188 OA 
HETATM    5  N   UNL     1      -9.972   5.196  73.226  1.00  0.00    -0.156 NA 
HETATM    6  N   UNL     1     -10.503   6.366  73.681  1.00  0.00    -0.275 NA 
HETATM    7  C   UNL     1     -11.129   6.859  72.646  1.00  0.00    -0.270 C  
ENDROOT
BRANCH   7   8
HETATM    8  C   UNL     1     -11.745   8.246  72.712  1.00  0.00    -0.236 C  
BRANCH   8   9
HETATM    9  N   UNL     1     -11.749   9.138  71.557  1.00  0.00    -0.336 N  
HETATM   10  C   UNL     1     -12.827   9.967  71.290  1.00  0.00    -0.402 C  
HETATM   11  C   UNL     1     -12.707  10.972  70.407  1.00  0.00    -0.297 C  
HETATM   12  C   UNL     1     -11.499  11.105  69.597  1.00  0.00    -0.383 C  
HETATM   13  C   UNL     1     -11.396  12.222  68.603  1.00  0.00    -0.291 C  
HETATM   14  C   UNL     1     -10.478  10.242  69.772  1.00  0.00    -0.259 C  
HETATM   15  C   UNL     1     -10.488   9.502  71.072  1.00  0.00    -0.306 C  
HETATM   16  F   UNL     1     -12.431  13.099  68.691  1.00  0.00    -0.246 F  
HETATM   17  F   UNL     1     -10.267  12.955  68.797  1.00  0.00    -0.233 F  
HETATM   18  O   UNL     1      -9.437   9.248  71.652  1.00  0.00    -0.294 OA 
HETATM   19  F   UNL     1     -11.368  11.779  67.322  1.00  0.00    -0.300 F  
BRANCH  14  20
HETATM   20  O   UNL     1      -9.374  10.223  68.926  1.00  0.00    -0.159 OA 
BRANCH  20  21
HETATM   21  C   UNL     1      -9.252   9.342  67.868  1.00  0.00    -0.129 A  
HETATM   22  C   UNL     1      -8.414   9.796  66.831  1.00  0.00    -0.120 A  
HETATM   23  C   UNL     1      -8.143   8.997  65.708  1.00  0.00    -0.109 A  
HETATM   24  C   UNL     1      -8.714   7.726  65.618  1.00  0.00    -0.132 A  
HETATM   25  C   UNL     1      -7.282   9.483  64.658  1.00  0.00    -0.113 C  
HETATM   26  C   UNL     1      -9.576   7.289  66.624  1.00  0.00    -0.178 A  
HETATM   27  N   UNL     1      -6.602   9.881  63.808  1.00  0.00    -0.121 NA 
HETATM   28 CL   UNL     1     -10.287   5.722  66.514  1.00  0.00    -0.270 Cl 
HETATM   29  C   UNL     1      -9.868   8.099  67.732  1.00  0.00    -0.209 A  
ENDBRANCH  20  21
ENDBRANCH  14  20
ENDBRANCH   8   9
ENDBRANCH   7   8
TORSDOF 4
ENDMDL
MODEL      136
REMARK 921   NORMALIZED FREE ENERGY PREDICTED BY IDOCK:   -5.58 KCAL/MOL
REMARK 922        TOTAL FREE ENERGY PREDICTED BY IDOCK:   -7.73 KCAL/MOL
REMARK 923 INTER-LIGAND FREE ENERGY PREDICTED BY IDOCK:   -6.50 KCAL/MOL
REMARK 924 INTRA-LIGAND FREE ENERGY PREDICTED BY IDOCK:   -1.23 KCAL/MOL
REMARK 927      BINDING AFFINITY PREDICTED BY RF-SCORE:    0.00 PKD
ROOT
HETATM    1  C   UNL     1     -11.517  10.332  70.871  1.00  0.00    -0.339 C  
HETATM    2  N   UNL     1     -11.498  11.529  70.063  1.00  0.00    -0.261 N  
HETATM    3  C   UNL     1     -12.276  12.627  70.346  1.00  0.00    -0.288 C  
HETATM    4  O   UNL     1     -13.031  12.801  71.287  1.00  0.00    -0.321 OA 
HETATM    5  N   UNL     1     -12.023  13.527  69.323  1.00  0.00    -0.331 NA 
HETATM    6  N   UNL     1     -11.096  13.024  68.461  1.00  0.00    -0.253 NA 
HETATM    7  C   UNL     1     -10.810  11.846  68.948  1.00  0.00    -0.221 C  
ENDROOT
BRANCH   7   8
HETATM    8  C   UNL     1      -9.697  11.013  68.337  1.00  0.00    -0.180 C  
BRANCH   8   9
HETATM    9  N   UNL     1      -9.872   9.593  68.047  1.00  0.00    -0.146 N  
HETATM   10  C   UNL     1     -10.391   9.164  66.836  1.00  0.00    -0.251 C  
HETATM   11  C   UNL     1     -10.285   7.876  66.472  1.00  0.00    -0.212 C  
HETATM   12  C   UNL     1      -9.772   6.881  67.411  1.00  0.00    -0.172 C  
HETATM   13  C   UNL     1      -9.682   5.447  66.989  1.00  0.00    -0.149 C  
HETATM   14  C   UNL     1      -9.357   7.268  68.634  1.00  0.00    -0.138 C  
HETATM   15  C   UNL     1      -9.046   8.725  68.768  1.00  0.00    -0.138 C  
HETATM   16  F   UNL     1      -9.965   5.268  65.671  1.00  0.00    -0.165 F  
HETATM   17  F   UNL     1      -8.427   4.954  67.172  1.00  0.00    -0.106 F  
HETATM   18  O   UNL     1      -8.114   9.100  69.472  1.00  0.00    -0.097 OA 
HETATM   19  F   UNL     1     -10.527   4.645  67.682  1.00  0.00    -0.152 F  
BRANCH  14  20
HETATM   20  O   UNL     1      -9.008   6.350  69.619  1.00  0.00    -0.136 OA 
BRANCH  20  21
HETATM   21  C   UNL     1      -9.822   6.059  70.698  1.00  0.00    -0.181 A  
HETATM   22  C   UNL     1     -11.078   6.694  70.664  1.00  0.00    -0.349 A  
HETATM   23  C   UNL     1     -12.042   6.462  71.659  1.00  0.00    -0.319 A  
HETATM   24  C   UNL     1     -11.750   5.581  72.703  1.00  0.00    -0.240 A  
HETATM   25  C   UNL     1     -13.321   7.125  71.604  1.00  0.00    -0.331 C  
HETATM   26  C   UNL     1     -10.492   4.980  72.761  1.00  0.00    -0.211 A  
HETATM   27  N   UNL     1     -14.344   7.669  71.566  1.00  0.00    -0.453 NA 
HETATM   28 CL   UNL     1     -10.127   3.896  74.051  1.00  0.00    -0.177 Cl 
HETATM   29  C   UNL     1      -9.521   5.234  71.781  1.00  0.00    -0.183 A  
ENDBRANCH  20  21
ENDBRANCH  14  20
ENDBRANCH   8   9
ENDBRANCH   7   8
TORSDOF 4
ENDMDL
MODEL      137
REMARK 921   NORMALIZED FREE ENERGY PREDICTED BY IDOCK:   -5.57 KCAL/MOL
REMARK 922        TOTAL FREE ENERGY PREDICTED BY IDOCK:   -7.71 KCAL/MOL
REMARK 923 INTER-LIGAND FREE ENERGY PREDICTED BY IDOCK:   -7.42 KCAL/MOL
REMARK 924 INTRA-LIGAND FREE ENERGY PREDICTED BY IDOCK:   -0.29 KCAL/MOL
REMARK 927      BINDING AFFINITY PREDICTED BY RF-SCORE:    0.00 PKD
ROOT
HETATM    1  C   UNL     1      -7.797  17.096  66.211  1.00  0.00    -0.316 C  
HETATM    2  N   UNL     1      -9.047  17.046  66.932  1.00  0.00    -0.228 N  
HETATM    3  C   UNL     1      -9.540  18.118  67.639  1.00  0.00    -0.278 C  
HETATM    4  O   UNL     1      -9.075  19.240  67.739  1.00  0.00    -0.295 OA 
HETATM    5  N   UNL     1     -10.707  17.661  68.229  1.00  0.00    -0.331 NA 
HETATM    6  N   UNL     1     -10.950  16.369  67.872  1.00  0.00    -0.328 NA 
HETATM    7  C   UNL     1      -9.946  16.055  67.098  1.00  0.00    -0.249 C  
ENDROOT
BRANCH   7   8
HETATM    8  C   UNL     1      -9.923  14.720  66.375  1.00  0.00    -0.277 C  
BRANCH   8   9
HETATM    9  N   UNL     1      -9.302  13.539  66.966  1.00  0.00    -0.239 N  
HETATM   10  C   UNL     1      -7.943  13.497  67.235  1.00  0.00    -0.112 C  
HETATM   11  C   UNL     1      -7.438  12.536  68.026  1.00  0.00    -0.117 C  
HETATM   12  C   UNL     1      -8.280  11.431  68.477  1.00  0.00    -0.153 C  
HETATM   13  C   UNL     1      -7.689  10.360  69.342  1.00  0.00    -0.158 C  
HETATM   14  C   UNL     1      -9.584  11.402  68.138  1.00  0.00    -0.190 C  
HETATM   15  C   UNL     1     -10.157  12.715  67.705  1.00  0.00    -0.218 C  
HETATM   16  F   UNL     1      -6.420  10.644  69.736  1.00  0.00    -0.056 F  
HETATM   17  F   UNL     1      -8.407  10.193  70.485  1.00  0.00    -0.134 F  
HETATM   18  O   UNL     1     -11.308  13.019  68.000  1.00  0.00    -0.256 OA 
HETATM   19  F   UNL     1      -7.645   9.155  68.722  1.00  0.00    -0.078 F  
BRANCH  14  20
HETATM   20  O   UNL     1     -10.392  10.302  68.406  1.00  0.00    -0.162 OA 
BRANCH  20  21
HETATM   21  C   UNL     1     -11.166  10.197  69.547  1.00  0.00    -0.238 A  
HETATM   22  C   UNL     1     -11.231   8.898  70.084  1.00  0.00    -0.175 A  
HETATM   23  C   UNL     1     -11.933   8.632  71.271  1.00  0.00    -0.339 A  
HETATM   24  C   UNL     1     -12.580   9.678  71.934  1.00  0.00    -0.481 A  
HETATM   25  C   UNL     1     -11.987   7.293  71.803  1.00  0.00    -0.307 C  
HETATM   26  C   UNL     1     -12.551  10.960  71.382  1.00  0.00    -0.403 A  
HETATM   27  N   UNL     1     -12.041   6.213  72.221  1.00  0.00    -0.266 NA 
HETATM   28 CL   UNL     1     -13.352  12.253  72.194  1.00  0.00    -0.587 Cl 
HETATM   29  C   UNL     1     -11.872  11.218  70.182  1.00  0.00    -0.449 A  
ENDBRANCH  20  21
ENDBRANCH  14  20
ENDBRANCH   8   9
ENDBRANCH   7   8
TORSDOF 4
ENDMDL
MODEL      138
REMARK 921   NORMALIZED FREE ENERGY PREDICTED BY IDOCK:   -5.57 KCAL/MOL
REMARK 922        TOTAL FREE ENERGY PREDICTED BY IDOCK:   -7.71 KCAL/MOL
REMARK 923 INTER-LIGAND FREE ENERGY PREDICTED BY IDOCK:   -7.72 KCAL/MOL
REMARK 924 INTRA-LIGAND FREE ENERGY PREDICTED BY IDOCK:    0.02 KCAL/MOL
REMARK 927      BINDING AFFINITY PREDICTED BY RF-SCORE:    0.00 PKD
ROOT
HETATM    1  C   UNL     1      -6.226  17.984  66.766  1.00  0.00    -0.169 C  
HETATM    2  N   UNL     1      -7.409  18.297  67.533  1.00  0.00    -0.208 N  
HETATM    3  C   UNL     1      -7.750  19.583  67.880  1.00  0.00    -0.289 C  
HETATM    4  O   UNL     1      -7.187  20.624  67.585  1.00  0.00    -0.316 OA 
HETATM    5  N   UNL     1      -8.894  19.462  68.652  1.00  0.00    -0.377 NA 
HETATM    6  N   UNL     1      -9.271  18.157  68.748  1.00  0.00    -0.274 NA 
HETATM    7  C   UNL     1      -8.367  17.510  68.061  1.00  0.00    -0.241 C  
ENDROOT
BRANCH   7   8
HETATM    8  C   UNL     1      -8.515  16.019  67.811  1.00  0.00    -0.161 C  
BRANCH   8   9
HETATM    9  N   UNL     1      -9.612  15.482  67.011  1.00  0.00    -0.220 N  
HETATM   10  C   UNL     1     -10.156  16.201  65.958  1.00  0.00    -0.351 C  
HETATM   11  C   UNL     1     -10.955  15.594  65.065  1.00  0.00    -0.445 C  
HETATM   12  C   UNL     1     -11.393  14.218  65.279  1.00  0.00    -0.336 C  
HETATM   13  C   UNL     1     -12.301  13.569  64.279  1.00  0.00    -0.335 C  
HETATM   14  C   UNL     1     -10.953  13.535  66.356  1.00  0.00    -0.293 C  
HETATM   15  C   UNL     1      -9.719  14.088  66.997  1.00  0.00    -0.256 C  
HETATM   16  F   UNL     1     -12.492  14.333  63.171  1.00  0.00    -0.235 F  
HETATM   17  F   UNL     1     -11.788  12.389  63.837  1.00  0.00    -0.393 F  
HETATM   18  O   UNL     1      -8.873  13.335  67.468  1.00  0.00    -0.184 OA 
HETATM   19  F   UNL     1     -13.529  13.302  64.786  1.00  0.00    -0.066 F  
BRANCH  14  20
HETATM   20  O   UNL     1     -11.457  12.284  66.692  1.00  0.00    -0.335 OA 
BRANCH  20  21
HETATM   21  C   UNL     1     -10.760  11.109  66.477  1.00  0.00    -0.260 A  
HETATM   22  C   UNL     1     -10.143  11.026  65.214  1.00  0.00    -0.332 A  
HETATM   23  C   UNL     1      -9.353   9.920  64.858  1.00  0.00    -0.329 A  
HETATM   24  C   UNL     1      -9.175   8.882  65.775  1.00  0.00    -0.283 A  
HETATM   25  C   UNL     1      -8.731   9.856  63.559  1.00  0.00    -0.214 C  
HETATM   26  C   UNL     1      -9.818   8.942  67.012  1.00  0.00    -0.214 A  
HETATM   27  N   UNL     1      -8.244   9.800  62.508  1.00  0.00    -0.128 NA 
HETATM   28 CL   UNL     1      -9.604   7.660  68.145  1.00  0.00    -0.153 Cl 
HETATM   29  C   UNL     1     -10.628  10.035  67.356  1.00  0.00    -0.330 A  
ENDBRANCH  20  21
ENDBRANCH  14  20
ENDBRANCH   8   9
ENDBRANCH   7   8
TORSDOF 4
ENDMDL
MODEL      139
REMARK 921   NORMALIZED FREE ENERGY PREDICTED BY IDOCK:   -5.56 KCAL/MOL
REMARK 922        TOTAL FREE ENERGY PREDICTED BY IDOCK:   -7.70 KCAL/MOL
REMARK 923 INTER-LIGAND FREE ENERGY PREDICTED BY IDOCK:   -6.64 KCAL/MOL
REMARK 924 INTRA-LIGAND FREE ENERGY PREDICTED BY IDOCK:   -1.05 KCAL/MOL
REMARK 927      BINDING AFFINITY PREDICTED BY RF-SCORE:    0.00 PKD
ROOT
HETATM    1  C   UNL     1      -9.255   2.946  66.420  1.00  0.00    -0.099 C  
HETATM    2  N   UNL     1      -8.910   4.292  66.028  1.00  0.00    -0.117 N  
HETATM    3  C   UNL     1      -8.810   4.680  64.713  1.00  0.00    -0.152 C  
HETATM    4  O   UNL     1      -9.026   4.023  63.709  1.00  0.00    -0.114 OA 
HETATM    5  N   UNL     1      -8.407   6.005  64.752  1.00  0.00    -0.120 NA 
HETATM    6  N   UNL     1      -8.299   6.434  66.040  1.00  0.00    -0.126 NA 
HETATM    7  C   UNL     1      -8.617   5.388  66.756  1.00  0.00    -0.110 C  
ENDROOT
BRANCH   7   8
HETATM    8  C   UNL     1      -8.752   5.503  68.264  1.00  0.00    -0.098 C  
BRANCH   8   9
HETATM    9  N   UNL     1      -9.761   6.358  68.881  1.00  0.00    -0.126 N  
HETATM   10  C   UNL     1     -10.882   5.823  69.493  1.00  0.00    -0.340 C  
HETATM   11  C   UNL     1     -11.647   6.586  70.292  1.00  0.00    -0.473 C  
HETATM   12  C   UNL     1     -11.405   8.022  70.396  1.00  0.00    -0.190 C  
HETATM   13  C   UNL     1     -12.283   8.856  71.279  1.00  0.00    -0.299 C  
HETATM   14  C   UNL     1     -10.377   8.578  69.724  1.00  0.00    -0.212 C  
HETATM   15  C   UNL     1      -9.315   7.621  69.284  1.00  0.00    -0.148 C  
HETATM   16  F   UNL     1     -13.144   8.108  72.019  1.00  0.00    -0.311 F  
HETATM   17  F   UNL     1     -11.551   9.576  72.170  1.00  0.00    -0.422 F  
HETATM   18  O   UNL     1      -8.134   7.955  69.293  1.00  0.00    -0.121 OA 
HETATM   19  F   UNL     1     -13.037   9.739  70.579  1.00  0.00    -0.260 F  
BRANCH  14  20
HETATM   20  O   UNL     1     -10.195   9.955  69.662  1.00  0.00    -0.206 OA 
BRANCH  20  21
HETATM   21  C   UNL     1     -10.416  10.692  68.513  1.00  0.00    -0.191 A  
HETATM   22  C   UNL     1      -9.927  10.092  67.337  1.00  0.00    -0.238 A  
HETATM   23  C   UNL     1     -10.117  10.687  66.079  1.00  0.00    -0.308 A  
HETATM   24  C   UNL     1     -10.808  11.899  65.992  1.00  0.00    -0.342 A  
HETATM   25  C   UNL     1      -9.607  10.055  64.888  1.00  0.00    -0.310 C  
HETATM   26  C   UNL     1     -11.260  12.515  67.159  1.00  0.00    -0.300 A  
HETATM   27  N   UNL     1      -9.183   9.553  63.933  1.00  0.00    -0.145 NA 
HETATM   28 CL   UNL     1     -12.108  14.013  67.055  1.00  0.00    -0.473 Cl 
HETATM   29  C   UNL     1     -11.045  11.933  68.417  1.00  0.00    -0.292 A  
ENDBRANCH  20  21
ENDBRANCH  14  20
ENDBRANCH   8   9
ENDBRANCH   7   8
TORSDOF 4
ENDMDL
MODEL      140
REMARK 921   NORMALIZED FREE ENERGY PREDICTED BY IDOCK:   -5.53 KCAL/MOL
REMARK 922        TOTAL FREE ENERGY PREDICTED BY IDOCK:   -7.66 KCAL/MOL
REMARK 923 INTER-LIGAND FREE ENERGY PREDICTED BY IDOCK:   -7.43 KCAL/MOL
REMARK 924 INTRA-LIGAND FREE ENERGY PREDICTED BY IDOCK:   -0.24 KCAL/MOL
REMARK 927      BINDING AFFINITY PREDICTED BY RF-SCORE:    0.00 PKD
ROOT
HETATM    1  C   UNL     1      -9.878  14.703  66.461  1.00  0.00    -0.275 C  
HETATM    2  N   UNL     1     -11.035  14.076  65.868  1.00  0.00    -0.284 N  
HETATM    3  C   UNL     1     -11.736  14.642  64.830  1.00  0.00    -0.428 C  
HETATM    4  O   UNL     1     -11.500  15.676  64.228  1.00  0.00    -0.347 OA 
HETATM    5  N   UNL     1     -12.794  13.780  64.589  1.00  0.00    -0.667 NA 
HETATM    6  N   UNL     1     -12.730  12.701  65.419  1.00  0.00    -0.582 NA 
HETATM    7  C   UNL     1     -11.668  12.919  66.149  1.00  0.00    -0.396 C  
ENDROOT
BRANCH   7   8
HETATM    8  C   UNL     1     -11.171  11.859  67.116  1.00  0.00    -0.319 C  
BRANCH   8   9
HETATM    9  N   UNL     1     -10.645  10.581  66.649  1.00  0.00    -0.226 N  
HETATM   10  C   UNL     1      -9.752  10.512  65.592  1.00  0.00    -0.234 C  
HETATM   11  C   UNL     1      -9.066   9.381  65.357  1.00  0.00    -0.280 C  
HETATM   12  C   UNL     1      -9.368   8.164  66.105  1.00  0.00    -0.232 C  
HETATM   13  C   UNL     1      -8.602   6.909  65.812  1.00  0.00    -0.131 C  
HETATM   14  C   UNL     1     -10.308   8.187  67.070  1.00  0.00    -0.333 C  
HETATM   15  C   UNL     1     -10.648   9.548  67.592  1.00  0.00    -0.269 C  
HETATM   16  F   UNL     1      -7.573   7.113  64.947  1.00  0.00    -0.076 F  
HETATM   17  F   UNL     1      -8.046   6.393  66.940  1.00  0.00    -0.104 F  
HETATM   18  O   UNL     1     -10.905   9.712  68.781  1.00  0.00    -0.219 OA 
HETATM   19  F   UNL     1      -9.379   5.938  65.272  1.00  0.00    -0.062 F  
BRANCH  14  20
HETATM   20  O   UNL     1     -10.745   7.029  67.703  1.00  0.00    -0.237 OA 
BRANCH  20  21
HETATM   21  C   UNL     1     -10.446   6.732  69.020  1.00  0.00    -0.206 A  
HETATM   22  C   UNL     1      -9.102   6.958  69.373  1.00  0.00    -0.141 A  
HETATM   23  C   UNL     1      -8.647   6.756  70.687  1.00  0.00    -0.142 A  
HETATM   24  C   UNL     1      -9.547   6.323  71.664  1.00  0.00    -0.167 A  
HETATM   25  C   UNL     1      -7.266   6.993  71.025  1.00  0.00    -0.075 C  
HETATM   26  C   UNL     1     -10.870   6.060  71.309  1.00  0.00    -0.272 A  
HETATM   27  N   UNL     1      -6.152   7.170  71.292  1.00  0.00    -0.036 NA 
HETATM   28 CL   UNL     1     -11.983   5.522  72.511  1.00  0.00    -0.200 Cl 
HETATM   29  C   UNL     1     -11.316   6.237  69.990  1.00  0.00    -0.486 A  
ENDBRANCH  20  21
ENDBRANCH  14  20
ENDBRANCH   8   9
ENDBRANCH   7   8
TORSDOF 4
ENDMDL
MODEL      141
REMARK 921   NORMALIZED FREE ENERGY PREDICTED BY IDOCK:   -5.52 KCAL/MOL
REMARK 922        TOTAL FREE ENERGY PREDICTED BY IDOCK:   -7.65 KCAL/MOL
REMARK 923 INTER-LIGAND FREE ENERGY PREDICTED BY IDOCK:   -7.60 KCAL/MOL
REMARK 924 INTRA-LIGAND FREE ENERGY PREDICTED BY IDOCK:   -0.05 KCAL/MOL
REMARK 927      BINDING AFFINITY PREDICTED BY RF-SCORE:    0.00 PKD
ROOT
HETATM    1  C   UNL     1      -9.127   7.777  71.668  1.00  0.00    -0.133 C  
HETATM    2  N   UNL     1     -10.538   7.473  71.616  1.00  0.00    -0.205 N  
HETATM    3  C   UNL     1     -11.085   6.376  72.238  1.00  0.00    -0.265 C  
HETATM    4  O   UNL     1     -10.531   5.546  72.938  1.00  0.00    -0.191 OA 
HETATM    5  N   UNL     1     -12.430   6.401  71.907  1.00  0.00    -0.278 NA 
HETATM    6  N   UNL     1     -12.715   7.492  71.143  1.00  0.00    -0.282 NA 
HETATM    7  C   UNL     1     -11.565   8.098  71.007  1.00  0.00    -0.279 C  
ENDROOT
BRANCH   7   8
HETATM    8  C   UNL     1     -11.488   9.452  70.323  1.00  0.00    -0.180 C  
BRANCH   8   9
HETATM    9  N   UNL     1     -10.702   9.655  69.111  1.00  0.00    -0.221 N  
HETATM   10  C   UNL     1     -10.598   8.668  68.145  1.00  0.00    -0.133 C  
HETATM   11  C   UNL     1     -10.117   8.960  66.925  1.00  0.00    -0.343 C  
HETATM   12  C   UNL     1      -9.547  10.276  66.651  1.00  0.00    -0.220 C  
HETATM   13  C   UNL     1      -8.998  10.573  65.289  1.00  0.00    -0.189 C  
HETATM   14  C   UNL     1      -9.547  11.220  67.614  1.00  0.00    -0.171 C  
HETATM   15  C   UNL     1     -10.518  10.988  68.729  1.00  0.00    -0.198 C  
HETATM   16  F   UNL     1      -9.247   9.580  64.395  1.00  0.00    -0.262 F  
HETATM   17  F   UNL     1      -9.557  11.697  64.763  1.00  0.00    -0.240 F  
HETATM   18  O   UNL     1     -11.103  11.933  69.251  1.00  0.00    -0.240 OA 
HETATM   19  F   UNL     1      -7.656  10.764  65.297  1.00  0.00    -0.136 F  
BRANCH  14  20
HETATM   20  O   UNL     1      -8.881  12.431  67.462  1.00  0.00    -0.165 OA 
BRANCH  20  21
HETATM   21  C   UNL     1      -9.514  13.656  67.566  1.00  0.00    -0.222 A  
HETATM   22  C   UNL     1      -9.953  14.187  66.338  1.00  0.00    -0.302 A  
HETATM   23  C   UNL     1     -10.660  15.399  66.277  1.00  0.00    -0.311 A  
HETATM   24  C   UNL     1     -10.935  16.092  67.459  1.00  0.00    -0.261 A  
HETATM   25  C   UNL     1     -11.099  15.924  65.008  1.00  0.00    -0.360 C  
HETATM   26  C   UNL     1     -10.466  15.589  68.673  1.00  0.00    -0.237 A  
HETATM   27  N   UNL     1     -11.439  16.352  63.986  1.00  0.00    -1.073 NA 
HETATM   28 CL   UNL     1     -10.800  16.444  70.133  1.00  0.00    -0.309 Cl 
HETATM   29  C   UNL     1      -9.737  14.391  68.729  1.00  0.00    -0.190 A  
ENDBRANCH  20  21
ENDBRANCH  14  20
ENDBRANCH   8   9
ENDBRANCH   7   8
TORSDOF 4
ENDMDL
MODEL      142
REMARK 921   NORMALIZED FREE ENERGY PREDICTED BY IDOCK:   -5.51 KCAL/MOL
REMARK 922        TOTAL FREE ENERGY PREDICTED BY IDOCK:   -7.64 KCAL/MOL
REMARK 923 INTER-LIGAND FREE ENERGY PREDICTED BY IDOCK:   -6.59 KCAL/MOL
REMARK 924 INTRA-LIGAND FREE ENERGY PREDICTED BY IDOCK:   -1.05 KCAL/MOL
REMARK 927      BINDING AFFINITY PREDICTED BY RF-SCORE:    0.00 PKD
ROOT
HETATM    1  C   UNL     1     -11.594   6.270  70.255  1.00  0.00    -0.309 C  
HETATM    2  N   UNL     1     -10.959   6.158  71.547  1.00  0.00    -0.264 N  
HETATM    3  C   UNL     1     -10.226   5.057  71.921  1.00  0.00    -0.204 C  
HETATM    4  O   UNL     1      -9.954   4.066  71.263  1.00  0.00    -0.185 OA 
HETATM    5  N   UNL     1      -9.841   5.300  73.229  1.00  0.00    -0.159 NA 
HETATM    6  N   UNL     1     -10.284   6.522  73.638  1.00  0.00    -0.256 NA 
HETATM    7  C   UNL     1     -10.930   6.993  72.605  1.00  0.00    -0.278 C  
ENDROOT
BRANCH   7   8
HETATM    8  C   UNL     1     -11.464   8.414  72.616  1.00  0.00    -0.289 C  
BRANCH   8   9
HETATM    9  N   UNL     1     -11.410   9.264  71.431  1.00  0.00    -0.335 N  
HETATM   10  C   UNL     1     -12.447  10.126  71.113  1.00  0.00    -0.387 C  
HETATM   11  C   UNL     1     -12.269  11.092  70.197  1.00  0.00    -0.417 C  
HETATM   12  C   UNL     1     -11.042  11.145  69.407  1.00  0.00    -0.314 C  
HETATM   13  C   UNL     1     -10.873  12.220  68.377  1.00  0.00    -0.230 C  
HETATM   14  C   UNL     1     -10.061  10.248  69.633  1.00  0.00    -0.224 C  
HETATM   15  C   UNL     1     -10.126   9.556  70.959  1.00  0.00    -0.229 C  
HETATM   16  F   UNL     1     -11.872  13.142  68.413  1.00  0.00    -0.327 F  
HETATM   17  F   UNL     1      -9.718  12.913  68.567  1.00  0.00    -0.215 F  
HETATM   18  O   UNL     1      -9.098   9.281  71.568  1.00  0.00    -0.315 OA 
HETATM   19  F   UNL     1     -10.840  11.731  67.113  1.00  0.00    -0.240 F  
BRANCH  14  20
HETATM   20  O   UNL     1      -8.944  10.153  68.811  1.00  0.00    -0.132 OA 
BRANCH  20  21
HETATM   21  C   UNL     1      -8.851   9.251  67.768  1.00  0.00    -0.120 A  
HETATM   22  C   UNL     1      -9.064   7.910  68.142  1.00  0.00    -0.133 A  
HETATM   23  C   UNL     1      -9.057   6.876  67.191  1.00  0.00    -0.137 A  
HETATM   24  C   UNL     1      -8.835   7.183  65.846  1.00  0.00    -0.128 A  
HETATM   25  C   UNL     1      -9.276   5.510  67.597  1.00  0.00    -0.110 C  
HETATM   26  C   UNL     1      -8.583   8.506  65.478  1.00  0.00    -0.180 A  
HETATM   27  N   UNL     1      -9.439   4.411  67.928  1.00  0.00    -0.153 NA 
HETATM   28 CL   UNL     1      -8.305   8.888  63.820  1.00  0.00    -0.176 Cl 
HETATM   29  C   UNL     1      -8.565   9.534  66.433  1.00  0.00    -0.143 A  
ENDBRANCH  20  21
ENDBRANCH  14  20
ENDBRANCH   8   9
ENDBRANCH   7   8
TORSDOF 4
ENDMDL
MODEL      143
REMARK 921   NORMALIZED FREE ENERGY PREDICTED BY IDOCK:   -5.51 KCAL/MOL
REMARK 922        TOTAL FREE ENERGY PREDICTED BY IDOCK:   -7.63 KCAL/MOL
REMARK 923 INTER-LIGAND FREE ENERGY PREDICTED BY IDOCK:   -7.39 KCAL/MOL
REMARK 924 INTRA-LIGAND FREE ENERGY PREDICTED BY IDOCK:   -0.24 KCAL/MOL
REMARK 927      BINDING AFFINITY PREDICTED BY RF-SCORE:    0.00 PKD
ROOT
HETATM    1  C   UNL     1      -9.186  14.099  67.728  1.00  0.00    -0.193 C  
HETATM    2  N   UNL     1     -10.457  13.831  67.097  1.00  0.00    -0.271 N  
HETATM    3  C   UNL     1     -10.799  14.346  65.869  1.00  0.00    -0.304 C  
HETATM    4  O   UNL     1     -10.125  15.031  65.118  1.00  0.00    -0.361 OA 
HETATM    5  N   UNL     1     -12.097  13.919  65.641  1.00  0.00    -0.396 NA 
HETATM    6  N   UNL     1     -12.530  13.137  66.669  1.00  0.00    -0.293 NA 
HETATM    7  C   UNL     1     -11.521  13.108  67.499  1.00  0.00    -0.328 C  
ENDROOT
BRANCH   7   8
HETATM    8  C   UNL     1     -11.561  12.213  68.725  1.00  0.00    -0.327 C  
BRANCH   8   9
HETATM    9  N   UNL     1     -11.289  10.781  68.638  1.00  0.00    -0.273 N  
HETATM   10  C   UNL     1     -10.531  10.253  67.606  1.00  0.00    -0.239 C  
HETATM   11  C   UNL     1     -10.055   9.000  67.687  1.00  0.00    -0.271 C  
HETATM   12  C   UNL     1     -10.462   8.123  68.782  1.00  0.00    -0.198 C  
HETATM   13  C   UNL     1      -9.934   6.723  68.841  1.00  0.00    -0.155 C  
HETATM   14  C   UNL     1     -11.284   8.591  69.743  1.00  0.00     0.031 C  
HETATM   15  C   UNL     1     -11.355  10.082  69.848  1.00  0.00    -0.250 C  
HETATM   16  F   UNL     1      -8.980   6.482  67.903  1.00  0.00    -0.119 F  
HETATM   17  F   UNL     1      -9.351   6.463  70.043  1.00  0.00    -0.151 F  
HETATM   18  O   UNL     1     -11.460  10.625  70.943  1.00  0.00    -0.301 OA 
HETATM   19  F   UNL     1     -10.903   5.791  68.661  1.00  0.00    -0.287 F  
BRANCH  14  20
HETATM   20  O   UNL     1     -11.827   7.761  70.718  1.00  0.00    -0.271 OA 
BRANCH  20  21
HETATM   21  C   UNL     1     -11.105   7.305  71.805  1.00  0.00    -0.235 A  
HETATM   22  C   UNL     1     -11.387   5.974  72.169  1.00  0.00    -0.351 A  
HETATM   23  C   UNL     1     -10.701   5.342  73.219  1.00  0.00    -0.320 A  
HETATM   24  C   UNL     1      -9.717   6.048  73.917  1.00  0.00    -0.182 A  
HETATM   25  C   UNL     1     -11.006   3.979  73.575  1.00  0.00    -0.265 C  
HETATM   26  C   UNL     1      -9.464   7.380  73.586  1.00  0.00    -0.272 A  
HETATM   27  N   UNL     1     -11.263   2.888  73.869  1.00  0.00    -0.168 NA 
HETATM   28 CL   UNL     1      -8.254   8.255  74.448  1.00  0.00    -0.280 Cl 
HETATM   29  C   UNL     1     -10.169   8.017  72.553  1.00  0.00    -0.361 A  
ENDBRANCH  20  21
ENDBRANCH  14  20
ENDBRANCH   8   9
ENDBRANCH   7   8
TORSDOF 4
ENDMDL
MODEL      144
REMARK 921   NORMALIZED FREE ENERGY PREDICTED BY IDOCK:   -5.50 KCAL/MOL
REMARK 922        TOTAL FREE ENERGY PREDICTED BY IDOCK:   -7.62 KCAL/MOL
REMARK 923 INTER-LIGAND FREE ENERGY PREDICTED BY IDOCK:   -6.40 KCAL/MOL
REMARK 924 INTRA-LIGAND FREE ENERGY PREDICTED BY IDOCK:   -1.21 KCAL/MOL
REMARK 927      BINDING AFFINITY PREDICTED BY RF-SCORE:    0.00 PKD
ROOT
HETATM    1  C   UNL     1      -9.381   4.364  69.720  1.00  0.00    -0.154 C  
HETATM    2  N   UNL     1      -8.589   5.232  70.559  1.00  0.00    -0.118 N  
HETATM    3  C   UNL     1      -8.023   4.810  71.739  1.00  0.00    -0.100 C  
HETATM    4  O   UNL     1      -8.041   3.696  72.234  1.00  0.00    -0.070 OA 
HETATM    5  N   UNL     1      -7.406   5.930  72.271  1.00  0.00    -0.092 NA 
HETATM    6  N   UNL     1      -7.549   6.997  71.435  1.00  0.00    -0.085 NA 
HETATM    7  C   UNL     1      -8.247   6.529  70.434  1.00  0.00    -0.125 C  
ENDROOT
BRANCH   7   8
HETATM    8  C   UNL     1      -8.502   7.390  69.209  1.00  0.00    -0.136 C  
BRANCH   8   9
HETATM    9  N   UNL     1      -9.451   8.498  69.234  1.00  0.00    -0.157 N  
HETATM   10  C   UNL     1     -10.663   8.394  69.898  1.00  0.00    -0.227 C  
HETATM   11  C   UNL     1     -11.392   9.492  70.154  1.00  0.00    -0.241 C  
HETATM   12  C   UNL     1     -11.003  10.785  69.597  1.00  0.00    -0.320 C  
HETATM   13  C   UNL     1     -11.843  11.993  69.880  1.00  0.00    -0.331 C  
HETATM   14  C   UNL     1      -9.878  10.885  68.861  1.00  0.00    -0.192 C  
HETATM   15  C   UNL     1      -8.898   9.768  69.044  1.00  0.00    -0.153 C  
HETATM   16  F   UNL     1     -12.828  11.747  70.784  1.00  0.00    -0.354 F  
HETATM   17  F   UNL     1     -11.098  13.004  70.403  1.00  0.00     0.115 F  
HETATM   18  O   UNL     1      -7.692   9.990  69.026  1.00  0.00    -0.081 OA 
HETATM   19  F   UNL     1     -12.447  12.480  68.768  1.00  0.00    -0.158 F  
BRANCH  14  20
HETATM   20  O   UNL     1      -9.543  12.049  68.179  1.00  0.00    -0.189 OA 
BRANCH  20  21
HETATM   21  C   UNL     1      -9.821  12.243  66.838  1.00  0.00    -0.209 A  
HETATM   22  C   UNL     1     -10.193  13.560  66.509  1.00  0.00    -0.283 A  
HETATM   23  C   UNL     1     -10.457  13.935  65.181  1.00  0.00    -0.409 A  
HETATM   24  C   UNL     1     -10.346  12.981  64.165  1.00  0.00    -0.345 A  
HETATM   25  C   UNL     1     -10.838  15.289  64.867  1.00  0.00    -0.425 C  
HETATM   26  C   UNL     1     -10.016  11.666  64.494  1.00  0.00    -0.253 A  
HETATM   27  N   UNL     1     -11.158  16.375  64.618  1.00  0.00    -0.697 NA 
HETATM   28 CL   UNL     1      -9.883  10.485  63.244  1.00  0.00    -0.353 Cl 
HETATM   29  C   UNL     1      -9.779  11.287  65.824  1.00  0.00    -0.263 A  
ENDBRANCH  20  21
ENDBRANCH  14  20
ENDBRANCH   8   9
ENDBRANCH   7   8
TORSDOF 4
ENDMDL
MODEL      145
REMARK 921   NORMALIZED FREE ENERGY PREDICTED BY IDOCK:   -5.49 KCAL/MOL
REMARK 922        TOTAL FREE ENERGY PREDICTED BY IDOCK:   -7.60 KCAL/MOL
REMARK 923 INTER-LIGAND FREE ENERGY PREDICTED BY IDOCK:   -6.95 KCAL/MOL
REMARK 924 INTRA-LIGAND FREE ENERGY PREDICTED BY IDOCK:   -0.65 KCAL/MOL
REMARK 927      BINDING AFFINITY PREDICTED BY RF-SCORE:    0.00 PKD
ROOT
HETATM    1  C   UNL     1      -7.701   6.211  63.320  1.00  0.00    -0.097 C  
HETATM    2  N   UNL     1      -8.503   5.568  64.333  1.00  0.00    -0.117 N  
HETATM    3  C   UNL     1      -9.216   4.417  64.096  1.00  0.00    -0.140 C  
HETATM    4  O   UNL     1      -9.260   3.747  63.078  1.00  0.00    -0.099 OA 
HETATM    5  N   UNL     1      -9.892   4.155  65.276  1.00  0.00    -0.196 NA 
HETATM    6  N   UNL     1      -9.581   5.085  66.222  1.00  0.00    -0.154 NA 
HETATM    7  C   UNL     1      -8.749   5.892  65.618  1.00  0.00    -0.146 C  
ENDROOT
BRANCH   7   8
HETATM    8  C   UNL     1      -8.057   7.000  66.393  1.00  0.00    -0.112 C  
BRANCH   8   9
HETATM    9  N   UNL     1      -8.716   8.273  66.665  1.00  0.00    -0.131 N  
HETATM   10  C   UNL     1      -9.225   9.055  65.641  1.00  0.00    -0.225 C  
HETATM   11  C   UNL     1     -10.066  10.066  65.914  1.00  0.00    -0.319 C  
HETATM   12  C   UNL     1     -10.327  10.458  67.296  1.00  0.00    -0.278 C  
HETATM   13  C   UNL     1     -11.254  11.602  67.576  1.00  0.00    -0.293 C  
HETATM   14  C   UNL     1      -9.758   9.770  68.306  1.00  0.00    -0.145 C  
HETATM   15  C   UNL     1      -9.265   8.404  67.945  1.00  0.00    -0.135 C  
HETATM   16  F   UNL     1     -11.879  12.056  66.457  1.00  0.00    -0.414 F  
HETATM   17  F   UNL     1     -12.244  11.240  68.436  1.00  0.00    -0.347 F  
HETATM   18  O   UNL     1      -9.356   7.478  68.745  1.00  0.00    -0.148 OA 
HETATM   19  F   UNL     1     -10.619  12.665  68.127  1.00  0.00    -0.203 F  
BRANCH  14  20
HETATM   20  O   UNL     1      -9.844  10.192  69.628  1.00  0.00    -0.224 OA 
BRANCH  20  21
HETATM   21  C   UNL     1     -10.481   9.459  70.612  1.00  0.00    -0.290 A  
HETATM   22  C   UNL     1      -9.614   8.898  71.568  1.00  0.00    -0.362 A  
HETATM   23  C   UNL     1     -10.106   8.168  72.663  1.00  0.00    -0.379 A  
HETATM   24  C   UNL     1     -11.485   7.997  72.808  1.00  0.00    -0.420 A  
HETATM   25  C   UNL     1      -9.199   7.602  73.630  1.00  0.00    -0.283 C  
HETATM   26  C   UNL     1     -12.345   8.518  71.840  1.00  0.00    -0.352 A  
HETATM   27  N   UNL     1      -8.467   7.134  74.398  1.00  0.00    -0.178 NA 
HETATM   28 CL   UNL     1     -14.048   8.305  72.013  1.00  0.00    -0.461 Cl 
HETATM   29  C   UNL     1     -11.850   9.224  70.733  1.00  0.00    -0.303 A  
ENDBRANCH  20  21
ENDBRANCH  14  20
ENDBRANCH   8   9
ENDBRANCH   7   8
TORSDOF 4
ENDMDL
MODEL      146
REMARK 921   NORMALIZED FREE ENERGY PREDICTED BY IDOCK:   -5.48 KCAL/MOL
REMARK 922        TOTAL FREE ENERGY PREDICTED BY IDOCK:   -7.59 KCAL/MOL
REMARK 923 INTER-LIGAND FREE ENERGY PREDICTED BY IDOCK:   -6.55 KCAL/MOL
REMARK 924 INTRA-LIGAND FREE ENERGY PREDICTED BY IDOCK:   -1.05 KCAL/MOL
REMARK 927      BINDING AFFINITY PREDICTED BY RF-SCORE:    0.00 PKD
ROOT
HETATM    1  C   UNL     1     -10.485  10.839  64.582  1.00  0.00    -0.276 C  
HETATM    2  N   UNL     1     -11.001  11.536  65.737  1.00  0.00    -0.277 N  
HETATM    3  C   UNL     1     -12.096  12.365  65.675  1.00  0.00    -0.329 C  
HETATM    4  O   UNL     1     -12.811  12.609  64.717  1.00  0.00    -0.730 OA 
HETATM    5  N   UNL     1     -12.236  12.883  66.952  1.00  0.00    -0.410 NA 
HETATM    6  N   UNL     1     -11.290  12.365  67.784  1.00  0.00    -0.277 NA 
HETATM    7  C   UNL     1     -10.591  11.568  67.020  1.00  0.00    -0.242 C  
ENDROOT
BRANCH   7   8
HETATM    8  C   UNL     1      -9.511  10.684  67.619  1.00  0.00    -0.153 C  
BRANCH   8   9
HETATM    9  N   UNL     1      -9.805   9.725  68.678  1.00  0.00    -0.154 N  
HETATM   10  C   UNL     1      -9.860  10.113  70.007  1.00  0.00    -0.128 C  
HETATM   11  C   UNL     1     -10.401   9.300  70.929  1.00  0.00    -0.367 C  
HETATM   12  C   UNL     1     -10.788   7.936  70.576  1.00  0.00    -0.242 C  
HETATM   13  C   UNL     1     -11.372   7.041  71.626  1.00  0.00    -0.257 C  
HETATM   14  C   UNL     1     -10.646   7.507  69.306  1.00  0.00    -0.210 C  
HETATM   15  C   UNL     1     -10.519   8.590  68.281  1.00  0.00    -0.171 C  
HETATM   16  F   UNL     1     -11.615   7.691  72.795  1.00  0.00    -0.343 F  
HETATM   17  F   UNL     1     -12.567   6.525  71.230  1.00  0.00    -0.377 F  
HETATM   18  O   UNL     1     -11.026   8.459  67.172  1.00  0.00    -0.123 OA 
HETATM   19  F   UNL     1     -10.566   5.992  71.924  1.00  0.00    -0.229 F  
BRANCH  14  20
HETATM   20  O   UNL     1     -10.849   6.179  68.949  1.00  0.00    -0.275 OA 
BRANCH  20  21
HETATM   21  C   UNL     1      -9.921   5.441  68.238  1.00  0.00    -0.159 A  
HETATM   22  C   UNL     1      -8.680   5.293  68.885  1.00  0.00    -0.094 A  
HETATM   23  C   UNL     1      -7.647   4.527  68.321  1.00  0.00    -0.072 A  
HETATM   24  C   UNL     1      -7.855   3.897  67.091  1.00  0.00    -0.088 A  
HETATM   25  C   UNL     1      -6.384   4.390  69.002  1.00  0.00    -0.032 C  
HETATM   26  C   UNL     1      -9.070   4.074  66.427  1.00  0.00    -0.138 A  
HETATM   27  N   UNL     1      -5.364   4.293  69.544  1.00  0.00    -0.007 NA 
HETATM   28 CL   UNL     1      -9.329   3.302  64.907  1.00  0.00    -0.146 Cl 
HETATM   29  C   UNL     1     -10.091   4.862  66.981  1.00  0.00    -0.243 A  
ENDBRANCH  20  21
ENDBRANCH  14  20
ENDBRANCH   8   9
ENDBRANCH   7   8
TORSDOF 4
ENDMDL
MODEL      147
REMARK 921   NORMALIZED FREE ENERGY PREDICTED BY IDOCK:   -5.48 KCAL/MOL
REMARK 922        TOTAL FREE ENERGY PREDICTED BY IDOCK:   -7.59 KCAL/MOL
REMARK 923 INTER-LIGAND FREE ENERGY PREDICTED BY IDOCK:   -7.12 KCAL/MOL
REMARK 924 INTRA-LIGAND FREE ENERGY PREDICTED BY IDOCK:   -0.47 KCAL/MOL
REMARK 927      BINDING AFFINITY PREDICTED BY RF-SCORE:    0.00 PKD
ROOT
HETATM    1  C   UNL     1     -11.162   5.840  73.060  1.00  0.00    -0.246 C  
HETATM    2  N   UNL     1     -10.290   6.970  72.840  1.00  0.00    -0.218 N  
HETATM    3  C   UNL     1      -9.139   7.172  73.564  1.00  0.00    -0.168 C  
HETATM    4  O   UNL     1      -8.651   6.462  74.427  1.00  0.00    -0.125 OA 
HETATM    5  N   UNL     1      -8.624   8.373  73.106  1.00  0.00    -0.353 NA 
HETATM    6  N   UNL     1      -9.404   8.878  72.109  1.00  0.00    -0.363 NA 
HETATM    7  C   UNL     1     -10.369   8.007  71.983  1.00  0.00    -0.236 C  
ENDROOT
BRANCH   7   8
HETATM    8  C   UNL     1     -11.384   8.144  70.861  1.00  0.00    -0.268 C  
BRANCH   8   9
HETATM    9  N   UNL     1     -11.634   9.424  70.206  1.00  0.00    -0.193 N  
HETATM   10  C   UNL     1     -12.116  10.514  70.912  1.00  0.00    -0.383 C  
HETATM   11  C   UNL     1     -12.073  11.744  70.374  1.00  0.00    -0.440 C  
HETATM   12  C   UNL     1     -11.673  11.928  68.981  1.00  0.00    -0.391 C  
HETATM   13  C   UNL     1     -11.652  13.307  68.396  1.00  0.00    -0.337 C  
HETATM   14  C   UNL     1     -11.298  10.862  68.246  1.00  0.00    -0.308 C  
HETATM   15  C   UNL     1     -10.903   9.654  69.036  1.00  0.00    -0.183 C  
HETATM   16  F   UNL     1     -11.879  14.274  69.324  1.00  0.00    -0.286 F  
HETATM   17  F   UNL     1     -10.442  13.593  67.844  1.00  0.00    -0.231 F  
HETATM   18  O   UNL     1      -9.986   8.933  68.654  1.00  0.00    -0.167 OA 
HETATM   19  F   UNL     1     -12.582  13.475  67.423  1.00  0.00    -0.279 F  
BRANCH  14  20
HETATM   20  O   UNL     1     -11.059  10.954  66.880  1.00  0.00    -0.259 OA 
BRANCH  20  21
HETATM   21  C   UNL     1      -9.841  10.641  66.306  1.00  0.00    -0.214 A  
HETATM   22  C   UNL     1      -8.759  11.398  66.794  1.00  0.00    -0.174 A  
HETATM   23  C   UNL     1      -7.446  11.166  66.352  1.00  0.00    -0.103 A  
HETATM   24  C   UNL     1      -7.208  10.162  65.409  1.00  0.00    -0.144 A  
HETATM   25  C   UNL     1      -6.354  11.954  66.866  1.00  0.00    -0.107 C  
HETATM   26  C   UNL     1      -8.283   9.438  64.893  1.00  0.00    -0.142 A  
HETATM   27  N   UNL     1      -5.478  12.598  67.269  1.00  0.00    -0.313 NA 
HETATM   28 CL   UNL     1      -7.993   8.202  63.726  1.00  0.00    -0.147 Cl 
HETATM   29  C   UNL     1      -9.597   9.689  65.316  1.00  0.00    -0.347 A  
ENDBRANCH  20  21
ENDBRANCH  14  20
ENDBRANCH   8   9
ENDBRANCH   7   8
TORSDOF 4
ENDMDL
MODEL      148
REMARK 921   NORMALIZED FREE ENERGY PREDICTED BY IDOCK:   -5.47 KCAL/MOL
REMARK 922        TOTAL FREE ENERGY PREDICTED BY IDOCK:   -7.59 KCAL/MOL
REMARK 923 INTER-LIGAND FREE ENERGY PREDICTED BY IDOCK:   -6.38 KCAL/MOL
REMARK 924 INTRA-LIGAND FREE ENERGY PREDICTED BY IDOCK:   -1.22 KCAL/MOL
REMARK 927      BINDING AFFINITY PREDICTED BY RF-SCORE:    0.00 PKD
ROOT
HETATM    1  C   UNL     1      -9.064   8.029  70.702  1.00  0.00    -0.153 C  
HETATM    2  N   UNL     1      -7.994   7.447  69.926  1.00  0.00    -0.118 N  
HETATM    3  C   UNL     1      -6.948   6.764  70.499  1.00  0.00    -0.063 C  
HETATM    4  O   UNL     1      -6.767   6.499  71.676  1.00  0.00    -0.060 OA 
HETATM    5  N   UNL     1      -6.114   6.421  69.447  1.00  0.00    -0.028 NA 
HETATM    6  N   UNL     1      -6.642   6.840  68.263  1.00  0.00    -0.059 NA 
HETATM    7  C   UNL     1      -7.757   7.432  68.600  1.00  0.00    -0.120 C  
ENDROOT
BRANCH   7   8
HETATM    8  C   UNL     1      -8.719   7.921  67.530  1.00  0.00    -0.125 C  
BRANCH   8   9
HETATM    9  N   UNL     1      -9.021   9.338  67.361  1.00  0.00    -0.124 N  
HETATM   10  C   UNL     1      -8.112  10.204  66.775  1.00  0.00    -0.119 C  
HETATM   11  C   UNL     1      -8.502  11.425  66.371  1.00  0.00    -0.160 C  
HETATM   12  C   UNL     1      -9.839  11.917  66.690  1.00  0.00    -0.219 C  
HETATM   13  C   UNL     1     -10.245  13.289  66.246  1.00  0.00    -0.296 C  
HETATM   14  C   UNL     1     -10.705  11.123  67.352  1.00  0.00    -0.250 C  
HETATM   15  C   UNL     1     -10.381   9.662  67.316  1.00  0.00    -0.249 C  
HETATM   16  F   UNL     1      -9.322  13.873  65.437  1.00  0.00    -0.093 F  
HETATM   17  F   UNL     1     -11.402  13.258  65.532  1.00  0.00    -0.299 F  
HETATM   18  O   UNL     1     -11.278   8.828  67.246  1.00  0.00     0.224 OA 
HETATM   19  F   UNL     1     -10.443  14.136  67.286  1.00  0.00    -0.262 F  
BRANCH  14  20
HETATM   20  O   UNL     1     -11.928  11.591  67.817  1.00  0.00    -0.623 OA 
BRANCH  20  21
HETATM   21  C   UNL     1     -12.234  11.692  69.162  1.00  0.00    -0.137 A  
HETATM   22  C   UNL     1     -12.241  13.010  69.656  1.00  0.00    -0.219 A  
HETATM   23  C   UNL     1     -12.584  13.289  70.989  1.00  0.00    -0.408 A  
HETATM   24  C   UNL     1     -12.925  12.237  71.843  1.00  0.00    -0.411 A  
HETATM   25  C   UNL     1     -12.585  14.647  71.473  1.00  0.00    -0.343 C  
HETATM   26  C   UNL     1     -12.880  10.926  71.367  1.00  0.00    -0.449 A  
HETATM   27  N   UNL     1     -12.571  15.738  71.865  1.00  0.00    -0.436 NA 
HETATM   28 CL   UNL     1     -13.296   9.625  72.419  1.00  0.00    -0.484 Cl 
HETATM   29  C   UNL     1     -12.511  10.648  70.042  1.00  0.00    -0.294 A  
ENDBRANCH  20  21
ENDBRANCH  14  20
ENDBRANCH   8   9
ENDBRANCH   7   8
TORSDOF 4
ENDMDL
MODEL      149
REMARK 921   NORMALIZED FREE ENERGY PREDICTED BY IDOCK:   -5.43 KCAL/MOL
REMARK 922        TOTAL FREE ENERGY PREDICTED BY IDOCK:   -7.54 KCAL/MOL
REMARK 923 INTER-LIGAND FREE ENERGY PREDICTED BY IDOCK:   -6.61 KCAL/MOL
REMARK 924 INTRA-LIGAND FREE ENERGY PREDICTED BY IDOCK:   -0.93 KCAL/MOL
REMARK 927      BINDING AFFINITY PREDICTED BY RF-SCORE:    0.00 PKD
ROOT
HETATM    1  C   UNL     1     -11.786  10.976  68.924  1.00  0.00    -0.308 C  
HETATM    2  N   UNL     1     -12.079  12.261  69.512  1.00  0.00    -0.244 N  
HETATM    3  C   UNL     1     -12.553  12.400  70.795  1.00  0.00    -0.211 C  
HETATM    4  O   UNL     1     -12.751  11.533  71.629  1.00  0.00    -0.353 OA 
HETATM    5  N   UNL     1     -12.765  13.759  70.963  1.00  0.00    -0.346 NA 
HETATM    6  N   UNL     1     -12.399  14.441  69.841  1.00  0.00    -0.329 NA 
HETATM    7  C   UNL     1     -11.992  13.512  69.017  1.00  0.00    -0.335 C  
ENDROOT
BRANCH   7   8
HETATM    8  C   UNL     1     -11.365  13.888  67.686  1.00  0.00    -0.309 C  
BRANCH   8   9
HETATM    9  N   UNL     1     -10.925  12.875  66.733  1.00  0.00    -0.267 N  
HETATM   10  C   UNL     1     -11.694  12.540  65.630  1.00  0.00    -0.423 C  
HETATM   11  C   UNL     1     -11.161  11.828  64.624  1.00  0.00    -0.349 C  
HETATM   12  C   UNL     1      -9.822  11.258  64.748  1.00  0.00    -0.312 C  
HETATM   13  C   UNL     1      -9.257  10.451  63.620  1.00  0.00    -0.279 C  
HETATM   14  C   UNL     1      -9.097  11.490  65.860  1.00  0.00    -0.177 C  
HETATM   15  C   UNL     1      -9.543  12.663  66.676  1.00  0.00    -0.249 C  
HETATM   16  F   UNL     1     -10.044  10.475  62.511  1.00  0.00    -0.257 F  
HETATM   17  F   UNL     1      -8.044  10.926  63.228  1.00  0.00    -0.115 F  
HETATM   18  O   UNL     1      -8.721  13.375  67.244  1.00  0.00    -0.199 OA 
HETATM   19  F   UNL     1      -9.085   9.146  63.947  1.00  0.00    -0.220 F  
BRANCH  14  20
HETATM   20  O   UNL     1      -7.887  10.849  66.099  1.00  0.00    -0.157 OA 
BRANCH  20  21
HETATM   21  C   UNL     1      -7.781   9.700  66.862  1.00  0.00    -0.098 A  
HETATM   22  C   UNL     1      -8.292   9.824  68.169  1.00  0.00    -0.110 A  
HETATM   23  C   UNL     1      -8.309   8.734  69.054  1.00  0.00    -0.129 A  
HETATM   24  C   UNL     1      -7.809   7.500  68.629  1.00  0.00    -0.121 A  
HETATM   25  C   UNL     1      -8.836   8.884  70.387  1.00  0.00    -0.181 C  
HETATM   26  C   UNL     1      -7.266   7.384  67.349  1.00  0.00    -0.093 A  
HETATM   27  N   UNL     1      -9.247   9.011  71.463  1.00  0.00    -0.303 NA 
HETATM   28 CL   UNL     1      -6.644   5.864  66.824  1.00  0.00    -0.054 Cl 
HETATM   29  C   UNL     1      -7.226   8.482  66.476  1.00  0.00    -0.080 A  
ENDBRANCH  20  21
ENDBRANCH  14  20
ENDBRANCH   8   9
ENDBRANCH   7   8
TORSDOF 4
ENDMDL
MODEL      150
REMARK 921   NORMALIZED FREE ENERGY PREDICTED BY IDOCK:   -5.43 KCAL/MOL
REMARK 922        TOTAL FREE ENERGY PREDICTED BY IDOCK:   -7.54 KCAL/MOL
REMARK 923 INTER-LIGAND FREE ENERGY PREDICTED BY IDOCK:   -7.14 KCAL/MOL
REMARK 924 INTRA-LIGAND FREE ENERGY PREDICTED BY IDOCK:   -0.40 KCAL/MOL
REMARK 927      BINDING AFFINITY PREDICTED BY RF-SCORE:    0.00 PKD
ROOT
HETATM    1  C   UNL     1     -11.342   5.249  72.918  1.00  0.00    -0.301 C  
HETATM    2  N   UNL     1     -10.592   6.483  72.948  1.00  0.00    -0.228 N  
HETATM    3  C   UNL     1      -9.428   6.626  73.665  1.00  0.00    -0.164 C  
HETATM    4  O   UNL     1      -8.830   5.788  74.319  1.00  0.00    -0.121 OA 
HETATM    5  N   UNL     1      -9.052   7.949  73.492  1.00  0.00    -0.277 NA 
HETATM    6  N   UNL     1      -9.927   8.590  72.668  1.00  0.00    -0.253 NA 
HETATM    7  C   UNL     1     -10.813   7.678  72.366  1.00  0.00    -0.289 C  
ENDROOT
BRANCH   7   8
HETATM    8  C   UNL     1     -11.894   7.969  71.340  1.00  0.00    -0.295 C  
BRANCH   8   9
HETATM    9  N   UNL     1     -12.027   9.283  70.718  1.00  0.00    -0.251 N  
HETATM   10  C   UNL     1     -12.405  10.394  71.455  1.00  0.00    -0.397 C  
HETATM   11  C   UNL     1     -12.251  11.628  70.946  1.00  0.00    -0.401 C  
HETATM   12  C   UNL     1     -11.840  11.809  69.557  1.00  0.00    -0.402 C  
HETATM   13  C   UNL     1     -11.694  13.195  69.006  1.00  0.00    -0.321 C  
HETATM   14  C   UNL     1     -11.566  10.732  68.793  1.00  0.00    -0.280 C  
HETATM   15  C   UNL     1     -11.281   9.474  69.551  1.00  0.00    -0.074 C  
HETATM   16  F   UNL     1     -11.827  14.155  69.960  1.00  0.00    -0.300 F  
HETATM   17  F   UNL     1     -10.465  13.383  68.455  1.00  0.00    -0.231 F  
HETATM   18  O   UNL     1     -10.436   8.682  69.146  1.00  0.00    -0.220 OA 
HETATM   19  F   UNL     1     -12.607  13.472  68.043  1.00  0.00    -0.206 F  
BRANCH  14  20
HETATM   20  O   UNL     1     -11.324  10.837  67.428  1.00  0.00    -0.416 OA 
BRANCH  20  21
HETATM   21  C   UNL     1     -10.064  10.705  66.875  1.00  0.00    -0.214 A  
HETATM   22  C   UNL     1     -10.062  10.239  65.546  1.00  0.00    -0.351 A  
HETATM   23  C   UNL     1      -8.866  10.100  64.823  1.00  0.00    -0.219 A  
HETATM   24  C   UNL     1      -7.653  10.431  65.433  1.00  0.00    -0.131 A  
HETATM   25  C   UNL     1      -8.888   9.621  63.463  1.00  0.00    -0.234 C  
HETATM   26  C   UNL     1      -7.649  10.854  66.763  1.00  0.00    -0.134 A  
HETATM   27  N   UNL     1      -8.905   9.222  62.375  1.00  0.00    -0.241 NA 
HETATM   28 CL   UNL     1      -6.154  11.259  67.521  1.00  0.00    -0.055 Cl 
HETATM   29  C   UNL     1      -8.842  10.967  67.493  1.00  0.00    -0.133 A  
ENDBRANCH  20  21
ENDBRANCH  14  20
ENDBRANCH   8   9
ENDBRANCH   7   8
TORSDOF 4
ENDMDL
MODEL      151
REMARK 921   NORMALIZED FREE ENERGY PREDICTED BY IDOCK:   -5.43 KCAL/MOL
REMARK 922        TOTAL FREE ENERGY PREDICTED BY IDOCK:   -7.53 KCAL/MOL
REMARK 923 INTER-LIGAND FREE ENERGY PREDICTED BY IDOCK:   -7.76 KCAL/MOL
REMARK 924 INTRA-LIGAND FREE ENERGY PREDICTED BY IDOCK:    0.23 KCAL/MOL
REMARK 927      BINDING AFFINITY PREDICTED BY RF-SCORE:    0.00 PKD
ROOT
HETATM    1  C   UNL     1     -10.627   8.561  69.319  1.00  0.00    -0.181 C  
HETATM    2  N   UNL     1     -11.469   9.369  70.169  1.00  0.00    -0.192 N  
HETATM    3  C   UNL     1     -11.915   8.940  71.396  1.00  0.00    -0.311 C  
HETATM    4  O   UNL     1     -11.661   7.896  71.975  1.00  0.00    -0.275 OA 
HETATM    5  N   UNL     1     -12.732   9.956  71.865  1.00  0.00    -0.408 NA 
HETATM    6  N   UNL     1     -12.760  10.992  70.981  1.00  0.00    -0.380 NA 
HETATM    7  C   UNL     1     -11.991  10.600  70.001  1.00  0.00    -0.329 C  
ENDROOT
BRANCH   7   8
HETATM    8  C   UNL     1     -11.651  11.550  68.865  1.00  0.00    -0.320 C  
BRANCH   8   9
HETATM    9  N   UNL     1     -10.380  12.265  68.819  1.00  0.00    -0.182 N  
HETATM   10  C   UNL     1      -9.202  11.621  68.477  1.00  0.00    -0.163 C  
HETATM   11  C   UNL     1      -8.107  12.332  68.164  1.00  0.00    -0.158 C  
HETATM   12  C   UNL     1      -8.091  13.782  68.337  1.00  0.00    -0.148 C  
HETATM   13  C   UNL     1      -6.851  14.552  68.001  1.00  0.00    -0.145 C  
HETATM   14  C   UNL     1      -9.200  14.416  68.769  1.00  0.00    -0.144 C  
HETATM   15  C   UNL     1     -10.473  13.645  68.612  1.00  0.00    -0.234 C  
HETATM   16  F   UNL     1      -5.900  13.782  67.409  1.00  0.00    -0.118 F  
HETATM   17  F   UNL     1      -7.115  15.560  67.126  1.00  0.00    -0.204 F  
HETATM   18  O   UNL     1     -11.516  14.220  68.315  1.00  0.00    -0.272 OA 
HETATM   19  F   UNL     1      -6.274  15.115  69.091  1.00  0.00    -0.098 F  
BRANCH  14  20
HETATM   20  O   UNL     1      -9.197  15.766  69.100  1.00  0.00    -0.223 OA 
BRANCH  20  21
HETATM   21  C   UNL     1      -9.401  16.770  68.171  1.00  0.00    -0.234 A  
HETATM   22  C   UNL     1     -10.100  16.359  67.020  1.00  0.00    -0.272 A  
HETATM   23  C   UNL     1     -10.435  17.270  66.004  1.00  0.00    -0.285 A  
HETATM   24  C   UNL     1     -10.068  18.612  66.139  1.00  0.00    -0.399 A  
HETATM   25  C   UNL     1     -11.150  16.827  64.834  1.00  0.00    -0.054 C  
HETATM   26  C   UNL     1      -9.340  19.014  67.260  1.00  0.00    -0.304 A  
HETATM   27  N   UNL     1     -11.713  16.466  63.886  1.00  0.00    -1.024 NA 
HETATM   28 CL   UNL     1      -8.882  20.668  67.427  1.00  0.00    -0.397 Cl 
HETATM   29  C   UNL     1      -8.984  18.097  68.260  1.00  0.00    -0.306 A  
ENDBRANCH  20  21
ENDBRANCH  14  20
ENDBRANCH   8   9
ENDBRANCH   7   8
TORSDOF 4
ENDMDL
MODEL      152
REMARK 921   NORMALIZED FREE ENERGY PREDICTED BY IDOCK:   -5.42 KCAL/MOL
REMARK 922        TOTAL FREE ENERGY PREDICTED BY IDOCK:   -7.52 KCAL/MOL
REMARK 923 INTER-LIGAND FREE ENERGY PREDICTED BY IDOCK:   -7.56 KCAL/MOL
REMARK 924 INTRA-LIGAND FREE ENERGY PREDICTED BY IDOCK:    0.04 KCAL/MOL
REMARK 927      BINDING AFFINITY PREDICTED BY RF-SCORE:    0.00 PKD
ROOT
HETATM    1  C   UNL     1      -7.839   6.747  63.568  1.00  0.00    -0.110 C  
HETATM    2  N   UNL     1      -8.294   6.502  64.916  1.00  0.00    -0.095 N  
HETATM    3  C   UNL     1      -8.754   5.275  65.333  1.00  0.00    -0.150 C  
HETATM    4  O   UNL     1      -8.812   4.232  64.704  1.00  0.00    -0.129 OA 
HETATM    5  N   UNL     1      -9.147   5.459  66.648  1.00  0.00    -0.121 NA 
HETATM    6  N   UNL     1      -8.904   6.740  67.045  1.00  0.00    -0.113 NA 
HETATM    7  C   UNL     1      -8.391   7.312  65.989  1.00  0.00    -0.140 C  
ENDROOT
BRANCH   7   8
HETATM    8  C   UNL     1      -7.851   8.729  66.071  1.00  0.00    -0.105 C  
BRANCH   8   9
HETATM    9  N   UNL     1      -8.700   9.889  65.816  1.00  0.00    -0.136 N  
HETATM   10  C   UNL     1      -9.451   9.992  64.656  1.00  0.00    -0.305 C  
HETATM   11  C   UNL     1     -10.429  10.907  64.561  1.00  0.00    -0.393 C  
HETATM   12  C   UNL     1     -10.607  11.911  65.607  1.00  0.00    -0.311 C  
HETATM   13  C   UNL     1     -11.692  12.935  65.470  1.00  0.00    -0.383 C  
HETATM   14  C   UNL     1      -9.815  11.889  66.698  1.00  0.00    -0.201 C  
HETATM   15  C   UNL     1      -9.122  10.587  66.952  1.00  0.00    -0.147 C  
HETATM   16  F   UNL     1     -12.506  12.697  64.408  1.00  0.00    -0.445 F  
HETATM   17  F   UNL     1     -12.499  12.952  66.564  1.00  0.00    -0.403 F  
HETATM   18  O   UNL     1      -8.954  10.185  68.099  1.00  0.00    -0.121 OA 
HETATM   19  F   UNL     1     -11.207  14.192  65.315  1.00  0.00    -0.298 F  
BRANCH  14  20
HETATM   20  O   UNL     1      -9.834  12.906  67.645  1.00  0.00    -0.203 OA 
BRANCH  20  21
HETATM   21  C   UNL     1     -10.755  12.959  68.675  1.00  0.00    -0.247 A  
HETATM   22  C   UNL     1     -11.041  11.710  69.259  1.00  0.00    -0.291 A  
HETATM   23  C   UNL     1     -11.916  11.598  70.352  1.00  0.00    -0.448 A  
HETATM   24  C   UNL     1     -12.515  12.749  70.872  1.00  0.00    -0.373 A  
HETATM   25  C   UNL     1     -12.195  10.309  70.934  1.00  0.00    -0.365 C  
HETATM   26  C   UNL     1     -12.265  13.983  70.269  1.00  0.00    -0.361 A  
HETATM   27  N   UNL     1     -12.430   9.270  71.392  1.00  0.00    -0.327 NA 
HETATM   28 CL   UNL     1     -13.005  15.404  70.904  1.00  0.00    -0.518 Cl 
HETATM   29  C   UNL     1     -11.411  14.089  69.161  1.00  0.00    -0.323 A  
ENDBRANCH  20  21
ENDBRANCH  14  20
ENDBRANCH   8   9
ENDBRANCH   7   8
TORSDOF 4
ENDMDL
MODEL      153
REMARK 921   NORMALIZED FREE ENERGY PREDICTED BY IDOCK:   -5.41 KCAL/MOL
REMARK 922        TOTAL FREE ENERGY PREDICTED BY IDOCK:   -7.51 KCAL/MOL
REMARK 923 INTER-LIGAND FREE ENERGY PREDICTED BY IDOCK:   -6.56 KCAL/MOL
REMARK 924 INTRA-LIGAND FREE ENERGY PREDICTED BY IDOCK:   -0.94 KCAL/MOL
REMARK 927      BINDING AFFINITY PREDICTED BY RF-SCORE:    0.00 PKD
ROOT
HETATM    1  C   UNL     1     -12.327  12.729  64.531  1.00  0.00    -0.445 C  
HETATM    2  N   UNL     1     -11.225  13.196  65.339  1.00  0.00    -0.289 N  
HETATM    3  C   UNL     1     -10.706  14.464  65.226  1.00  0.00    -0.375 C  
HETATM    4  O   UNL     1     -11.082  15.377  64.511  1.00  0.00    -0.357 OA 
HETATM    5  N   UNL     1      -9.642  14.504  66.111  1.00  0.00    -0.307 NA 
HETATM    6  N   UNL     1      -9.529  13.321  66.778  1.00  0.00    -0.251 NA 
HETATM    7  C   UNL     1     -10.494  12.585  66.292  1.00  0.00    -0.246 C  
ENDROOT
BRANCH   7   8
HETATM    8  C   UNL     1     -10.791  11.220  66.888  1.00  0.00    -0.282 C  
BRANCH   8   9
HETATM    9  N   UNL     1      -9.806  10.504  67.692  1.00  0.00    -0.164 N  
HETATM   10  C   UNL     1      -8.539  10.230  67.204  1.00  0.00    -0.126 C  
HETATM   11  C   UNL     1      -7.563   9.831  68.037  1.00  0.00    -0.082 C  
HETATM   12  C   UNL     1      -7.862   9.523  69.433  1.00  0.00    -0.097 C  
HETATM   13  C   UNL     1      -6.761   9.061  70.338  1.00  0.00    -0.052 C  
HETATM   14  C   UNL     1      -9.116   9.687  69.900  1.00  0.00    -0.225 C  
HETATM   15  C   UNL     1      -9.989  10.581  69.077  1.00  0.00    -0.211 C  
HETATM   16  F   UNL     1      -5.536   9.130  69.752  1.00  0.00    -0.032 F  
HETATM   17  F   UNL     1      -6.685   9.829  71.458  1.00  0.00     0.009 F  
HETATM   18  O   UNL     1     -10.801  11.326  69.616  1.00  0.00    -0.201 OA 
HETATM   19  F   UNL     1      -6.926   7.778  70.746  1.00  0.00    -0.045 F  
BRANCH  14  20
HETATM   20  O   UNL     1      -9.491   9.264  71.171  1.00  0.00    -0.267 OA 
BRANCH  20  21
HETATM   21  C   UNL     1     -10.465   8.307  71.388  1.00  0.00    -0.219 A  
HETATM   22  C   UNL     1      -9.961   7.020  71.656  1.00  0.00    -0.187 A  
HETATM   23  C   UNL     1     -10.818   5.946  71.950  1.00  0.00    -0.307 A  
HETATM   24  C   UNL     1     -12.198   6.160  71.980  1.00  0.00    -0.192 A  
HETATM   25  C   UNL     1     -10.280   4.637  72.221  1.00  0.00    -0.193 C  
HETATM   26  C   UNL     1     -12.703   7.425  71.675  1.00  0.00    -0.365 A  
HETATM   27  N   UNL     1      -9.846   3.581  72.424  1.00  0.00    -0.153 NA 
HETATM   28 CL   UNL     1     -14.406   7.691  71.706  1.00  0.00    -0.557 Cl 
HETATM   29  C   UNL     1     -11.846   8.489  71.355  1.00  0.00    -0.345 A  
ENDBRANCH  20  21
ENDBRANCH  14  20
ENDBRANCH   8   9
ENDBRANCH   7   8
TORSDOF 4
ENDMDL
MODEL      154
REMARK 921   NORMALIZED FREE ENERGY PREDICTED BY IDOCK:   -5.40 KCAL/MOL
REMARK 922        TOTAL FREE ENERGY PREDICTED BY IDOCK:   -7.50 KCAL/MOL
REMARK 923 INTER-LIGAND FREE ENERGY PREDICTED BY IDOCK:   -7.75 KCAL/MOL
REMARK 924 INTRA-LIGAND FREE ENERGY PREDICTED BY IDOCK:    0.25 KCAL/MOL
REMARK 927      BINDING AFFINITY PREDICTED BY RF-SCORE:    0.00 PKD
ROOT
HETATM    1  C   UNL     1     -12.096  14.788  70.628  1.00  0.00    -0.310 C  
HETATM    2  N   UNL     1     -12.449  13.418  70.915  1.00  0.00    -0.371 N  
HETATM    3  C   UNL     1     -13.483  13.078  71.756  1.00  0.00    -0.314 C  
HETATM    4  O   UNL     1     -14.265  13.814  72.334  1.00  0.00    -0.648 OA 
HETATM    5  N   UNL     1     -13.463  11.694  71.820  1.00  0.00    -0.217 NA 
HETATM    6  N   UNL     1     -12.482  11.193  71.018  1.00  0.00    -0.393 NA 
HETATM    7  C   UNL     1     -11.919  12.251  70.499  1.00  0.00    -0.205 C  
ENDROOT
BRANCH   7   8
HETATM    8  C   UNL     1     -10.853  12.104  69.427  1.00  0.00     0.027 C  
BRANCH   8   9
HETATM    9  N   UNL     1     -10.930  12.831  68.164  1.00  0.00    -0.235 N  
HETATM   10  C   UNL     1     -12.035  12.720  67.335  1.00  0.00    -0.272 C  
HETATM   11  C   UNL     1     -12.221  13.595  66.333  1.00  0.00    -0.472 C  
HETATM   12  C   UNL     1     -11.186  14.570  66.001  1.00  0.00    -0.337 C  
HETATM   13  C   UNL     1     -11.407  15.523  64.866  1.00  0.00    -0.335 C  
HETATM   14  C   UNL     1     -10.057  14.625  66.736  1.00  0.00    -0.265 C  
HETATM   15  C   UNL     1     -10.148  13.988  68.087  1.00  0.00    -0.244 C  
HETATM   16  F   UNL     1     -12.667  15.452  64.359  1.00  0.00    -0.330 F  
HETATM   17  F   UNL     1     -11.235  16.814  65.261  1.00  0.00    -0.230 F  
HETATM   18  O   UNL     1      -9.562  14.479  69.047  1.00  0.00    -0.189 OA 
HETATM   19  F   UNL     1     -10.558  15.309  63.832  1.00  0.00     0.391 F  
BRANCH  14  20
HETATM   20  O   UNL     1      -8.977  15.421  66.372  1.00  0.00    -0.281 OA 
BRANCH  20  21
HETATM   21  C   UNL     1      -8.658  16.599  67.021  1.00  0.00    -0.195 A  
HETATM   22  C   UNL     1      -7.585  16.490  67.926  1.00  0.00    -0.162 A  
HETATM   23  C   UNL     1      -7.103  17.607  68.627  1.00  0.00    -0.245 A  
HETATM   24  C   UNL     1      -7.699  18.854  68.422  1.00  0.00    -0.351 A  
HETATM   25  C   UNL     1      -6.003  17.471  69.549  1.00  0.00    -0.246 C  
HETATM   26  C   UNL     1      -8.789  18.958  67.557  1.00  0.00    -0.278 A  
HETATM   27  N   UNL     1      -5.128  17.358  70.301  1.00  0.00    -0.202 NA 
HETATM   28 CL   UNL     1      -9.530  20.495  67.305  1.00  0.00    -0.565 Cl 
HETATM   29  C   UNL     1      -9.286  17.836  66.878  1.00  0.00    -0.272 A  
ENDBRANCH  20  21
ENDBRANCH  14  20
ENDBRANCH   8   9
ENDBRANCH   7   8
TORSDOF 4
ENDMDL
MODEL      155
REMARK 921   NORMALIZED FREE ENERGY PREDICTED BY IDOCK:   -5.38 KCAL/MOL
REMARK 922        TOTAL FREE ENERGY PREDICTED BY IDOCK:   -7.48 KCAL/MOL
REMARK 923 INTER-LIGAND FREE ENERGY PREDICTED BY IDOCK:   -7.12 KCAL/MOL
REMARK 924 INTRA-LIGAND FREE ENERGY PREDICTED BY IDOCK:   -0.35 KCAL/MOL
REMARK 927      BINDING AFFINITY PREDICTED BY RF-SCORE:    0.00 PKD
ROOT
HETATM    1  C   UNL     1     -10.785  15.935  67.422  1.00  0.00    -0.313 C  
HETATM    2  N   UNL     1      -9.623  15.357  68.057  1.00  0.00    -0.205 N  
HETATM    3  C   UNL     1      -8.634  16.121  68.629  1.00  0.00    -0.210 C  
HETATM    4  O   UNL     1      -8.580  17.334  68.743  1.00  0.00    -0.274 OA 
HETATM    5  N   UNL     1      -7.681  15.216  69.068  1.00  0.00    -0.162 NA 
HETATM    6  N   UNL     1      -8.082  13.939  68.814  1.00  0.00    -0.093 NA 
HETATM    7  C   UNL     1      -9.240  14.076  68.224  1.00  0.00    -0.200 C  
ENDROOT
BRANCH   7   8
HETATM    8  C   UNL     1     -10.085  12.857  67.902  1.00  0.00    -0.232 C  
BRANCH   8   9
HETATM    9  N   UNL     1     -10.647  12.014  68.953  1.00  0.00    -0.196 N  
HETATM   10  C   UNL     1     -11.878  12.298  69.523  1.00  0.00    -0.315 C  
HETATM   11  C   UNL     1     -12.506  11.376  70.272  1.00  0.00    -0.312 C  
HETATM   12  C   UNL     1     -11.833  10.131  70.631  1.00  0.00    -0.431 C  
HETATM   13  C   UNL     1     -12.546   9.127  71.485  1.00  0.00    -0.343 C  
HETATM   14  C   UNL     1     -10.592   9.883  70.168  1.00  0.00    -0.297 C  
HETATM   15  C   UNL     1     -10.185  10.695  68.978  1.00  0.00    -0.215 C  
HETATM   16  F   UNL     1     -13.847   9.455  71.704  1.00  0.00    -0.392 F  
HETATM   17  F   UNL     1     -12.564   7.900  70.897  1.00  0.00    -0.270 F  
HETATM   18  O   UNL     1      -9.491  10.200  68.095  1.00  0.00    -0.141 OA 
HETATM   19  F   UNL     1     -11.971   8.975  72.703  1.00  0.00    -0.367 F  
BRANCH  14  20
HETATM   20  O   UNL     1      -9.846   8.793  70.602  1.00  0.00    -0.174 OA 
BRANCH  20  21
HETATM   21  C   UNL     1      -9.964   7.532  70.048  1.00  0.00    -0.186 A  
HETATM   22  C   UNL     1      -9.820   6.479  70.971  1.00  0.00    -0.196 A  
HETATM   23  C   UNL     1      -9.965   5.138  70.579  1.00  0.00    -0.304 A  
HETATM   24  C   UNL     1     -10.260   4.842  69.245  1.00  0.00    -0.205 A  
HETATM   25  C   UNL     1      -9.813   4.076  71.541  1.00  0.00    -0.181 C  
HETATM   26  C   UNL     1     -10.363   5.882  68.320  1.00  0.00    -0.214 A  
HETATM   27  N   UNL     1      -9.676   3.222  72.314  1.00  0.00    -0.143 NA 
HETATM   28 CL   UNL     1     -10.722   5.520  66.672  1.00  0.00    -0.364 Cl 
HETATM   29  C   UNL     1     -10.191   7.219  68.708  1.00  0.00    -0.188 A  
ENDBRANCH  20  21
ENDBRANCH  14  20
ENDBRANCH   8   9
ENDBRANCH   7   8
TORSDOF 4
ENDMDL
MODEL      156
REMARK 921   NORMALIZED FREE ENERGY PREDICTED BY IDOCK:   -5.36 KCAL/MOL
REMARK 922        TOTAL FREE ENERGY PREDICTED BY IDOCK:   -7.45 KCAL/MOL
REMARK 923 INTER-LIGAND FREE ENERGY PREDICTED BY IDOCK:   -6.41 KCAL/MOL
REMARK 924 INTRA-LIGAND FREE ENERGY PREDICTED BY IDOCK:   -1.04 KCAL/MOL
REMARK 927      BINDING AFFINITY PREDICTED BY RF-SCORE:    0.00 PKD
ROOT
HETATM    1  C   UNL     1      -9.603   5.176  69.336  1.00  0.00    -0.161 C  
HETATM    2  N   UNL     1      -9.022   6.076  70.303  1.00  0.00    -0.146 N  
HETATM    3  C   UNL     1      -8.541   5.650  71.519  1.00  0.00    -0.132 C  
HETATM    4  O   UNL     1      -8.475   4.512  71.953  1.00  0.00    -0.108 OA 
HETATM    5  N   UNL     1      -8.130   6.799  72.174  1.00  0.00    -0.100 NA 
HETATM    6  N   UNL     1      -8.311   7.892  71.381  1.00  0.00    -0.103 NA 
HETATM    7  C   UNL     1      -8.831   7.410  70.283  1.00  0.00    -0.147 C  
ENDROOT
BRANCH   7   8
HETATM    8  C   UNL     1      -9.055   8.311  69.081  1.00  0.00    -0.148 C  
BRANCH   8   9
HETATM    9  N   UNL     1      -9.937   9.472  69.146  1.00  0.00    -0.176 N  
HETATM   10  C   UNL     1     -11.111   9.445  69.882  1.00  0.00    -0.200 C  
HETATM   11  C   UNL     1     -11.760  10.586  70.164  1.00  0.00    -0.410 C  
HETATM   12  C   UNL     1     -11.334  11.847  69.565  1.00  0.00    -0.306 C  
HETATM   13  C   UNL     1     -12.086  13.105  69.879  1.00  0.00    -0.287 C  
HETATM   14  C   UNL     1     -10.251  11.875  68.762  1.00  0.00    -0.143 C  
HETATM   15  C   UNL     1      -9.326  10.706  68.904  1.00  0.00    -0.184 C  
HETATM   16  F   UNL     1     -13.026  12.926  70.844  1.00  0.00    -0.329 F  
HETATM   17  F   UNL     1     -11.255  14.077  70.342  1.00  0.00    -0.209 F  
HETATM   18  O   UNL     1      -8.113  10.859  68.810  1.00  0.00    -0.130 OA 
HETATM   19  F   UNL     1     -12.727  13.612  68.798  1.00  0.00    -0.129 F  
BRANCH  14  20
HETATM   20  O   UNL     1      -9.893  13.010  68.044  1.00  0.00    -0.211 OA 
BRANCH  20  21
HETATM   21  C   UNL     1     -10.216  13.190  66.711  1.00  0.00    -0.252 A  
HETATM   22  C   UNL     1      -9.906  12.092  65.887  1.00  0.00    -0.259 A  
HETATM   23  C   UNL     1     -10.219  12.094  64.518  1.00  0.00    -0.321 A  
HETATM   24  C   UNL     1     -10.852  13.209  63.962  1.00  0.00    -0.348 A  
HETATM   25  C   UNL     1      -9.892  10.959  63.693  1.00  0.00    -0.351 C  
HETATM   26  C   UNL     1     -11.124  14.315  64.768  1.00  0.00    -0.391 A  
HETATM   27  N   UNL     1      -9.615  10.050  63.027  1.00  0.00    -0.188 NA 
HETATM   28 CL   UNL     1     -11.901  15.694  64.084  1.00  0.00    -0.233 Cl 
HETATM   29  C   UNL     1     -10.786  14.321  66.130  1.00  0.00    -0.310 A  
ENDBRANCH  20  21
ENDBRANCH  14  20
ENDBRANCH   8   9
ENDBRANCH   7   8
TORSDOF 4
ENDMDL
MODEL      157
REMARK 921   NORMALIZED FREE ENERGY PREDICTED BY IDOCK:   -5.33 KCAL/MOL
REMARK 922        TOTAL FREE ENERGY PREDICTED BY IDOCK:   -7.41 KCAL/MOL
REMARK 923 INTER-LIGAND FREE ENERGY PREDICTED BY IDOCK:   -6.17 KCAL/MOL
REMARK 924 INTRA-LIGAND FREE ENERGY PREDICTED BY IDOCK:   -1.23 KCAL/MOL
REMARK 927      BINDING AFFINITY PREDICTED BY RF-SCORE:    0.00 PKD
ROOT
HETATM    1  C   UNL     1      -7.868   7.615  64.277  1.00  0.00    -0.135 C  
HETATM    2  N   UNL     1      -8.176   7.460  65.679  1.00  0.00    -0.132 N  
HETATM    3  C   UNL     1      -8.518   6.250  66.234  1.00  0.00    -0.133 C  
HETATM    4  O   UNL     1      -8.572   5.156  65.698  1.00  0.00    -0.128 OA 
HETATM    5  N   UNL     1      -8.795   6.523  67.564  1.00  0.00    -0.113 NA 
HETATM    6  N   UNL     1      -8.594   7.843  67.833  1.00  0.00    -0.125 NA 
HETATM    7  C   UNL     1      -8.220   8.351  66.689  1.00  0.00    -0.105 C  
ENDROOT
BRANCH   7   8
HETATM    8  C   UNL     1      -7.762   9.797  66.604  1.00  0.00    -0.102 C  
BRANCH   8   9
HETATM    9  N   UNL     1      -8.714  10.896  66.474  1.00  0.00    -0.157 N  
HETATM   10  C   UNL     1      -9.706  10.879  65.508  1.00  0.00    -0.233 C  
HETATM   11  C   UNL     1     -10.734  11.741  65.577  1.00  0.00    -0.329 C  
HETATM   12  C   UNL     1     -10.737  12.811  66.571  1.00  0.00    -0.277 C  
HETATM   13  C   UNL     1     -11.885  13.773  66.617  1.00  0.00    -0.412 C  
HETATM   14  C   UNL     1      -9.725  12.904  67.457  1.00  0.00    -0.205 C  
HETATM   15  C   UNL     1      -8.917  11.656  67.630  1.00  0.00    -0.166 C  
HETATM   16  F   UNL     1     -12.897  13.421  65.780  1.00  0.00    -0.477 F  
HETATM   17  F   UNL     1     -12.432  13.834  67.861  1.00  0.00    -0.337 F  
HETATM   18  O   UNL     1      -8.478  11.348  68.734  1.00  0.00    -0.151 OA 
HETATM   19  F   UNL     1     -11.522  15.035  66.280  1.00  0.00    -0.341 F  
BRANCH  14  20
HETATM   20  O   UNL     1      -9.596  13.986  68.320  1.00  0.00    -0.213 OA 
BRANCH  20  21
HETATM   21  C   UNL     1      -8.458  14.769  68.381  1.00  0.00    -0.157 A  
HETATM   22  C   UNL     1      -8.376  15.751  67.375  1.00  0.00    -0.189 A  
HETATM   23  C   UNL     1      -7.308  16.662  67.329  1.00  0.00    -0.203 A  
HETATM   24  C   UNL     1      -6.306  16.593  68.300  1.00  0.00    -0.136 A  
HETATM   25  C   UNL     1      -7.244  17.658  66.289  1.00  0.00    -0.307 C  
HETATM   26  C   UNL     1      -6.363  15.596  69.274  1.00  0.00    -0.136 A  
HETATM   27  N   UNL     1      -7.187  18.450  65.444  1.00  0.00    -0.510 NA 
HETATM   28 CL   UNL     1      -5.127  15.506  70.473  1.00  0.00    -0.132 Cl 
HETATM   29  C   UNL     1      -7.417  14.670  69.304  1.00  0.00    -0.132 A  
ENDBRANCH  20  21
ENDBRANCH  14  20
ENDBRANCH   8   9
ENDBRANCH   7   8
TORSDOF 4
ENDMDL
MODEL      158
REMARK 921   NORMALIZED FREE ENERGY PREDICTED BY IDOCK:   -5.31 KCAL/MOL
REMARK 922        TOTAL FREE ENERGY PREDICTED BY IDOCK:   -7.39 KCAL/MOL
REMARK 923 INTER-LIGAND FREE ENERGY PREDICTED BY IDOCK:   -6.99 KCAL/MOL
REMARK 924 INTRA-LIGAND FREE ENERGY PREDICTED BY IDOCK:   -0.40 KCAL/MOL
REMARK 927      BINDING AFFINITY PREDICTED BY RF-SCORE:    0.00 PKD
ROOT
HETATM    1  C   UNL     1      -8.222   7.844  71.489  1.00  0.00    -0.109 C  
HETATM    2  N   UNL     1      -9.490   7.217  71.778  1.00  0.00    -0.151 N  
HETATM    3  C   UNL     1      -9.691   6.422  72.882  1.00  0.00    -0.157 C  
HETATM    4  O   UNL     1      -8.910   6.161  73.782  1.00  0.00    -0.124 OA 
HETATM    5  N   UNL     1     -10.994   5.966  72.773  1.00  0.00    -0.250 NA 
HETATM    6  N   UNL     1     -11.592   6.488  71.665  1.00  0.00    -0.294 NA 
HETATM    7  C   UNL     1     -10.664   7.228  71.117  1.00  0.00    -0.228 C  
ENDROOT
BRANCH   7   8
HETATM    8  C   UNL     1     -10.989   8.100  69.917  1.00  0.00    -0.168 C  
BRANCH   8   9
HETATM    9  N   UNL     1     -11.515   9.452  70.072  1.00  0.00    -0.143 N  
HETATM   10  C   UNL     1     -12.118   9.861  71.251  1.00  0.00    -0.394 C  
HETATM   11  C   UNL     1     -12.338  11.165  71.483  1.00  0.00    -0.256 C  
HETATM   12  C   UNL     1     -12.098  12.154  70.435  1.00  0.00    -0.395 C  
HETATM   13  C   UNL     1     -12.370  13.601  70.711  1.00  0.00    -0.371 C  
HETATM   14  C   UNL     1     -11.606  11.760  69.243  1.00  0.00    -0.315 C  
HETATM   15  C   UNL     1     -10.938  10.421  69.244  1.00  0.00    -0.242 C  
HETATM   16  F   UNL     1     -12.682  13.838  72.013  1.00  0.00    -0.391 F  
HETATM   17  F   UNL     1     -11.281  14.371  70.441  1.00  0.00    -0.265 F  
HETATM   18  O   UNL     1      -9.945  10.220  68.551  1.00  0.00    -0.155 OA 
HETATM   19  F   UNL     1     -13.394  14.090  69.969  1.00  0.00    -0.048 F  
BRANCH  14  20
HETATM   20  O   UNL     1     -11.505  12.629  68.163  1.00  0.00    -0.269 OA 
BRANCH  20  21
HETATM   21  C   UNL     1     -10.402  13.432  67.943  1.00  0.00    -0.238 A  
HETATM   22  C   UNL     1     -10.693  14.655  67.309  1.00  0.00    -0.290 A  
HETATM   23  C   UNL     1      -9.690  15.607  67.062  1.00  0.00    -0.234 A  
HETATM   24  C   UNL     1      -8.376  15.336  67.453  1.00  0.00    -0.202 A  
HETATM   25  C   UNL     1     -10.012  16.853  66.412  1.00  0.00    -0.309 C  
HETATM   26  C   UNL     1      -8.077  14.108  68.044  1.00  0.00    -0.149 A  
HETATM   27  N   UNL     1     -10.269  17.848  65.875  1.00  0.00    -0.578 NA 
HETATM   28 CL   UNL     1      -6.456  13.768  68.524  1.00  0.00    -0.085 Cl 
HETATM   29  C   UNL     1      -9.076  13.147  68.267  1.00  0.00    -0.181 A  
ENDBRANCH  20  21
ENDBRANCH  14  20
ENDBRANCH   8   9
ENDBRANCH   7   8
TORSDOF 4
ENDMDL
MODEL      159
REMARK 921   NORMALIZED FREE ENERGY PREDICTED BY IDOCK:   -5.30 KCAL/MOL
REMARK 922        TOTAL FREE ENERGY PREDICTED BY IDOCK:   -7.38 KCAL/MOL
REMARK 923 INTER-LIGAND FREE ENERGY PREDICTED BY IDOCK:   -6.18 KCAL/MOL
REMARK 924 INTRA-LIGAND FREE ENERGY PREDICTED BY IDOCK:   -1.20 KCAL/MOL
REMARK 927      BINDING AFFINITY PREDICTED BY RF-SCORE:    0.00 PKD
ROOT
HETATM    1  C   UNL     1      -9.649  13.270  66.077  1.00  0.00    -0.160 C  
HETATM    2  N   UNL     1     -10.526  12.410  66.836  1.00  0.00    -0.223 N  
HETATM    3  C   UNL     1     -11.783  12.798  67.236  1.00  0.00    -0.378 C  
HETATM    4  O   UNL     1     -12.367  13.842  67.000  1.00  0.00    -0.391 OA 
HETATM    5  N   UNL     1     -12.274  11.737  67.979  1.00  0.00    -0.425 NA 
HETATM    6  N   UNL     1     -11.374  10.714  68.005  1.00  0.00    -0.377 NA 
HETATM    7  C   UNL     1     -10.363  11.158  67.307  1.00  0.00    -0.208 C  
ENDROOT
BRANCH   7   8
HETATM    8  C   UNL     1      -9.194  10.244  66.984  1.00  0.00    -0.150 C  
BRANCH   8   9
HETATM    9  N   UNL     1      -9.246   8.810  67.251  1.00  0.00    -0.137 N  
HETATM   10  C   UNL     1      -9.355   7.888  66.222  1.00  0.00    -0.164 C  
HETATM   11  C   UNL     1      -9.119   6.586  66.450  1.00  0.00    -0.172 C  
HETATM   12  C   UNL     1      -8.906   6.100  67.811  1.00  0.00    -0.110 C  
HETATM   13  C   UNL     1      -8.665   4.640  68.044  1.00  0.00    -0.103 C  
HETATM   14  C   UNL     1      -8.899   6.972  68.839  1.00  0.00    -0.130 C  
HETATM   15  C   UNL     1      -8.670   8.401  68.458  1.00  0.00    -0.136 C  
HETATM   16  F   UNL     1      -8.522   3.941  66.886  1.00  0.00    -0.101 F  
HETATM   17  F   UNL     1      -7.521   4.433  68.750  1.00  0.00    -0.057 F  
HETATM   18  O   UNL     1      -8.009   9.140  69.181  1.00  0.00    -0.093 OA 
HETATM   19  F   UNL     1      -9.670   4.049  68.735  1.00  0.00    -0.221 F  
BRANCH  14  20
HETATM   20  O   UNL     1      -8.858   6.551  70.164  1.00  0.00    -0.142 OA 
BRANCH  20  21
HETATM   21  C   UNL     1      -9.995   6.302  70.910  1.00  0.00    -0.186 A  
HETATM   22  C   UNL     1      -9.841   5.293  71.879  1.00  0.00    -0.227 A  
HETATM   23  C   UNL     1     -10.886   4.955  72.755  1.00  0.00    -0.293 A  
HETATM   24  C   UNL     1     -12.103   5.636  72.664  1.00  0.00    -0.041 A  
HETATM   25  C   UNL     1     -10.706   3.918  73.739  1.00  0.00    -0.231 C  
HETATM   26  C   UNL     1     -12.272   6.609  71.678  1.00  0.00    -0.352 A  
HETATM   27  N   UNL     1     -10.565   3.073  74.521  1.00  0.00    -0.161 NA 
HETATM   28 CL   UNL     1     -13.774   7.447  71.560  1.00  0.00    -0.474 Cl 
HETATM   29  C   UNL     1     -11.236   6.926  70.787  1.00  0.00    -0.338 A  
ENDBRANCH  20  21
ENDBRANCH  14  20
ENDBRANCH   8   9
ENDBRANCH   7   8
TORSDOF 4
ENDMDL
MODEL      160
REMARK 921   NORMALIZED FREE ENERGY PREDICTED BY IDOCK:   -5.30 KCAL/MOL
REMARK 922        TOTAL FREE ENERGY PREDICTED BY IDOCK:   -7.38 KCAL/MOL
REMARK 923 INTER-LIGAND FREE ENERGY PREDICTED BY IDOCK:   -6.17 KCAL/MOL
REMARK 924 INTRA-LIGAND FREE ENERGY PREDICTED BY IDOCK:   -1.20 KCAL/MOL
REMARK 927      BINDING AFFINITY PREDICTED BY RF-SCORE:    0.00 PKD
ROOT
HETATM    1  C   UNL     1      -8.517  14.799  68.375  1.00  0.00    -0.157 C  
HETATM    2  N   UNL     1      -8.125  13.511  67.853  1.00  0.00    -0.150 N  
HETATM    3  C   UNL     1      -6.813  13.174  67.618  1.00  0.00    -0.158 C  
HETATM    4  O   UNL     1      -5.809  13.830  67.838  1.00  0.00    -0.127 OA 
HETATM    5  N   UNL     1      -6.855  11.902  67.071  1.00  0.00    -0.143 NA 
HETATM    6  N   UNL     1      -8.139  11.452  67.005  1.00  0.00    -0.151 NA 
HETATM    7  C   UNL     1      -8.850  12.436  67.488  1.00  0.00    -0.181 C  
ENDROOT
BRANCH   7   8
HETATM    8  C   UNL     1     -10.342  12.265  67.713  1.00  0.00    -0.207 C  
BRANCH   8   9
HETATM    9  N   UNL     1     -10.866  11.565  68.882  1.00  0.00    -0.210 N  
HETATM   10  C   UNL     1     -11.644  12.217  69.824  1.00  0.00    -0.243 C  
HETATM   11  C   UNL     1     -12.346  11.514  70.728  1.00  0.00    -0.472 C  
HETATM   12  C   UNL     1     -12.173  10.068  70.836  1.00  0.00    -0.441 C  
HETATM   13  C   UNL     1     -12.952   9.307  71.866  1.00  0.00    -0.411 C  
HETATM   14  C   UNL     1     -11.340   9.428  69.991  1.00  0.00    -0.141 C  
HETATM   15  C   UNL     1     -11.003  10.180  68.742  1.00  0.00    -0.223 C  
HETATM   16  F   UNL     1     -13.874  10.078  72.501  1.00  0.00    -0.407 F  
HETATM   17  F   UNL     1     -13.645   8.280  71.304  1.00  0.00    -0.328 F  
HETATM   18  O   UNL     1     -10.868   9.586  67.676  1.00  0.00    -0.279 OA 
HETATM   19  F   UNL     1     -12.161   8.773  72.828  1.00  0.00    -0.415 F  
BRANCH  14  20
HETATM   20  O   UNL     1     -11.018   8.085  70.148  1.00  0.00    -0.249 OA 
BRANCH  20  21
HETATM   21  C   UNL     1      -9.859   7.656  70.768  1.00  0.00    -0.177 A  
HETATM   22  C   UNL     1      -9.425   6.379  70.363  1.00  0.00    -0.172 A  
HETATM   23  C   UNL     1      -8.236   5.820  70.860  1.00  0.00    -0.121 A  
HETATM   24  C   UNL     1      -7.467   6.546  71.774  1.00  0.00    -0.093 A  
HETATM   25  C   UNL     1      -7.810   4.511  70.432  1.00  0.00    -0.053 C  
HETATM   26  C   UNL     1      -7.916   7.794  72.208  1.00  0.00    -0.113 A  
HETATM   27  N   UNL     1      -7.477   3.452  70.097  1.00  0.00    -0.044 NA 
HETATM   28 CL   UNL     1      -6.972   8.690  73.339  1.00  0.00    -0.052 Cl 
HETATM   29  C   UNL     1      -9.117   8.339  71.731  1.00  0.00    -0.255 A  
ENDBRANCH  20  21
ENDBRANCH  14  20
ENDBRANCH   8   9
ENDBRANCH   7   8
TORSDOF 4
ENDMDL
MODEL      161
REMARK 921   NORMALIZED FREE ENERGY PREDICTED BY IDOCK:   -5.30 KCAL/MOL
REMARK 922        TOTAL FREE ENERGY PREDICTED BY IDOCK:   -7.38 KCAL/MOL
REMARK 923 INTER-LIGAND FREE ENERGY PREDICTED BY IDOCK:   -6.74 KCAL/MOL
REMARK 924 INTRA-LIGAND FREE ENERGY PREDICTED BY IDOCK:   -0.64 KCAL/MOL
REMARK 927      BINDING AFFINITY PREDICTED BY RF-SCORE:    0.00 PKD
ROOT
HETATM    1  C   UNL     1      -9.642   5.157  71.012  1.00  0.00    -0.171 C  
HETATM    2  N   UNL     1      -9.893   6.380  71.737  1.00  0.00    -0.164 N  
HETATM    3  C   UNL     1      -9.359   6.630  72.979  1.00  0.00    -0.135 C  
HETATM    4  O   UNL     1      -8.592   5.940  73.629  1.00  0.00    -0.122 OA 
HETATM    5  N   UNL     1      -9.875   7.859  73.358  1.00  0.00    -0.288 NA 
HETATM    6  N   UNL     1     -10.667   8.370  72.374  1.00  0.00    -0.339 NA 
HETATM    7  C   UNL     1     -10.637   7.463  71.434  1.00  0.00    -0.214 C  
ENDROOT
BRANCH   7   8
HETATM    8  C   UNL     1     -11.296   7.727  70.092  1.00  0.00    -0.110 C  
BRANCH   8   9
HETATM    9  N   UNL     1     -10.526   8.166  68.933  1.00  0.00    -0.209 N  
HETATM   10  C   UNL     1     -10.166   7.281  67.929  1.00  0.00    -0.191 C  
HETATM   11  C   UNL     1      -9.713   7.741  66.751  1.00  0.00    -0.296 C  
HETATM   12  C   UNL     1      -9.439   9.163  66.567  1.00  0.00    -0.266 C  
HETATM   13  C   UNL     1      -8.916   9.650  65.250  1.00  0.00    -0.204 C  
HETATM   14  C   UNL     1      -9.688  10.028  67.571  1.00  0.00    -0.159 C  
HETATM   15  C   UNL     1     -10.628   9.526  68.622  1.00  0.00    -0.210 C  
HETATM   16  F   UNL     1      -8.901   8.677  64.300  1.00  0.00    -0.160 F  
HETATM   17  F   UNL     1      -9.688  10.651  64.749  1.00  0.00    -0.242 F  
HETATM   18  O   UNL     1     -11.429  10.288  69.155  1.00  0.00    -0.218 OA 
HETATM   19  F   UNL     1      -7.651  10.130  65.337  1.00  0.00    -0.119 F  
BRANCH  14  20
HETATM   20  O   UNL     1      -9.303  11.362  67.509  1.00  0.00    -0.161 OA 
BRANCH  20  21
HETATM   21  C   UNL     1     -10.208  12.405  67.440  1.00  0.00    -0.208 A  
HETATM   22  C   UNL     1     -10.219  13.239  68.574  1.00  0.00    -0.222 A  
HETATM   23  C   UNL     1     -11.044  14.373  68.639  1.00  0.00    -0.269 A  
HETATM   24  C   UNL     1     -11.871  14.682  67.556  1.00  0.00    -0.375 A  
HETATM   25  C   UNL     1     -11.039  15.213  69.811  1.00  0.00    -0.278 C  
HETATM   26  C   UNL     1     -11.892  13.836  66.447  1.00  0.00    -0.404 A  
HETATM   27  N   UNL     1     -11.044  15.878  70.760  1.00  0.00    -0.345 NA 
HETATM   28 CL   UNL     1     -12.914  14.212  65.110  1.00  0.00    -0.332 Cl 
HETATM   29  C   UNL     1     -11.087  12.688  66.395  1.00  0.00    -0.325 A  
ENDBRANCH  20  21
ENDBRANCH  14  20
ENDBRANCH   8   9
ENDBRANCH   7   8
TORSDOF 4
ENDMDL
MODEL      162
REMARK 921   NORMALIZED FREE ENERGY PREDICTED BY IDOCK:   -5.27 KCAL/MOL
REMARK 922        TOTAL FREE ENERGY PREDICTED BY IDOCK:   -7.34 KCAL/MOL
REMARK 923 INTER-LIGAND FREE ENERGY PREDICTED BY IDOCK:   -6.22 KCAL/MOL
REMARK 924 INTRA-LIGAND FREE ENERGY PREDICTED BY IDOCK:   -1.12 KCAL/MOL
REMARK 927      BINDING AFFINITY PREDICTED BY RF-SCORE:    0.00 PKD
ROOT
HETATM    1  C   UNL     1      -9.508  10.813  64.220  1.00  0.00    -0.264 C  
HETATM    2  N   UNL     1      -8.552  10.915  65.298  1.00  0.00    -0.145 N  
HETATM    3  C   UNL     1      -7.251  10.484  65.179  1.00  0.00    -0.021 C  
HETATM    4  O   UNL     1      -6.692  10.017  64.202  1.00  0.00    -0.123 OA 
HETATM    5  N   UNL     1      -6.682  10.694  66.425  1.00  0.00    -0.116 NA 
HETATM    6  N   UNL     1      -7.581  11.269  67.271  1.00  0.00    -0.123 NA 
HETATM    7  C   UNL     1      -8.667  11.388  66.555  1.00  0.00    -0.181 C  
ENDROOT
BRANCH   7   8
HETATM    8  C   UNL     1      -9.875  12.122  67.109  1.00  0.00    -0.197 C  
BRANCH   8   9
HETATM    9  N   UNL     1     -10.527  11.703  68.346  1.00  0.00    -0.205 N  
HETATM   10  C   UNL     1     -11.083  12.626  69.217  1.00  0.00    -0.132 C  
HETATM   11  C   UNL     1     -11.915  12.222  70.191  1.00  0.00    -0.377 C  
HETATM   12  C   UNL     1     -12.116  10.799  70.450  1.00  0.00    -0.443 C  
HETATM   13  C   UNL     1     -13.034  10.373  71.555  1.00  0.00    -0.458 C  
HETATM   14  C   UNL     1     -11.500   9.884  69.674  1.00  0.00    -0.108 C  
HETATM   15  C   UNL     1     -11.019  10.394  68.352  1.00  0.00    -0.264 C  
HETATM   16  F   UNL     1     -13.708  11.416  72.108  1.00  0.00    -0.426 F  
HETATM   17  F   UNL     1     -13.984   9.509  71.106  1.00  0.00    -0.391 F  
HETATM   18  O   UNL     1     -11.072   9.681  67.354  1.00  0.00    -0.183 OA 
HETATM   19  F   UNL     1     -12.379   9.752  72.566  1.00  0.00    -0.297 F  
BRANCH  14  20
HETATM   20  O   UNL     1     -11.530   8.526  69.969  1.00  0.00    -0.098 OA 
BRANCH  20  21
HETATM   21  C   UNL     1     -10.407   7.813  70.346  1.00  0.00    -0.212 A  
HETATM   22  C   UNL     1      -9.705   8.370  71.432  1.00  0.00    -0.260 A  
HETATM   23  C   UNL     1      -8.572   7.739  71.971  1.00  0.00    -0.149 A  
HETATM   24  C   UNL     1      -8.132   6.533  71.419  1.00  0.00    -0.112 A  
HETATM   25  C   UNL     1      -7.869   8.328  73.083  1.00  0.00    -0.131 C  
HETATM   26  C   UNL     1      -8.801   5.999  70.317  1.00  0.00    -0.144 A  
HETATM   27  N   UNL     1      -7.295   8.810  73.968  1.00  0.00    -0.407 NA 
HETATM   28 CL   UNL     1      -8.258   4.513  69.630  1.00  0.00    -0.063 Cl 
HETATM   29  C   UNL     1      -9.917   6.645  69.763  1.00  0.00    -0.189 A  
ENDBRANCH  20  21
ENDBRANCH  14  20
ENDBRANCH   8   9
ENDBRANCH   7   8
TORSDOF 4
ENDMDL
MODEL      163
REMARK 921   NORMALIZED FREE ENERGY PREDICTED BY IDOCK:   -5.25 KCAL/MOL
REMARK 922        TOTAL FREE ENERGY PREDICTED BY IDOCK:   -7.32 KCAL/MOL
REMARK 923 INTER-LIGAND FREE ENERGY PREDICTED BY IDOCK:   -7.03 KCAL/MOL
REMARK 924 INTRA-LIGAND FREE ENERGY PREDICTED BY IDOCK:   -0.29 KCAL/MOL
REMARK 927      BINDING AFFINITY PREDICTED BY RF-SCORE:    0.00 PKD
ROOT
HETATM    1  C   UNL     1     -10.644  16.684  65.962  1.00  0.00    -0.233 C  
HETATM    2  N   UNL     1     -11.016  16.179  67.263  1.00  0.00    -0.237 N  
HETATM    3  C   UNL     1     -10.686  16.823  68.432  1.00  0.00    -0.362 C  
HETATM    4  O   UNL     1     -10.105  17.886  68.576  1.00  0.00    -0.352 OA 
HETATM    5  N   UNL     1     -11.159  16.007  69.446  1.00  0.00    -0.306 NA 
HETATM    6  N   UNL     1     -11.794  14.918  68.927  1.00  0.00    -0.313 NA 
HETATM    7  C   UNL     1     -11.690  15.072  67.633  1.00  0.00    -0.262 C  
ENDROOT
BRANCH   7   8
HETATM    8  C   UNL     1     -12.403  14.121  66.688  1.00  0.00    -0.339 C  
BRANCH   8   9
HETATM    9  N   UNL     1     -11.669  13.162  65.868  1.00  0.00    -0.364 N  
HETATM   10  C   UNL     1     -11.131  13.524  64.644  1.00  0.00    -0.374 C  
HETATM   11  C   UNL     1     -10.231  12.732  64.039  1.00  0.00    -0.323 C  
HETATM   12  C   UNL     1      -9.930  11.408  64.577  1.00  0.00    -0.318 C  
HETATM   13  C   UNL     1      -8.937  10.534  63.873  1.00  0.00    -0.216 C  
HETATM   14  C   UNL     1     -10.524  10.998  65.716  1.00  0.00    -0.228 C  
HETATM   15  C   UNL     1     -11.097  12.091  66.562  1.00  0.00    -0.314 C  
HETATM   16  F   UNL     1      -8.303  11.175  62.855  1.00  0.00    -0.151 F  
HETATM   17  F   UNL     1      -7.958  10.115  64.719  1.00  0.00    -0.129 F  
HETATM   18  O   UNL     1     -11.047  12.021  67.786  1.00  0.00    -0.221 OA 
HETATM   19  F   UNL     1      -9.504   9.423  63.342  1.00  0.00    -0.205 F  
BRANCH  14  20
HETATM   20  O   UNL     1     -10.396   9.696  66.187  1.00  0.00    -0.230 OA 
BRANCH  20  21
HETATM   21  C   UNL     1      -9.777   9.387  67.385  1.00  0.00    -0.159 A  
HETATM   22  C   UNL     1     -10.371   8.319  68.084  1.00  0.00    -0.253 A  
HETATM   23  C   UNL     1      -9.832   7.846  69.292  1.00  0.00    -0.177 A  
HETATM   24  C   UNL     1      -8.682   8.447  69.810  1.00  0.00    -0.133 A  
HETATM   25  C   UNL     1     -10.458   6.752  69.991  1.00  0.00    -0.210 C  
HETATM   26  C   UNL     1      -8.114   9.531  69.140  1.00  0.00    -0.103 A  
HETATM   27  N   UNL     1     -10.970   5.881  70.559  1.00  0.00    -0.303 NA 
HETATM   28 CL   UNL     1      -6.697  10.277  69.779  1.00  0.00    -0.086 Cl 
HETATM   29  C   UNL     1      -8.670  10.019  67.947  1.00  0.00    -0.125 A  
ENDBRANCH  20  21
ENDBRANCH  14  20
ENDBRANCH   8   9
ENDBRANCH   7   8
TORSDOF 4
ENDMDL
MODEL      164
REMARK 921   NORMALIZED FREE ENERGY PREDICTED BY IDOCK:   -5.23 KCAL/MOL
REMARK 922        TOTAL FREE ENERGY PREDICTED BY IDOCK:   -7.29 KCAL/MOL
REMARK 923 INTER-LIGAND FREE ENERGY PREDICTED BY IDOCK:   -6.19 KCAL/MOL
REMARK 924 INTRA-LIGAND FREE ENERGY PREDICTED BY IDOCK:   -1.10 KCAL/MOL
REMARK 927      BINDING AFFINITY PREDICTED BY RF-SCORE:    0.00 PKD
ROOT
HETATM    1  C   UNL     1     -11.540  10.457  70.730  1.00  0.00    -0.358 C  
HETATM    2  N   UNL     1     -11.580  11.703  70.001  1.00  0.00    -0.285 N  
HETATM    3  C   UNL     1     -12.374  12.760  70.379  1.00  0.00    -0.247 C  
HETATM    4  O   UNL     1     -13.100  12.853  71.354  1.00  0.00    -0.334 OA 
HETATM    5  N   UNL     1     -12.180  13.729  69.409  1.00  0.00    -0.320 NA 
HETATM    6  N   UNL     1     -11.271  13.307  68.486  1.00  0.00    -0.254 NA 
HETATM    7  C   UNL     1     -10.939  12.108  68.887  1.00  0.00    -0.224 C  
ENDROOT
BRANCH   7   8
HETATM    8  C   UNL     1      -9.827  11.346  68.187  1.00  0.00    -0.191 C  
BRANCH   8   9
HETATM    9  N   UNL     1      -9.935   9.918  67.907  1.00  0.00    -0.154 N  
HETATM   10  C   UNL     1     -10.320   9.455  66.659  1.00  0.00    -0.214 C  
HETATM   11  C   UNL     1     -10.145   8.164  66.331  1.00  0.00    -0.196 C  
HETATM   12  C   UNL     1      -9.701   7.200  67.334  1.00  0.00    -0.186 C  
HETATM   13  C   UNL     1      -9.531   5.762  66.949  1.00  0.00    -0.133 C  
HETATM   14  C   UNL     1      -9.419   7.617  68.584  1.00  0.00    -0.151 C  
HETATM   15  C   UNL     1      -9.161   9.085  68.721  1.00  0.00    -0.133 C  
HETATM   16  F   UNL     1      -9.678   5.555  65.614  1.00  0.00    -0.154 F  
HETATM   17  F   UNL     1      -8.288   5.308  67.263  1.00  0.00    -0.107 F  
HETATM   18  O   UNL     1      -8.314   9.497  69.507  1.00  0.00    -0.120 OA 
HETATM   19  F   UNL     1     -10.419   4.947  67.571  1.00  0.00    -0.205 F  
BRANCH  14  20
HETATM   20  O   UNL     1      -9.145   6.725  69.615  1.00  0.00    -0.143 OA 
BRANCH  20  21
HETATM   21  C   UNL     1     -10.078   6.372  70.573  1.00  0.00    -0.186 A  
HETATM   22  C   UNL     1      -9.621   5.417  71.501  1.00  0.00    -0.195 A  
HETATM   23  C   UNL     1     -10.429   4.990  72.568  1.00  0.00    -0.270 A  
HETATM   24  C   UNL     1     -11.712   5.525  72.713  1.00  0.00    -0.240 A  
HETATM   25  C   UNL     1      -9.940   4.011  73.506  1.00  0.00    -0.126 C  
HETATM   26  C   UNL     1     -12.182   6.442  71.772  1.00  0.00    -0.256 A  
HETATM   27  N   UNL     1      -9.552   3.212  74.252  1.00  0.00    -0.090 NA 
HETATM   28 CL   UNL     1     -13.766   7.101  71.945  1.00  0.00    -0.349 Cl 
HETATM   29  C   UNL     1     -11.383   6.847  70.691  1.00  0.00    -0.366 A  
ENDBRANCH  20  21
ENDBRANCH  14  20
ENDBRANCH   8   9
ENDBRANCH   7   8
TORSDOF 4
ENDMDL
MODEL      165
REMARK 921   NORMALIZED FREE ENERGY PREDICTED BY IDOCK:   -5.23 KCAL/MOL
REMARK 922        TOTAL FREE ENERGY PREDICTED BY IDOCK:   -7.29 KCAL/MOL
REMARK 923 INTER-LIGAND FREE ENERGY PREDICTED BY IDOCK:   -6.88 KCAL/MOL
REMARK 924 INTRA-LIGAND FREE ENERGY PREDICTED BY IDOCK:   -0.40 KCAL/MOL
REMARK 927      BINDING AFFINITY PREDICTED BY RF-SCORE:    0.00 PKD
ROOT
HETATM    1  C   UNL     1     -12.708  10.472  70.732  1.00  0.00    -0.381 C  
HETATM    2  N   UNL     1     -12.630   9.114  71.215  1.00  0.00    -0.307 N  
HETATM    3  C   UNL     1     -13.466   8.624  72.191  1.00  0.00    -0.398 C  
HETATM    4  O   UNL     1     -14.390   9.188  72.752  1.00  0.00    -0.563 OA 
HETATM    5  N   UNL     1     -13.042   7.325  72.417  1.00  0.00     0.166 NA 
HETATM    6  N   UNL     1     -12.010   7.007  71.587  1.00  0.00    -0.309 NA 
HETATM    7  C   UNL     1     -11.811   8.094  70.890  1.00  0.00    -0.218 C  
ENDROOT
BRANCH   7   8
HETATM    8  C   UNL     1     -10.818   8.097  69.741  1.00  0.00    -0.190 C  
BRANCH   8   9
HETATM    9  N   UNL     1      -9.819   9.151  69.595  1.00  0.00    -0.174 N  
HETATM   10  C   UNL     1      -8.575   9.055  70.198  1.00  0.00    -0.160 C  
HETATM   11  C   UNL     1      -7.579   9.878  69.832  1.00  0.00    -0.167 C  
HETATM   12  C   UNL     1      -7.834  10.987  68.916  1.00  0.00    -0.138 C  
HETATM   13  C   UNL     1      -6.711  11.904  68.537  1.00  0.00    -0.068 C  
HETATM   14  C   UNL     1      -9.067  11.157  68.398  1.00  0.00    -0.168 C  
HETATM   15  C   UNL     1      -9.951   9.951  68.454  1.00  0.00    -0.158 C  
HETATM   16  F   UNL     1      -5.507  11.478  69.002  1.00  0.00    -0.047 F  
HETATM   17  F   UNL     1      -6.580  11.996  67.187  1.00  0.00    -0.110 F  
HETATM   18  O   UNL     1     -10.729   9.706  67.538  1.00  0.00    -0.274 OA 
HETATM   19  F   UNL     1      -6.886  13.164  69.006  1.00  0.00    -0.093 F  
BRANCH  14  20
HETATM   20  O   UNL     1      -9.405  12.279  67.650  1.00  0.00    -0.175 OA 
BRANCH  20  21
HETATM   21  C   UNL     1      -9.739  12.217  66.309  1.00  0.00    -0.244 A  
HETATM   22  C   UNL     1     -10.678  13.184  65.902  1.00  0.00    -0.287 A  
HETATM   23  C   UNL     1     -11.084  13.290  64.561  1.00  0.00    -0.392 A  
HETATM   24  C   UNL     1     -10.543  12.419  63.612  1.00  0.00    -0.481 A  
HETATM   25  C   UNL     1     -12.047  14.287  64.167  1.00  0.00    -0.393 C  
HETATM   26  C   UNL     1      -9.643  11.434  64.019  1.00  0.00    -0.200 A  
HETATM   27  N   UNL     1     -12.833  15.080  63.854  1.00  0.00    -0.529 NA 
HETATM   28 CL   UNL     1      -8.978  10.354  62.850  1.00  0.00    -0.223 Cl 
HETATM   29  C   UNL     1      -9.259  11.312  65.363  1.00  0.00    -0.202 A  
ENDBRANCH  20  21
ENDBRANCH  14  20
ENDBRANCH   8   9
ENDBRANCH   7   8
TORSDOF 4
ENDMDL
MODEL      166
REMARK 921   NORMALIZED FREE ENERGY PREDICTED BY IDOCK:   -5.23 KCAL/MOL
REMARK 922        TOTAL FREE ENERGY PREDICTED BY IDOCK:   -7.28 KCAL/MOL
REMARK 923 INTER-LIGAND FREE ENERGY PREDICTED BY IDOCK:   -6.15 KCAL/MOL
REMARK 924 INTRA-LIGAND FREE ENERGY PREDICTED BY IDOCK:   -1.14 KCAL/MOL
REMARK 927      BINDING AFFINITY PREDICTED BY RF-SCORE:    0.00 PKD
ROOT
HETATM    1  C   UNL     1     -11.060  11.432  64.298  1.00  0.00    -0.285 C  
HETATM    2  N   UNL     1     -11.718  12.547  64.939  1.00  0.00    -0.343 N  
HETATM    3  C   UNL     1     -12.271  13.589  64.233  1.00  0.00    -0.396 C  
HETATM    4  O   UNL     1     -12.348  13.730  63.024  1.00  0.00    -0.661 OA 
HETATM    5  N   UNL     1     -12.742  14.472  65.191  1.00  0.00    -0.483 NA 
HETATM    6  N   UNL     1     -12.525  13.979  66.442  1.00  0.00    -0.429 NA 
HETATM    7  C   UNL     1     -11.926  12.836  66.239  1.00  0.00    -0.395 C  
ENDROOT
BRANCH   7   8
HETATM    8  C   UNL     1     -11.638  11.903  67.403  1.00  0.00    -0.297 C  
BRANCH   8   9
HETATM    9  N   UNL     1     -10.274  11.551  67.783  1.00  0.00    -0.179 N  
HETATM   10  C   UNL     1      -9.191  12.312  67.371  1.00  0.00    -0.182 C  
HETATM   11  C   UNL     1      -7.990  12.149  67.949  1.00  0.00    -0.150 C  
HETATM   12  C   UNL     1      -7.767  11.062  68.898  1.00  0.00    -0.140 C  
HETATM   13  C   UNL     1      -6.412  10.888  69.515  1.00  0.00    -0.095 C  
HETATM   14  C   UNL     1      -8.786  10.246  69.234  1.00  0.00    -0.177 C  
HETATM   15  C   UNL     1     -10.152  10.787  68.948  1.00  0.00    -0.205 C  
HETATM   16  F   UNL     1      -5.562  11.903  69.209  1.00  0.00    -0.054 F  
HETATM   17  F   UNL     1      -6.486  10.858  70.873  1.00  0.00    -0.053 F  
HETATM   18  O   UNL     1     -11.084  10.558  69.713  1.00  0.00    -0.254 OA 
HETATM   19  F   UNL     1      -5.805   9.740  69.126  1.00  0.00    -0.036 F  
BRANCH  14  20
HETATM   20  O   UNL     1      -8.596   9.106  70.006  1.00  0.00    -0.133 OA 
BRANCH  20  21
HETATM   21  C   UNL     1      -8.703   7.825  69.497  1.00  0.00    -0.135 A  
HETATM   22  C   UNL     1      -8.261   7.692  68.167  1.00  0.00    -0.124 A  
HETATM   23  C   UNL     1      -8.254   6.445  67.521  1.00  0.00    -0.117 A  
HETATM   24  C   UNL     1      -8.694   5.313  68.211  1.00  0.00    -0.101 A  
HETATM   25  C   UNL     1      -7.797   6.333  66.158  1.00  0.00    -0.105 C  
HETATM   26  C   UNL     1      -9.171   5.448  69.515  1.00  0.00    -0.117 A  
HETATM   27  N   UNL     1      -7.442   6.246  65.058  1.00  0.00    -0.078 NA 
HETATM   28 CL   UNL     1      -9.720   4.054  70.368  1.00  0.00    -0.268 Cl 
HETATM   29  C   UNL     1      -9.202   6.699  70.150  1.00  0.00    -0.155 A  
ENDBRANCH  20  21
ENDBRANCH  14  20
ENDBRANCH   8   9
ENDBRANCH   7   8
TORSDOF 4
ENDMDL
MODEL      167
REMARK 921   NORMALIZED FREE ENERGY PREDICTED BY IDOCK:   -5.23 KCAL/MOL
REMARK 922        TOTAL FREE ENERGY PREDICTED BY IDOCK:   -7.28 KCAL/MOL
REMARK 923 INTER-LIGAND FREE ENERGY PREDICTED BY IDOCK:   -6.31 KCAL/MOL
REMARK 924 INTRA-LIGAND FREE ENERGY PREDICTED BY IDOCK:   -0.98 KCAL/MOL
REMARK 927      BINDING AFFINITY PREDICTED BY RF-SCORE:    0.00 PKD
ROOT
HETATM    1  C   UNL     1     -11.929  14.057  69.266  1.00  0.00    -0.353 C  
HETATM    2  N   UNL     1     -12.498  13.447  70.444  1.00  0.00    -0.288 N  
HETATM    3  C   UNL     1     -13.070  14.180  71.457  1.00  0.00    -0.353 C  
HETATM    4  O   UNL     1     -13.235  15.386  71.522  1.00  0.00    -0.422 OA 
HETATM    5  N   UNL     1     -13.436  13.252  72.419  1.00  0.00    -0.580 NA 
HETATM    6  N   UNL     1     -13.139  11.989  72.002  1.00  0.00    -0.427 NA 
HETATM    7  C   UNL     1     -12.596  12.158  70.826  1.00  0.00    -0.216 C  
ENDROOT
BRANCH   7   8
HETATM    8  C   UNL     1     -12.249  10.958  69.962  1.00  0.00    -0.347 C  
BRANCH   8   9
HETATM    9  N   UNL     1     -10.866  10.549  69.738  1.00  0.00    -0.273 N  
HETATM   10  C   UNL     1     -10.014  11.295  68.939  1.00  0.00    -0.155 C  
HETATM   11  C   UNL     1      -8.690  11.071  68.968  1.00  0.00    -0.072 C  
HETATM   12  C   UNL     1      -8.146   9.938  69.711  1.00  0.00    -0.185 C  
HETATM   13  C   UNL     1      -6.668   9.697  69.711  1.00  0.00    -0.062 C  
HETATM   14  C   UNL     1      -8.975   9.138  70.412  1.00  0.00    -0.229 C  
HETATM   15  C   UNL     1     -10.312   9.731  70.728  1.00  0.00    -0.228 C  
HETATM   16  F   UNL     1      -5.973  10.699  69.111  1.00  0.00    -0.041 F  
HETATM   17  F   UNL     1      -6.180   9.610  70.978  1.00  0.00    -0.064 F  
HETATM   18  O   UNL     1     -10.859   9.497  71.802  1.00  0.00    -0.298 OA 
HETATM   19  F   UNL     1      -6.326   8.550  69.075  1.00  0.00    -0.041 F  
BRANCH  14  20
HETATM   20  O   UNL     1      -8.536   7.961  71.007  1.00  0.00    -0.126 OA 
BRANCH  20  21
HETATM   21  C   UNL     1      -8.869   6.707  70.528  1.00  0.00    -0.152 A  
HETATM   22  C   UNL     1      -9.230   5.783  71.527  1.00  0.00    -0.159 A  
HETATM   23  C   UNL     1      -9.646   4.481  71.203  1.00  0.00    -0.245 A  
HETATM   24  C   UNL     1      -9.703   4.094  69.862  1.00  0.00    -0.280 A  
HETATM   25  C   UNL     1     -10.011   3.552  72.243  1.00  0.00    -0.166 C  
HETATM   26  C   UNL     1      -9.307   4.994  68.872  1.00  0.00    -0.127 A  
HETATM   27  N   UNL     1     -10.290   2.801  73.081  1.00  0.00    -0.138 NA 
HETATM   28 CL   UNL     1      -9.372   4.518  67.215  1.00  0.00    -0.151 Cl 
HETATM   29  C   UNL     1      -8.867   6.286  69.199  1.00  0.00    -0.128 A  
ENDBRANCH  20  21
ENDBRANCH  14  20
ENDBRANCH   8   9
ENDBRANCH   7   8
TORSDOF 4
ENDMDL
MODEL      168
REMARK 921   NORMALIZED FREE ENERGY PREDICTED BY IDOCK:   -5.22 KCAL/MOL
REMARK 922        TOTAL FREE ENERGY PREDICTED BY IDOCK:   -7.28 KCAL/MOL
REMARK 923 INTER-LIGAND FREE ENERGY PREDICTED BY IDOCK:   -6.63 KCAL/MOL
REMARK 924 INTRA-LIGAND FREE ENERGY PREDICTED BY IDOCK:   -0.65 KCAL/MOL
REMARK 927      BINDING AFFINITY PREDICTED BY RF-SCORE:    0.00 PKD
ROOT
HETATM    1  C   UNL     1      -8.153   5.929  63.242  1.00  0.00    -0.101 C  
HETATM    2  N   UNL     1      -8.761   5.254  64.364  1.00  0.00    -0.096 N  
HETATM    3  C   UNL     1      -9.449   4.071  64.234  1.00  0.00    -0.162 C  
HETATM    4  O   UNL     1      -9.619   3.396  63.233  1.00  0.00    -0.099 OA 
HETATM    5  N   UNL     1      -9.924   3.783  65.503  1.00  0.00    -0.115 NA 
HETATM    6  N   UNL     1      -9.514   4.729  66.394  1.00  0.00    -0.144 NA 
HETATM    7  C   UNL     1      -8.822   5.570  65.673  1.00  0.00    -0.152 C  
ENDROOT
BRANCH   7   8
HETATM    8  C   UNL     1      -8.069   6.710  66.336  1.00  0.00    -0.113 C  
BRANCH   8   9
HETATM    9  N   UNL     1      -8.727   7.967  66.679  1.00  0.00    -0.135 N  
HETATM   10  C   UNL     1      -9.412   8.705  65.727  1.00  0.00    -0.122 C  
HETATM   11  C   UNL     1     -10.240   9.694  66.103  1.00  0.00    -0.276 C  
HETATM   12  C   UNL     1     -10.306  10.112  67.500  1.00  0.00    -0.279 C  
HETATM   13  C   UNL     1     -11.223  11.230  67.893  1.00  0.00    -0.290 C  
HETATM   14  C   UNL     1      -9.567   9.469  68.427  1.00  0.00    -0.142 C  
HETATM   15  C   UNL     1      -9.084   8.112  68.024  1.00  0.00    -0.133 C  
HETATM   16  F   UNL     1     -12.023  11.635  66.871  1.00  0.00    -0.313 F  
HETATM   17  F   UNL     1     -12.059  10.857  68.898  1.00  0.00    -0.379 F  
HETATM   18  O   UNL     1      -9.020   7.204  68.846  1.00  0.00    -0.131 OA 
HETATM   19  F   UNL     1     -10.552  12.328  68.322  1.00  0.00    -0.198 F  
BRANCH  14  20
HETATM   20  O   UNL     1      -9.472   9.922  69.738  1.00  0.00    -0.210 OA 
BRANCH  20  21
HETATM   21  C   UNL     1      -9.917   9.187  70.822  1.00  0.00    -0.269 A  
HETATM   22  C   UNL     1     -11.275   8.823  70.756  1.00  0.00    -0.309 A  
HETATM   23  C   UNL     1     -11.869   8.031  71.753  1.00  0.00    -0.339 A  
HETATM   24  C   UNL     1     -11.096   7.594  72.832  1.00  0.00    -0.448 A  
HETATM   25  C   UNL     1     -13.262   7.671  71.665  1.00  0.00    -0.352 C  
HETATM   26  C   UNL     1      -9.760   7.987  72.921  1.00  0.00    -0.283 A  
HETATM   27  N   UNL     1     -14.386   7.395  71.600  1.00  0.00    -0.462 NA 
HETATM   28 CL   UNL     1      -8.804   7.453  74.253  1.00  0.00    -0.260 Cl 
HETATM   29  C   UNL     1      -9.175   8.800  71.938  1.00  0.00    -0.320 A  
ENDBRANCH  20  21
ENDBRANCH  14  20
ENDBRANCH   8   9
ENDBRANCH   7   8
TORSDOF 4
ENDMDL
MODEL      169
REMARK 921   NORMALIZED FREE ENERGY PREDICTED BY IDOCK:   -5.22 KCAL/MOL
REMARK 922        TOTAL FREE ENERGY PREDICTED BY IDOCK:   -7.27 KCAL/MOL
REMARK 923 INTER-LIGAND FREE ENERGY PREDICTED BY IDOCK:   -6.39 KCAL/MOL
REMARK 924 INTRA-LIGAND FREE ENERGY PREDICTED BY IDOCK:   -0.88 KCAL/MOL
REMARK 927      BINDING AFFINITY PREDICTED BY RF-SCORE:    0.00 PKD
ROOT
HETATM    1  C   UNL     1     -11.953  14.155  69.297  1.00  0.00    -0.340 C  
HETATM    2  N   UNL     1     -12.581  13.517  70.429  1.00  0.00    -0.245 N  
HETATM    3  C   UNL     1     -13.176  14.226  71.445  1.00  0.00    -0.349 C  
HETATM    4  O   UNL     1     -13.317  15.433  71.548  1.00  0.00    -0.435 OA 
HETATM    5  N   UNL     1     -13.601  13.274  72.357  1.00  0.00    -0.598 NA 
HETATM    6  N   UNL     1     -13.316  12.020  71.907  1.00  0.00    -0.408 NA 
HETATM    7  C   UNL     1     -12.723  12.218  70.759  1.00  0.00    -0.126 C  
ENDROOT
BRANCH   7   8
HETATM    8  C   UNL     1     -12.369  11.041  69.866  1.00  0.00    -0.288 C  
BRANCH   8   9
HETATM    9  N   UNL     1     -11.014  10.503  69.809  1.00  0.00    -0.276 N  
HETATM   10  C   UNL     1     -10.024  11.120  69.062  1.00  0.00    -0.137 C  
HETATM   11  C   UNL     1      -8.735  10.788  69.239  1.00  0.00    -0.044 C  
HETATM   12  C   UNL     1      -8.372   9.663  70.097  1.00  0.00    -0.221 C  
HETATM   13  C   UNL     1      -6.928   9.298  70.263  1.00  0.00    -0.076 C  
HETATM   14  C   UNL     1      -9.334   8.984  70.753  1.00  0.00    -0.249 C  
HETATM   15  C   UNL     1     -10.636   9.708  70.896  1.00  0.00    -0.316 C  
HETATM   16  F   UNL     1      -6.090  10.197  69.682  1.00  0.00    -0.039 F  
HETATM   17  F   UNL     1      -6.576   9.253  71.577  1.00  0.00    -0.082 F  
HETATM   18  O   UNL     1     -11.304   9.591  71.919  1.00  0.00    -0.329 OA 
HETATM   19  F   UNL     1      -6.631   8.087  69.731  1.00  0.00    -0.035 F  
BRANCH  14  20
HETATM   20  O   UNL     1      -9.064   7.815  71.455  1.00  0.00    -0.130 OA 
BRANCH  20  21
HETATM   21  C   UNL     1      -9.400   6.559  70.983  1.00  0.00    -0.160 A  
HETATM   22  C   UNL     1      -9.757   6.529  69.621  1.00  0.00    -0.167 A  
HETATM   23  C   UNL     1     -10.074   5.323  68.975  1.00  0.00    -0.272 A  
HETATM   24  C   UNL     1     -10.032   4.128  69.697  1.00  0.00    -0.081 A  
HETATM   25  C   UNL     1     -10.437   5.317  67.580  1.00  0.00    -0.126 C  
HETATM   26  C   UNL     1      -9.718   4.159  71.056  1.00  0.00    -0.190 A  
HETATM   27  N   UNL     1     -10.743   5.315  66.462  1.00  0.00    -0.285 NA 
HETATM   28 CL   UNL     1      -9.671   2.686  71.951  1.00  0.00    -0.212 Cl 
HETATM   29  C   UNL     1      -9.428   5.368  71.706  1.00  0.00    -0.177 A  
ENDBRANCH  20  21
ENDBRANCH  14  20
ENDBRANCH   8   9
ENDBRANCH   7   8
TORSDOF 4
ENDMDL
MODEL      170
REMARK 921   NORMALIZED FREE ENERGY PREDICTED BY IDOCK:   -5.21 KCAL/MOL
REMARK 922        TOTAL FREE ENERGY PREDICTED BY IDOCK:   -7.26 KCAL/MOL
REMARK 923 INTER-LIGAND FREE ENERGY PREDICTED BY IDOCK:   -6.14 KCAL/MOL
REMARK 924 INTRA-LIGAND FREE ENERGY PREDICTED BY IDOCK:   -1.13 KCAL/MOL
REMARK 927      BINDING AFFINITY PREDICTED BY RF-SCORE:    0.00 PKD
ROOT
HETATM    1  C   UNL     1      -9.931   8.335  72.521  1.00  0.00    -0.303 C  
HETATM    2  N   UNL     1     -10.281   7.459  71.428  1.00  0.00    -0.188 N  
HETATM    3  C   UNL     1     -11.546   6.943  71.266  1.00  0.00    -0.310 C  
HETATM    4  O   UNL     1     -12.543   7.153  71.935  1.00  0.00    -0.323 OA 
HETATM    5  N   UNL     1     -11.464   6.116  70.158  1.00  0.00    -0.368 NA 
HETATM    6  N   UNL     1     -10.209   6.147  69.630  1.00  0.00    -0.187 NA 
HETATM    7  C   UNL     1      -9.551   6.962  70.411  1.00  0.00    -0.169 C  
ENDROOT
BRANCH   7   8
HETATM    8  C   UNL     1      -8.130   7.373  70.068  1.00  0.00    -0.129 C  
BRANCH   8   9
HETATM    9  N   UNL     1      -7.774   8.766  69.814  1.00  0.00    -0.081 N  
HETATM   10  C   UNL     1      -6.574   9.296  70.258  1.00  0.00    -0.062 C  
HETATM   11  C   UNL     1      -6.136  10.474  69.784  1.00  0.00    -0.065 C  
HETATM   12  C   UNL     1      -6.990  11.288  68.923  1.00  0.00    -0.099 C  
HETATM   13  C   UNL     1      -6.488  12.608  68.422  1.00  0.00    -0.078 C  
HETATM   14  C   UNL     1      -8.207  10.832  68.563  1.00  0.00    -0.136 C  
HETATM   15  C   UNL     1      -8.400   9.355  68.711  1.00  0.00    -0.117 C  
HETATM   16  F   UNL     1      -5.181  12.822  68.728  1.00  0.00    -0.061 F  
HETATM   17  F   UNL     1      -6.573  12.689  67.066  1.00  0.00    -0.158 F  
HETATM   18  O   UNL     1      -9.069   8.730  67.894  1.00  0.00    -0.139 OA 
HETATM   19  F   UNL     1      -7.185  13.656  68.926  1.00  0.00    -0.099 F  
BRANCH  14  20
HETATM   20  O   UNL     1      -9.120  11.626  67.878  1.00  0.00    -0.159 OA 
BRANCH  20  21
HETATM   21  C   UNL     1     -10.139  12.316  68.509  1.00  0.00    -0.187 A  
HETATM   22  C   UNL     1     -10.881  11.544  69.424  1.00  0.00    -0.180 A  
HETATM   23  C   UNL     1     -11.916  12.110  70.186  1.00  0.00    -0.394 A  
HETATM   24  C   UNL     1     -12.216  13.466  70.035  1.00  0.00    -0.367 A  
HETATM   25  C   UNL     1     -12.663  11.300  71.116  1.00  0.00    -0.390 C  
HETATM   26  C   UNL     1     -11.509  14.224  69.101  1.00  0.00    -0.291 A  
HETATM   27  N   UNL     1     -13.272  10.644  71.853  1.00  0.00    -0.462 NA 
HETATM   28 CL   UNL     1     -11.879  15.897  68.908  1.00  0.00    -0.383 Cl 
HETATM   29  C   UNL     1     -10.493  13.651  68.321  1.00  0.00    -0.253 A  
ENDBRANCH  20  21
ENDBRANCH  14  20
ENDBRANCH   8   9
ENDBRANCH   7   8
TORSDOF 4
ENDMDL
MODEL      171
REMARK 921   NORMALIZED FREE ENERGY PREDICTED BY IDOCK:   -5.20 KCAL/MOL
REMARK 922        TOTAL FREE ENERGY PREDICTED BY IDOCK:   -7.25 KCAL/MOL
REMARK 923 INTER-LIGAND FREE ENERGY PREDICTED BY IDOCK:   -6.91 KCAL/MOL
REMARK 924 INTRA-LIGAND FREE ENERGY PREDICTED BY IDOCK:   -0.34 KCAL/MOL
REMARK 927      BINDING AFFINITY PREDICTED BY RF-SCORE:    0.00 PKD
ROOT
HETATM    1  C   UNL     1      -7.227  20.368  67.920  1.00  0.00    -0.276 C  
HETATM    2  N   UNL     1      -6.881  19.541  66.788  1.00  0.00    -0.196 N  
HETATM    3  C   UNL     1      -6.713  20.049  65.521  1.00  0.00    -0.285 C  
HETATM    4  O   UNL     1      -6.771  21.211  65.155  1.00  0.00    -0.044 OA 
HETATM    5  N   UNL     1      -6.454  18.951  64.717  1.00  0.00    -0.497 NA 
HETATM    6  N   UNL     1      -6.423  17.810  65.462  1.00  0.00    -0.186 NA 
HETATM    7  C   UNL     1      -6.671  18.214  66.680  1.00  0.00    -0.200 C  
ENDROOT
BRANCH   7   8
HETATM    8  C   UNL     1      -6.586  17.241  67.843  1.00  0.00    -0.153 C  
BRANCH   8   9
HETATM    9  N   UNL     1      -7.764  16.542  68.345  1.00  0.00    -0.180 N  
HETATM   10  C   UNL     1      -8.822  17.230  68.916  1.00  0.00    -0.173 C  
HETATM   11  C   UNL     1     -10.002  16.618  69.112  1.00  0.00    -0.263 C  
HETATM   12  C   UNL     1     -10.138  15.183  68.881  1.00  0.00    -0.238 C  
HETATM   13  C   UNL     1     -11.458  14.518  69.126  1.00  0.00    -0.294 C  
HETATM   14  C   UNL     1      -9.086  14.476  68.422  1.00  0.00    -0.191 C  
HETATM   15  C   UNL     1      -8.009  15.289  67.773  1.00  0.00    -0.146 C  
HETATM   16  F   UNL     1     -12.449  15.407  69.405  1.00  0.00    -0.291 F  
HETATM   17  F   UNL     1     -11.875  13.825  68.032  1.00  0.00    -0.331 F  
HETATM   18  O   UNL     1      -7.402  14.855  66.800  1.00  0.00     0.035 OA 
HETATM   19  F   UNL     1     -11.418  13.642  70.159  1.00  0.00    -0.303 F  
BRANCH  14  20
HETATM   20  O   UNL     1      -9.110  13.089  68.333  1.00  0.00    -0.191 OA 
BRANCH  20  21
HETATM   21  C   UNL     1      -9.537  12.414  67.204  1.00  0.00    -0.206 A  
HETATM   22  C   UNL     1      -9.301  11.027  67.234  1.00  0.00    -0.167 A  
HETATM   23  C   UNL     1      -9.722  10.190  66.188  1.00  0.00    -0.275 A  
HETATM   24  C   UNL     1     -10.391  10.745  65.094  1.00  0.00    -0.341 A  
HETATM   25  C   UNL     1      -9.469   8.772  66.241  1.00  0.00    -0.234 C  
HETATM   26  C   UNL     1     -10.591  12.125  65.042  1.00  0.00    -0.291 A  
HETATM   27  N   UNL     1      -9.251   7.634  66.278  1.00  0.00    -0.173 NA 
HETATM   28 CL   UNL     1     -11.412  12.814  63.691  1.00  0.00    -0.524 Cl 
HETATM   29  C   UNL     1     -10.146  12.963  66.076  1.00  0.00    -0.290 A  
ENDBRANCH  20  21
ENDBRANCH  14  20
ENDBRANCH   8   9
ENDBRANCH   7   8
TORSDOF 4
ENDMDL
MODEL      172
REMARK 921   NORMALIZED FREE ENERGY PREDICTED BY IDOCK:   -5.15 KCAL/MOL
REMARK 922        TOTAL FREE ENERGY PREDICTED BY IDOCK:   -7.19 KCAL/MOL
REMARK 923 INTER-LIGAND FREE ENERGY PREDICTED BY IDOCK:   -6.63 KCAL/MOL
REMARK 924 INTRA-LIGAND FREE ENERGY PREDICTED BY IDOCK:   -0.56 KCAL/MOL
REMARK 927      BINDING AFFINITY PREDICTED BY RF-SCORE:    0.00 PKD
ROOT
HETATM    1  C   UNL     1      -6.969  20.934  67.300  1.00  0.00    -0.376 C  
HETATM    2  N   UNL     1      -6.777  19.875  66.337  1.00  0.00    -0.203 N  
HETATM    3  C   UNL     1      -6.572  20.117  64.999  1.00  0.00    -0.285 C  
HETATM    4  O   UNL     1      -6.472  21.190  64.428  1.00  0.00    -0.247 OA 
HETATM    5  N   UNL     1      -6.495  18.867  64.409  1.00  0.00    -0.232 NA 
HETATM    6  N   UNL     1      -6.608  17.886  65.348  1.00  0.00    -0.292 NA 
HETATM    7  C   UNL     1      -6.764  18.535  66.472  1.00  0.00    -0.196 C  
ENDROOT
BRANCH   7   8
HETATM    8  C   UNL     1      -6.788  17.785  67.793  1.00  0.00    -0.182 C  
BRANCH   8   9
HETATM    9  N   UNL     1      -8.011  17.178  68.307  1.00  0.00    -0.227 N  
HETATM   10  C   UNL     1      -9.136  17.940  68.576  1.00  0.00    -0.285 C  
HETATM   11  C   UNL     1     -10.325  17.347  68.774  1.00  0.00    -0.357 C  
HETATM   12  C   UNL     1     -10.419  15.894  68.872  1.00  0.00    -0.233 C  
HETATM   13  C   UNL     1     -11.754  15.256  69.113  1.00  0.00    -0.335 C  
HETATM   14  C   UNL     1      -9.313  15.139  68.715  1.00  0.00    -0.200 C  
HETATM   15  C   UNL     1      -8.175  15.819  68.021  1.00  0.00    -0.140 C  
HETATM   16  F   UNL     1     -12.778  16.147  69.061  1.00  0.00     0.040 F  
HETATM   17  F   UNL     1     -12.030  14.313  68.173  1.00  0.00    -0.338 F  
HETATM   18  O   UNL     1      -7.452  15.193  67.252  1.00  0.00    -0.195 OA 
HETATM   19  F   UNL     1     -11.829  14.645  70.321  1.00  0.00    -0.278 F  
BRANCH  14  20
HETATM   20  O   UNL     1      -9.315  13.769  68.951  1.00  0.00    -0.056 OA 
BRANCH  20  21
HETATM   21  C   UNL     1      -9.096  12.833  67.957  1.00  0.00    -0.207 A  
HETATM   22  C   UNL     1      -9.861  13.036  66.793  1.00  0.00    -0.243 A  
HETATM   23  C   UNL     1      -9.718  12.205  65.670  1.00  0.00    -0.223 A  
HETATM   24  C   UNL     1      -8.798  11.154  65.708  1.00  0.00    -0.182 A  
HETATM   25  C   UNL     1     -10.512  12.432  64.489  1.00  0.00    -0.325 C  
HETATM   26  C   UNL     1      -8.068  10.925  66.875  1.00  0.00    -0.137 A  
HETATM   27  N   UNL     1     -11.162  12.607  63.544  1.00  0.00    -0.464 NA 
HETATM   28 CL   UNL     1      -6.935   9.626  66.928  1.00  0.00    -0.084 Cl 
HETATM   29  C   UNL     1      -8.231  11.741  68.005  1.00  0.00    -0.152 A  
ENDBRANCH  20  21
ENDBRANCH  14  20
ENDBRANCH   8   9
ENDBRANCH   7   8
TORSDOF 4
ENDMDL
MODEL      173
REMARK 921   NORMALIZED FREE ENERGY PREDICTED BY IDOCK:   -5.13 KCAL/MOL
REMARK 922        TOTAL FREE ENERGY PREDICTED BY IDOCK:   -7.17 KCAL/MOL
REMARK 923 INTER-LIGAND FREE ENERGY PREDICTED BY IDOCK:   -6.66 KCAL/MOL
REMARK 924 INTRA-LIGAND FREE ENERGY PREDICTED BY IDOCK:   -0.51 KCAL/MOL
REMARK 927      BINDING AFFINITY PREDICTED BY RF-SCORE:    0.00 PKD
ROOT
HETATM    1  C   UNL     1      -9.197  10.091  64.442  1.00  0.00    -0.266 C  
HETATM    2  N   UNL     1     -10.038  10.866  65.323  1.00  0.00    -0.264 N  
HETATM    3  C   UNL     1     -11.159  11.531  64.885  1.00  0.00    -0.215 C  
HETATM    4  O   UNL     1     -11.643  11.548  63.765  1.00  0.00    -0.383 OA 
HETATM    5  N   UNL     1     -11.650  12.195  65.997  1.00  0.00    -0.420 NA 
HETATM    6  N   UNL     1     -10.886  11.922  67.092  1.00  0.00    -0.242 NA 
HETATM    7  C   UNL     1      -9.953  11.125  66.643  1.00  0.00    -0.207 C  
ENDROOT
BRANCH   7   8
HETATM    8  C   UNL     1      -8.970  10.478  67.603  1.00  0.00    -0.138 C  
BRANCH   8   9
HETATM    9  N   UNL     1      -9.410   9.559  68.647  1.00  0.00    -0.141 N  
HETATM   10  C   UNL     1      -9.311   9.891  69.989  1.00  0.00    -0.190 C  
HETATM   11  C   UNL     1      -9.968   9.174  70.915  1.00  0.00    -0.357 C  
HETATM   12  C   UNL     1     -10.660   7.943  70.544  1.00  0.00    -0.223 C  
HETATM   13  C   UNL     1     -11.369   7.149  71.598  1.00  0.00    -0.251 C  
HETATM   14  C   UNL     1     -10.680   7.549  69.255  1.00  0.00    -0.176 C  
HETATM   15  C   UNL     1     -10.374   8.623  68.258  1.00  0.00    -0.207 C  
HETATM   16  F   UNL     1     -11.403   7.784  72.799  1.00  0.00    -0.348 F  
HETATM   17  F   UNL     1     -12.666   6.920  71.258  1.00  0.00    -0.383 F  
HETATM   18  O   UNL     1     -10.955   8.653  67.178  1.00  0.00    -0.102 OA 
HETATM   19  F   UNL     1     -10.796   5.939  71.813  1.00  0.00    -0.267 F  
BRANCH  14  20
HETATM   20  O   UNL     1     -11.185   6.313  68.868  1.00  0.00    -0.370 OA 
BRANCH  20  21
HETATM   21  C   UNL     1     -10.405   5.327  68.293  1.00  0.00    -0.111 A  
HETATM   22  C   UNL     1     -10.657   5.113  66.925  1.00  0.00    -0.234 A  
HETATM   23  C   UNL     1      -9.912   4.183  66.181  1.00  0.00    -0.188 A  
HETATM   24  C   UNL     1      -8.899   3.455  66.811  1.00  0.00    -0.146 A  
HETATM   25  C   UNL     1     -10.188   3.981  64.780  1.00  0.00    -0.212 C  
HETATM   26  C   UNL     1      -8.674   3.636  68.176  1.00  0.00    -0.105 A  
HETATM   27  N   UNL     1     -10.421   3.809  63.658  1.00  0.00    -0.241 NA 
HETATM   28 CL   UNL     1      -7.428   2.736  68.958  1.00  0.00    -0.047 Cl 
HETATM   29  C   UNL     1      -9.437   4.546  68.923  1.00  0.00    -0.225 A  
ENDBRANCH  20  21
ENDBRANCH  14  20
ENDBRANCH   8   9
ENDBRANCH   7   8
TORSDOF 4
ENDMDL
MODEL      174
REMARK 921   NORMALIZED FREE ENERGY PREDICTED BY IDOCK:   -5.11 KCAL/MOL
REMARK 922        TOTAL FREE ENERGY PREDICTED BY IDOCK:   -7.14 KCAL/MOL
REMARK 923 INTER-LIGAND FREE ENERGY PREDICTED BY IDOCK:   -6.64 KCAL/MOL
REMARK 924 INTRA-LIGAND FREE ENERGY PREDICTED BY IDOCK:   -0.51 KCAL/MOL
REMARK 927      BINDING AFFINITY PREDICTED BY RF-SCORE:    0.00 PKD
ROOT
HETATM    1  C   UNL     1     -10.228  15.346  67.139  1.00  0.00    -0.251 C  
HETATM    2  N   UNL     1     -11.042  15.019  68.285  1.00  0.00    -0.274 N  
HETATM    3  C   UNL     1     -11.226  15.886  69.337  1.00  0.00    -0.336 C  
HETATM    4  O   UNL     1     -10.809  17.025  69.464  1.00  0.00    -0.264 OA 
HETATM    5  N   UNL     1     -12.005  15.194  70.250  1.00  0.00    -0.295 NA 
HETATM    6  N   UNL     1     -12.325  13.961  69.768  1.00  0.00    -0.316 NA 
HETATM    7  C   UNL     1     -11.740  13.910  68.600  1.00  0.00    -0.361 C  
ENDROOT
BRANCH   7   8
HETATM    8  C   UNL     1     -11.976  12.729  67.675  1.00  0.00    -0.273 C  
BRANCH   8   9
HETATM    9  N   UNL     1     -10.962  11.700  67.471  1.00  0.00    -0.242 N  
HETATM   10  C   UNL     1      -9.774  11.979  66.815  1.00  0.00    -0.207 C  
HETATM   11  C   UNL     1      -8.745  11.119  66.881  1.00  0.00    -0.152 C  
HETATM   12  C   UNL     1      -8.915   9.808  67.504  1.00  0.00    -0.138 C  
HETATM   13  C   UNL     1      -7.758   8.857  67.548  1.00  0.00    -0.100 C  
HETATM   14  C   UNL     1     -10.099   9.480  68.058  1.00  0.00    -0.188 C  
HETATM   15  C   UNL     1     -10.993  10.637  68.378  1.00  0.00    -0.251 C  
HETATM   16  F   UNL     1      -6.600   9.419  67.113  1.00  0.00    -0.066 F  
HETATM   17  F   UNL     1      -7.514   8.432  68.817  1.00  0.00    -0.083 F  
HETATM   18  O   UNL     1     -11.693  10.622  69.386  1.00  0.00    -0.275 OA 
HETATM   19  F   UNL     1      -7.964   7.751  66.792  1.00  0.00    -0.099 F  
BRANCH  14  20
HETATM   20  O   UNL     1     -10.366   8.197  68.523  1.00  0.00    -0.205 OA 
BRANCH  20  21
HETATM   21  C   UNL     1     -10.781   7.936  69.815  1.00  0.00    -0.233 A  
HETATM   22  C   UNL     1      -9.807   8.192  70.799  1.00  0.00    -0.201 A  
HETATM   23  C   UNL     1     -10.087   8.028  72.166  1.00  0.00    -0.298 A  
HETATM   24  C   UNL     1     -11.359   7.603  72.558  1.00  0.00    -0.409 A  
HETATM   25  C   UNL     1      -9.074   8.296  73.155  1.00  0.00    -0.235 C  
HETATM   26  C   UNL     1     -12.314   7.310  71.584  1.00  0.00    -0.352 A  
HETATM   27  N   UNL     1      -8.253   8.498  73.949  1.00  0.00    -0.377 NA 
HETATM   28 CL   UNL     1     -13.883   6.781  72.064  1.00  0.00    -0.181 Cl 
HETATM   29  C   UNL     1     -12.024   7.448  70.218  1.00  0.00     0.028 A  
ENDBRANCH  20  21
ENDBRANCH  14  20
ENDBRANCH   8   9
ENDBRANCH   7   8
TORSDOF 4
ENDMDL
MODEL      175
REMARK 921   NORMALIZED FREE ENERGY PREDICTED BY IDOCK:   -5.11 KCAL/MOL
REMARK 922        TOTAL FREE ENERGY PREDICTED BY IDOCK:   -7.14 KCAL/MOL
REMARK 923 INTER-LIGAND FREE ENERGY PREDICTED BY IDOCK:   -5.99 KCAL/MOL
REMARK 924 INTRA-LIGAND FREE ENERGY PREDICTED BY IDOCK:   -1.15 KCAL/MOL
REMARK 927      BINDING AFFINITY PREDICTED BY RF-SCORE:    0.00 PKD
ROOT
HETATM    1  C   UNL     1      -9.295   3.581  70.253  1.00  0.00    -0.172 C  
HETATM    2  N   UNL     1      -9.431   3.872  71.660  1.00  0.00    -0.141 N  
HETATM    3  C   UNL     1      -8.864   3.090  72.638  1.00  0.00    -0.083 C  
HETATM    4  O   UNL     1      -8.152   2.108  72.508  1.00  0.00    -0.052 OA 
HETATM    5  N   UNL     1      -9.267   3.654  73.838  1.00  0.00    -0.089 NA 
HETATM    6  N   UNL     1     -10.022   4.765  73.614  1.00  0.00    -0.150 NA 
HETATM    7  C   UNL     1     -10.082   4.856  72.312  1.00  0.00    -0.191 C  
ENDROOT
BRANCH   7   8
HETATM    8  C   UNL     1     -10.731   6.063  71.656  1.00  0.00    -0.251 C  
BRANCH   8   9
HETATM    9  N   UNL     1      -9.958   7.012  70.861  1.00  0.00    -0.193 N  
HETATM   10  C   UNL     1      -8.622   7.259  71.131  1.00  0.00    -0.130 C  
HETATM   11  C   UNL     1      -7.858   7.905  70.236  1.00  0.00    -0.089 C  
HETATM   12  C   UNL     1      -8.456   8.498  69.043  1.00  0.00    -0.126 C  
HETATM   13  C   UNL     1      -7.587   9.232  68.068  1.00  0.00    -0.084 C  
HETATM   14  C   UNL     1      -9.778   8.355  68.816  1.00  0.00    -0.164 C  
HETATM   15  C   UNL     1     -10.433   7.237  69.565  1.00  0.00    -0.230 C  
HETATM   16  F   UNL     1      -6.263   9.120  68.358  1.00  0.00    -0.050 F  
HETATM   17  F   UNL     1      -7.736   8.745  66.807  1.00  0.00    -0.089 F  
HETATM   18  O   UNL     1     -11.326   6.577  69.043  1.00  0.00    -0.302 OA 
HETATM   19  F   UNL     1      -7.864  10.558  68.017  1.00  0.00    -0.099 F  
BRANCH  14  20
HETATM   20  O   UNL     1     -10.426   9.026  67.786  1.00  0.00    -0.237 OA 
BRANCH  20  21
HETATM   21  C   UNL     1     -10.874  10.330  67.902  1.00  0.00    -0.284 A  
HETATM   22  C   UNL     1     -10.872  11.051  66.693  1.00  0.00    -0.284 A  
HETATM   23  C   UNL     1     -11.347  12.372  66.629  1.00  0.00    -0.394 A  
HETATM   24  C   UNL     1     -11.832  12.982  67.789  1.00  0.00    -0.395 A  
HETATM   25  C   UNL     1     -11.335  13.092  65.380  1.00  0.00    -0.297 C  
HETATM   26  C   UNL     1     -11.798  12.283  68.996  1.00  0.00    -0.305 A  
HETATM   27  N   UNL     1     -11.311  13.675  64.378  1.00  0.00    -0.378 NA 
HETATM   28 CL   UNL     1     -12.391  13.035  70.430  1.00  0.00    -0.385 Cl 
HETATM   29  C   UNL     1     -11.298  10.974  69.063  1.00  0.00    -0.345 A  
ENDBRANCH  20  21
ENDBRANCH  14  20
ENDBRANCH   8   9
ENDBRANCH   7   8
TORSDOF 4
ENDMDL
MODEL      176
REMARK 921   NORMALIZED FREE ENERGY PREDICTED BY IDOCK:   -5.10 KCAL/MOL
REMARK 922        TOTAL FREE ENERGY PREDICTED BY IDOCK:   -7.13 KCAL/MOL
REMARK 923 INTER-LIGAND FREE ENERGY PREDICTED BY IDOCK:   -5.87 KCAL/MOL
REMARK 924 INTRA-LIGAND FREE ENERGY PREDICTED BY IDOCK:   -1.26 KCAL/MOL
REMARK 927      BINDING AFFINITY PREDICTED BY RF-SCORE:    0.00 PKD
ROOT
HETATM    1  C   UNL     1      -9.246   9.024  69.719  1.00  0.00    -0.167 C  
HETATM    2  N   UNL     1      -8.834   8.591  68.404  1.00  0.00    -0.139 N  
HETATM    3  C   UNL     1      -9.674   7.923  67.546  1.00  0.00    -0.159 C  
HETATM    4  O   UNL     1     -10.849   7.637  67.702  1.00  0.00    -0.197 OA 
HETATM    5  N   UNL     1      -8.903   7.631  66.432  1.00  0.00    -0.149 NA 
HETATM    6  N   UNL     1      -7.645   8.134  66.577  1.00  0.00    -0.091 NA 
HETATM    7  C   UNL     1      -7.658   8.700  67.754  1.00  0.00    -0.098 C  
ENDROOT
BRANCH   7   8
HETATM    8  C   UNL     1      -6.462   9.505  68.231  1.00  0.00    -0.053 C  
BRANCH   8   9
HETATM    9  N   UNL     1      -6.598  10.889  68.675  1.00  0.00    -0.055 N  
HETATM   10  C   UNL     1      -5.990  11.336  69.837  1.00  0.00    -0.117 C  
HETATM   11  C   UNL     1      -5.884  12.652  70.084  1.00  0.00    -0.158 C  
HETATM   12  C   UNL     1      -6.548  13.622  69.218  1.00  0.00    -0.110 C  
HETATM   13  C   UNL     1      -6.433  15.084  69.524  1.00  0.00    -0.146 C  
HETATM   14  C   UNL     1      -7.232  13.197  68.137  1.00  0.00    -0.117 C  
HETATM   15  C   UNL     1      -6.887  11.817  67.670  1.00  0.00    -0.099 C  
HETATM   16  F   UNL     1      -5.560  15.341  70.534  1.00  0.00    -0.125 F  
HETATM   17  F   UNL     1      -5.977  15.782  68.449  1.00  0.00    -0.095 F  
HETATM   18  O   UNL     1      -6.865  11.553  66.472  1.00  0.00    -0.111 OA 
HETATM   19  F   UNL     1      -7.618  15.637  69.882  1.00  0.00    -0.193 F  
BRANCH  14  20
HETATM   20  O   UNL     1      -8.010  14.057  67.370  1.00  0.00    -0.172 OA 
BRANCH  20  21
HETATM   21  C   UNL     1      -9.392  14.064  67.416  1.00  0.00    -0.220 A  
HETATM   22  C   UNL     1     -10.013  14.056  66.152  1.00  0.00    -0.325 A  
HETATM   23  C   UNL     1     -11.411  14.008  66.025  1.00  0.00    -0.340 A  
HETATM   24  C   UNL     1     -12.202  13.969  67.176  1.00  0.00    -0.356 A  
HETATM   25  C   UNL     1     -12.025  14.001  64.721  1.00  0.00    -0.417 C  
HETATM   26  C   UNL     1     -11.592  14.018  68.430  1.00  0.00    -0.331 A  
HETATM   27  N   UNL     1     -12.518  14.010  63.672  1.00  0.00    -0.809 NA 
HETATM   28 CL   UNL     1     -12.565  13.973  69.852  1.00  0.00    -0.290 Cl 
HETATM   29  C   UNL     1     -10.196  14.092  68.554  1.00  0.00    -0.237 A  
ENDBRANCH  20  21
ENDBRANCH  14  20
ENDBRANCH   8   9
ENDBRANCH   7   8
TORSDOF 4
ENDMDL
MODEL      177
REMARK 921   NORMALIZED FREE ENERGY PREDICTED BY IDOCK:   -5.08 KCAL/MOL
REMARK 922        TOTAL FREE ENERGY PREDICTED BY IDOCK:   -7.11 KCAL/MOL
REMARK 923 INTER-LIGAND FREE ENERGY PREDICTED BY IDOCK:   -6.15 KCAL/MOL
REMARK 924 INTRA-LIGAND FREE ENERGY PREDICTED BY IDOCK:   -0.96 KCAL/MOL
REMARK 927      BINDING AFFINITY PREDICTED BY RF-SCORE:    0.00 PKD
ROOT
HETATM    1  C   UNL     1      -7.903   5.525  66.093  1.00  0.00    -0.100 C  
HETATM    2  N   UNL     1      -8.916   6.253  66.819  1.00  0.00    -0.122 N  
HETATM    3  C   UNL     1     -10.256   5.961  66.720  1.00  0.00    -0.219 C  
HETATM    4  O   UNL     1     -10.793   5.068  66.087  1.00  0.00    -0.294 OA 
HETATM    5  N   UNL     1     -10.896   6.905  67.506  1.00  0.00    -0.286 NA 
HETATM    6  N   UNL     1      -9.987   7.727  68.102  1.00  0.00    -0.171 NA 
HETATM    7  C   UNL     1      -8.831   7.294  67.672  1.00  0.00    -0.123 C  
ENDROOT
BRANCH   7   8
HETATM    8  C   UNL     1      -7.541   7.872  68.226  1.00  0.00    -0.116 C  
BRANCH   8   9
HETATM    9  N   UNL     1      -7.414   9.289  68.554  1.00  0.00    -0.080 N  
HETATM   10  C   UNL     1      -6.748   9.708  69.694  1.00  0.00    -0.054 C  
HETATM   11  C   UNL     1      -6.395  10.996  69.838  1.00  0.00    -0.137 C  
HETATM   12  C   UNL     1      -6.850  11.999  68.879  1.00  0.00    -0.103 C  
HETATM   13  C   UNL     1      -6.460  13.433  69.072  1.00  0.00    -0.105 C  
HETATM   14  C   UNL     1      -7.587  11.622  67.816  1.00  0.00    -0.121 C  
HETATM   15  C   UNL     1      -7.507  10.168  67.471  1.00  0.00    -0.090 C  
HETATM   16  F   UNL     1      -5.568  13.603  70.083  1.00  0.00    -0.096 F  
HETATM   17  F   UNL     1      -5.864  13.939  67.958  1.00  0.00    -0.093 F  
HETATM   18  O   UNL     1      -7.520   9.805  66.298  1.00  0.00    -0.097 OA 
HETATM   19  F   UNL     1      -7.522  14.229  69.350  1.00  0.00    -0.133 F  
BRANCH  14  20
HETATM   20  O   UNL     1      -8.176  12.547  66.961  1.00  0.00    -0.176 OA 
BRANCH  20  21
HETATM   21  C   UNL     1      -9.510  12.903  67.040  1.00  0.00    -0.235 A  
HETATM   22  C   UNL     1     -10.245  12.659  65.864  1.00  0.00    -0.290 A  
HETATM   23  C   UNL     1     -11.624  12.915  65.797  1.00  0.00    -0.411 A  
HETATM   24  C   UNL     1     -12.282  13.422  66.921  1.00  0.00    -0.343 A  
HETATM   25  C   UNL     1     -12.356  12.659  64.582  1.00  0.00    -0.476 C  
HETATM   26  C   UNL     1     -11.549  13.703  68.075  1.00  0.00    -0.333 A  
HETATM   27  N   UNL     1     -12.940  12.465  63.600  1.00  0.00    -0.768 NA 
HETATM   28 CL   UNL     1     -12.356  14.332  69.463  1.00  0.00    -0.330 Cl 
HETATM   29  C   UNL     1     -10.166  13.471  68.131  1.00  0.00    -0.249 A  
ENDBRANCH  20  21
ENDBRANCH  14  20
ENDBRANCH   8   9
ENDBRANCH   7   8
TORSDOF 4
ENDMDL
MODEL      178
REMARK 921   NORMALIZED FREE ENERGY PREDICTED BY IDOCK:   -5.07 KCAL/MOL
REMARK 922        TOTAL FREE ENERGY PREDICTED BY IDOCK:   -7.10 KCAL/MOL
REMARK 923 INTER-LIGAND FREE ENERGY PREDICTED BY IDOCK:   -6.92 KCAL/MOL
REMARK 924 INTRA-LIGAND FREE ENERGY PREDICTED BY IDOCK:   -0.18 KCAL/MOL
REMARK 927      BINDING AFFINITY PREDICTED BY RF-SCORE:    0.00 PKD
ROOT
HETATM    1  C   UNL     1      -9.590   5.424  69.941  1.00  0.00    -0.168 C  
HETATM    2  N   UNL     1     -10.053   6.151  68.782  1.00  0.00    -0.157 N  
HETATM    3  C   UNL     1     -10.277   5.546  67.568  1.00  0.00    -0.199 C  
HETATM    4  O   UNL     1     -10.183   4.366  67.278  1.00  0.00    -0.108 OA 
HETATM    5  N   UNL     1     -10.647   6.571  66.712  1.00  0.00    -0.265 NA 
HETATM    6  N   UNL     1     -10.688   7.759  67.378  1.00  0.00    -0.266 NA 
HETATM    7  C   UNL     1     -10.339   7.455  68.600  1.00  0.00    -0.198 C  
ENDROOT
BRANCH   7   8
HETATM    8  C   UNL     1     -10.398   8.503  69.697  1.00  0.00    -0.218 C  
BRANCH   8   9
HETATM    9  N   UNL     1     -10.914   9.845  69.449  1.00  0.00    -0.236 N  
HETATM   10  C   UNL     1     -11.977  10.355  70.178  1.00  0.00    -0.276 C  
HETATM   11  C   UNL     1     -12.256  11.668  70.140  1.00  0.00    -0.367 C  
HETATM   12  C   UNL     1     -11.553  12.548  69.210  1.00  0.00    -0.378 C  
HETATM   13  C   UNL     1     -11.896  14.006  69.173  1.00  0.00    -0.350 C  
HETATM   14  C   UNL     1     -10.584  12.047  68.418  1.00  0.00    -0.217 C  
HETATM   15  C   UNL     1     -10.010  10.739  68.867  1.00  0.00    -0.202 C  
HETATM   16  F   UNL     1     -12.756  14.368  70.160  1.00  0.00    -0.377 F  
HETATM   17  F   UNL     1     -10.789  14.780  69.338  1.00  0.00    -0.230 F  
HETATM   18  O   UNL     1      -8.816  10.501  68.721  1.00  0.00    -0.141 OA 
HETATM   19  F   UNL     1     -12.468  14.377  68.001  1.00  0.00    -0.285 F  
BRANCH  14  20
HETATM   20  O   UNL     1      -9.993  12.799  67.410  1.00  0.00    -0.208 OA 
BRANCH  20  21
HETATM   21  C   UNL     1      -8.860  13.568  67.609  1.00  0.00    -0.202 A  
HETATM   22  C   UNL     1      -8.841  14.770  66.877  1.00  0.00    -0.274 A  
HETATM   23  C   UNL     1      -7.787  15.688  67.007  1.00  0.00    -0.266 A  
HETATM   24  C   UNL     1      -6.734  15.404  67.882  1.00  0.00    -0.177 A  
HETATM   25  C   UNL     1      -7.788  16.913  66.248  1.00  0.00    -0.311 C  
HETATM   26  C   UNL     1      -6.731  14.195  68.578  1.00  0.00    -0.101 A  
HETATM   27  N   UNL     1      -7.783  17.892  65.625  1.00  0.00    -0.517 NA 
HETATM   28 CL   UNL     1      -5.432  13.838  69.655  1.00  0.00    -0.087 Cl 
HETATM   29  C   UNL     1      -7.772  13.266  68.426  1.00  0.00    -0.138 A  
ENDBRANCH  20  21
ENDBRANCH  14  20
ENDBRANCH   8   9
ENDBRANCH   7   8
TORSDOF 4
ENDMDL
MODEL      179
REMARK 921   NORMALIZED FREE ENERGY PREDICTED BY IDOCK:   -5.05 KCAL/MOL
REMARK 922        TOTAL FREE ENERGY PREDICTED BY IDOCK:   -7.07 KCAL/MOL
REMARK 923 INTER-LIGAND FREE ENERGY PREDICTED BY IDOCK:   -5.91 KCAL/MOL
REMARK 924 INTRA-LIGAND FREE ENERGY PREDICTED BY IDOCK:   -1.17 KCAL/MOL
REMARK 927      BINDING AFFINITY PREDICTED BY RF-SCORE:    0.00 PKD
ROOT
HETATM    1  C   UNL     1      -9.064   2.232  66.062  1.00  0.00    -0.063 C  
HETATM    2  N   UNL     1      -9.076   3.348  65.146  1.00  0.00    -0.138 N  
HETATM    3  C   UNL     1      -9.575   3.255  63.868  1.00  0.00    -0.136 C  
HETATM    4  O   UNL     1     -10.106   2.299  63.328  1.00  0.00    -0.111 OA 
HETATM    5  N   UNL     1      -9.353   4.497  63.297  1.00  0.00    -0.104 NA 
HETATM    6  N   UNL     1      -8.776   5.341  64.198  1.00  0.00    -0.075 NA 
HETATM    7  C   UNL     1      -8.642   4.617  65.277  1.00  0.00    -0.133 C  
ENDROOT
BRANCH   7   8
HETATM    8  C   UNL     1      -8.155   5.250  66.569  1.00  0.00    -0.108 C  
BRANCH   8   9
HETATM    9  N   UNL     1      -9.082   5.821  67.540  1.00  0.00    -0.107 N  
HETATM   10  C   UNL     1     -10.076   5.053  68.126  1.00  0.00    -0.103 C  
HETATM   11  C   UNL     1     -10.730   5.503  69.209  1.00  0.00    -0.288 C  
HETATM   12  C   UNL     1     -10.522   6.867  69.685  1.00  0.00    -0.240 C  
HETATM   13  C   UNL     1     -11.278   7.354  70.884  1.00  0.00    -0.270 C  
HETATM   14  C   UNL     1      -9.630   7.665  69.063  1.00  0.00    -0.151 C  
HETATM   15  C   UNL     1      -8.619   6.951  68.222  1.00  0.00    -0.125 C  
HETATM   16  F   UNL     1     -11.987   6.367  71.493  1.00  0.00    -0.349 F  
HETATM   17  F   UNL     1     -10.438   7.851  71.832  1.00  0.00    -0.230 F  
HETATM   18  O   UNL     1      -7.463   7.357  68.159  1.00  0.00    -0.100 OA 
HETATM   19  F   UNL     1     -12.160   8.338  70.580  1.00  0.00    -0.252 F  
BRANCH  14  20
HETATM   20  O   UNL     1      -9.505   9.014  69.372  1.00  0.00    -0.154 OA 
BRANCH  20  21
HETATM   21  C   UNL     1     -10.108  10.015  68.633  1.00  0.00    -0.172 A  
HETATM   22  C   UNL     1     -10.744  11.004  69.407  1.00  0.00    -0.247 A  
HETATM   23  C   UNL     1     -11.358  12.117  68.811  1.00  0.00    -0.339 A  
HETATM   24  C   UNL     1     -11.337  12.248  67.420  1.00  0.00    -0.389 A  
HETATM   25  C   UNL     1     -12.003  13.117  69.624  1.00  0.00    -0.306 C  
HETATM   26  C   UNL     1     -10.743  11.249  66.647  1.00  0.00    -0.272 A  
HETATM   27  N   UNL     1     -12.535  13.913  70.279  1.00  0.00    -0.333 NA 
HETATM   28 CL   UNL     1     -10.720  11.404  64.930  1.00  0.00    -0.358 Cl 
HETATM   29  C   UNL     1     -10.153  10.124  67.244  1.00  0.00    -0.254 A  
ENDBRANCH  20  21
ENDBRANCH  14  20
ENDBRANCH   8   9
ENDBRANCH   7   8
TORSDOF 4
ENDMDL
MODEL      180
REMARK 921   NORMALIZED FREE ENERGY PREDICTED BY IDOCK:   -5.03 KCAL/MOL
REMARK 922        TOTAL FREE ENERGY PREDICTED BY IDOCK:   -7.05 KCAL/MOL
REMARK 923 INTER-LIGAND FREE ENERGY PREDICTED BY IDOCK:   -6.55 KCAL/MOL
REMARK 924 INTRA-LIGAND FREE ENERGY PREDICTED BY IDOCK:   -0.49 KCAL/MOL
REMARK 927      BINDING AFFINITY PREDICTED BY RF-SCORE:    0.00 PKD
ROOT
HETATM    1  C   UNL     1     -11.503   6.136  69.793  1.00  0.00    -0.292 C  
HETATM    2  N   UNL     1     -11.181   6.809  71.029  1.00  0.00    -0.274 N  
HETATM    3  C   UNL     1     -10.765   6.137  72.154  1.00  0.00    -0.236 C  
HETATM    4  O   UNL     1     -10.557   4.944  72.292  1.00  0.00    -0.211 OA 
HETATM    5  N   UNL     1     -10.618   7.110  73.129  1.00  0.00    -0.303 NA 
HETATM    6  N   UNL     1     -10.895   8.343  72.619  1.00  0.00    -0.310 NA 
HETATM    7  C   UNL     1     -11.212   8.112  71.373  1.00  0.00    -0.254 C  
ENDROOT
BRANCH   7   8
HETATM    8  C   UNL     1     -11.456   9.267  70.417  1.00  0.00    -0.213 C  
BRANCH   8   9
HETATM    9  N   UNL     1     -10.559   9.538  69.298  1.00  0.00    -0.216 N  
HETATM   10  C   UNL     1      -9.755   8.546  68.762  1.00  0.00    -0.164 C  
HETATM   11  C   UNL     1      -9.156   8.727  67.573  1.00  0.00    -0.146 C  
HETATM   12  C   UNL     1      -9.209  10.026  66.909  1.00  0.00    -0.169 C  
HETATM   13  C   UNL     1      -8.516  10.210  65.593  1.00  0.00    -0.153 C  
HETATM   14  C   UNL     1      -9.904  11.036  67.469  1.00  0.00    -0.169 C  
HETATM   15  C   UNL     1     -10.918  10.620  68.488  1.00  0.00    -0.248 C  
HETATM   16  F   UNL     1      -8.026   9.046  65.091  1.00  0.00    -0.103 F  
HETATM   17  F   UNL     1      -9.366  10.697  64.649  1.00  0.00    -0.197 F  
HETATM   18  O   UNL     1     -11.989  11.212  68.578  1.00  0.00    -0.526 OA 
HETATM   19  F   UNL     1      -7.472  11.072  65.669  1.00  0.00    -0.120 F  
BRANCH  14  20
HETATM   20  O   UNL     1      -9.861  12.331  66.964  1.00  0.00    -0.201 OA 
BRANCH  20  21
HETATM   21  C   UNL     1      -8.933  13.269  67.377  1.00  0.00    -0.215 A  
HETATM   22  C   UNL     1      -9.005  14.496  66.691  1.00  0.00    -0.247 A  
HETATM   23  C   UNL     1      -8.168  15.572  67.027  1.00  0.00    -0.275 A  
HETATM   24  C   UNL     1      -7.243  15.423  68.064  1.00  0.00    -0.135 A  
HETATM   25  C   UNL     1      -8.259  16.820  66.311  1.00  0.00    -0.324 C  
HETATM   26  C   UNL     1      -7.141  14.195  68.719  1.00  0.00    -0.107 A  
HETATM   27  N   UNL     1      -8.324  17.818  65.724  1.00  0.00    -0.486 NA 
HETATM   28 CL   UNL     1      -5.998  14.005  69.997  1.00  0.00    -0.131 Cl 
HETATM   29  C   UNL     1      -7.961  13.113  68.364  1.00  0.00    -0.130 A  
ENDBRANCH  20  21
ENDBRANCH  14  20
ENDBRANCH   8   9
ENDBRANCH   7   8
TORSDOF 4
ENDMDL
MODEL      181
REMARK 921   NORMALIZED FREE ENERGY PREDICTED BY IDOCK:   -4.99 KCAL/MOL
REMARK 922        TOTAL FREE ENERGY PREDICTED BY IDOCK:   -7.00 KCAL/MOL
REMARK 923 INTER-LIGAND FREE ENERGY PREDICTED BY IDOCK:   -7.51 KCAL/MOL
REMARK 924 INTRA-LIGAND FREE ENERGY PREDICTED BY IDOCK:    0.52 KCAL/MOL
REMARK 927      BINDING AFFINITY PREDICTED BY RF-SCORE:    0.00 PKD
ROOT
HETATM    1  C   UNL     1     -12.750  12.452  64.277  1.00  0.00    -0.342 C  
HETATM    2  N   UNL     1     -12.022  13.410  65.075  1.00  0.00    -0.355 N  
HETATM    3  C   UNL     1     -11.936  14.741  64.742  1.00  0.00    -0.404 C  
HETATM    4  O   UNL     1     -12.460  15.326  63.809  1.00  0.00    -0.698 OA 
HETATM    5  N   UNL     1     -11.116  15.307  65.704  1.00  0.00    -0.329 NA 
HETATM    6  N   UNL     1     -10.739  14.373  66.621  1.00  0.00    -0.289 NA 
HETATM    7  C   UNL     1     -11.309  13.271  66.210  1.00  0.00    -0.309 C  
ENDROOT
BRANCH   7   8
HETATM    8  C   UNL     1     -11.241  12.011  67.055  1.00  0.00    -0.320 C  
BRANCH   8   9
HETATM    9  N   UNL     1     -10.551  10.812  66.590  1.00  0.00    -0.246 N  
HETATM   10  C   UNL     1      -9.393  10.894  65.834  1.00  0.00    -0.200 C  
HETATM   11  C   UNL     1      -8.622   9.809  65.655  1.00  0.00    -0.154 C  
HETATM   12  C   UNL     1      -9.073   8.497  66.113  1.00  0.00    -0.245 C  
HETATM   13  C   UNL     1      -8.205   7.298  65.885  1.00  0.00    -0.132 C  
HETATM   14  C   UNL     1     -10.249   8.383  66.762  1.00  0.00    -0.306 C  
HETATM   15  C   UNL     1     -10.779   9.656  67.344  1.00  0.00    -0.241 C  
HETATM   16  F   UNL     1      -6.982   7.623  65.387  1.00  0.00    -0.054 F  
HETATM   17  F   UNL     1      -7.970   6.627  67.045  1.00  0.00    -0.102 F  
HETATM   18  O   UNL     1     -11.369   9.650  68.420  1.00  0.00    -0.030 OA 
HETATM   19  F   UNL     1      -8.756   6.412  65.019  1.00  0.00    -0.122 F  
BRANCH  14  20
HETATM   20  O   UNL     1     -10.799   7.147  67.081  1.00  0.00    -0.333 OA 
BRANCH  20  21
HETATM   21  C   UNL     1     -10.521   6.480  68.260  1.00  0.00    -0.219 A  
HETATM   22  C   UNL     1     -10.820   7.213  69.424  1.00  0.00    -0.225 A  
HETATM   23  C   UNL     1     -10.646   6.659  70.702  1.00  0.00    -0.268 A  
HETATM   24  C   UNL     1     -10.165   5.352  70.822  1.00  0.00    -0.313 A  
HETATM   25  C   UNL     1     -10.959   7.429  71.880  1.00  0.00    -0.233 C  
HETATM   26  C   UNL     1      -9.829   4.637  69.672  1.00  0.00    -0.223 A  
HETATM   27  N   UNL     1     -11.197   8.054  72.827  1.00  0.00    -0.400 NA 
HETATM   28 CL   UNL     1      -9.232   3.026  69.816  1.00  0.00    -0.206 Cl 
HETATM   29  C   UNL     1      -9.980   5.203  68.396  1.00  0.00    -0.214 A  
ENDBRANCH  20  21
ENDBRANCH  14  20
ENDBRANCH   8   9
ENDBRANCH   7   8
TORSDOF 4
ENDMDL
MODEL      182
REMARK 921   NORMALIZED FREE ENERGY PREDICTED BY IDOCK:   -4.99 KCAL/MOL
REMARK 922        TOTAL FREE ENERGY PREDICTED BY IDOCK:   -7.00 KCAL/MOL
REMARK 923 INTER-LIGAND FREE ENERGY PREDICTED BY IDOCK:   -7.03 KCAL/MOL
REMARK 924 INTRA-LIGAND FREE ENERGY PREDICTED BY IDOCK:    0.03 KCAL/MOL
REMARK 927      BINDING AFFINITY PREDICTED BY RF-SCORE:    0.00 PKD
ROOT
HETATM    1  C   UNL     1      -9.399   7.329  72.360  1.00  0.00    -0.138 C  
HETATM    2  N   UNL     1     -10.739   7.427  71.831  1.00  0.00    -0.213 N  
HETATM    3  C   UNL     1     -11.695   6.463  72.047  1.00  0.00    -0.329 C  
HETATM    4  O   UNL     1     -11.611   5.447  72.716  1.00  0.00    -0.307 OA 
HETATM    5  N   UNL     1     -12.807   6.885  71.338  1.00  0.00    -0.349 NA 
HETATM    6  N   UNL     1     -12.565   8.084  70.737  1.00  0.00     0.053 NA 
HETATM    7  C   UNL     1     -11.332   8.366  71.068  1.00  0.00    -0.266 C  
ENDROOT
BRANCH   7   8
HETATM    8  C   UNL     1     -10.728   9.710  70.700  1.00  0.00    -0.322 C  
BRANCH   8   9
HETATM    9  N   UNL     1      -9.821   9.858  69.567  1.00  0.00    -0.210 N  
HETATM   10  C   UNL     1      -9.267   8.755  68.938  1.00  0.00    -0.141 C  
HETATM   11  C   UNL     1      -8.671   8.886  67.741  1.00  0.00    -0.125 C  
HETATM   12  C   UNL     1      -8.455  10.209  67.162  1.00  0.00    -0.125 C  
HETATM   13  C   UNL     1      -7.771  10.331  65.835  1.00  0.00    -0.137 C  
HETATM   14  C   UNL     1      -8.898  11.304  67.812  1.00  0.00    -0.141 C  
HETATM   15  C   UNL     1      -9.953  11.047  68.842  1.00  0.00    -0.188 C  
HETATM   16  F   UNL     1      -7.560   9.126  65.241  1.00  0.00    -0.092 F  
HETATM   17  F   UNL     1      -8.516  11.055  64.958  1.00  0.00    -0.162 F  
HETATM   18  O   UNL     1     -10.866  11.849  69.011  1.00  0.00    -0.222 OA 
HETATM   19  F   UNL     1      -6.562  10.938  65.925  1.00  0.00    -0.122 F  
BRANCH  14  20
HETATM   20  O   UNL     1      -8.584  12.591  67.389  1.00  0.00    -0.168 OA 
BRANCH  20  21
HETATM   21  C   UNL     1      -9.464  13.385  66.677  1.00  0.00    -0.260 A  
HETATM   22  C   UNL     1     -10.462  12.669  65.988  1.00  0.00    -0.288 A  
HETATM   23  C   UNL     1     -11.465  13.330  65.261  1.00  0.00    -0.319 A  
HETATM   24  C   UNL     1     -11.475  14.727  65.220  1.00  0.00    -0.352 A  
HETATM   25  C   UNL     1     -12.476  12.576  64.563  1.00  0.00    -0.459 C  
HETATM   26  C   UNL     1     -10.464  15.438  65.868  1.00  0.00    -0.340 A  
HETATM   27  N   UNL     1     -13.281  11.969  63.990  1.00  0.00    -0.677 NA 
HETATM   28 CL   UNL     1     -10.470  17.161  65.816  1.00  0.00    -0.310 Cl 
HETATM   29  C   UNL     1      -9.448  14.775  66.573  1.00  0.00    -0.316 A  
ENDBRANCH  20  21
ENDBRANCH  14  20
ENDBRANCH   8   9
ENDBRANCH   7   8
TORSDOF 4
ENDMDL
MODEL      183
REMARK 921   NORMALIZED FREE ENERGY PREDICTED BY IDOCK:   -4.99 KCAL/MOL
REMARK 922        TOTAL FREE ENERGY PREDICTED BY IDOCK:   -6.99 KCAL/MOL
REMARK 923 INTER-LIGAND FREE ENERGY PREDICTED BY IDOCK:   -6.19 KCAL/MOL
REMARK 924 INTRA-LIGAND FREE ENERGY PREDICTED BY IDOCK:   -0.80 KCAL/MOL
REMARK 927      BINDING AFFINITY PREDICTED BY RF-SCORE:    0.00 PKD
ROOT
HETATM    1  C   UNL     1     -11.653  15.240  66.547  1.00  0.00    -0.015 C  
HETATM    2  N   UNL     1     -11.974  14.332  65.472  1.00  0.00    -0.375 N  
HETATM    3  C   UNL     1     -12.224  14.759  64.189  1.00  0.00    -0.295 C  
HETATM    4  O   UNL     1     -12.176  15.893  63.743  1.00  0.00    -0.817 OA 
HETATM    5  N   UNL     1     -12.548  13.615  63.479  1.00  0.00    -0.784 NA 
HETATM    6  N   UNL     1     -12.463  12.515  64.279  1.00  0.00    -0.579 NA 
HETATM    7  C   UNL     1     -12.112  12.992  65.444  1.00  0.00    -0.444 C  
ENDROOT
BRANCH   7   8
HETATM    8  C   UNL     1     -11.775  12.051  66.587  1.00  0.00    -0.256 C  
BRANCH   8   9
HETATM    9  N   UNL     1     -10.397  11.815  67.006  1.00  0.00    -0.210 N  
HETATM   10  C   UNL     1      -9.509  12.863  67.184  1.00  0.00    -0.229 C  
HETATM   11  C   UNL     1      -8.349  12.665  67.832  1.00  0.00    -0.172 C  
HETATM   12  C   UNL     1      -7.934  11.318  68.213  1.00  0.00    -0.134 C  
HETATM   13  C   UNL     1      -6.627  11.120  68.918  1.00  0.00    -0.065 C  
HETATM   14  C   UNL     1      -8.744  10.270  67.955  1.00  0.00    -0.122 C  
HETATM   15  C   UNL     1     -10.176  10.623  67.704  1.00  0.00    -0.194 C  
HETATM   16  F   UNL     1      -6.033  12.293  69.260  1.00  0.00    -0.065 F  
HETATM   17  F   UNL     1      -6.789  10.430  70.079  1.00  0.00    -0.089 F  
HETATM   18  O   UNL     1     -11.076   9.890  68.102  1.00  0.00    -0.239 OA 
HETATM   19  F   UNL     1      -5.730  10.432  68.169  1.00  0.00    -0.041 F  
BRANCH  14  20
HETATM   20  O   UNL     1      -8.336   8.956  68.152  1.00  0.00    -0.123 OA 
BRANCH  20  21
HETATM   21  C   UNL     1      -8.123   8.070  67.112  1.00  0.00    -0.117 A  
HETATM   22  C   UNL     1      -8.720   6.808  67.296  1.00  0.00    -0.119 A  
HETATM   23  C   UNL     1      -8.642   5.812  66.308  1.00  0.00    -0.130 A  
HETATM   24  C   UNL     1      -7.960   6.079  65.118  1.00  0.00    -0.123 A  
HETATM   25  C   UNL     1      -9.261   4.527  66.518  1.00  0.00    -0.137 C  
HETATM   26  C   UNL     1      -7.334   7.315  64.950  1.00  0.00    -0.080 A  
HETATM   27  N   UNL     1      -9.746   3.489  66.695  1.00  0.00    -0.102 NA 
HETATM   28 CL   UNL     1      -6.488   7.646  63.484  1.00  0.00    -0.057 Cl 
HETATM   29  C   UNL     1      -7.390   8.299  65.949  1.00  0.00    -0.076 A  
ENDBRANCH  20  21
ENDBRANCH  14  20
ENDBRANCH   8   9
ENDBRANCH   7   8
TORSDOF 4
ENDMDL
MODEL      184
REMARK 921   NORMALIZED FREE ENERGY PREDICTED BY IDOCK:   -4.98 KCAL/MOL
REMARK 922        TOTAL FREE ENERGY PREDICTED BY IDOCK:   -6.98 KCAL/MOL
REMARK 923 INTER-LIGAND FREE ENERGY PREDICTED BY IDOCK:   -6.25 KCAL/MOL
REMARK 924 INTRA-LIGAND FREE ENERGY PREDICTED BY IDOCK:   -0.73 KCAL/MOL
REMARK 927      BINDING AFFINITY PREDICTED BY RF-SCORE:    0.00 PKD
ROOT
HETATM    1  C   UNL     1     -11.615   6.531  70.030  1.00  0.00    -0.390 C  
HETATM    2  N   UNL     1     -11.147   6.714  71.384  1.00  0.00    -0.252 N  
HETATM    3  C   UNL     1     -10.659   5.680  72.147  1.00  0.00    -0.223 C  
HETATM    4  O   UNL     1     -10.496   4.514  71.831  1.00  0.00    -0.166 OA 
HETATM    5  N   UNL     1     -10.377   6.238  73.383  1.00  0.00    -0.223 NA 
HETATM    6  N   UNL     1     -10.641   7.575  73.376  1.00  0.00    -0.379 NA 
HETATM    7  C   UNL     1     -11.085   7.808  72.169  1.00  0.00    -0.279 C  
ENDROOT
BRANCH   7   8
HETATM    8  C   UNL     1     -11.362   9.231  71.716  1.00  0.00    -0.367 C  
BRANCH   8   9
HETATM    9  N   UNL     1     -11.222   9.632  70.319  1.00  0.00    -0.258 N  
HETATM   10  C   UNL     1     -12.079  10.556  69.745  1.00  0.00    -0.214 C  
HETATM   11  C   UNL     1     -11.774  11.123  68.566  1.00  0.00    -0.368 C  
HETATM   12  C   UNL     1     -10.624  10.655  67.797  1.00  0.00    -0.275 C  
HETATM   13  C   UNL     1     -10.314  11.289  66.475  1.00  0.00    -0.240 C  
HETATM   14  C   UNL     1      -9.835   9.683  68.296  1.00  0.00    -0.150 C  
HETATM   15  C   UNL     1      -9.944   9.473  69.774  1.00  0.00    -0.213 C  
HETATM   16  F   UNL     1     -11.097  12.370  66.215  1.00  0.00    -0.286 F  
HETATM   17  F   UNL     1      -9.031  11.736  66.427  1.00  0.00    -0.192 F  
HETATM   18  O   UNL     1      -8.952   9.185  70.436  1.00  0.00    -0.187 OA 
HETATM   19  F   UNL     1     -10.476  10.433  65.436  1.00  0.00    -0.345 F  
BRANCH  14  20
HETATM   20  O   UNL     1      -8.825   9.093  67.544  1.00  0.00    -0.119 OA 
BRANCH  20  21
HETATM   21  C   UNL     1      -8.728   7.727  67.354  1.00  0.00    -0.128 A  
HETATM   22  C   UNL     1      -7.628   7.129  67.999  1.00  0.00    -0.111 A  
HETATM   23  C   UNL     1      -7.417   5.742  67.948  1.00  0.00    -0.078 A  
HETATM   24  C   UNL     1      -8.317   4.937  67.245  1.00  0.00    -0.106 A  
HETATM   25  C   UNL     1      -6.283   5.152  68.615  1.00  0.00    -0.031 C  
HETATM   26  C   UNL     1      -9.385   5.530  66.572  1.00  0.00    -0.147 A  
HETATM   27  N   UNL     1      -5.363   4.681  69.140  1.00  0.00    -0.007 NA 
HETATM   28 CL   UNL     1     -10.496   4.540  65.699  1.00  0.00    -0.299 Cl 
HETATM   29  C   UNL     1      -9.580   6.919  66.601  1.00  0.00    -0.218 A  
ENDBRANCH  20  21
ENDBRANCH  14  20
ENDBRANCH   8   9
ENDBRANCH   7   8
TORSDOF 4
ENDMDL
MODEL      185
REMARK 921   NORMALIZED FREE ENERGY PREDICTED BY IDOCK:   -4.97 KCAL/MOL
REMARK 922        TOTAL FREE ENERGY PREDICTED BY IDOCK:   -6.97 KCAL/MOL
REMARK 923 INTER-LIGAND FREE ENERGY PREDICTED BY IDOCK:   -7.47 KCAL/MOL
REMARK 924 INTRA-LIGAND FREE ENERGY PREDICTED BY IDOCK:    0.51 KCAL/MOL
REMARK 927      BINDING AFFINITY PREDICTED BY RF-SCORE:    0.00 PKD
ROOT
HETATM    1  C   UNL     1      -9.378   7.049  71.912  1.00  0.00    -0.140 C  
HETATM    2  N   UNL     1     -10.814   7.117  71.771  1.00  0.00    -0.224 N  
HETATM    3  C   UNL     1     -11.645   6.081  72.128  1.00  0.00    -0.293 C  
HETATM    4  O   UNL     1     -11.351   5.014  72.639  1.00  0.00    -0.213 OA 
HETATM    5  N   UNL     1     -12.920   6.501  71.788  1.00  0.00    -0.159 NA 
HETATM    6  N   UNL     1     -12.888   7.764  71.277  1.00  0.00    -0.275 NA 
HETATM    7  C   UNL     1     -11.621   8.086  71.297  1.00  0.00    -0.276 C  
ENDROOT
BRANCH   7   8
HETATM    8  C   UNL     1     -11.182   9.493  70.928  1.00  0.00    -0.341 C  
BRANCH   8   9
HETATM    9  N   UNL     1     -10.722   9.824  69.583  1.00  0.00    -0.229 N  
HETATM   10  C   UNL     1     -10.276   8.844  68.712  1.00  0.00    -0.206 C  
HETATM   11  C   UNL     1     -10.127   9.116  67.405  1.00  0.00    -0.289 C  
HETATM   12  C   UNL     1     -10.273  10.483  66.912  1.00  0.00    -0.280 C  
HETATM   13  C   UNL     1     -10.083  10.765  65.453  1.00  0.00    -0.285 C  
HETATM   14  C   UNL     1     -10.608  11.470  67.767  1.00  0.00    -0.192 C  
HETATM   15  C   UNL     1     -11.227  11.015  69.051  1.00  0.00    -0.258 C  
HETATM   16  F   UNL     1      -9.935   9.633  64.715  1.00  0.00    -0.346 F  
HETATM   17  F   UNL     1     -11.156  11.416  64.930  1.00  0.00    -0.353 F  
HETATM   18  O   UNL     1     -12.124  11.668  69.575  1.00  0.00    -0.304 OA 
HETATM   19  F   UNL     1      -8.994  11.535  65.209  1.00  0.00    -0.180 F  
BRANCH  14  20
HETATM   20  O   UNL     1     -10.607  12.807  67.387  1.00  0.00    -0.226 OA 
BRANCH  20  21
HETATM   21  C   UNL     1     -10.653  13.848  68.296  1.00  0.00    -0.257 A  
HETATM   22  C   UNL     1      -9.461  14.591  68.386  1.00  0.00    -0.209 A  
HETATM   23  C   UNL     1      -9.360  15.714  69.224  1.00  0.00    -0.267 A  
HETATM   24  C   UNL     1     -10.467  16.102  69.984  1.00  0.00    -0.215 A  
HETATM   25  C   UNL     1      -8.129  16.459  69.300  1.00  0.00    -0.121 C  
HETATM   26  C   UNL     1     -11.637  15.344  69.928  1.00  0.00    -0.323 A  
HETATM   27  N   UNL     1      -7.134  17.049  69.372  1.00  0.00    -0.184 NA 
HETATM   28 CL   UNL     1     -13.003  15.818  70.868  1.00  0.00    -0.460 Cl 
HETATM   29  C   UNL     1     -11.727  14.208  69.110  1.00  0.00    -0.368 A  
ENDBRANCH  20  21
ENDBRANCH  14  20
ENDBRANCH   8   9
ENDBRANCH   7   8
TORSDOF 4
ENDMDL
MODEL      186
REMARK 921   NORMALIZED FREE ENERGY PREDICTED BY IDOCK:   -4.95 KCAL/MOL
REMARK 922        TOTAL FREE ENERGY PREDICTED BY IDOCK:   -6.94 KCAL/MOL
REMARK 923 INTER-LIGAND FREE ENERGY PREDICTED BY IDOCK:   -6.43 KCAL/MOL
REMARK 924 INTRA-LIGAND FREE ENERGY PREDICTED BY IDOCK:   -0.51 KCAL/MOL
REMARK 927      BINDING AFFINITY PREDICTED BY RF-SCORE:    0.00 PKD
ROOT
HETATM    1  C   UNL     1     -11.036  11.368  64.269  1.00  0.00    -0.321 C  
HETATM    2  N   UNL     1     -11.739  12.494  64.838  1.00  0.00    -0.343 N  
HETATM    3  C   UNL     1     -12.350  13.454  64.067  1.00  0.00    -0.337 C  
HETATM    4  O   UNL     1     -12.448  13.504  62.852  1.00  0.00    -0.601 OA 
HETATM    5  N   UNL     1     -12.851  14.381  64.965  1.00  0.00    -0.615 NA 
HETATM    6  N   UNL     1     -12.597  13.992  66.246  1.00  0.00    -0.408 NA 
HETATM    7  C   UNL     1     -11.946  12.866  66.117  1.00  0.00    -0.429 C  
ENDROOT
BRANCH   7   8
HETATM    8  C   UNL     1     -11.599  12.035  67.340  1.00  0.00    -0.318 C  
BRANCH   8   9
HETATM    9  N   UNL     1     -10.220  11.677  67.658  1.00  0.00    -0.186 N  
HETATM   10  C   UNL     1      -9.247  12.647  67.839  1.00  0.00    -0.201 C  
HETATM   11  C   UNL     1      -8.070  12.328  68.401  1.00  0.00    -0.151 C  
HETATM   12  C   UNL     1      -7.735  10.933  68.678  1.00  0.00    -0.122 C  
HETATM   13  C   UNL     1      -6.408  10.600  69.287  1.00  0.00    -0.057 C  
HETATM   14  C   UNL     1      -8.634   9.964  68.411  1.00  0.00    -0.116 C  
HETATM   15  C   UNL     1     -10.048  10.432  68.270  1.00  0.00    -0.153 C  
HETATM   16  F   UNL     1      -5.709  11.706  69.658  1.00  0.00    -0.058 F  
HETATM   17  F   UNL     1      -6.552   9.853  70.414  1.00  0.00    -0.069 F  
HETATM   18  O   UNL     1     -10.976   9.741  68.681  1.00  0.00    -0.213 OA 
HETATM   19  F   UNL     1      -5.609   9.898  68.445  1.00  0.00    -0.042 F  
BRANCH  14  20
HETATM   20  O   UNL     1      -8.314   8.615  68.507  1.00  0.00    -0.120 OA 
BRANCH  20  21
HETATM   21  C   UNL     1      -8.710   7.820  69.567  1.00  0.00    -0.135 A  
HETATM   22  C   UNL     1      -8.848   6.456  69.248  1.00  0.00    -0.128 A  
HETATM   23  C   UNL     1      -9.192   5.508  70.226  1.00  0.00    -0.181 A  
HETATM   24  C   UNL     1      -9.401   5.927  71.543  1.00  0.00    -0.160 A  
HETATM   25  C   UNL     1      -9.329   4.116  69.876  1.00  0.00    -0.165 C  
HETATM   26  C   UNL     1      -9.304   7.284  71.854  1.00  0.00    -0.137 A  
HETATM   27  N   UNL     1      -9.453   3.000  69.591  1.00  0.00    -0.141 NA 
HETATM   28 CL   UNL     1      -9.565   7.804  73.477  1.00  0.00    -0.349 Cl 
HETATM   29  C   UNL     1      -8.986   8.233  70.870  1.00  0.00    -0.174 A  
ENDBRANCH  20  21
ENDBRANCH  14  20
ENDBRANCH   8   9
ENDBRANCH   7   8
TORSDOF 4
ENDMDL
MODEL      187
REMARK 921   NORMALIZED FREE ENERGY PREDICTED BY IDOCK:   -4.91 KCAL/MOL
REMARK 922        TOTAL FREE ENERGY PREDICTED BY IDOCK:   -6.89 KCAL/MOL
REMARK 923 INTER-LIGAND FREE ENERGY PREDICTED BY IDOCK:   -5.75 KCAL/MOL
REMARK 924 INTRA-LIGAND FREE ENERGY PREDICTED BY IDOCK:   -1.14 KCAL/MOL
REMARK 927      BINDING AFFINITY PREDICTED BY RF-SCORE:    0.00 PKD
ROOT
HETATM    1  C   UNL     1      -9.433   8.447  69.302  1.00  0.00    -0.155 C  
HETATM    2  N   UNL     1      -8.944   8.213  67.964  1.00  0.00    -0.134 N  
HETATM    3  C   UNL     1      -9.726   7.669  66.972  1.00  0.00    -0.195 C  
HETATM    4  O   UNL     1     -10.903   7.353  67.020  1.00  0.00    -0.354 OA 
HETATM    5  N   UNL     1      -8.892   7.549  65.873  1.00  0.00    -0.155 NA 
HETATM    6  N   UNL     1      -7.652   8.036  66.158  1.00  0.00    -0.084 NA 
HETATM    7  C   UNL     1      -7.737   8.424  67.403  1.00  0.00    -0.098 C  
ENDROOT
BRANCH   7   8
HETATM    8  C   UNL     1      -6.582   9.162  68.057  1.00  0.00    -0.060 C  
BRANCH   8   9
HETATM    9  N   UNL     1      -6.723  10.532  68.541  1.00  0.00    -0.056 N  
HETATM   10  C   UNL     1      -6.251  10.907  69.789  1.00  0.00    -0.103 C  
HETATM   11  C   UNL     1      -6.131  12.207  70.104  1.00  0.00    -0.121 C  
HETATM   12  C   UNL     1      -6.647  13.237  69.207  1.00  0.00    -0.093 C  
HETATM   13  C   UNL     1      -6.519  14.680  69.589  1.00  0.00    -0.149 C  
HETATM   14  C   UNL     1      -7.203  12.883  68.031  1.00  0.00    -0.115 C  
HETATM   15  C   UNL     1      -6.851  11.510  67.550  1.00  0.00    -0.098 C  
HETATM   16  F   UNL     1      -5.771  14.862  70.710  1.00  0.00    -0.133 F  
HETATM   17  F   UNL     1      -5.907  15.401  68.611  1.00  0.00    -0.089 F  
HETATM   18  O   UNL     1      -6.689  11.293  66.354  1.00  0.00    -0.128 OA 
HETATM   19  F   UNL     1      -7.719  15.267  69.822  1.00  0.00    -0.207 F  
BRANCH  14  20
HETATM   20  O   UNL     1      -7.848  13.803  67.212  1.00  0.00    -0.162 OA 
BRANCH  20  21
HETATM   21  C   UNL     1      -9.224  13.872  67.094  1.00  0.00    -0.239 A  
HETATM   22  C   UNL     1      -9.913  13.821  68.321  1.00  0.00    -0.243 A  
HETATM   23  C   UNL     1     -11.312  13.931  68.379  1.00  0.00    -0.316 A  
HETATM   24  C   UNL     1     -12.036  14.096  67.195  1.00  0.00    -0.460 A  
HETATM   25  C   UNL     1     -11.997  13.876  69.646  1.00  0.00    -0.342 C  
HETATM   26  C   UNL     1     -11.359  14.107  65.974  1.00  0.00    -0.330 A  
HETATM   27  N   UNL     1     -12.547  13.817  70.665  1.00  0.00    -0.331 NA 
HETATM   28 CL   UNL     1     -12.249  14.306  64.511  1.00  0.00    -0.479 Cl 
HETATM   29  C   UNL     1      -9.964  13.969  65.917  1.00  0.00    -0.325 A  
ENDBRANCH  20  21
ENDBRANCH  14  20
ENDBRANCH   8   9
ENDBRANCH   7   8
TORSDOF 4
ENDMDL
MODEL      188
REMARK 921   NORMALIZED FREE ENERGY PREDICTED BY IDOCK:   -4.91 KCAL/MOL
REMARK 922        TOTAL FREE ENERGY PREDICTED BY IDOCK:   -6.89 KCAL/MOL
REMARK 923 INTER-LIGAND FREE ENERGY PREDICTED BY IDOCK:   -5.99 KCAL/MOL
REMARK 924 INTRA-LIGAND FREE ENERGY PREDICTED BY IDOCK:   -0.91 KCAL/MOL
REMARK 927      BINDING AFFINITY PREDICTED BY RF-SCORE:    0.00 PKD
ROOT
HETATM    1  C   UNL     1      -5.389  18.104  65.970  1.00  0.00    -0.181 C  
HETATM    2  N   UNL     1      -6.615  18.609  66.542  1.00  0.00    -0.187 N  
HETATM    3  C   UNL     1      -7.230  19.752  66.090  1.00  0.00    -0.279 C  
HETATM    4  O   UNL     1      -6.906  20.472  65.161  1.00  0.00    -0.278 OA 
HETATM    5  N   UNL     1      -8.324  19.932  66.920  1.00  0.00    -0.308 NA 
HETATM    6  N   UNL     1      -8.409  18.918  67.827  1.00  0.00    -0.275 NA 
HETATM    7  C   UNL     1      -7.381  18.157  67.555  1.00  0.00    -0.208 C  
ENDROOT
BRANCH   7   8
HETATM    8  C   UNL     1      -7.201  16.829  68.268  1.00  0.00    -0.173 C  
BRANCH   8   9
HETATM    9  N   UNL     1      -8.309  15.896  68.443  1.00  0.00    -0.168 N  
HETATM   10  C   UNL     1      -9.232  16.055  69.464  1.00  0.00    -0.124 C  
HETATM   11  C   UNL     1     -10.388  15.371  69.445  1.00  0.00    -0.258 C  
HETATM   12  C   UNL     1     -10.618  14.334  68.444  1.00  0.00    -0.255 C  
HETATM   13  C   UNL     1     -11.907  13.570  68.455  1.00  0.00    -0.362 C  
HETATM   14  C   UNL     1      -9.683  14.094  67.502  1.00  0.00    -0.234 C  
HETATM   15  C   UNL     1      -8.694  15.198  67.294  1.00  0.00    -0.202 C  
HETATM   16  F   UNL     1     -12.802  14.066  69.350  1.00  0.00    -0.222 F  
HETATM   17  F   UNL     1     -12.523  13.619  67.244  1.00  0.00    -0.370 F  
HETATM   18  O   UNL     1      -8.272  15.450  66.170  1.00  0.00     0.038 OA 
HETATM   19  F   UNL     1     -11.734  12.260  68.761  1.00  0.00    -0.292 F  
BRANCH  14  20
HETATM   20  O   UNL     1      -9.778  13.020  66.625  1.00  0.00    -0.243 OA 
BRANCH  20  21
HETATM   21  C   UNL     1      -9.021  11.870  66.758  1.00  0.00    -0.196 A  
HETATM   22  C   UNL     1      -8.699  11.540  68.088  1.00  0.00    -0.157 A  
HETATM   23  C   UNL     1      -7.980  10.374  68.398  1.00  0.00    -0.110 A  
HETATM   24  C   UNL     1      -7.576   9.523  67.365  1.00  0.00    -0.095 A  
HETATM   25  C   UNL     1      -7.662  10.056  69.767  1.00  0.00    -0.168 C  
HETATM   26  C   UNL     1      -7.858   9.869  66.043  1.00  0.00    -0.111 A  
HETATM   27  N   UNL     1      -7.394   9.808  70.868  1.00  0.00    -0.324 NA 
HETATM   28 CL   UNL     1      -7.357   8.824  64.766  1.00  0.00    -0.091 Cl 
HETATM   29  C   UNL     1      -8.553  11.048  65.734  1.00  0.00    -0.151 A  
ENDBRANCH  20  21
ENDBRANCH  14  20
ENDBRANCH   8   9
ENDBRANCH   7   8
TORSDOF 4
ENDMDL
MODEL      189
REMARK 921   NORMALIZED FREE ENERGY PREDICTED BY IDOCK:   -4.89 KCAL/MOL
REMARK 922        TOTAL FREE ENERGY PREDICTED BY IDOCK:   -6.87 KCAL/MOL
REMARK 923 INTER-LIGAND FREE ENERGY PREDICTED BY IDOCK:   -6.72 KCAL/MOL
REMARK 924 INTRA-LIGAND FREE ENERGY PREDICTED BY IDOCK:   -0.16 KCAL/MOL
REMARK 927      BINDING AFFINITY PREDICTED BY RF-SCORE:    0.00 PKD
ROOT
HETATM    1  C   UNL     1     -12.708  10.480  70.726  1.00  0.00    -0.381 C  
HETATM    2  N   UNL     1     -12.590   9.126  71.214  1.00  0.00    -0.307 N  
HETATM    3  C   UNL     1     -13.405   8.619  72.199  1.00  0.00    -0.396 C  
HETATM    4  O   UNL     1     -14.340   9.160  72.765  1.00  0.00    -0.563 OA 
HETATM    5  N   UNL     1     -12.945   7.332  72.428  1.00  0.00     0.133 NA 
HETATM    6  N   UNL     1     -11.911   7.038  71.591  1.00  0.00    -0.309 NA 
HETATM    7  C   UNL     1     -11.747   8.127  70.888  1.00  0.00    -0.244 C  
ENDROOT
BRANCH   7   8
HETATM    8  C   UNL     1     -10.763   8.152  69.731  1.00  0.00    -0.229 C  
BRANCH   8   9
HETATM    9  N   UNL     1      -9.816   9.249  69.554  1.00  0.00    -0.174 N  
HETATM   10  C   UNL     1      -8.578   9.240  70.175  1.00  0.00    -0.198 C  
HETATM   11  C   UNL     1      -7.619  10.097  69.788  1.00  0.00    -0.175 C  
HETATM   12  C   UNL     1      -7.916  11.154  68.825  1.00  0.00    -0.144 C  
HETATM   13  C   UNL     1      -6.836  12.111  68.423  1.00  0.00    -0.073 C  
HETATM   14  C   UNL     1      -9.149  11.241  68.286  1.00  0.00    -0.173 C  
HETATM   15  C   UNL     1      -9.972   9.994  68.381  1.00  0.00    -0.160 C  
HETATM   16  F   UNL     1      -5.618  11.765  68.919  1.00  0.00    -0.050 F  
HETATM   17  F   UNL     1      -6.690  12.155  67.071  1.00  0.00    -0.131 F  
HETATM   18  O   UNL     1     -10.724   9.674  67.466  1.00  0.00    -0.274 OA 
HETATM   19  F   UNL     1      -7.080  13.378  68.837  1.00  0.00    -0.095 F  
BRANCH  14  20
HETATM   20  O   UNL     1      -9.532  12.313  67.489  1.00  0.00    -0.175 OA 
BRANCH  20  21
HETATM   21  C   UNL     1      -9.825  12.185  66.143  1.00  0.00    -0.237 A  
HETATM   22  C   UNL     1      -9.045  11.224  65.471  1.00  0.00    -0.184 A  
HETATM   23  C   UNL     1      -9.254  10.935  64.112  1.00  0.00    -0.216 A  
HETATM   24  C   UNL     1     -10.256  11.613  63.413  1.00  0.00    -0.471 A  
HETATM   25  C   UNL     1      -8.443   9.948  63.444  1.00  0.00    -0.182 C  
HETATM   26  C   UNL     1     -11.004  12.593  64.067  1.00  0.00    -0.406 A  
HETATM   27  N   UNL     1      -7.781   9.164  62.904  1.00  0.00    -0.112 NA 
HETATM   28 CL   UNL     1     -12.238  13.435  63.206  1.00  0.00    -0.485 Cl 
HETATM   29  C   UNL     1     -10.776  12.900  65.417  1.00  0.00    -0.307 A  
ENDBRANCH  20  21
ENDBRANCH  14  20
ENDBRANCH   8   9
ENDBRANCH   7   8
TORSDOF 4
ENDMDL
MODEL      190
REMARK 921   NORMALIZED FREE ENERGY PREDICTED BY IDOCK:   -4.88 KCAL/MOL
REMARK 922        TOTAL FREE ENERGY PREDICTED BY IDOCK:   -6.86 KCAL/MOL
REMARK 923 INTER-LIGAND FREE ENERGY PREDICTED BY IDOCK:   -5.72 KCAL/MOL
REMARK 924 INTRA-LIGAND FREE ENERGY PREDICTED BY IDOCK:   -1.14 KCAL/MOL
REMARK 927      BINDING AFFINITY PREDICTED BY RF-SCORE:    0.00 PKD
ROOT
HETATM    1  C   UNL     1     -11.463   8.867  71.941  1.00  0.00    -0.372 C  
HETATM    2  N   UNL     1     -11.560   9.974  71.019  1.00  0.00    -0.372 N  
HETATM    3  C   UNL     1     -12.447  11.010  71.194  1.00  0.00    -0.397 C  
HETATM    4  O   UNL     1     -13.223  11.197  72.115  1.00  0.00    -0.481 OA 
HETATM    5  N   UNL     1     -12.280  11.825  70.087  1.00  0.00    -0.288 NA 
HETATM    6  N   UNL     1     -11.300  11.337  69.276  1.00  0.00    -0.260 NA 
HETATM    7  C   UNL     1     -10.900  10.247  69.876  1.00  0.00    -0.302 C  
ENDROOT
BRANCH   7   8
HETATM    8  C   UNL     1      -9.703   9.476  69.348  1.00  0.00    -0.183 C  
BRANCH   8   9
HETATM    9  N   UNL     1      -9.841   8.136  68.787  1.00  0.00    -0.171 N  
HETATM   10  C   UNL     1     -10.867   7.824  67.909  1.00  0.00    -0.010 C  
HETATM   11  C   UNL     1     -10.822   6.691  67.189  1.00  0.00    -0.471 C  
HETATM   12  C   UNL     1      -9.782   5.697  67.439  1.00  0.00    -0.138 C  
HETATM   13  C   UNL     1      -9.764   4.431  66.637  1.00  0.00    -0.215 C  
HETATM   14  C   UNL     1      -8.832   5.939  68.365  1.00  0.00    -0.111 C  
HETATM   15  C   UNL     1      -8.666   7.378  68.741  1.00  0.00    -0.128 C  
HETATM   16  F   UNL     1     -10.676   4.436  65.629  1.00  0.00    -0.284 F  
HETATM   17  F   UNL     1      -8.554   4.236  66.046  1.00  0.00    -0.112 F  
HETATM   18  O   UNL     1      -7.553   7.833  68.985  1.00  0.00    -0.096 OA 
HETATM   19  F   UNL     1     -10.020   3.333  67.390  1.00  0.00    -0.168 F  
BRANCH  14  20
HETATM   20  O   UNL     1      -7.915   4.970  68.753  1.00  0.00    -0.080 OA 
BRANCH  20  21
HETATM   21  C   UNL     1      -7.989   4.306  69.964  1.00  0.00    -0.055 A  
HETATM   22  C   UNL     1      -9.119   4.636  70.737  1.00  0.00    -0.181 A  
HETATM   23  C   UNL     1      -9.369   4.011  71.969  1.00  0.00    -0.187 A  
HETATM   24  C   UNL     1      -8.480   3.041  72.439  1.00  0.00    -0.079 A  
HETATM   25  C   UNL     1     -10.533   4.365  72.744  1.00  0.00    -0.186 C  
HETATM   26  C   UNL     1      -7.338   2.741  71.695  1.00  0.00    -0.040 A  
HETATM   27  N   UNL     1     -11.461   4.661  73.372  1.00  0.00    -0.313 NA 
HETATM   28 CL   UNL     1      -6.235   1.549  72.274  1.00  0.00    -0.009 Cl 
HETATM   29  C   UNL     1      -7.076   3.386  70.477  1.00  0.00    -0.034 A  
ENDBRANCH  20  21
ENDBRANCH  14  20
ENDBRANCH   8   9
ENDBRANCH   7   8
TORSDOF 4
ENDMDL
MODEL      191
REMARK 921   NORMALIZED FREE ENERGY PREDICTED BY IDOCK:   -4.88 KCAL/MOL
REMARK 922        TOTAL FREE ENERGY PREDICTED BY IDOCK:   -6.86 KCAL/MOL
REMARK 923 INTER-LIGAND FREE ENERGY PREDICTED BY IDOCK:   -7.13 KCAL/MOL
REMARK 924 INTRA-LIGAND FREE ENERGY PREDICTED BY IDOCK:    0.27 KCAL/MOL
REMARK 927      BINDING AFFINITY PREDICTED BY RF-SCORE:    0.00 PKD
ROOT
HETATM    1  C   UNL     1     -12.840  15.421  70.641  1.00  0.00    -0.430 C  
HETATM    2  N   UNL     1     -12.756  13.982  70.735  1.00  0.00    -0.334 N  
HETATM    3  C   UNL     1     -13.179  13.285  71.842  1.00  0.00    -0.431 C  
HETATM    4  O   UNL     1     -13.710  13.713  72.852  1.00  0.00    -0.672 OA 
HETATM    5  N   UNL     1     -12.879  11.959  71.575  1.00  0.00    -0.367 NA 
HETATM    6  N   UNL     1     -12.327  11.833  70.336  1.00  0.00    -0.306 NA 
HETATM    7  C   UNL     1     -12.285  13.056  69.877  1.00  0.00    -0.202 C  
ENDROOT
BRANCH   7   8
HETATM    8  C   UNL     1     -11.855  13.323  68.445  1.00  0.00    -0.360 C  
BRANCH   8   9
HETATM    9  N   UNL     1     -10.574  12.853  67.929  1.00  0.00    -0.217 N  
HETATM   10  C   UNL     1      -9.375  13.350  68.414  1.00  0.00    -0.165 C  
HETATM   11  C   UNL     1      -8.220  12.720  68.143  1.00  0.00    -0.167 C  
HETATM   12  C   UNL     1      -8.191  11.602  67.203  1.00  0.00    -0.165 C  
HETATM   13  C   UNL     1      -6.888  10.927  66.901  1.00  0.00    -0.114 C  
HETATM   14  C   UNL     1      -9.337  11.169  66.642  1.00  0.00    -0.177 C  
HETATM   15  C   UNL     1     -10.587  11.577  67.357  1.00  0.00    -0.214 C  
HETATM   16  F   UNL     1      -5.873  11.369  67.691  1.00  0.00    -0.045 F  
HETATM   17  F   UNL     1      -6.965   9.585  67.107  1.00  0.00    -0.080 F  
HETATM   18  O   UNL     1     -11.545  10.812  67.421  1.00  0.00    -0.485 OA 
HETATM   19  F   UNL     1      -6.491  11.110  65.618  1.00  0.00    -0.082 F  
BRANCH  14  20
HETATM   20  O   UNL     1      -9.350  10.218  65.628  1.00  0.00    -0.169 OA 
BRANCH  20  21
HETATM   21  C   UNL     1      -9.217   8.862  65.867  1.00  0.00    -0.229 A  
HETATM   22  C   UNL     1      -9.939   8.397  66.983  1.00  0.00    -0.323 A  
HETATM   23  C   UNL     1      -9.952   7.036  67.329  1.00  0.00    -0.235 A  
HETATM   24  C   UNL     1      -9.235   6.124  66.551  1.00  0.00    -0.161 A  
HETATM   25  C   UNL     1     -10.698   6.583  68.477  1.00  0.00    -0.273 C  
HETATM   26  C   UNL     1      -8.487   6.587  65.468  1.00  0.00    -0.136 A  
HETATM   27  N   UNL     1     -11.286   6.223  69.408  1.00  0.00    -0.421 NA 
HETATM   28 CL   UNL     1      -7.597   5.465  64.507  1.00  0.00    -0.074 Cl 
HETATM   29  C   UNL     1      -8.453   7.951  65.139  1.00  0.00    -0.096 A  
ENDBRANCH  20  21
ENDBRANCH  14  20
ENDBRANCH   8   9
ENDBRANCH   7   8
TORSDOF 4
ENDMDL
MODEL      192
REMARK 921   NORMALIZED FREE ENERGY PREDICTED BY IDOCK:   -4.87 KCAL/MOL
REMARK 922        TOTAL FREE ENERGY PREDICTED BY IDOCK:   -6.85 KCAL/MOL
REMARK 923 INTER-LIGAND FREE ENERGY PREDICTED BY IDOCK:   -5.71 KCAL/MOL
REMARK 924 INTRA-LIGAND FREE ENERGY PREDICTED BY IDOCK:   -1.14 KCAL/MOL
REMARK 927      BINDING AFFINITY PREDICTED BY RF-SCORE:    0.00 PKD
ROOT
HETATM    1  C   UNL     1     -12.237  10.535  70.529  1.00  0.00    -0.344 C  
HETATM    2  N   UNL     1     -12.184   9.161  70.971  1.00  0.00    -0.276 N  
HETATM    3  C   UNL     1     -12.948   8.685  72.010  1.00  0.00    -0.378 C  
HETATM    4  O   UNL     1     -13.786   9.277  72.670  1.00  0.00    -0.450 OA 
HETATM    5  N   UNL     1     -12.571   7.361  72.165  1.00  0.00    -0.202 NA 
HETATM    6  N   UNL     1     -11.639   7.017  71.233  1.00  0.00    -0.286 NA 
HETATM    7  C   UNL     1     -11.451   8.113  70.546  1.00  0.00    -0.178 C  
ENDROOT
BRANCH   7   8
HETATM    8  C   UNL     1     -10.571   8.100  69.309  1.00  0.00    -0.182 C  
BRANCH   8   9
HETATM    9  N   UNL     1      -9.589   9.150  69.056  1.00  0.00    -0.154 N  
HETATM   10  C   UNL     1      -8.493   9.326  69.885  1.00  0.00    -0.163 C  
HETATM   11  C   UNL     1      -7.462  10.093  69.493  1.00  0.00    -0.133 C  
HETATM   12  C   UNL     1      -7.551  10.880  68.266  1.00  0.00    -0.100 C  
HETATM   13  C   UNL     1      -6.396  11.743  67.858  1.00  0.00    -0.057 C  
HETATM   14  C   UNL     1      -8.656  10.798  67.497  1.00  0.00    -0.125 C  
HETATM   15  C   UNL     1      -9.504   9.588  67.730  1.00  0.00    -0.131 C  
HETATM   16  F   UNL     1      -5.303  11.562  68.645  1.00  0.00    -0.044 F  
HETATM   17  F   UNL     1      -5.994  11.467  66.589  1.00  0.00    -0.097 F  
HETATM   18  O   UNL     1     -10.072   9.036  66.793  1.00  0.00    -0.232 OA 
HETATM   19  F   UNL     1      -6.693  13.065  67.902  1.00  0.00    -0.075 F  
BRANCH  14  20
HETATM   20  O   UNL     1      -8.860  11.637  66.407  1.00  0.00    -0.189 OA 
BRANCH  20  21
HETATM   21  C   UNL     1      -9.881  12.568  66.355  1.00  0.00    -0.253 A  
HETATM   22  C   UNL     1      -9.661  13.714  67.144  1.00  0.00    -0.241 A  
HETATM   23  C   UNL     1     -10.578  14.777  67.160  1.00  0.00    -0.285 A  
HETATM   24  C   UNL     1     -11.732  14.698  66.377  1.00  0.00    -0.329 A  
HETATM   25  C   UNL     1     -10.332  15.940  67.975  1.00  0.00    -0.262 C  
HETATM   26  C   UNL     1     -11.973  13.547  65.626  1.00  0.00    -0.397 A  
HETATM   27  N   UNL     1     -10.139  16.868  68.643  1.00  0.00    -0.273 NA 
HETATM   28 CL   UNL     1     -13.399  13.445  64.662  1.00  0.00     0.464 Cl 
HETATM   29  C   UNL     1     -11.069  12.475  65.631  1.00  0.00    -0.338 A  
ENDBRANCH  20  21
ENDBRANCH  14  20
ENDBRANCH   8   9
ENDBRANCH   7   8
TORSDOF 4
ENDMDL
MODEL      193
REMARK 921   NORMALIZED FREE ENERGY PREDICTED BY IDOCK:   -4.80 KCAL/MOL
REMARK 922        TOTAL FREE ENERGY PREDICTED BY IDOCK:   -6.76 KCAL/MOL
REMARK 923 INTER-LIGAND FREE ENERGY PREDICTED BY IDOCK:   -5.67 KCAL/MOL
REMARK 924 INTRA-LIGAND FREE ENERGY PREDICTED BY IDOCK:   -1.09 KCAL/MOL
REMARK 927      BINDING AFFINITY PREDICTED BY RF-SCORE:    0.00 PKD
ROOT
HETATM    1  C   UNL     1      -9.529  10.319  62.882  1.00  0.00    -0.301 C  
HETATM    2  N   UNL     1      -8.615  10.331  64.000  1.00  0.00    -0.180 N  
HETATM    3  C   UNL     1      -7.258  10.163  63.850  1.00  0.00    -0.103 C  
HETATM    4  O   UNL     1      -6.618  10.031  62.821  1.00  0.00    -0.114 OA 
HETATM    5  N   UNL     1      -6.744  10.175  65.137  1.00  0.00    -0.126 NA 
HETATM    6  N   UNL     1      -7.737  10.382  66.046  1.00  0.00    -0.131 NA 
HETATM    7  C   UNL     1      -8.821  10.478  65.323  1.00  0.00    -0.188 C  
ENDROOT
BRANCH   7   8
HETATM    8  C   UNL     1     -10.143  10.854  65.969  1.00  0.00    -0.249 C  
BRANCH   8   9
HETATM    9  N   UNL     1     -10.413  10.581  67.377  1.00  0.00    -0.227 N  
HETATM   10  C   UNL     1     -10.936  11.554  68.213  1.00  0.00    -0.224 C  
HETATM   11  C   UNL     1     -11.439  11.219  69.412  1.00  0.00    -0.370 C  
HETATM   12  C   UNL     1     -11.296   9.857  69.920  1.00  0.00    -0.273 C  
HETATM   13  C   UNL     1     -11.848   9.511  71.269  1.00  0.00    -0.373 C  
HETATM   14  C   UNL     1     -10.697   8.919  69.160  1.00  0.00    -0.143 C  
HETATM   15  C   UNL     1     -10.626   9.236  67.699  1.00  0.00    -0.261 C  
HETATM   16  F   UNL     1     -12.577  10.522  71.813  1.00  0.00    -0.456 F  
HETATM   17  F   UNL     1     -12.684   8.440  71.203  1.00  0.00    -0.304 F  
HETATM   18  O   UNL     1     -10.754   8.348  66.862  1.00  0.00    -0.279 OA 
HETATM   19  F   UNL     1     -10.879   9.203  72.166  1.00  0.00    -0.417 F  
BRANCH  14  20
HETATM   20  O   UNL     1     -10.394   7.654  69.650  1.00  0.00    -0.203 OA 
BRANCH  20  21
HETATM   21  C   UNL     1      -9.116   7.274  70.016  1.00  0.00    -0.148 A  
HETATM   22  C   UNL     1      -9.035   5.991  70.590  1.00  0.00    -0.150 A  
HETATM   23  C   UNL     1      -7.801   5.436  70.967  1.00  0.00    -0.103 A  
HETATM   24  C   UNL     1      -6.629   6.171  70.768  1.00  0.00    -0.045 A  
HETATM   25  C   UNL     1      -7.742   4.120  71.553  1.00  0.00    -0.065 C  
HETATM   26  C   UNL     1      -6.710   7.458  70.236  1.00  0.00    -0.047 A  
HETATM   27  N   UNL     1      -7.698   3.068  72.038  1.00  0.00    -0.053 NA 
HETATM   28 CL   UNL     1      -5.267   8.370  69.993  1.00  0.00    -0.023 Cl 
HETATM   29  C   UNL     1      -7.946   8.022  69.885  1.00  0.00    -0.111 A  
ENDBRANCH  20  21
ENDBRANCH  14  20
ENDBRANCH   8   9
ENDBRANCH   7   8
TORSDOF 4
ENDMDL
MODEL      194
REMARK 921   NORMALIZED FREE ENERGY PREDICTED BY IDOCK:   -4.80 KCAL/MOL
REMARK 922        TOTAL FREE ENERGY PREDICTED BY IDOCK:   -6.76 KCAL/MOL
REMARK 923 INTER-LIGAND FREE ENERGY PREDICTED BY IDOCK:   -5.79 KCAL/MOL
REMARK 924 INTRA-LIGAND FREE ENERGY PREDICTED BY IDOCK:   -0.97 KCAL/MOL
REMARK 927      BINDING AFFINITY PREDICTED BY RF-SCORE:    0.00 PKD
ROOT
HETATM    1  C   UNL     1      -7.308   3.039  70.728  1.00  0.00    -0.033 C  
HETATM    2  N   UNL     1      -7.333   4.085  71.723  1.00  0.00    -0.057 N  
HETATM    3  C   UNL     1      -6.928   3.885  73.021  1.00  0.00    -0.056 C  
HETATM    4  O   UNL     1      -6.462   2.877  73.525  1.00  0.00    -0.019 OA 
HETATM    5  N   UNL     1      -7.157   5.089  73.666  1.00  0.00    -0.080 NA 
HETATM    6  N   UNL     1      -7.647   6.014  72.793  1.00  0.00    -0.095 NA 
HETATM    7  C   UNL     1      -7.723   5.374  71.656  1.00  0.00    -0.106 C  
ENDROOT
BRANCH   7   8
HETATM    8  C   UNL     1      -8.101   6.112  70.384  1.00  0.00    -0.112 C  
BRANCH   8   9
HETATM    9  N   UNL     1      -9.237   7.027  70.338  1.00  0.00    -0.156 N  
HETATM   10  C   UNL     1     -10.439   6.716  70.952  1.00  0.00    -0.215 C  
HETATM   11  C   UNL     1     -11.368   7.667  71.145  1.00  0.00    -0.286 C  
HETATM   12  C   UNL     1     -11.195   8.997  70.569  1.00  0.00    -0.301 C  
HETATM   13  C   UNL     1     -12.254  10.036  70.781  1.00  0.00    -0.315 C  
HETATM   14  C   UNL     1     -10.074   9.288  69.879  1.00  0.00    -0.209 C  
HETATM   15  C   UNL     1      -8.917   8.374  70.135  1.00  0.00    -0.142 C  
HETATM   16  F   UNL     1     -13.219   9.632  71.649  1.00  0.00    -0.368 F  
HETATM   17  F   UNL     1     -11.732  11.177  71.306  1.00  0.00    -0.295 F  
HETATM   18  O   UNL     1      -7.771   8.813  70.162  1.00  0.00    -0.073 OA 
HETATM   19  F   UNL     1     -12.884  10.381  69.631  1.00  0.00    -0.232 F  
BRANCH  14  20
HETATM   20  O   UNL     1      -9.926  10.479  69.179  1.00  0.00    -0.204 OA 
BRANCH  20  21
HETATM   21  C   UNL     1      -9.759  10.531  67.807  1.00  0.00    -0.160 A  
HETATM   22  C   UNL     1     -10.794  11.197  67.123  1.00  0.00    -0.326 A  
HETATM   23  C   UNL     1     -10.750  11.382  65.731  1.00  0.00    -0.309 A  
HETATM   24  C   UNL     1      -9.657  10.896  65.010  1.00  0.00    -0.299 A  
HETATM   25  C   UNL     1     -11.822  12.066  65.052  1.00  0.00    -0.228 C  
HETATM   26  C   UNL     1      -8.649  10.201  65.679  1.00  0.00    -0.155 A  
HETATM   27  N   UNL     1     -12.691  12.604  64.506  1.00  0.00    -0.709 NA 
HETATM   28 CL   UNL     1      -7.300   9.596  64.792  1.00  0.00    -0.113 Cl 
HETATM   29  C   UNL     1      -8.708   9.994  67.066  1.00  0.00    -0.137 A  
ENDBRANCH  20  21
ENDBRANCH  14  20
ENDBRANCH   8   9
ENDBRANCH   7   8
TORSDOF 4
ENDMDL
MODEL      195
REMARK 921   NORMALIZED FREE ENERGY PREDICTED BY IDOCK:   -4.76 KCAL/MOL
REMARK 922        TOTAL FREE ENERGY PREDICTED BY IDOCK:   -6.71 KCAL/MOL
REMARK 923 INTER-LIGAND FREE ENERGY PREDICTED BY IDOCK:   -5.67 KCAL/MOL
REMARK 924 INTRA-LIGAND FREE ENERGY PREDICTED BY IDOCK:   -1.04 KCAL/MOL
REMARK 927      BINDING AFFINITY PREDICTED BY RF-SCORE:    0.00 PKD
ROOT
HETATM    1  C   UNL     1      -8.963   7.134  70.190  1.00  0.00    -0.145 C  
HETATM    2  N   UNL     1      -9.504   7.230  68.855  1.00  0.00    -0.144 N  
HETATM    3  C   UNL     1     -10.764   6.785  68.531  1.00  0.00    -0.231 C  
HETATM    4  O   UNL     1     -11.613   6.308  69.265  1.00  0.00    -0.363 OA 
HETATM    5  N   UNL     1     -10.886   6.993  67.167  1.00  0.00    -0.358 NA 
HETATM    6  N   UNL     1      -9.762   7.582  66.670  1.00  0.00    -0.209 NA 
HETATM    7  C   UNL     1      -8.980   7.709  67.709  1.00  0.00    -0.131 C  
ENDROOT
BRANCH   7   8
HETATM    8  C   UNL     1      -7.665   8.459  67.591  1.00  0.00    -0.099 C  
BRANCH   8   9
HETATM    9  N   UNL     1      -7.472   9.770  68.204  1.00  0.00    -0.081 N  
HETATM   10  C   UNL     1      -7.019   9.897  69.507  1.00  0.00    -0.070 C  
HETATM   11  C   UNL     1      -6.581  11.083  69.959  1.00  0.00    -0.134 C  
HETATM   12  C   UNL     1      -6.726  12.286  69.144  1.00  0.00    -0.095 C  
HETATM   13  C   UNL     1      -6.247  13.601  69.677  1.00  0.00    -0.122 C  
HETATM   14  C   UNL     1      -7.260  12.196  67.909  1.00  0.00    -0.102 C  
HETATM   15  C   UNL     1      -7.251  10.824  67.312  1.00  0.00    -0.096 C  
HETATM   16  F   UNL     1      -5.572  13.477  70.851  1.00  0.00    -0.134 F  
HETATM   17  F   UNL     1      -5.387  14.204  68.813  1.00  0.00    -0.079 F  
HETATM   18  O   UNL     1      -7.056  10.670  66.110  1.00  0.00    -0.128 OA 
HETATM   19  F   UNL     1      -7.261  14.473  69.901  1.00  0.00    -0.147 F  
BRANCH  14  20
HETATM   20  O   UNL     1      -7.565  13.323  67.153  1.00  0.00    -0.107 OA 
BRANCH  20  21
HETATM   21  C   UNL     1      -8.845  13.835  67.049  1.00  0.00    -0.218 A  
HETATM   22  C   UNL     1      -8.994  15.131  67.578  1.00  0.00    -0.187 A  
HETATM   23  C   UNL     1     -10.219  15.815  67.503  1.00  0.00    -0.265 A  
HETATM   24  C   UNL     1     -11.312  15.196  66.891  1.00  0.00    -0.264 A  
HETATM   25  C   UNL     1     -10.349  17.141  68.052  1.00  0.00    -0.353 C  
HETATM   26  C   UNL     1     -11.179  13.896  66.402  1.00  0.00    -0.315 A  
HETATM   27  N   UNL     1     -10.455  18.202  68.507  1.00  0.00    -0.316 NA 
HETATM   28 CL   UNL     1     -12.527  13.128  65.650  1.00  0.00    -0.513 Cl 
HETATM   29  C   UNL     1      -9.962  13.205  66.501  1.00  0.00    -0.268 A  
ENDBRANCH  20  21
ENDBRANCH  14  20
ENDBRANCH   8   9
ENDBRANCH   7   8
TORSDOF 4
ENDMDL
MODEL      196
REMARK 921   NORMALIZED FREE ENERGY PREDICTED BY IDOCK:   -4.76 KCAL/MOL
REMARK 922        TOTAL FREE ENERGY PREDICTED BY IDOCK:   -6.71 KCAL/MOL
REMARK 923 INTER-LIGAND FREE ENERGY PREDICTED BY IDOCK:   -7.48 KCAL/MOL
REMARK 924 INTRA-LIGAND FREE ENERGY PREDICTED BY IDOCK:    0.77 KCAL/MOL
REMARK 927      BINDING AFFINITY PREDICTED BY RF-SCORE:    0.00 PKD
ROOT
HETATM    1  C   UNL     1     -14.270  15.262  72.454  1.00  0.00    -0.486 C  
HETATM    2  N   UNL     1     -13.487  14.312  71.698  1.00  0.00    -0.356 N  
HETATM    3  C   UNL     1     -13.395  12.985  72.044  1.00  0.00    -0.492 C  
HETATM    4  O   UNL     1     -13.953  12.396  72.955  1.00  0.00     0.075 OA 
HETATM    5  N   UNL     1     -12.520  12.427  71.126  1.00  0.00    -0.303 NA 
HETATM    6  N   UNL     1     -12.116  13.363  70.222  1.00  0.00    -0.358 NA 
HETATM    7  C   UNL     1     -12.723  14.457  70.598  1.00  0.00    -0.357 C  
ENDROOT
BRANCH   7   8
HETATM    8  C   UNL     1     -12.636  15.713  69.748  1.00  0.00    -0.004 C  
BRANCH   8   9
HETATM    9  N   UNL     1     -11.431  16.048  68.997  1.00  0.00    -0.364 N  
HETATM   10  C   UNL     1     -10.418  16.808  69.561  1.00  0.00    -0.263 C  
HETATM   11  C   UNL     1      -9.211  16.870  68.975  1.00  0.00    -0.177 C  
HETATM   12  C   UNL     1      -8.997  16.277  67.658  1.00  0.00    -0.194 C  
HETATM   13  C   UNL     1      -7.647  16.377  67.015  1.00  0.00    -0.205 C  
HETATM   14  C   UNL     1     -10.004  15.621  67.047  1.00  0.00    -0.240 C  
HETATM   15  C   UNL     1     -11.112  15.177  67.951  1.00  0.00    -0.321 C  
HETATM   16  F   UNL     1      -6.709  16.905  67.844  1.00  0.00    -0.132 F  
HETATM   17  F   UNL     1      -7.179  15.152  66.652  1.00  0.00    -0.049 F  
HETATM   18  O   UNL     1     -11.681  14.107  67.758  1.00  0.00    -0.332 OA 
HETATM   19  F   UNL     1      -7.657  17.145  65.897  1.00  0.00    -0.324 F  
BRANCH  14  20
HETATM   20  O   UNL     1      -9.906  15.174  65.735  1.00  0.00    -0.311 OA 
BRANCH  20  21
HETATM   21  C   UNL     1     -10.233  13.887  65.351  1.00  0.00    -0.337 A  
HETATM   22  C   UNL     1      -9.401  12.891  65.897  1.00  0.00     0.028 A  
HETATM   23  C   UNL     1      -9.632  11.528  65.648  1.00  0.00    -0.256 A  
HETATM   24  C   UNL     1     -10.710  11.152  64.842  1.00  0.00    -0.318 A  
HETATM   25  C   UNL     1      -8.767  10.525  66.218  1.00  0.00    -0.151 C  
HETATM   26  C   UNL     1     -11.512  12.138  64.267  1.00  0.00    -0.367 A  
HETATM   27  N   UNL     1      -8.062   9.721  66.665  1.00  0.00    -0.116 NA 
HETATM   28 CL   UNL     1     -12.840  11.677  63.268  1.00  0.00    -0.384 Cl 
HETATM   29  C   UNL     1     -11.264  13.500  64.495  1.00  0.00    -0.392 A  
ENDBRANCH  20  21
ENDBRANCH  14  20
ENDBRANCH   8   9
ENDBRANCH   7   8
TORSDOF 4
ENDMDL
MODEL      197
REMARK 921   NORMALIZED FREE ENERGY PREDICTED BY IDOCK:   -4.75 KCAL/MOL
REMARK 922        TOTAL FREE ENERGY PREDICTED BY IDOCK:   -6.70 KCAL/MOL
REMARK 923 INTER-LIGAND FREE ENERGY PREDICTED BY IDOCK:   -5.88 KCAL/MOL
REMARK 924 INTRA-LIGAND FREE ENERGY PREDICTED BY IDOCK:   -0.82 KCAL/MOL
REMARK 927      BINDING AFFINITY PREDICTED BY RF-SCORE:    0.00 PKD
ROOT
HETATM    1  C   UNL     1     -12.038  14.120  67.085  1.00  0.00    -0.397 C  
HETATM    2  N   UNL     1     -11.496  13.268  66.053  1.00  0.00    -0.319 N  
HETATM    3  C   UNL     1     -11.168  13.734  64.801  1.00  0.00    -0.366 C  
HETATM    4  O   UNL     1     -11.223  14.876  64.378  1.00  0.00    -0.281 OA 
HETATM    5  N   UNL     1     -10.747  12.619  64.095  1.00  0.00    -0.378 NA 
HETATM    6  N   UNL     1     -10.774  11.512  64.888  1.00  0.00    -0.297 NA 
HETATM    7  C   UNL     1     -11.214  11.950  66.037  1.00  0.00    -0.324 C  
ENDROOT
BRANCH   7   8
HETATM    8  C   UNL     1     -11.255  11.029  67.244  1.00  0.00    -0.258 C  
BRANCH   8   9
HETATM    9  N   UNL     1     -10.040  10.456  67.814  1.00  0.00    -0.174 N  
HETATM   10  C   UNL     1      -8.798  10.693  67.247  1.00  0.00    -0.136 C  
HETATM   11  C   UNL     1      -7.676  10.404  67.928  1.00  0.00    -0.089 C  
HETATM   12  C   UNL     1      -7.746   9.689  69.199  1.00  0.00    -0.087 C  
HETATM   13  C   UNL     1      -6.480   9.361  69.931  1.00  0.00    -0.046 C  
HETATM   14  C   UNL     1      -8.946   9.360  69.717  1.00  0.00    -0.188 C  
HETATM   15  C   UNL     1     -10.106  10.134  69.173  1.00  0.00    -0.213 C  
HETATM   16  F   UNL     1      -5.383   9.926  69.361  1.00  0.00    -0.035 F  
HETATM   17  F   UNL     1      -6.515   9.818  71.212  1.00  0.00    -0.078 F  
HETATM   18  O   UNL     1     -11.039  10.453  69.903  1.00  0.00    -0.263 OA 
HETATM   19  F   UNL     1      -6.244   8.027  69.991  1.00  0.00    -0.031 F  
BRANCH  14  20
HETATM   20  O   UNL     1      -9.069   8.548  70.838  1.00  0.00    -0.148 OA 
BRANCH  20  21
HETATM   21  C   UNL     1      -9.414   7.211  70.765  1.00  0.00    -0.164 A  
HETATM   22  C   UNL     1      -9.457   6.695  69.456  1.00  0.00    -0.148 A  
HETATM   23  C   UNL     1      -9.739   5.341  69.212  1.00  0.00    -0.235 A  
HETATM   24  C   UNL     1      -9.981   4.487  70.291  1.00  0.00    -0.288 A  
HETATM   25  C   UNL     1      -9.778   4.835  67.863  1.00  0.00    -0.149 C  
HETATM   26  C   UNL     1      -9.979   5.003  71.587  1.00  0.00    -0.187 A  
HETATM   27  N   UNL     1      -9.824   4.433  66.776  1.00  0.00    -0.216 NA 
HETATM   28 CL   UNL     1     -10.282   3.953  72.921  1.00  0.00    -0.216 Cl 
HETATM   29  C   UNL     1      -9.723   6.362  71.827  1.00  0.00    -0.172 A  
ENDBRANCH  20  21
ENDBRANCH  14  20
ENDBRANCH   8   9
ENDBRANCH   7   8
TORSDOF 4
ENDMDL
MODEL      198
REMARK 921   NORMALIZED FREE ENERGY PREDICTED BY IDOCK:   -4.73 KCAL/MOL
REMARK 922        TOTAL FREE ENERGY PREDICTED BY IDOCK:   -6.67 KCAL/MOL
REMARK 923 INTER-LIGAND FREE ENERGY PREDICTED BY IDOCK:   -5.59 KCAL/MOL
REMARK 924 INTRA-LIGAND FREE ENERGY PREDICTED BY IDOCK:   -1.08 KCAL/MOL
REMARK 927      BINDING AFFINITY PREDICTED BY RF-SCORE:    0.00 PKD
ROOT
HETATM    1  C   UNL     1     -10.724  11.300  69.491  1.00  0.00    -0.095 C  
HETATM    2  N   UNL     1     -11.017  12.573  68.876  1.00  0.00    -0.240 N  
HETATM    3  C   UNL     1     -11.952  13.445  69.383  1.00  0.00    -0.315 C  
HETATM    4  O   UNL     1     -12.620  13.336  70.397  1.00  0.00    -0.242 OA 
HETATM    5  N   UNL     1     -11.985  14.505  68.492  1.00  0.00    -0.315 NA 
HETATM    6  N   UNL     1     -11.079  14.318  67.492  1.00  0.00    -0.289 NA 
HETATM    7  C   UNL     1     -10.526  13.167  67.770  1.00  0.00    -0.228 C  
ENDROOT
BRANCH   7   8
HETATM    8  C   UNL     1      -9.349  12.664  66.953  1.00  0.00    -0.228 C  
BRANCH   8   9
HETATM    9  N   UNL     1      -9.242  11.268  66.542  1.00  0.00    -0.182 N  
HETATM   10  C   UNL     1      -9.542  10.872  65.249  1.00  0.00    -0.229 C  
HETATM   11  C   UNL     1      -9.174   9.657  64.809  1.00  0.00    -0.298 C  
HETATM   12  C   UNL     1      -8.601   8.679  65.730  1.00  0.00    -0.184 C  
HETATM   13  C   UNL     1      -8.217   7.324  65.221  1.00  0.00    -0.125 C  
HETATM   14  C   UNL     1      -8.396   9.015  67.020  1.00  0.00    -0.116 C  
HETATM   15  C   UNL     1      -8.360  10.486  67.295  1.00  0.00    -0.122 C  
HETATM   16  F   UNL     1      -8.319   7.223  63.870  1.00  0.00    -0.094 F  
HETATM   17  F   UNL     1      -6.923   7.030  65.521  1.00  0.00    -0.051 F  
HETATM   18  O   UNL     1      -7.590  10.943  68.134  1.00  0.00    -0.088 OA 
HETATM   19  F   UNL     1      -8.980   6.334  65.746  1.00  0.00    -0.156 F  
BRANCH  14  20
HETATM   20  O   UNL     1      -8.002   8.081  67.972  1.00  0.00    -0.123 OA 
BRANCH  20  21
HETATM   21  C   UNL     1      -8.690   7.874  69.153  1.00  0.00    -0.138 A  
HETATM   22  C   UNL     1      -7.965   8.209  70.312  1.00  0.00    -0.103 A  
HETATM   23  C   UNL     1      -8.541   8.107  71.589  1.00  0.00    -0.181 A  
HETATM   24  C   UNL     1      -9.861   7.664  71.713  1.00  0.00    -0.200 A  
HETATM   25  C   UNL     1      -7.779   8.455  72.763  1.00  0.00    -0.071 C  
HETATM   26  C   UNL     1     -10.568   7.293  70.569  1.00  0.00    -0.222 A  
HETATM   27  N   UNL     1      -7.161   8.721  73.706  1.00  0.00    -0.367 NA 
HETATM   28 CL   UNL     1     -12.196   6.742  70.717  1.00  0.00    -0.417 Cl 
HETATM   29  C   UNL     1      -9.983   7.371  69.296  1.00  0.00    -0.173 A  
ENDBRANCH  20  21
ENDBRANCH  14  20
ENDBRANCH   8   9
ENDBRANCH   7   8
TORSDOF 4
ENDMDL
MODEL      199
REMARK 921   NORMALIZED FREE ENERGY PREDICTED BY IDOCK:   -4.70 KCAL/MOL
REMARK 922        TOTAL FREE ENERGY PREDICTED BY IDOCK:   -6.64 KCAL/MOL
REMARK 923 INTER-LIGAND FREE ENERGY PREDICTED BY IDOCK:   -6.69 KCAL/MOL
REMARK 924 INTRA-LIGAND FREE ENERGY PREDICTED BY IDOCK:    0.05 KCAL/MOL
REMARK 927      BINDING AFFINITY PREDICTED BY RF-SCORE:    0.00 PKD
ROOT
HETATM    1  C   UNL     1     -10.470  15.641  65.997  1.00  0.00    -0.331 C  
HETATM    2  N   UNL     1     -10.996  15.129  67.240  1.00  0.00    -0.321 N  
HETATM    3  C   UNL     1     -11.188  15.921  68.347  1.00  0.00    -0.368 C  
HETATM    4  O   UNL     1     -11.011  17.123  68.461  1.00  0.00    -0.317 OA 
HETATM    5  N   UNL     1     -11.639  15.064  69.337  1.00  0.00    -0.296 NA 
HETATM    6  N   UNL     1     -11.760  13.796  68.853  1.00  0.00    -0.313 NA 
HETATM    7  C   UNL     1     -11.377  13.890  67.607  1.00  0.00    -0.309 C  
ENDROOT
BRANCH   7   8
HETATM    8  C   UNL     1     -11.501  12.697  66.675  1.00  0.00    -0.351 C  
BRANCH   8   9
HETATM    9  N   UNL     1     -10.475  11.661  66.615  1.00  0.00    -0.225 N  
HETATM   10  C   UNL     1      -9.131  11.982  66.515  1.00  0.00    -0.202 C  
HETATM   11  C   UNL     1      -8.192  11.049  66.744  1.00  0.00    -0.149 C  
HETATM   12  C   UNL     1      -8.570   9.652  66.939  1.00  0.00    -0.132 C  
HETATM   13  C   UNL     1      -7.504   8.626  67.172  1.00  0.00    -0.088 C  
HETATM   14  C   UNL     1      -9.873   9.304  66.938  1.00  0.00    -0.214 C  
HETATM   15  C   UNL     1     -10.830  10.430  67.176  1.00  0.00    -0.238 C  
HETATM   16  F   UNL     1      -6.270   9.177  67.327  1.00  0.00    -0.054 F  
HETATM   17  F   UNL     1      -7.740   7.914  68.308  1.00  0.00    -0.108 F  
HETATM   18  O   UNL     1     -11.852  10.249  67.831  1.00  0.00    -0.162 OA 
HETATM   19  F   UNL     1      -7.408   7.733  66.157  1.00  0.00    -0.071 F  
BRANCH  14  20
HETATM   20  O   UNL     1     -10.282   7.976  66.962  1.00  0.00    -0.246 OA 
BRANCH  20  21
HETATM   21  C   UNL     1     -10.354   7.232  68.125  1.00  0.00    -0.194 A  
HETATM   22  C   UNL     1     -10.860   7.937  69.233  1.00  0.00    -0.077 A  
HETATM   23  C   UNL     1     -11.046   7.309  70.476  1.00  0.00    -0.290 A  
HETATM   24  C   UNL     1     -10.722   5.957  70.616  1.00  0.00    -0.353 A  
HETATM   25  C   UNL     1     -11.566   8.051  71.597  1.00  0.00    -0.275 C  
HETATM   26  C   UNL     1     -10.182   5.266  69.531  1.00  0.00    -0.268 A  
HETATM   27  N   UNL     1     -11.970   8.653  72.502  1.00  0.00    -0.340 NA 
HETATM   28 CL   UNL     1      -9.778   3.599  69.701  1.00  0.00    -0.219 Cl 
HETATM   29  C   UNL     1      -9.973   5.902  68.297  1.00  0.00    -0.177 A  
ENDBRANCH  20  21
ENDBRANCH  14  20
ENDBRANCH   8   9
ENDBRANCH   7   8
TORSDOF 4
ENDMDL
MODEL      200
REMARK 921   NORMALIZED FREE ENERGY PREDICTED BY IDOCK:   -4.70 KCAL/MOL
REMARK 922        TOTAL FREE ENERGY PREDICTED BY IDOCK:   -6.64 KCAL/MOL
REMARK 923 INTER-LIGAND FREE ENERGY PREDICTED BY IDOCK:   -5.56 KCAL/MOL
REMARK 924 INTRA-LIGAND FREE ENERGY PREDICTED BY IDOCK:   -1.08 KCAL/MOL
REMARK 927      BINDING AFFINITY PREDICTED BY RF-SCORE:    0.00 PKD
ROOT
HETATM    1  C   UNL     1     -10.149  12.983  65.213  1.00  0.00    -0.231 C  
HETATM    2  N   UNL     1     -10.658  12.784  66.549  1.00  0.00    -0.252 N  
HETATM    3  C   UNL     1     -11.782  13.422  67.018  1.00  0.00    -0.381 C  
HETATM    4  O   UNL     1     -12.530  14.179  66.423  1.00  0.00    -0.461 OA 
HETATM    5  N   UNL     1     -11.905  13.023  68.339  1.00  0.00    -0.340 NA 
HETATM    6  N   UNL     1     -10.920  12.141  68.666  1.00  0.00    -0.233 NA 
HETATM    7  C   UNL     1     -10.215  12.025  67.571  1.00  0.00    -0.198 C  
ENDROOT
BRANCH   7   8
HETATM    8  C   UNL     1      -9.090  11.009  67.487  1.00  0.00    -0.137 C  
BRANCH   8   9
HETATM    9  N   UNL     1      -9.345   9.575  67.568  1.00  0.00    -0.126 N  
HETATM   10  C   UNL     1     -10.367   8.982  66.844  1.00  0.00    -0.254 C  
HETATM   11  C   UNL     1     -10.413   7.647  66.705  1.00  0.00    -0.319 C  
HETATM   12  C   UNL     1      -9.488   6.794  67.445  1.00  0.00    -0.150 C  
HETATM   13  C   UNL     1      -9.572   5.306  67.289  1.00  0.00    -0.137 C  
HETATM   14  C   UNL     1      -8.549   7.352  68.236  1.00  0.00    -0.124 C  
HETATM   15  C   UNL     1      -8.251   8.790  67.949  1.00  0.00    -0.111 C  
HETATM   16  F   UNL     1     -10.445   4.929  66.318  1.00  0.00    -0.246 F  
HETATM   17  F   UNL     1      -8.369   4.776  66.937  1.00  0.00    -0.106 F  
HETATM   18  O   UNL     1      -7.106   9.220  68.048  1.00  0.00    -0.076 OA 
HETATM   19  F   UNL     1      -9.962   4.683  68.428  1.00  0.00    -0.216 F  
BRANCH  14  20
HETATM   20  O   UNL     1      -7.748   6.591  69.080  1.00  0.00    -0.098 OA 
BRANCH  20  21
HETATM   21  C   UNL     1      -8.031   6.405  70.420  1.00  0.00    -0.112 A  
HETATM   22  C   UNL     1      -9.218   7.027  70.853  1.00  0.00    -0.156 A  
HETATM   23  C   UNL     1      -9.675   6.890  72.174  1.00  0.00    -0.158 A  
HETATM   24  C   UNL     1      -8.939   6.120  73.078  1.00  0.00    -0.131 A  
HETATM   25  C   UNL     1     -10.893   7.537  72.595  1.00  0.00    -0.315 C  
HETATM   26  C   UNL     1      -7.742   5.535  72.663  1.00  0.00    -0.099 A  
HETATM   27  N   UNL     1     -11.864   8.070  72.936  1.00  0.00    -0.251 NA 
HETATM   28 CL   UNL     1      -6.828   4.587  73.777  1.00  0.00    -0.063 Cl 
HETATM   29  C   UNL     1      -7.273   5.695  71.350  1.00  0.00    -0.077 A  
ENDBRANCH  20  21
ENDBRANCH  14  20
ENDBRANCH   8   9
ENDBRANCH   7   8
TORSDOF 4
ENDMDL
MODEL      201
REMARK 921   NORMALIZED FREE ENERGY PREDICTED BY IDOCK:   -4.69 KCAL/MOL
REMARK 922        TOTAL FREE ENERGY PREDICTED BY IDOCK:   -6.63 KCAL/MOL
REMARK 923 INTER-LIGAND FREE ENERGY PREDICTED BY IDOCK:   -6.88 KCAL/MOL
REMARK 924 INTRA-LIGAND FREE ENERGY PREDICTED BY IDOCK:    0.25 KCAL/MOL
REMARK 927      BINDING AFFINITY PREDICTED BY RF-SCORE:    0.00 PKD
ROOT
HETATM    1  C   UNL     1     -11.031   6.470  67.164  1.00  0.00    -0.408 C  
HETATM    2  N   UNL     1     -10.733   6.654  68.564  1.00  0.00    -0.238 N  
HETATM    3  C   UNL     1     -10.207   5.654  69.349  1.00  0.00    -0.245 C  
HETATM    4  O   UNL     1      -9.874   4.528  69.022  1.00  0.00    -0.173 OA 
HETATM    5  N   UNL     1     -10.124   6.194  70.622  1.00  0.00    -0.188 NA 
HETATM    6  N   UNL     1     -10.545   7.490  70.621  1.00  0.00    -0.221 NA 
HETATM    7  C   UNL     1     -10.884   7.716  69.379  1.00  0.00    -0.127 C  
ENDROOT
BRANCH   7   8
HETATM    8  C   UNL     1     -11.281   9.114  68.935  1.00  0.00     0.248 C  
BRANCH   8   9
HETATM    9  N   UNL     1     -10.301  10.189  68.820  1.00  0.00    -0.184 N  
HETATM   10  C   UNL     1      -8.957   9.920  68.612  1.00  0.00    -0.128 C  
HETATM   11  C   UNL     1      -8.122  10.900  68.229  1.00  0.00    -0.124 C  
HETATM   12  C   UNL     1      -8.578  12.286  68.186  1.00  0.00    -0.181 C  
HETATM   13  C   UNL     1      -7.623  13.365  67.775  1.00  0.00    -0.157 C  
HETATM   14  C   UNL     1      -9.860  12.579  68.486  1.00  0.00    -0.149 C  
HETATM   15  C   UNL     1     -10.809  11.425  68.408  1.00  0.00    -0.207 C  
HETATM   16  F   UNL     1      -6.435  12.872  67.332  1.00  0.00    -0.133 F  
HETATM   17  F   UNL     1      -8.124  14.109  66.753  1.00  0.00    -0.160 F  
HETATM   18  O   UNL     1     -11.954  11.588  67.999  1.00  0.00    -0.595 OA 
HETATM   19  F   UNL     1      -7.337  14.221  68.786  1.00  0.00    -0.106 F  
BRANCH  14  20
HETATM   20  O   UNL     1     -10.307  13.889  68.613  1.00  0.00    -0.239 OA 
BRANCH  20  21
HETATM   21  C   UNL     1     -10.549  14.711  67.527  1.00  0.00    -0.257 A  
HETATM   22  C   UNL     1     -11.134  14.057  66.426  1.00  0.00    -0.316 A  
HETATM   23  C   UNL     1     -11.491  14.760  65.264  1.00  0.00    -0.352 A  
HETATM   24  C   UNL     1     -11.263  16.137  65.199  1.00  0.00    -0.150 A  
HETATM   25  C   UNL     1     -12.088  14.070  64.148  1.00  0.00    -0.422 C  
HETATM   26  C   UNL     1     -10.647  16.781  66.273  1.00  0.00    -0.190 A  
HETATM   27  N   UNL     1     -12.554  13.511  63.246  1.00  0.00    -0.750 NA 
HETATM   28 CL   UNL     1     -10.360  18.479  66.195  1.00  0.00    -0.455 Cl 
HETATM   29  C   UNL     1     -10.267  16.072  67.423  1.00  0.00    -0.273 A  
ENDBRANCH  20  21
ENDBRANCH  14  20
ENDBRANCH   8   9
ENDBRANCH   7   8
TORSDOF 4
ENDMDL
MODEL      202
REMARK 921   NORMALIZED FREE ENERGY PREDICTED BY IDOCK:   -4.68 KCAL/MOL
REMARK 922        TOTAL FREE ENERGY PREDICTED BY IDOCK:   -6.61 KCAL/MOL
REMARK 923 INTER-LIGAND FREE ENERGY PREDICTED BY IDOCK:   -5.46 KCAL/MOL
REMARK 924 INTRA-LIGAND FREE ENERGY PREDICTED BY IDOCK:   -1.15 KCAL/MOL
REMARK 927      BINDING AFFINITY PREDICTED BY RF-SCORE:    0.00 PKD
ROOT
HETATM    1  C   UNL     1      -9.140   2.303  65.160  1.00  0.00    -0.127 C  
HETATM    2  N   UNL     1      -8.867   3.638  64.683  1.00  0.00    -0.116 N  
HETATM    3  C   UNL     1      -9.313   4.097  63.466  1.00  0.00    -0.140 C  
HETATM    4  O   UNL     1     -10.012   3.523  62.647  1.00  0.00    -0.110 OA 
HETATM    5  N   UNL     1      -8.801   5.379  63.348  1.00  0.00     0.067 NA 
HETATM    6  N   UNL     1      -8.098   5.718  64.465  1.00  0.00    -0.129 NA 
HETATM    7  C   UNL     1      -8.175   4.659  65.227  1.00  0.00    -0.117 C  
ENDROOT
BRANCH   7   8
HETATM    8  C   UNL     1      -7.625   4.691  66.642  1.00  0.00    -0.087 C  
BRANCH   8   9
HETATM    9  N   UNL     1      -8.457   5.066  67.780  1.00  0.00    -0.104 N  
HETATM   10  C   UNL     1      -9.321   4.159  68.372  1.00  0.00    -0.155 C  
HETATM   11  C   UNL     1      -9.861   4.422  69.573  1.00  0.00    -0.258 C  
HETATM   12  C   UNL     1      -9.680   5.731  70.195  1.00  0.00    -0.219 C  
HETATM   13  C   UNL     1     -10.309   6.009  71.526  1.00  0.00    -0.214 C  
HETATM   14  C   UNL     1      -8.925   6.665  69.582  1.00  0.00    -0.142 C  
HETATM   15  C   UNL     1      -7.984   6.138  68.544  1.00  0.00    -0.108 C  
HETATM   16  F   UNL     1     -10.874   4.903  72.080  1.00  0.00    -0.268 F  
HETATM   17  F   UNL     1      -9.391   6.450  72.427  1.00  0.00    -0.142 F  
HETATM   18  O   UNL     1      -6.872   6.637  68.401  1.00  0.00    -0.068 OA 
HETATM   19  F   UNL     1     -11.282   6.951  71.457  1.00  0.00    -0.256 F  
BRANCH  14  20
HETATM   20  O   UNL     1      -8.845   7.972  70.047  1.00  0.00    -0.141 OA 
BRANCH  20  21
HETATM   21  C   UNL     1      -9.663   8.987  69.585  1.00  0.00    -0.172 A  
HETATM   22  C   UNL     1      -9.605   9.188  68.192  1.00  0.00    -0.160 A  
HETATM   23  C   UNL     1     -10.413  10.144  67.557  1.00  0.00    -0.304 A  
HETATM   24  C   UNL     1     -11.295  10.912  68.322  1.00  0.00    -0.374 A  
HETATM   25  C   UNL     1     -10.336  10.333  66.130  1.00  0.00    -0.183 C  
HETATM   26  C   UNL     1     -11.327  10.743  69.707  1.00  0.00    -0.300 A  
HETATM   27  N   UNL     1     -10.262  10.494  64.984  1.00  0.00    -0.317 NA 
HETATM   28 CL   UNL     1     -12.411  11.692  70.654  1.00  0.00    -0.452 Cl 
HETATM   29  C   UNL     1     -10.499   9.806  70.343  1.00  0.00    -0.358 A  
ENDBRANCH  20  21
ENDBRANCH  14  20
ENDBRANCH   8   9
ENDBRANCH   7   8
TORSDOF 4
ENDMDL
MODEL      203
REMARK 921   NORMALIZED FREE ENERGY PREDICTED BY IDOCK:   -4.67 KCAL/MOL
REMARK 922        TOTAL FREE ENERGY PREDICTED BY IDOCK:   -6.60 KCAL/MOL
REMARK 923 INTER-LIGAND FREE ENERGY PREDICTED BY IDOCK:   -5.90 KCAL/MOL
REMARK 924 INTRA-LIGAND FREE ENERGY PREDICTED BY IDOCK:   -0.70 KCAL/MOL
REMARK 927      BINDING AFFINITY PREDICTED BY RF-SCORE:    0.00 PKD
ROOT
HETATM    1  C   UNL     1     -13.261  15.348  70.936  1.00  0.00    -0.455 C  
HETATM    2  N   UNL     1     -12.977  13.933  70.899  1.00  0.00    -0.283 N  
HETATM    3  C   UNL     1     -13.428  13.060  71.861  1.00  0.00    -0.408 C  
HETATM    4  O   UNL     1     -14.140  13.292  72.824  1.00  0.00    -0.691 OA 
HETATM    5  N   UNL     1     -12.904  11.826  71.511  1.00  0.00    -0.389 NA 
HETATM    6  N   UNL     1     -12.188  11.922  70.356  1.00  0.00    -0.338 NA 
HETATM    7  C   UNL     1     -12.270  13.184  70.030  1.00  0.00    -0.253 C  
ENDROOT
BRANCH   7   8
HETATM    8  C   UNL     1     -11.707  13.673  68.706  1.00  0.00    -0.348 C  
BRANCH   8   9
HETATM    9  N   UNL     1     -10.320  14.107  68.577  1.00  0.00    -0.245 N  
HETATM   10  C   UNL     1      -9.857  15.243  69.222  1.00  0.00    -0.255 C  
HETATM   11  C   UNL     1      -8.538  15.472  69.327  1.00  0.00    -0.263 C  
HETATM   12  C   UNL     1      -7.581  14.621  68.625  1.00  0.00    -0.129 C  
HETATM   13  C   UNL     1      -6.115  14.908  68.741  1.00  0.00    -0.083 C  
HETATM   14  C   UNL     1      -8.022  13.569  67.907  1.00  0.00    -0.162 C  
HETATM   15  C   UNL     1      -9.404  13.104  68.245  1.00  0.00    -0.201 C  
HETATM   16  F   UNL     1      -5.842  15.884  69.647  1.00  0.00    -0.115 F  
HETATM   17  F   UNL     1      -5.425  13.810  69.154  1.00  0.00    -0.076 F  
HETATM   18  O   UNL     1      -9.681  11.909  68.226  1.00  0.00    -0.192 OA 
HETATM   19  F   UNL     1      -5.566  15.302  67.566  1.00  0.00    -0.141 F  
BRANCH  14  20
HETATM   20  O   UNL     1      -7.176  12.821  67.096  1.00  0.00    -0.117 OA 
BRANCH  20  21
HETATM   21  C   UNL     1      -6.930  11.476  67.301  1.00  0.00    -0.125 A  
HETATM   22  C   UNL     1      -7.373  10.641  66.258  1.00  0.00    -0.137 A  
HETATM   23  C   UNL     1      -7.152   9.254  66.288  1.00  0.00    -0.087 A  
HETATM   24  C   UNL     1      -6.479   8.691  67.375  1.00  0.00    -0.058 A  
HETATM   25  C   UNL     1      -7.615   8.418  65.209  1.00  0.00    -0.090 C  
HETATM   26  C   UNL     1      -6.074   9.511  68.430  1.00  0.00    -0.044 A  
HETATM   27  N   UNL     1      -8.001   7.746  64.347  1.00  0.00    -0.137 NA 
HETATM   28 CL   UNL     1      -5.247   8.818  69.775  1.00  0.00    -0.030 Cl 
HETATM   29  C   UNL     1      -6.319  10.892  68.410  1.00  0.00    -0.053 A  
ENDBRANCH  20  21
ENDBRANCH  14  20
ENDBRANCH   8   9
ENDBRANCH   7   8
TORSDOF 4
ENDMDL
MODEL      204
REMARK 921   NORMALIZED FREE ENERGY PREDICTED BY IDOCK:   -4.67 KCAL/MOL
REMARK 922        TOTAL FREE ENERGY PREDICTED BY IDOCK:   -6.59 KCAL/MOL
REMARK 923 INTER-LIGAND FREE ENERGY PREDICTED BY IDOCK:   -7.19 KCAL/MOL
REMARK 924 INTRA-LIGAND FREE ENERGY PREDICTED BY IDOCK:    0.60 KCAL/MOL
REMARK 927      BINDING AFFINITY PREDICTED BY RF-SCORE:    0.00 PKD
ROOT
HETATM    1  C   UNL     1      -8.635  16.962  67.950  1.00  0.00    -0.208 C  
HETATM    2  N   UNL     1      -7.298  16.836  68.480  1.00  0.00    -0.194 N  
HETATM    3  C   UNL     1      -6.608  17.898  69.016  1.00  0.00    -0.247 C  
HETATM    4  O   UNL     1      -6.987  19.046  69.178  1.00  0.00    -0.316 OA 
HETATM    5  N   UNL     1      -5.362  17.394  69.351  1.00  0.00    -0.165 NA 
HETATM    6  N   UNL     1      -5.294  16.063  69.071  1.00  0.00    -0.108 NA 
HETATM    7  C   UNL     1      -6.466  15.779  68.567  1.00  0.00    -0.107 C  
ENDROOT
BRANCH   7   8
HETATM    8  C   UNL     1      -6.837  14.341  68.252  1.00  0.00    -0.109 C  
BRANCH   8   9
HETATM    9  N   UNL     1      -8.099  14.000  67.602  1.00  0.00    -0.159 N  
HETATM   10  C   UNL     1      -8.567  14.719  66.514  1.00  0.00    -0.040 C  
HETATM   11  C   UNL     1      -9.565  14.232  65.759  1.00  0.00    -0.188 C  
HETATM   12  C   UNL     1     -10.279  13.025  66.165  1.00  0.00    -0.288 C  
HETATM   13  C   UNL     1     -11.403  12.511  65.317  1.00  0.00    -0.324 C  
HETATM   14  C   UNL     1      -9.901  12.367  67.280  1.00  0.00    -0.207 C  
HETATM   15  C   UNL     1      -8.518  12.675  67.761  1.00  0.00    -0.172 C  
HETATM   16  F   UNL     1     -11.524  13.186  64.143  1.00  0.00    -0.357 F  
HETATM   17  F   UNL     1     -11.215  11.207  64.981  1.00  0.00    -0.281 F  
HETATM   18  O   UNL     1      -7.821  11.795  68.255  1.00  0.00    -0.122 OA 
HETATM   19  F   UNL     1     -12.604  12.592  65.940  1.00  0.00    -0.420 F  
BRANCH  14  20
HETATM   20  O   UNL     1     -10.638  11.308  67.798  1.00  0.00    -0.185 OA 
BRANCH  20  21
HETATM   21  C   UNL     1     -11.340  11.389  68.987  1.00  0.00    -0.280 A  
HETATM   22  C   UNL     1     -11.324  10.206  69.750  1.00  0.00    -0.312 A  
HETATM   23  C   UNL     1     -11.944  10.139  71.008  1.00  0.00    -0.474 A  
HETATM   24  C   UNL     1     -12.590  11.270  71.514  1.00  0.00    -0.418 A  
HETATM   25  C   UNL     1     -11.916   8.917  71.772  1.00  0.00    -0.359 C  
HETATM   26  C   UNL     1     -12.643  12.432  70.743  1.00  0.00    -0.211 A  
HETATM   27  N   UNL     1     -11.904   7.929  72.379  1.00  0.00    -0.349 NA 
HETATM   28 CL   UNL     1     -13.443  13.828  71.362  1.00  0.00    -0.341 Cl 
HETATM   29  C   UNL     1     -12.045  12.488  69.475  1.00  0.00    -0.248 A  
ENDBRANCH  20  21
ENDBRANCH  14  20
ENDBRANCH   8   9
ENDBRANCH   7   8
TORSDOF 4
ENDMDL
MODEL      205
REMARK 921   NORMALIZED FREE ENERGY PREDICTED BY IDOCK:   -4.66 KCAL/MOL
REMARK 922        TOTAL FREE ENERGY PREDICTED BY IDOCK:   -6.58 KCAL/MOL
REMARK 923 INTER-LIGAND FREE ENERGY PREDICTED BY IDOCK:   -5.44 KCAL/MOL
REMARK 924 INTRA-LIGAND FREE ENERGY PREDICTED BY IDOCK:   -1.14 KCAL/MOL
REMARK 927      BINDING AFFINITY PREDICTED BY RF-SCORE:    0.00 PKD
ROOT
HETATM    1  C   UNL     1     -11.103  13.581  64.264  1.00  0.00    -0.351 C  
HETATM    2  N   UNL     1     -11.353  13.439  65.679  1.00  0.00    -0.296 N  
HETATM    3  C   UNL     1     -12.572  13.717  66.249  1.00  0.00    -0.321 C  
HETATM    4  O   UNL     1     -13.606  14.063  65.701  1.00  0.00    -0.499 OA 
HETATM    5  N   UNL     1     -12.394  13.520  67.608  1.00  0.00    -0.153 NA 
HETATM    6  N   UNL     1     -11.126  13.096  67.868  1.00  0.00    -0.252 NA 
HETATM    7  C   UNL     1     -10.554  13.055  66.694  1.00  0.00    -0.266 C  
ENDROOT
BRANCH   7   8
HETATM    8  C   UNL     1      -9.152  12.490  66.543  1.00  0.00    -0.177 C  
BRANCH   8   9
HETATM    9  N   UNL     1      -8.921  11.134  66.055  1.00  0.00    -0.197 N  
HETATM   10  C   UNL     1      -8.983  10.834  64.704  1.00  0.00    -0.175 C  
HETATM   11  C   UNL     1      -8.498   9.669  64.245  1.00  0.00    -0.188 C  
HETATM   12  C   UNL     1      -8.049   8.637  65.176  1.00  0.00    -0.143 C  
HETATM   13  C   UNL     1      -7.530   7.337  64.641  1.00  0.00    -0.091 C  
HETATM   14  C   UNL     1      -8.077   8.874  66.503  1.00  0.00    -0.107 C  
HETATM   15  C   UNL     1      -8.148  10.319  66.887  1.00  0.00    -0.119 C  
HETATM   16  F   UNL     1      -7.399   7.341  63.288  1.00  0.00    -0.064 F  
HETATM   17  F   UNL     1      -6.294   7.056  65.135  1.00  0.00    -0.034 F  
HETATM   18  O   UNL     1      -7.549  10.729  67.877  1.00  0.00    -0.089 OA 
HETATM   19  F   UNL     1      -8.330   6.288  64.953  1.00  0.00    -0.135 F  
BRANCH  14  20
HETATM   20  O   UNL     1      -7.812   7.879  67.436  1.00  0.00    -0.116 OA 
BRANCH  20  21
HETATM   21  C   UNL     1      -8.806   7.200  68.115  1.00  0.00    -0.126 A  
HETATM   22  C   UNL     1      -8.715   5.798  68.025  1.00  0.00    -0.103 A  
HETATM   23  C   UNL     1      -9.618   4.961  68.701  1.00  0.00    -0.215 A  
HETATM   24  C   UNL     1     -10.627   5.531  69.482  1.00  0.00    -0.366 A  
HETATM   25  C   UNL     1      -9.505   3.528  68.594  1.00  0.00    -0.141 C  
HETATM   26  C   UNL     1     -10.745   6.920  69.541  1.00  0.00    -0.246 A  
HETATM   27  N   UNL     1      -9.422   2.376  68.494  1.00  0.00    -0.189 NA 
HETATM   28 CL   UNL     1     -11.992   7.627  70.499  1.00  0.00    -0.121 Cl 
HETATM   29  C   UNL     1      -9.858   7.754  68.843  1.00  0.00    -0.166 A  
ENDBRANCH  20  21
ENDBRANCH  14  20
ENDBRANCH   8   9
ENDBRANCH   7   8
TORSDOF 4
ENDMDL
MODEL      206
REMARK 921   NORMALIZED FREE ENERGY PREDICTED BY IDOCK:   -4.64 KCAL/MOL
REMARK 922        TOTAL FREE ENERGY PREDICTED BY IDOCK:   -6.56 KCAL/MOL
REMARK 923 INTER-LIGAND FREE ENERGY PREDICTED BY IDOCK:   -6.15 KCAL/MOL
REMARK 924 INTRA-LIGAND FREE ENERGY PREDICTED BY IDOCK:   -0.41 KCAL/MOL
REMARK 927      BINDING AFFINITY PREDICTED BY RF-SCORE:    0.00 PKD
ROOT
HETATM    1  C   UNL     1     -10.308   5.916  67.383  1.00  0.00    -0.220 C  
HETATM    2  N   UNL     1      -9.291   5.757  68.395  1.00  0.00    -0.119 N  
HETATM    3  C   UNL     1      -8.296   4.812  68.308  1.00  0.00    -0.091 C  
HETATM    4  O   UNL     1      -8.075   4.024  67.404  1.00  0.00    -0.091 OA 
HETATM    5  N   UNL     1      -7.570   4.935  69.481  1.00  0.00    -0.056 NA 
HETATM    6  N   UNL     1      -8.070   5.943  70.250  1.00  0.00    -0.105 NA 
HETATM    7  C   UNL     1      -9.079   6.403  69.559  1.00  0.00    -0.138 C  
ENDROOT
BRANCH   7   8
HETATM    8  C   UNL     1      -9.823   7.643  70.023  1.00  0.00    -0.180 C  
BRANCH   8   9
HETATM    9  N   UNL     1      -9.293   8.984  69.798  1.00  0.00    -0.164 N  
HETATM   10  C   UNL     1      -7.992   9.313  70.144  1.00  0.00    -0.137 C  
HETATM   11  C   UNL     1      -7.433  10.443  69.681  1.00  0.00    -0.160 C  
HETATM   12  C   UNL     1      -8.234  11.418  68.947  1.00  0.00    -0.054 C  
HETATM   13  C   UNL     1      -7.593  12.681  68.458  1.00  0.00    -0.121 C  
HETATM   14  C   UNL     1      -9.532  11.160  68.690  1.00  0.00    -0.193 C  
HETATM   15  C   UNL     1      -9.925   9.720  68.790  1.00  0.00    -0.169 C  
HETATM   16  F   UNL     1      -6.246  12.691  68.642  1.00  0.00    -0.060 F  
HETATM   17  F   UNL     1      -7.789  12.853  67.123  1.00  0.00    -0.164 F  
HETATM   18  O   UNL     1     -10.750   9.245  68.016  1.00  0.00    -0.232 OA 
HETATM   19  F   UNL     1      -8.079  13.786  69.076  1.00  0.00    -0.101 F  
BRANCH  14  20
HETATM   20  O   UNL     1     -10.379  12.114  68.136  1.00  0.00    -0.195 OA 
BRANCH  20  21
HETATM   21  C   UNL     1     -10.460  12.349  66.776  1.00  0.00    -0.221 A  
HETATM   22  C   UNL     1     -10.666  13.699  66.433  1.00  0.00    -0.281 A  
HETATM   23  C   UNL     1     -10.719  14.113  65.092  1.00  0.00    -0.400 A  
HETATM   24  C   UNL     1     -10.563  13.166  64.076  1.00  0.00    -0.303 A  
HETATM   25  C   UNL     1     -10.931  15.500  64.764  1.00  0.00    -0.399 C  
HETATM   26  C   UNL     1     -10.399  11.821  64.412  1.00  0.00    -0.307 A  
HETATM   27  N   UNL     1     -11.116  16.615  64.503  1.00  0.00    -0.967 NA 
HETATM   28 CL   UNL     1     -10.211  10.650  63.161  1.00  0.00    -0.215 Cl 
HETATM   29  C   UNL     1     -10.373  11.406  65.752  1.00  0.00    -0.304 A  
ENDBRANCH  20  21
ENDBRANCH  14  20
ENDBRANCH   8   9
ENDBRANCH   7   8
TORSDOF 4
ENDMDL
MODEL      207
REMARK 921   NORMALIZED FREE ENERGY PREDICTED BY IDOCK:   -4.64 KCAL/MOL
REMARK 922        TOTAL FREE ENERGY PREDICTED BY IDOCK:   -6.56 KCAL/MOL
REMARK 923 INTER-LIGAND FREE ENERGY PREDICTED BY IDOCK:   -5.17 KCAL/MOL
REMARK 924 INTRA-LIGAND FREE ENERGY PREDICTED BY IDOCK:   -1.39 KCAL/MOL
REMARK 927      BINDING AFFINITY PREDICTED BY RF-SCORE:    0.00 PKD
ROOT
HETATM    1  C   UNL     1      -9.007   7.327  72.082  1.00  0.00    -0.131 C  
HETATM    2  N   UNL     1     -10.421   7.619  72.058  1.00  0.00    -0.206 N  
HETATM    3  C   UNL     1     -11.353   6.830  72.690  1.00  0.00    -0.222 C  
HETATM    4  O   UNL     1     -11.169   5.841  73.379  1.00  0.00    -0.220 OA 
HETATM    5  N   UNL     1     -12.579   7.398  72.387  1.00  0.00    -0.025 NA 
HETATM    6  N   UNL     1     -12.413   8.518  71.629  1.00  0.00    -0.316 NA 
HETATM    7  C   UNL     1     -11.120   8.610  71.471  1.00  0.00    -0.288 C  
ENDROOT
BRANCH   7   8
HETATM    8  C   UNL     1     -10.515   9.824  70.787  1.00  0.00    -0.269 C  
BRANCH   8   9
HETATM    9  N   UNL     1     -10.448   9.931  69.333  1.00  0.00    -0.216 N  
HETATM   10  C   UNL     1     -11.417  10.612  68.614  1.00  0.00    -0.263 C  
HETATM   11  C   UNL     1     -11.202  10.943  67.330  1.00  0.00    -0.345 C  
HETATM   12  C   UNL     1     -10.020  10.451  66.628  1.00  0.00    -0.262 C  
HETATM   13  C   UNL     1      -9.810  10.818  65.190  1.00  0.00    -0.277 C  
HETATM   14  C   UNL     1      -9.114   9.699  67.286  1.00  0.00    -0.134 C  
HETATM   15  C   UNL     1      -9.171   9.800  68.778  1.00  0.00    -0.143 C  
HETATM   16  F   UNL     1     -10.717  11.727  64.743  1.00  0.00    -0.300 F  
HETATM   17  F   UNL     1      -8.588  11.381  64.995  1.00  0.00    -0.056 F  
HETATM   18  O   UNL     1      -8.140   9.770  69.443  1.00  0.00    -0.104 OA 
HETATM   19  F   UNL     1      -9.890   9.747  64.362  1.00  0.00    -0.352 F  
BRANCH  14  20
HETATM   20  O   UNL     1      -8.057   9.077  66.633  1.00  0.00    -0.105 OA 
BRANCH  20  21
HETATM   21  C   UNL     1      -7.852   7.710  66.666  1.00  0.00    -0.106 A  
HETATM   22  C   UNL     1      -8.898   6.954  66.105  1.00  0.00    -0.163 A  
HETATM   23  C   UNL     1      -8.821   5.554  66.014  1.00  0.00    -0.147 A  
HETATM   24  C   UNL     1      -7.682   4.898  66.488  1.00  0.00    -0.095 A  
HETATM   25  C   UNL     1      -9.906   4.800  65.436  1.00  0.00    -0.107 C  
HETATM   26  C   UNL     1      -6.661   5.641  67.081  1.00  0.00    -0.056 A  
HETATM   27  N   UNL     1     -10.785   4.194  64.984  1.00  0.00    -0.184 NA 
HETATM   28 CL   UNL     1      -5.256   4.834  67.672  1.00  0.00    -0.010 Cl 
HETATM   29  C   UNL     1      -6.751   7.037  67.196  1.00  0.00    -0.060 A  
ENDBRANCH  20  21
ENDBRANCH  14  20
ENDBRANCH   8   9
ENDBRANCH   7   8
TORSDOF 4
ENDMDL
MODEL      208
REMARK 921   NORMALIZED FREE ENERGY PREDICTED BY IDOCK:   -4.63 KCAL/MOL
REMARK 922        TOTAL FREE ENERGY PREDICTED BY IDOCK:   -6.55 KCAL/MOL
REMARK 923 INTER-LIGAND FREE ENERGY PREDICTED BY IDOCK:   -5.33 KCAL/MOL
REMARK 924 INTRA-LIGAND FREE ENERGY PREDICTED BY IDOCK:   -1.22 KCAL/MOL
REMARK 927      BINDING AFFINITY PREDICTED BY RF-SCORE:    0.00 PKD
ROOT
HETATM    1  C   UNL     1     -11.817  14.883  68.524  1.00  0.00    -0.294 C  
HETATM    2  N   UNL     1     -12.179  14.001  69.609  1.00  0.00    -0.346 N  
HETATM    3  C   UNL     1     -12.799  14.447  70.752  1.00  0.00    -0.353 C  
HETATM    4  O   UNL     1     -13.175  15.575  71.022  1.00  0.00    -0.498 OA 
HETATM    5  N   UNL     1     -12.921  13.330  71.562  1.00  0.00    -0.365 NA 
HETATM    6  N   UNL     1     -12.432  12.226  70.930  1.00  0.00    -0.342 NA 
HETATM    7  C   UNL     1     -12.015  12.674  69.776  1.00  0.00    -0.295 C  
ENDROOT
BRANCH   7   8
HETATM    8  C   UNL     1     -11.520  11.710  68.712  1.00  0.00    -0.285 C  
BRANCH   8   9
HETATM    9  N   UNL     1     -10.100  11.418  68.542  1.00  0.00    -0.201 N  
HETATM   10  C   UNL     1      -9.182  12.427  68.297  1.00  0.00    -0.189 C  
HETATM   11  C   UNL     1      -7.866  12.190  68.424  1.00  0.00    -0.149 C  
HETATM   12  C   UNL     1      -7.377  10.834  68.658  1.00  0.00    -0.097 C  
HETATM   13  C   UNL     1      -5.904  10.591  68.776  1.00  0.00    -0.040 C  
HETATM   14  C   UNL     1      -8.256   9.821  68.797  1.00  0.00    -0.108 C  
HETATM   15  C   UNL     1      -9.653  10.235  69.137  1.00  0.00    -0.218 C  
HETATM   16  F   UNL     1      -5.182  11.743  68.796  1.00  0.00    -0.050 F  
HETATM   17  F   UNL     1      -5.599   9.938  69.930  1.00  0.00    -0.035 F  
HETATM   18  O   UNL     1     -10.335   9.555  69.898  1.00  0.00    -0.204 OA 
HETATM   19  F   UNL     1      -5.415   9.843  67.756  1.00  0.00    -0.039 F  
BRANCH  14  20
HETATM   20  O   UNL     1      -7.847   8.494  68.865  1.00  0.00    -0.105 OA 
BRANCH  20  21
HETATM   21  C   UNL     1      -8.218   7.543  67.932  1.00  0.00    -0.123 A  
HETATM   22  C   UNL     1      -7.864   7.863  66.607  1.00  0.00    -0.102 A  
HETATM   23  C   UNL     1      -8.122   6.979  65.547  1.00  0.00    -0.132 A  
HETATM   24  C   UNL     1      -8.742   5.755  65.812  1.00  0.00    -0.152 A  
HETATM   25  C   UNL     1      -7.751   7.328  64.199  1.00  0.00    -0.120 C  
HETATM   26  C   UNL     1      -9.131   5.452  67.117  1.00  0.00    -0.111 A  
HETATM   27  N   UNL     1      -7.464   7.617  63.113  1.00  0.00    -0.104 NA 
HETATM   28 CL   UNL     1      -9.901   3.945  67.447  1.00  0.00    -0.164 Cl 
HETATM   29  C   UNL     1      -8.896   6.349  68.171  1.00  0.00    -0.114 A  
ENDBRANCH  20  21
ENDBRANCH  14  20
ENDBRANCH   8   9
ENDBRANCH   7   8
TORSDOF 4
ENDMDL
MODEL      209
REMARK 921   NORMALIZED FREE ENERGY PREDICTED BY IDOCK:   -4.61 KCAL/MOL
REMARK 922        TOTAL FREE ENERGY PREDICTED BY IDOCK:   -6.52 KCAL/MOL
REMARK 923 INTER-LIGAND FREE ENERGY PREDICTED BY IDOCK:   -6.62 KCAL/MOL
REMARK 924 INTRA-LIGAND FREE ENERGY PREDICTED BY IDOCK:    0.10 KCAL/MOL
REMARK 927      BINDING AFFINITY PREDICTED BY RF-SCORE:    0.00 PKD
ROOT
HETATM    1  C   UNL     1      -9.195  15.089  67.723  1.00  0.00    -0.181 C  
HETATM    2  N   UNL     1      -8.056  14.213  67.581  1.00  0.00    -0.165 N  
HETATM    3  C   UNL     1      -6.767  14.628  67.817  1.00  0.00    -0.176 C  
HETATM    4  O   UNL     1      -6.379  15.716  68.209  1.00  0.00    -0.102 OA 
HETATM    5  N   UNL     1      -5.969  13.535  67.518  1.00  0.00    -0.337 NA 
HETATM    6  N   UNL     1      -6.736  12.471  67.148  1.00  0.00    -0.111 NA 
HETATM    7  C   UNL     1      -7.962  12.920  67.211  1.00  0.00    -0.149 C  
ENDROOT
BRANCH   7   8
HETATM    8  C   UNL     1      -9.135  11.979  67.002  1.00  0.00    -0.191 C  
BRANCH   8   9
HETATM    9  N   UNL     1      -9.984  11.555  68.110  1.00  0.00    -0.186 N  
HETATM   10  C   UNL     1     -11.292  11.998  68.227  1.00  0.00    -0.286 C  
HETATM   11  C   UNL     1     -12.140  11.391  69.073  1.00  0.00    -0.316 C  
HETATM   12  C   UNL     1     -11.658  10.369  69.998  1.00  0.00    -0.378 C  
HETATM   13  C   UNL     1     -12.618   9.720  70.947  1.00  0.00    -0.263 C  
HETATM   14  C   UNL     1     -10.362   9.997  69.968  1.00  0.00    -0.272 C  
HETATM   15  C   UNL     1      -9.632  10.340  68.707  1.00  0.00    -0.175 C  
HETATM   16  F   UNL     1     -13.909  10.079  70.714  1.00  0.00    -0.363 F  
HETATM   17  F   UNL     1     -12.582   8.364  70.840  1.00  0.00    -0.248 F  
HETATM   18  O   UNL     1      -8.786   9.577  68.251  1.00  0.00    -0.124 OA 
HETATM   19  F   UNL     1     -12.357  10.023  72.242  1.00  0.00    -0.388 F  
BRANCH  14  20
HETATM   20  O   UNL     1      -9.815   9.148  70.923  1.00  0.00    -0.243 OA 
BRANCH  20  21
HETATM   21  C   UNL     1     -10.008   7.779  70.912  1.00  0.00    -0.183 A  
HETATM   22  C   UNL     1     -10.010   7.205  69.626  1.00  0.00    -0.176 A  
HETATM   23  C   UNL     1     -10.141   5.819  69.445  1.00  0.00    -0.277 A  
HETATM   24  C   UNL     1     -10.272   4.991  70.563  1.00  0.00    -0.316 A  
HETATM   25  C   UNL     1     -10.140   5.254  68.119  1.00  0.00    -0.151 C  
HETATM   26  C   UNL     1     -10.311   5.560  71.836  1.00  0.00    -0.216 A  
HETATM   27  N   UNL     1     -10.154   4.802  67.051  1.00  0.00    -0.203 NA 
HETATM   28 CL   UNL     1     -10.477   4.542  73.217  1.00  0.00    -0.235 Cl 
HETATM   29  C   UNL     1     -10.207   6.948  72.014  1.00  0.00    -0.206 A  
ENDBRANCH  20  21
ENDBRANCH  14  20
ENDBRANCH   8   9
ENDBRANCH   7   8
TORSDOF 4
ENDMDL
MODEL      210
REMARK 921   NORMALIZED FREE ENERGY PREDICTED BY IDOCK:   -4.60 KCAL/MOL
REMARK 922        TOTAL FREE ENERGY PREDICTED BY IDOCK:   -6.52 KCAL/MOL
REMARK 923 INTER-LIGAND FREE ENERGY PREDICTED BY IDOCK:   -6.36 KCAL/MOL
REMARK 924 INTRA-LIGAND FREE ENERGY PREDICTED BY IDOCK:   -0.16 KCAL/MOL
REMARK 927      BINDING AFFINITY PREDICTED BY RF-SCORE:    0.00 PKD
ROOT
HETATM    1  C   UNL     1      -8.258  12.422  67.104  1.00  0.00    -0.176 C  
HETATM    2  N   UNL     1      -9.677  12.679  67.044  1.00  0.00    -0.220 N  
HETATM    3  C   UNL     1     -10.265  13.749  67.676  1.00  0.00    -0.242 C  
HETATM    4  O   UNL     1      -9.732  14.641  68.314  1.00  0.00    -0.203 OA 
HETATM    5  N   UNL     1     -11.623  13.615  67.436  1.00  0.00    -0.336 NA 
HETATM    6  N   UNL     1     -11.865  12.526  66.653  1.00  0.00    -0.520 NA 
HETATM    7  C   UNL     1     -10.682  12.013  66.441  1.00  0.00    -0.259 C  
ENDROOT
BRANCH   7   8
HETATM    8  C   UNL     1     -10.512  10.848  65.482  1.00  0.00    -0.219 C  
BRANCH   8   9
HETATM    9  N   UNL     1      -9.750   9.658  65.849  1.00  0.00    -0.257 N  
HETATM   10  C   UNL     1      -8.449   9.472  65.410  1.00  0.00    -0.148 C  
HETATM   11  C   UNL     1      -7.671   8.533  65.973  1.00  0.00    -0.093 C  
HETATM   12  C   UNL     1      -8.231   7.590  66.937  1.00  0.00    -0.124 C  
HETATM   13  C   UNL     1      -7.349   6.538  67.538  1.00  0.00    -0.095 C  
HETATM   14  C   UNL     1      -9.526   7.693  67.300  1.00  0.00    -0.148 C  
HETATM   15  C   UNL     1     -10.158   9.021  67.025  1.00  0.00    -0.250 C  
HETATM   16  F   UNL     1      -6.041   6.697  67.203  1.00  0.00    -0.023 F  
HETATM   17  F   UNL     1      -7.393   6.571  68.897  1.00  0.00    -0.081 F  
HETATM   18  O   UNL     1     -10.978   9.494  67.806  1.00  0.00    -0.244 OA 
HETATM   19  F   UNL     1      -7.700   5.285  67.159  1.00  0.00    -0.091 F  
BRANCH  14  20
HETATM   20  O   UNL     1     -10.150   6.733  68.089  1.00  0.00    -0.150 OA 
BRANCH  20  21
HETATM   21  C   UNL     1     -10.603   6.990  69.370  1.00  0.00    -0.230 A  
HETATM   22  C   UNL     1      -9.615   7.480  70.246  1.00  0.00    -0.165 A  
HETATM   23  C   UNL     1      -9.924   7.840  71.568  1.00  0.00    -0.205 A  
HETATM   24  C   UNL     1     -11.238   7.711  72.024  1.00  0.00    -0.317 A  
HETATM   25  C   UNL     1      -8.896   8.339  72.447  1.00  0.00    -0.219 C  
HETATM   26  C   UNL     1     -12.211   7.189  71.171  1.00  0.00    -0.365 A  
HETATM   27  N   UNL     1      -8.065   8.726  73.157  1.00  0.00    -0.381 NA 
HETATM   28 CL   UNL     1     -13.833   7.024  71.731  1.00  0.00    -0.388 Cl 
HETATM   29  C   UNL     1     -11.895   6.804  69.859  1.00  0.00    -0.208 A  
ENDBRANCH  20  21
ENDBRANCH  14  20
ENDBRANCH   8   9
ENDBRANCH   7   8
TORSDOF 4
ENDMDL
MODEL      211
REMARK 921   NORMALIZED FREE ENERGY PREDICTED BY IDOCK:   -4.56 KCAL/MOL
REMARK 922        TOTAL FREE ENERGY PREDICTED BY IDOCK:   -6.46 KCAL/MOL
REMARK 923 INTER-LIGAND FREE ENERGY PREDICTED BY IDOCK:   -5.36 KCAL/MOL
REMARK 924 INTRA-LIGAND FREE ENERGY PREDICTED BY IDOCK:   -1.10 KCAL/MOL
REMARK 927      BINDING AFFINITY PREDICTED BY RF-SCORE:    0.00 PKD
ROOT
HETATM    1  C   UNL     1     -13.616   9.401  70.999  1.00  0.00    -0.062 C  
HETATM    2  N   UNL     1     -12.312   8.788  71.098  1.00  0.00    -0.262 N  
HETATM    3  C   UNL     1     -12.125   7.511  71.571  1.00  0.00    -0.316 C  
HETATM    4  O   UNL     1     -12.966   6.701  71.922  1.00  0.00    -0.306 OA 
HETATM    5  N   UNL     1     -10.754   7.316  71.568  1.00  0.00    -0.219 NA 
HETATM    6  N   UNL     1     -10.116   8.414  71.074  1.00  0.00    -0.190 NA 
HETATM    7  C   UNL     1     -11.081   9.252  70.802  1.00  0.00    -0.285 C  
ENDROOT
BRANCH   7   8
HETATM    8  C   UNL     1     -10.783  10.562  70.095  1.00  0.00    -0.171 C  
BRANCH   8   9
HETATM    9  N   UNL     1     -10.723  10.651  68.639  1.00  0.00    -0.192 N  
HETATM   10  C   UNL     1     -11.580  11.478  67.931  1.00  0.00    -0.282 C  
HETATM   11  C   UNL     1     -11.334  11.766  66.643  1.00  0.00    -0.381 C  
HETATM   12  C   UNL     1     -10.259  11.085  65.925  1.00  0.00    -0.309 C  
HETATM   13  C   UNL     1     -10.016  11.407  64.482  1.00  0.00    -0.271 C  
HETATM   14  C   UNL     1      -9.478  10.198  66.574  1.00  0.00    -0.169 C  
HETATM   15  C   UNL     1      -9.493  10.312  68.066  1.00  0.00    -0.146 C  
HETATM   16  F   UNL     1     -10.770  12.450  64.044  1.00  0.00    -0.310 F  
HETATM   17  F   UNL     1      -8.722  11.764  64.265  1.00  0.00     0.262 F  
HETATM   18  O   UNL     1      -8.470  10.117  68.715  1.00  0.00    -0.117 OA 
HETATM   19  F   UNL     1     -10.283  10.361  63.662  1.00  0.00    -0.369 F  
BRANCH  14  20
HETATM   20  O   UNL     1      -8.546   9.410  65.908  1.00  0.00    -0.131 OA 
BRANCH  20  21
HETATM   21  C   UNL     1      -8.645   8.033  65.830  1.00  0.00    -0.153 A  
HETATM   22  C   UNL     1      -8.053   7.475  64.681  1.00  0.00    -0.101 A  
HETATM   23  C   UNL     1      -8.020   6.085  64.477  1.00  0.00    -0.127 A  
HETATM   24  C   UNL     1      -8.587   5.239  65.434  1.00  0.00    -0.149 A  
HETATM   25  C   UNL     1      -7.408   5.536  63.293  1.00  0.00    -0.052 C  
HETATM   26  C   UNL     1      -9.211   5.791  66.553  1.00  0.00    -0.143 A  
HETATM   27  N   UNL     1      -6.928   5.097  62.333  1.00  0.00    -0.029 NA 
HETATM   28 CL   UNL     1      -9.915   4.750  67.733  1.00  0.00    -0.192 Cl 
HETATM   29  C   UNL     1      -9.265   7.180  66.742  1.00  0.00    -0.188 A  
ENDBRANCH  20  21
ENDBRANCH  14  20
ENDBRANCH   8   9
ENDBRANCH   7   8
TORSDOF 4
ENDMDL
MODEL      212
REMARK 921   NORMALIZED FREE ENERGY PREDICTED BY IDOCK:   -4.55 KCAL/MOL
REMARK 922        TOTAL FREE ENERGY PREDICTED BY IDOCK:   -6.45 KCAL/MOL
REMARK 923 INTER-LIGAND FREE ENERGY PREDICTED BY IDOCK:   -5.27 KCAL/MOL
REMARK 924 INTRA-LIGAND FREE ENERGY PREDICTED BY IDOCK:   -1.17 KCAL/MOL
REMARK 927      BINDING AFFINITY PREDICTED BY RF-SCORE:    0.00 PKD
ROOT
HETATM    1  C   UNL     1      -8.644   2.258  65.771  1.00  0.00    -0.114 C  
HETATM    2  N   UNL     1      -8.738   3.200  64.681  1.00  0.00    -0.099 N  
HETATM    3  C   UNL     1      -9.351   2.898  63.489  1.00  0.00    -0.097 C  
HETATM    4  O   UNL     1      -9.931   1.873  63.171  1.00  0.00    -0.101 OA 
HETATM    5  N   UNL     1      -9.181   4.020  62.694  1.00  0.00    -0.106 NA 
HETATM    6  N   UNL     1      -8.523   4.996  63.380  1.00  0.00    -0.126 NA 
HETATM    7  C   UNL     1      -8.291   4.465  64.552  1.00  0.00    -0.111 C  
ENDROOT
BRANCH   7   8
HETATM    8  C   UNL     1      -7.687   5.302  65.666  1.00  0.00    -0.087 C  
BRANCH   8   9
HETATM    9  N   UNL     1      -8.513   6.143  66.527  1.00  0.00    -0.116 N  
HETATM   10  C   UNL     1      -9.458   5.595  67.379  1.00  0.00    -0.114 C  
HETATM   11  C   UNL     1     -10.002   6.339  68.356  1.00  0.00    -0.156 C  
HETATM   12  C   UNL     1      -9.732   7.772  68.432  1.00  0.00    -0.167 C  
HETATM   13  C   UNL     1     -10.367   8.585  69.519  1.00  0.00    -0.218 C  
HETATM   14  C   UNL     1      -8.892   8.343  67.546  1.00  0.00    -0.135 C  
HETATM   15  C   UNL     1      -7.973   7.395  66.841  1.00  0.00    -0.115 C  
HETATM   16  F   UNL     1     -11.029   7.821  70.427  1.00  0.00    -0.235 F  
HETATM   17  F   UNL     1      -9.436   9.282  70.225  1.00  0.00    -0.182 F  
HETATM   18  O   UNL     1      -6.822   7.726  66.574  1.00  0.00    -0.063 OA 
HETATM   19  F   UNL     1     -11.260   9.486  69.042  1.00  0.00    -0.207 F  
BRANCH  14  20
HETATM   20  O   UNL     1      -8.720   9.720  67.473  1.00  0.00    -0.125 OA 
BRANCH  20  21
HETATM   21  C   UNL     1      -9.236  10.490  66.447  1.00  0.00    -0.166 A  
HETATM   22  C   UNL     1     -10.104  11.514  66.872  1.00  0.00    -0.241 A  
HETATM   23  C   UNL     1     -10.671  12.418  65.959  1.00  0.00    -0.294 A  
HETATM   24  C   UNL     1     -10.367  12.299  64.600  1.00  0.00    -0.330 A  
HETATM   25  C   UNL     1     -11.558  13.458  66.417  1.00  0.00    -0.346 C  
HETATM   26  C   UNL     1      -9.540  11.261  64.171  1.00  0.00    -0.225 A  
HETATM   27  N   UNL     1     -12.282  14.285  66.785  1.00  0.00    -0.423 NA 
HETATM   28 CL   UNL     1      -9.166  11.109  62.494  1.00  0.00    -0.357 Cl 
HETATM   29  C   UNL     1      -8.995  10.343  65.082  1.00  0.00    -0.217 A  
ENDBRANCH  20  21
ENDBRANCH  14  20
ENDBRANCH   8   9
ENDBRANCH   7   8
TORSDOF 4
ENDMDL
MODEL      213
REMARK 921   NORMALIZED FREE ENERGY PREDICTED BY IDOCK:   -4.54 KCAL/MOL
REMARK 922        TOTAL FREE ENERGY PREDICTED BY IDOCK:   -6.43 KCAL/MOL
REMARK 923 INTER-LIGAND FREE ENERGY PREDICTED BY IDOCK:   -5.99 KCAL/MOL
REMARK 924 INTRA-LIGAND FREE ENERGY PREDICTED BY IDOCK:   -0.44 KCAL/MOL
REMARK 927      BINDING AFFINITY PREDICTED BY RF-SCORE:    0.00 PKD
ROOT
HETATM    1  C   UNL     1      -8.083  19.626  66.020  1.00  0.00    -0.313 C  
HETATM    2  N   UNL     1      -8.906  18.838  66.908  1.00  0.00    -0.285 N  
HETATM    3  C   UNL     1      -9.820  19.400  67.766  1.00  0.00    -0.347 C  
HETATM    4  O   UNL     1     -10.121  20.575  67.893  1.00  0.00    -0.350 OA 
HETATM    5  N   UNL     1     -10.353  18.339  68.479  1.00  0.00    -0.358 NA 
HETATM    6  N   UNL     1      -9.820  17.160  68.053  1.00  0.00    -0.273 NA 
HETATM    7  C   UNL     1      -8.977  17.509  67.117  1.00  0.00    -0.238 C  
ENDROOT
BRANCH   7   8
HETATM    8  C   UNL     1      -8.272  16.450  66.287  1.00  0.00    -0.308 C  
BRANCH   8   9
HETATM    9  N   UNL     1      -7.585  15.321  66.907  1.00  0.00    -0.116 N  
HETATM   10  C   UNL     1      -6.532  15.513  67.786  1.00  0.00    -0.164 C  
HETATM   11  C   UNL     1      -6.101  14.502  68.558  1.00  0.00    -0.091 C  
HETATM   12  C   UNL     1      -6.622  13.151  68.367  1.00  0.00    -0.092 C  
HETATM   13  C   UNL     1      -6.111  12.035  69.226  1.00  0.00    -0.088 C  
HETATM   14  C   UNL     1      -7.578  12.927  67.443  1.00  0.00    -0.148 C  
HETATM   15  C   UNL     1      -8.332  14.142  67.002  1.00  0.00    -0.118 C  
HETATM   16  F   UNL     1      -5.295  12.471  70.222  1.00  0.00    -0.081 F  
HETATM   17  F   UNL     1      -7.130  11.376  69.841  1.00  0.00    -0.106 F  
HETATM   18  O   UNL     1      -9.531  14.073  66.752  1.00  0.00    -0.262 OA 
HETATM   19  F   UNL     1      -5.410  11.113  68.522  1.00  0.00    -0.044 F  
BRANCH  14  20
HETATM   20  O   UNL     1      -7.997  11.644  67.111  1.00  0.00    -0.148 OA 
BRANCH  20  21
HETATM   21  C   UNL     1      -9.101  11.041  67.683  1.00  0.00    -0.145 A  
HETATM   22  C   UNL     1      -9.367   9.744  67.203  1.00  0.00    -0.169 A  
HETATM   23  C   UNL     1     -10.422   8.975  67.721  1.00  0.00    -0.305 A  
HETATM   24  C   UNL     1     -11.224   9.506  68.734  1.00  0.00     0.050 A  
HETATM   25  C   UNL     1     -10.676   7.650  67.213  1.00  0.00    -0.274 C  
HETATM   26  C   UNL     1     -10.989  10.806  69.184  1.00  0.00    -0.244 A  
HETATM   27  N   UNL     1     -10.887   6.590  66.794  1.00  0.00    -0.319 NA 
HETATM   28 CL   UNL     1     -11.980  11.467  70.431  1.00  0.00    -0.450 Cl 
HETATM   29  C   UNL     1      -9.951  11.583  68.647  1.00  0.00    -0.207 A  
ENDBRANCH  20  21
ENDBRANCH  14  20
ENDBRANCH   8   9
ENDBRANCH   7   8
TORSDOF 4
ENDMDL
MODEL      214
REMARK 921   NORMALIZED FREE ENERGY PREDICTED BY IDOCK:   -4.53 KCAL/MOL
REMARK 922        TOTAL FREE ENERGY PREDICTED BY IDOCK:   -6.43 KCAL/MOL
REMARK 923 INTER-LIGAND FREE ENERGY PREDICTED BY IDOCK:   -5.73 KCAL/MOL
REMARK 924 INTRA-LIGAND FREE ENERGY PREDICTED BY IDOCK:   -0.70 KCAL/MOL
REMARK 927      BINDING AFFINITY PREDICTED BY RF-SCORE:    0.00 PKD
ROOT
HETATM    1  C   UNL     1      -9.185   3.904  69.790  1.00  0.00    -0.143 C  
HETATM    2  N   UNL     1     -10.027   5.040  70.084  1.00  0.00    -0.238 N  
HETATM    3  C   UNL     1     -10.481   5.319  71.351  1.00  0.00    -0.203 C  
HETATM    4  O   UNL     1     -10.235   4.734  72.392  1.00  0.00    -0.182 OA 
HETATM    5  N   UNL     1     -11.294   6.432  71.212  1.00  0.00    -0.294 NA 
HETATM    6  N   UNL     1     -11.314   6.851  69.916  1.00  0.00    -0.289 NA 
HETATM    7  C   UNL     1     -10.542   6.001  69.292  1.00  0.00    -0.299 C  
ENDROOT
BRANCH   7   8
HETATM    8  C   UNL     1     -10.192   6.214  67.829  1.00  0.00    -0.172 C  
BRANCH   8   9
HETATM    9  N   UNL     1      -9.085   7.074  67.423  1.00  0.00    -0.123 N  
HETATM   10  C   UNL     1      -7.993   6.568  66.736  1.00  0.00    -0.108 C  
HETATM   11  C   UNL     1      -7.131   7.399  66.128  1.00  0.00    -0.069 C  
HETATM   12  C   UNL     1      -7.237   8.843  66.316  1.00  0.00    -0.086 C  
HETATM   13  C   UNL     1      -6.252   9.749  65.643  1.00  0.00    -0.072 C  
HETATM   14  C   UNL     1      -8.236   9.349  67.067  1.00  0.00    -0.116 C  
HETATM   15  C   UNL     1      -9.399   8.430  67.278  1.00  0.00    -0.146 C  
HETATM   16  F   UNL     1      -5.434   9.087  64.782  1.00  0.00    -0.047 F  
HETATM   17  F   UNL     1      -6.880  10.703  64.903  1.00  0.00    -0.111 F  
HETATM   18  O   UNL     1     -10.543   8.871  67.313  1.00  0.00    -0.283 OA 
HETATM   19  F   UNL     1      -5.450  10.395  66.525  1.00  0.00    -0.044 F  
BRANCH  14  20
HETATM   20  O   UNL     1      -8.295  10.695  67.407  1.00  0.00    -0.118 OA 
BRANCH  20  21
HETATM   21  C   UNL     1      -9.270  11.551  66.928  1.00  0.00    -0.176 A  
HETATM   22  C   UNL     1      -9.795  12.429  67.895  1.00  0.00    -0.202 A  
HETATM   23  C   UNL     1     -10.755  13.397  67.559  1.00  0.00    -0.263 A  
HETATM   24  C   UNL     1     -11.199  13.492  66.237  1.00  0.00    -0.310 A  
HETATM   25  C   UNL     1     -11.279  14.286  68.566  1.00  0.00    -0.266 C  
HETATM   26  C   UNL     1     -10.711  12.596  65.285  1.00  0.00    -0.289 A  
HETATM   27  N   UNL     1     -11.709  14.991  69.379  1.00  0.00    -0.307 NA 
HETATM   28 CL   UNL     1     -11.261  12.706  63.654  1.00  0.00    -0.509 Cl 
HETATM   29  C   UNL     1      -9.772  11.612  65.629  1.00  0.00    -0.262 A  
ENDBRANCH  20  21
ENDBRANCH  14  20
ENDBRANCH   8   9
ENDBRANCH   7   8
TORSDOF 4
ENDMDL
MODEL      215
REMARK 921   NORMALIZED FREE ENERGY PREDICTED BY IDOCK:   -4.53 KCAL/MOL
REMARK 922        TOTAL FREE ENERGY PREDICTED BY IDOCK:   -6.42 KCAL/MOL
REMARK 923 INTER-LIGAND FREE ENERGY PREDICTED BY IDOCK:   -5.67 KCAL/MOL
REMARK 924 INTRA-LIGAND FREE ENERGY PREDICTED BY IDOCK:   -0.75 KCAL/MOL
REMARK 927      BINDING AFFINITY PREDICTED BY RF-SCORE:    0.00 PKD
ROOT
HETATM    1  C   UNL     1      -5.320  18.260  65.964  1.00  0.00    -0.171 C  
HETATM    2  N   UNL     1      -6.590  18.834  66.339  1.00  0.00    -0.191 N  
HETATM    3  C   UNL     1      -7.161  19.883  65.658  1.00  0.00    -0.309 C  
HETATM    4  O   UNL     1      -6.756  20.449  64.656  1.00  0.00    -0.290 OA 
HETATM    5  N   UNL     1      -8.324  20.180  66.350  1.00  0.00    -0.280 NA 
HETATM    6  N   UNL     1      -8.489  19.324  67.397  1.00  0.00    -0.284 NA 
HETATM    7  C   UNL     1      -7.443  18.542  67.341  1.00  0.00    -0.218 C  
ENDROOT
BRANCH   7   8
HETATM    8  C   UNL     1      -7.328  17.348  68.272  1.00  0.00    -0.214 C  
BRANCH   8   9
HETATM    9  N   UNL     1      -8.397  16.362  68.389  1.00  0.00    -0.183 N  
HETATM   10  C   UNL     1      -9.380  16.476  69.360  1.00  0.00    -0.040 C  
HETATM   11  C   UNL     1     -10.498  15.737  69.282  1.00  0.00    -0.247 C  
HETATM   12  C   UNL     1     -10.625  14.690  68.272  1.00  0.00    -0.235 C  
HETATM   13  C   UNL     1     -11.874  13.864  68.217  1.00  0.00    -0.376 C  
HETATM   14  C   UNL     1      -9.631  14.496  67.381  1.00  0.00    -0.212 C  
HETATM   15  C   UNL     1      -8.688  15.647  67.223  1.00  0.00    -0.194 C  
HETATM   16  F   UNL     1     -12.838  14.316  69.062  1.00  0.00    -0.098 F  
HETATM   17  F   UNL     1     -12.427  13.884  66.974  1.00  0.00    -0.433 F  
HETATM   18  O   UNL     1      -8.219  15.920  66.122  1.00  0.00    -0.232 OA 
HETATM   19  F   UNL     1     -11.655  12.565  68.533  1.00  0.00    -0.271 F  
BRANCH  14  20
HETATM   20  O   UNL     1      -9.628  13.419  66.502  1.00  0.00    -0.265 OA 
BRANCH  20  21
HETATM   21  C   UNL     1      -8.976  12.230  66.771  1.00  0.00    -0.209 A  
HETATM   22  C   UNL     1      -8.538  11.538  65.626  1.00  0.00     0.120 A  
HETATM   23  C   UNL     1      -7.812  10.339  65.730  1.00  0.00    -0.145 A  
HETATM   24  C   UNL     1      -7.519   9.823  66.994  1.00  0.00    -0.091 A  
HETATM   25  C   UNL     1      -7.374   9.648  64.543  1.00  0.00    -0.125 C  
HETATM   26  C   UNL     1      -7.987  10.485  68.130  1.00  0.00    -0.111 A  
HETATM   27  N   UNL     1      -7.034   9.085  63.588  1.00  0.00    -0.089 NA 
HETATM   28 CL   UNL     1      -7.630   9.848  69.692  1.00  0.00    -0.118 Cl 
HETATM   29  C   UNL     1      -8.734  11.668  68.024  1.00  0.00    -0.157 A  
ENDBRANCH  20  21
ENDBRANCH  14  20
ENDBRANCH   8   9
ENDBRANCH   7   8
TORSDOF 4
ENDMDL
MODEL      216
REMARK 921   NORMALIZED FREE ENERGY PREDICTED BY IDOCK:   -4.50 KCAL/MOL
REMARK 922        TOTAL FREE ENERGY PREDICTED BY IDOCK:   -6.39 KCAL/MOL
REMARK 923 INTER-LIGAND FREE ENERGY PREDICTED BY IDOCK:   -5.45 KCAL/MOL
REMARK 924 INTRA-LIGAND FREE ENERGY PREDICTED BY IDOCK:   -0.94 KCAL/MOL
REMARK 927      BINDING AFFINITY PREDICTED BY RF-SCORE:    0.00 PKD
ROOT
HETATM    1  C   UNL     1      -8.786   3.420  71.576  1.00  0.00    -0.091 C  
HETATM    2  N   UNL     1      -8.170   4.603  72.129  1.00  0.00    -0.108 N  
HETATM    3  C   UNL     1      -7.609   4.629  73.384  1.00  0.00    -0.084 C  
HETATM    4  O   UNL     1      -7.491   3.716  74.183  1.00  0.00    -0.053 OA 
HETATM    5  N   UNL     1      -7.187   5.936  73.569  1.00  0.00    -0.085 NA 
HETATM    6  N   UNL     1      -7.440   6.682  72.457  1.00  0.00    -0.089 NA 
HETATM    7  C   UNL     1      -8.013   5.845  71.632  1.00  0.00    -0.113 C  
ENDROOT
BRANCH   7   8
HETATM    8  C   UNL     1      -8.327   6.268  70.208  1.00  0.00    -0.126 C  
BRANCH   8   9
HETATM    9  N   UNL     1      -9.303   7.313  69.916  1.00  0.00    -0.154 N  
HETATM   10  C   UNL     1     -10.579   7.279  70.456  1.00  0.00    -0.222 C  
HETATM   11  C   UNL     1     -11.362   8.370  70.413  1.00  0.00    -0.178 C  
HETATM   12  C   UNL     1     -10.947   9.549  69.658  1.00  0.00    -0.233 C  
HETATM   13  C   UNL     1     -11.846  10.747  69.608  1.00  0.00    -0.320 C  
HETATM   14  C   UNL     1      -9.750   9.560  69.039  1.00  0.00    -0.170 C  
HETATM   15  C   UNL     1      -8.767   8.548  69.539  1.00  0.00    -0.136 C  
HETATM   16  F   UNL     1     -12.920  10.631  70.435  1.00  0.00    -0.389 F  
HETATM   17  F   UNL     1     -11.193  11.874  69.999  1.00  0.00    -0.266 F  
HETATM   18  O   UNL     1      -7.573   8.821  69.605  1.00  0.00    -0.072 OA 
HETATM   19  F   UNL     1     -12.334  10.982  68.366  1.00  0.00    -0.278 F  
BRANCH  14  20
HETATM   20  O   UNL     1      -9.372  10.587  68.181  1.00  0.00    -0.142 OA 
BRANCH  20  21
HETATM   21  C   UNL     1      -9.566  10.535  66.813  1.00  0.00    -0.170 A  
HETATM   22  C   UNL     1      -8.650   9.712  66.130  1.00  0.00    -0.138 A  
HETATM   23  C   UNL     1      -8.743   9.510  64.743  1.00  0.00    -0.225 A  
HETATM   24  C   UNL     1      -9.765  10.137  64.026  1.00  0.00    -0.273 A  
HETATM   25  C   UNL     1      -7.794   8.663  64.065  1.00  0.00    -0.146 C  
HETATM   26  C   UNL     1     -10.650  10.985  64.694  1.00  0.00    -0.299 A  
HETATM   27  N   UNL     1      -7.021   7.994  63.518  1.00  0.00    -0.075 NA 
HETATM   28 CL   UNL     1     -11.910  11.764  63.812  1.00  0.00    -0.512 Cl 
HETATM   29  C   UNL     1     -10.539  11.207  66.075  1.00  0.00    -0.298 A  
ENDBRANCH  20  21
ENDBRANCH  14  20
ENDBRANCH   8   9
ENDBRANCH   7   8
TORSDOF 4
ENDMDL
MODEL      217
REMARK 921   NORMALIZED FREE ENERGY PREDICTED BY IDOCK:   -4.49 KCAL/MOL
REMARK 922        TOTAL FREE ENERGY PREDICTED BY IDOCK:   -6.38 KCAL/MOL
REMARK 923 INTER-LIGAND FREE ENERGY PREDICTED BY IDOCK:   -5.92 KCAL/MOL
REMARK 924 INTRA-LIGAND FREE ENERGY PREDICTED BY IDOCK:   -0.46 KCAL/MOL
REMARK 927      BINDING AFFINITY PREDICTED BY RF-SCORE:    0.00 PKD
ROOT
HETATM    1  C   UNL     1      -6.975  19.337  68.895  1.00  0.00    -0.338 C  
HETATM    2  N   UNL     1      -6.423  18.734  67.705  1.00  0.00    -0.204 N  
HETATM    3  C   UNL     1      -5.724  19.453  66.765  1.00  0.00    -0.169 C  
HETATM    4  O   UNL     1      -5.419  20.634  66.783  1.00  0.00    -0.166 OA 
HETATM    5  N   UNL     1      -5.420  18.547  65.762  1.00  0.00    -0.155 NA 
HETATM    6  N   UNL     1      -5.878  17.305  66.085  1.00  0.00    -0.272 NA 
HETATM    7  C   UNL     1      -6.455  17.467  67.247  1.00  0.00    -0.151 C  
ENDROOT
BRANCH   7   8
HETATM    8  C   UNL     1      -6.978  16.268  68.017  1.00  0.00    -0.130 C  
BRANCH   8   9
HETATM    9  N   UNL     1      -8.309  15.721  67.774  1.00  0.00    -0.152 N  
HETATM   10  C   UNL     1      -9.278  16.453  67.108  1.00  0.00    -0.213 C  
HETATM   11  C   UNL     1     -10.385  15.849  66.644  1.00  0.00    -0.302 C  
HETATM   12  C   UNL     1     -10.660  14.453  66.976  1.00  0.00    -0.274 C  
HETATM   13  C   UNL     1     -11.910  13.806  66.465  1.00  0.00    -0.407 C  
HETATM   14  C   UNL     1      -9.773  13.753  67.712  1.00  0.00    -0.230 C  
HETATM   15  C   UNL     1      -8.390  14.325  67.753  1.00  0.00    -0.171 C  
HETATM   16  F   UNL     1     -12.591  14.596  65.592  1.00  0.00    -0.326 F  
HETATM   17  F   UNL     1     -11.635  12.657  65.791  1.00  0.00    -0.344 F  
HETATM   18  O   UNL     1      -7.411  13.585  67.762  1.00  0.00    -0.132 OA 
HETATM   19  F   UNL     1     -12.776  13.486  67.458  1.00  0.00    -0.150 F  
BRANCH  14  20
HETATM   20  O   UNL     1     -10.053  12.477  68.187  1.00  0.00    -0.213 OA 
BRANCH  20  21
HETATM   21  C   UNL     1      -9.601  11.327  67.567  1.00  0.00    -0.170 A  
HETATM   22  C   UNL     1      -9.493  10.213  68.421  1.00  0.00    -0.147 A  
HETATM   23  C   UNL     1      -9.100   8.955  67.936  1.00  0.00    -0.145 A  
HETATM   24  C   UNL     1      -8.810   8.805  66.577  1.00  0.00    -0.156 A  
HETATM   25  C   UNL     1      -8.995   7.828  68.829  1.00  0.00    -0.141 C  
HETATM   26  C   UNL     1      -8.877   9.916  65.736  1.00  0.00    -0.147 A  
HETATM   27  N   UNL     1      -8.898   6.927  69.552  1.00  0.00    -0.133 NA 
HETATM   28 CL   UNL     1      -8.515   9.735  64.059  1.00  0.00    -0.167 Cl 
HETATM   29  C   UNL     1      -9.245  11.177  66.228  1.00  0.00    -0.211 A  
ENDBRANCH  20  21
ENDBRANCH  14  20
ENDBRANCH   8   9
ENDBRANCH   7   8
TORSDOF 4
ENDMDL
MODEL      218
REMARK 921   NORMALIZED FREE ENERGY PREDICTED BY IDOCK:   -4.46 KCAL/MOL
REMARK 922        TOTAL FREE ENERGY PREDICTED BY IDOCK:   -6.34 KCAL/MOL
REMARK 923 INTER-LIGAND FREE ENERGY PREDICTED BY IDOCK:   -5.79 KCAL/MOL
REMARK 924 INTRA-LIGAND FREE ENERGY PREDICTED BY IDOCK:   -0.54 KCAL/MOL
REMARK 927      BINDING AFFINITY PREDICTED BY RF-SCORE:    0.00 PKD
ROOT
HETATM    1  C   UNL     1     -12.474  15.539  70.478  1.00  0.00    -0.427 C  
HETATM    2  N   UNL     1     -12.560  14.135  70.806  1.00  0.00    -0.344 N  
HETATM    3  C   UNL     1     -12.966  13.684  72.039  1.00  0.00    -0.334 C  
HETATM    4  O   UNL     1     -13.350  14.335  72.997  1.00  0.00    -0.618 OA 
HETATM    5  N   UNL     1     -12.856  12.305  71.980  1.00  0.00    -0.232 NA 
HETATM    6  N   UNL     1     -12.436  11.912  70.745  1.00  0.00    -0.335 NA 
HETATM    7  C   UNL     1     -12.284  13.030  70.086  1.00  0.00    -0.272 C  
ENDROOT
BRANCH   7   8
HETATM    8  C   UNL     1     -11.952  13.008  68.604  1.00  0.00    -0.263 C  
BRANCH   8   9
HETATM    9  N   UNL     1     -10.597  12.753  68.125  1.00  0.00    -0.222 N  
HETATM   10  C   UNL     1      -9.572  13.658  68.349  1.00  0.00    -0.203 C  
HETATM   11  C   UNL     1      -8.293  13.294  68.160  1.00  0.00    -0.161 C  
HETATM   12  C   UNL     1      -7.973  12.001  67.563  1.00  0.00    -0.159 C  
HETATM   13  C   UNL     1      -6.539  11.624  67.343  1.00  0.00    -0.106 C  
HETATM   14  C   UNL     1      -8.966  11.147  67.243  1.00  0.00    -0.147 C  
HETATM   15  C   UNL     1     -10.272  11.408  67.927  1.00  0.00    -0.182 C  
HETATM   16  F   UNL     1      -5.673  12.518  67.890  1.00  0.00    -0.057 F  
HETATM   17  F   UNL     1      -6.248  10.424  67.914  1.00  0.00    -0.056 F  
HETATM   18  O   UNL     1     -10.986  10.475  68.280  1.00  0.00    -0.224 OA 
HETATM   19  F   UNL     1      -6.221  11.527  66.029  1.00  0.00    -0.096 F  
BRANCH  14  20
HETATM   20  O   UNL     1      -8.732   9.975  66.533  1.00  0.00    -0.131 OA 
BRANCH  20  21
HETATM   21  C   UNL     1      -8.724   8.725  67.124  1.00  0.00    -0.120 A  
HETATM   22  C   UNL     1      -9.146   7.682  66.278  1.00  0.00    -0.204 A  
HETATM   23  C   UNL     1      -9.145   6.345  66.710  1.00  0.00    -0.147 A  
HETATM   24  C   UNL     1      -8.717   6.044  68.005  1.00  0.00    -0.112 A  
HETATM   25  C   UNL     1      -9.582   5.293  65.826  1.00  0.00    -0.089 C  
HETATM   26  C   UNL     1      -8.336   7.079  68.859  1.00  0.00    -0.125 A  
HETATM   27  N   UNL     1      -9.947   4.450  65.119  1.00  0.00    -0.192 NA 
HETATM   28 CL   UNL     1      -7.811   6.711  70.460  1.00  0.00    -0.104 Cl 
HETATM   29  C   UNL     1      -8.363   8.417  68.435  1.00  0.00    -0.131 A  
ENDBRANCH  20  21
ENDBRANCH  14  20
ENDBRANCH   8   9
ENDBRANCH   7   8
TORSDOF 4
ENDMDL
MODEL      219
REMARK 921   NORMALIZED FREE ENERGY PREDICTED BY IDOCK:   -4.44 KCAL/MOL
REMARK 922        TOTAL FREE ENERGY PREDICTED BY IDOCK:   -6.32 KCAL/MOL
REMARK 923 INTER-LIGAND FREE ENERGY PREDICTED BY IDOCK:   -6.94 KCAL/MOL
REMARK 924 INTRA-LIGAND FREE ENERGY PREDICTED BY IDOCK:    0.62 KCAL/MOL
REMARK 927      BINDING AFFINITY PREDICTED BY RF-SCORE:    0.00 PKD
ROOT
HETATM    1  C   UNL     1      -8.627  16.956  67.946  1.00  0.00    -0.208 C  
HETATM    2  N   UNL     1      -7.293  16.843  68.485  1.00  0.00    -0.195 N  
HETATM    3  C   UNL     1      -6.630  17.904  69.056  1.00  0.00    -0.247 C  
HETATM    4  O   UNL     1      -7.033  19.039  69.243  1.00  0.00    -0.310 OA 
HETATM    5  N   UNL     1      -5.377  17.416  69.390  1.00  0.00    -0.165 NA 
HETATM    6  N   UNL     1      -5.279  16.094  69.075  1.00  0.00    -0.108 NA 
HETATM    7  C   UNL     1      -6.440  15.801  68.553  1.00  0.00    -0.107 C  
ENDROOT
BRANCH   7   8
HETATM    8  C   UNL     1      -6.780  14.364  68.196  1.00  0.00    -0.127 C  
BRANCH   8   9
HETATM    9  N   UNL     1      -8.026  14.016  67.520  1.00  0.00    -0.176 N  
HETATM   10  C   UNL     1      -8.505  14.767  66.459  1.00  0.00     0.059 C  
HETATM   11  C   UNL     1      -9.483  14.286  65.674  1.00  0.00    -0.018 C  
HETATM   12  C   UNL     1     -10.165  13.042  66.022  1.00  0.00    -0.292 C  
HETATM   13  C   UNL     1     -11.267  12.535  65.142  1.00  0.00    -0.304 C  
HETATM   14  C   UNL     1      -9.779  12.349  67.112  1.00  0.00    -0.207 C  
HETATM   15  C   UNL     1      -8.409  12.674  67.618  1.00  0.00    -0.174 C  
HETATM   16  F   UNL     1     -11.397  13.255  63.997  1.00  0.00    -0.371 F  
HETATM   17  F   UNL     1     -11.039  11.251  64.753  1.00  0.00    -0.359 F  
HETATM   18  O   UNL     1      -7.691  11.794  68.082  1.00  0.00    -0.109 OA 
HETATM   19  F   UNL     1     -12.476  12.555  65.755  1.00  0.00    -0.483 F  
BRANCH  14  20
HETATM   20  O   UNL     1     -10.490  11.248  67.577  1.00  0.00    -0.187 OA 
BRANCH  20  21
HETATM   21  C   UNL     1     -11.192  11.255  68.768  1.00  0.00    -0.250 A  
HETATM   22  C   UNL     1     -11.689  12.518  69.140  1.00  0.00    -0.375 A  
HETATM   23  C   UNL     1     -12.469  12.686  70.296  1.00  0.00    -0.163 A  
HETATM   24  C   UNL     1     -12.759  11.575  71.093  1.00  0.00    -0.458 A  
HETATM   25  C   UNL     1     -12.966  13.989  70.658  1.00  0.00    -0.196 C  
HETATM   26  C   UNL     1     -12.235  10.329  70.749  1.00  0.00    -0.350 A  
HETATM   27  N   UNL     1     -13.353  15.041  70.956  1.00  0.00    -0.419 NA 
HETATM   28 CL   UNL     1     -12.587   8.957  71.733  1.00  0.00    -0.389 Cl 
HETATM   29  C   UNL     1     -11.434  10.169  69.608  1.00  0.00    -0.256 A  
ENDBRANCH  20  21
ENDBRANCH  14  20
ENDBRANCH   8   9
ENDBRANCH   7   8
TORSDOF 4
ENDMDL
MODEL      220
REMARK 921   NORMALIZED FREE ENERGY PREDICTED BY IDOCK:   -4.44 KCAL/MOL
REMARK 922        TOTAL FREE ENERGY PREDICTED BY IDOCK:   -6.31 KCAL/MOL
REMARK 923 INTER-LIGAND FREE ENERGY PREDICTED BY IDOCK:   -7.16 KCAL/MOL
REMARK 924 INTRA-LIGAND FREE ENERGY PREDICTED BY IDOCK:    0.84 KCAL/MOL
REMARK 927      BINDING AFFINITY PREDICTED BY RF-SCORE:    0.00 PKD
ROOT
HETATM    1  C   UNL     1     -11.058  11.388  64.289  1.00  0.00    -0.285 C  
HETATM    2  N   UNL     1     -11.785  12.565  64.702  1.00  0.00    -0.342 N  
HETATM    3  C   UNL     1     -12.368  13.429  63.806  1.00  0.00    -0.349 C  
HETATM    4  O   UNL     1     -12.420  13.343  62.591  1.00  0.00    -0.144 OA 
HETATM    5  N   UNL     1     -12.906  14.447  64.576  1.00  0.00    -0.571 NA 
HETATM    6  N   UNL     1     -12.699  14.205  65.901  1.00  0.00    -0.445 NA 
HETATM    7  C   UNL     1     -12.041  13.076  65.922  1.00  0.00    -0.444 C  
ENDROOT
BRANCH   7   8
HETATM    8  C   UNL     1     -11.739  12.389  67.243  1.00  0.00    -0.349 C  
BRANCH   8   9
HETATM    9  N   UNL     1     -10.374  12.062  67.642  1.00  0.00    -0.196 N  
HETATM   10  C   UNL     1      -9.347  12.983  67.521  1.00  0.00    -0.200 C  
HETATM   11  C   UNL     1      -8.174  12.777  68.143  1.00  0.00    -0.167 C  
HETATM   12  C   UNL     1      -7.908  11.509  68.817  1.00  0.00    -0.117 C  
HETATM   13  C   UNL     1      -6.585  11.294  69.487  1.00  0.00    -0.129 C  
HETATM   14  C   UNL     1      -8.863  10.558  68.857  1.00  0.00    -0.165 C  
HETATM   15  C   UNL     1     -10.253  11.044  68.594  1.00  0.00    -0.199 C  
HETATM   16  F   UNL     1      -5.819  12.417  69.509  1.00  0.00    -0.072 F  
HETATM   17  F   UNL     1      -6.742  10.923  70.787  1.00  0.00    -0.050 F  
HETATM   18  O   UNL     1     -11.206  10.561  69.198  1.00  0.00    -0.228 OA 
HETATM   19  F   UNL     1      -5.846  10.330  68.886  1.00  0.00    -0.042 F  
BRANCH  14  20
HETATM   20  O   UNL     1      -8.613   9.281  69.345  1.00  0.00    -0.129 OA 
BRANCH  20  21
HETATM   21  C   UNL     1      -8.982   8.874  70.614  1.00  0.00    -0.199 A  
HETATM   22  C   UNL     1     -10.360   8.988  70.880  1.00  0.00    -0.323 A  
HETATM   23  C   UNL     1     -10.905   8.568  72.105  1.00  0.00    -0.427 A  
HETATM   24  C   UNL     1     -10.063   8.025  73.079  1.00  0.00    -0.351 A  
HETATM   25  C   UNL     1     -12.318   8.695  72.356  1.00  0.00    -0.357 C  
HETATM   26  C   UNL     1      -8.692   7.947  72.833  1.00  0.00    -0.186 A  
HETATM   27  N   UNL     1     -13.453   8.812  72.562  1.00  0.00    -0.385 NA 
HETATM   28 CL   UNL     1      -7.649   7.281  74.034  1.00  0.00    -0.122 Cl 
HETATM   29  C   UNL     1      -8.145   8.392  71.619  1.00  0.00    -0.184 A  
ENDBRANCH  20  21
ENDBRANCH  14  20
ENDBRANCH   8   9
ENDBRANCH   7   8
TORSDOF 4
ENDMDL
MODEL      221
REMARK 921   NORMALIZED FREE ENERGY PREDICTED BY IDOCK:   -4.43 KCAL/MOL
REMARK 922        TOTAL FREE ENERGY PREDICTED BY IDOCK:   -6.30 KCAL/MOL
REMARK 923 INTER-LIGAND FREE ENERGY PREDICTED BY IDOCK:   -5.09 KCAL/MOL
REMARK 924 INTRA-LIGAND FREE ENERGY PREDICTED BY IDOCK:   -1.20 KCAL/MOL
REMARK 927      BINDING AFFINITY PREDICTED BY RF-SCORE:    0.00 PKD
ROOT
HETATM    1  C   UNL     1     -12.720  10.289  70.093  1.00  0.00    -0.026 C  
HETATM    2  N   UNL     1     -11.430   9.701  70.365  1.00  0.00    -0.265 N  
HETATM    3  C   UNL     1     -11.272   8.594  71.165  1.00  0.00    -0.272 C  
HETATM    4  O   UNL     1     -12.131   7.923  71.712  1.00  0.00    -0.280 OA 
HETATM    5  N   UNL     1      -9.905   8.380  71.229  1.00  0.00    -0.185 NA 
HETATM    6  N   UNL     1      -9.242   9.293  70.466  1.00  0.00    -0.243 NA 
HETATM    7  C   UNL     1     -10.188  10.045  69.969  1.00  0.00    -0.255 C  
ENDROOT
BRANCH   7   8
HETATM    8  C   UNL     1      -9.860  11.112  68.940  1.00  0.00    -0.162 C  
BRANCH   8   9
HETATM    9  N   UNL     1      -9.800  10.808  67.513  1.00  0.00    -0.170 N  
HETATM   10  C   UNL     1     -10.674  11.398  66.614  1.00  0.00    -0.269 C  
HETATM   11  C   UNL     1     -10.433  11.334  65.294  1.00  0.00    -0.341 C  
HETATM   12  C   UNL     1      -9.343  10.508  64.780  1.00  0.00    -0.285 C  
HETATM   13  C   UNL     1      -9.106  10.436  63.302  1.00  0.00    -0.263 C  
HETATM   14  C   UNL     1      -8.544   9.844  65.639  1.00  0.00    -0.145 C  
HETATM   15  C   UNL     1      -8.563  10.354  67.046  1.00  0.00    -0.130 C  
HETATM   16  F   UNL     1      -9.881  11.307  62.604  1.00  0.00    -0.291 F  
HETATM   17  F   UNL     1      -7.819  10.748  62.991  1.00  0.00    -0.145 F  
HETATM   18  O   UNL     1      -7.536  10.361  67.719  1.00  0.00    -0.088 OA 
HETATM   19  F   UNL     1      -9.349   9.203  62.794  1.00  0.00    -0.194 F  
BRANCH  14  20
HETATM   20  O   UNL     1      -7.595   8.925  65.205  1.00  0.00    -0.094 OA 
BRANCH  20  21
HETATM   21  C   UNL     1      -7.825   7.561  65.181  1.00  0.00    -0.122 A  
HETATM   22  C   UNL     1      -8.139   7.005  66.435  1.00  0.00    -0.112 A  
HETATM   23  C   UNL     1      -8.451   5.643  66.573  1.00  0.00    -0.114 A  
HETATM   24  C   UNL     1      -8.450   4.822  65.442  1.00  0.00    -0.129 A  
HETATM   25  C   UNL     1      -8.769   5.095  67.868  1.00  0.00    -0.102 C  
HETATM   26  C   UNL     1      -8.100   5.361  64.204  1.00  0.00    -0.123 A  
HETATM   27  N   UNL     1      -9.011   4.652  68.912  1.00  0.00    -0.102 NA 
HETATM   28 CL   UNL     1      -8.093   4.351  62.807  1.00  0.00    -0.072 Cl 
HETATM   29  C   UNL     1      -7.763   6.717  64.073  1.00  0.00    -0.112 A  
ENDBRANCH  20  21
ENDBRANCH  14  20
ENDBRANCH   8   9
ENDBRANCH   7   8
TORSDOF 4
ENDMDL
MODEL      222
REMARK 921   NORMALIZED FREE ENERGY PREDICTED BY IDOCK:   -4.42 KCAL/MOL
REMARK 922        TOTAL FREE ENERGY PREDICTED BY IDOCK:   -6.29 KCAL/MOL
REMARK 923 INTER-LIGAND FREE ENERGY PREDICTED BY IDOCK:   -5.80 KCAL/MOL
REMARK 924 INTRA-LIGAND FREE ENERGY PREDICTED BY IDOCK:   -0.49 KCAL/MOL
REMARK 927      BINDING AFFINITY PREDICTED BY RF-SCORE:    0.00 PKD
ROOT
HETATM    1  C   UNL     1     -13.254  15.365  70.935  1.00  0.00    -0.455 C  
HETATM    2  N   UNL     1     -12.983  13.947  70.891  1.00  0.00    -0.283 N  
HETATM    3  C   UNL     1     -13.446  13.073  71.846  1.00  0.00    -0.408 C  
HETATM    4  O   UNL     1     -14.158  13.306  72.807  1.00  0.00    -0.691 OA 
HETATM    5  N   UNL     1     -12.932  11.836  71.489  1.00  0.00    -0.402 NA 
HETATM    6  N   UNL     1     -12.212  11.932  70.337  1.00  0.00    -0.338 NA 
HETATM    7  C   UNL     1     -12.281  13.198  70.018  1.00  0.00    -0.253 C  
ENDROOT
BRANCH   7   8
HETATM    8  C   UNL     1     -11.710  13.689  68.700  1.00  0.00    -0.354 C  
BRANCH   8   9
HETATM    9  N   UNL     1     -10.323  14.128  68.581  1.00  0.00    -0.241 N  
HETATM   10  C   UNL     1      -9.865  15.257  69.242  1.00  0.00    -0.255 C  
HETATM   11  C   UNL     1      -8.547  15.488  69.355  1.00  0.00    -0.259 C  
HETATM   12  C   UNL     1      -7.585  14.647  68.648  1.00  0.00    -0.129 C  
HETATM   13  C   UNL     1      -6.120  14.936  68.773  1.00  0.00    -0.083 C  
HETATM   14  C   UNL     1      -8.021  13.602  67.915  1.00  0.00    -0.161 C  
HETATM   15  C   UNL     1      -9.403  13.130  68.242  1.00  0.00    -0.201 C  
HETATM   16  F   UNL     1      -5.853  15.902  69.692  1.00  0.00    -0.115 F  
HETATM   17  F   UNL     1      -5.430  13.835  69.176  1.00  0.00    -0.076 F  
HETATM   18  O   UNL     1      -9.677  11.935  68.208  1.00  0.00    -0.192 OA 
HETATM   19  F   UNL     1      -5.567  15.345  67.605  1.00  0.00    -0.136 F  
BRANCH  14  20
HETATM   20  O   UNL     1      -7.169  12.866  67.099  1.00  0.00    -0.105 OA 
BRANCH  20  21
HETATM   21  C   UNL     1      -6.917  11.520  67.294  1.00  0.00    -0.125 A  
HETATM   22  C   UNL     1      -6.631  11.172  68.627  1.00  0.00    -0.059 A  
HETATM   23  C   UNL     1      -6.404   9.837  69.002  1.00  0.00    -0.041 A  
HETATM   24  C   UNL     1      -6.464   8.834  68.031  1.00  0.00    -0.057 A  
HETATM   25  C   UNL     1      -6.112   9.504  70.373  1.00  0.00    -0.059 C  
HETATM   26  C   UNL     1      -6.708   9.180  66.702  1.00  0.00    -0.076 A  
HETATM   27  N   UNL     1      -5.863   9.239  71.474  1.00  0.00    -0.072 NA 
HETATM   28 CL   UNL     1      -6.779   7.945  65.501  1.00  0.00    -0.045 Cl 
HETATM   29  C   UNL     1      -6.908  10.517  66.325  1.00  0.00    -0.127 A  
ENDBRANCH  20  21
ENDBRANCH  14  20
ENDBRANCH   8   9
ENDBRANCH   7   8
TORSDOF 4
ENDMDL
MODEL      223
REMARK 921   NORMALIZED FREE ENERGY PREDICTED BY IDOCK:   -4.42 KCAL/MOL
REMARK 922        TOTAL FREE ENERGY PREDICTED BY IDOCK:   -6.29 KCAL/MOL
REMARK 923 INTER-LIGAND FREE ENERGY PREDICTED BY IDOCK:   -6.10 KCAL/MOL
REMARK 924 INTRA-LIGAND FREE ENERGY PREDICTED BY IDOCK:   -0.19 KCAL/MOL
REMARK 927      BINDING AFFINITY PREDICTED BY RF-SCORE:    0.00 PKD
ROOT
HETATM    1  C   UNL     1     -10.364   5.084  66.675  1.00  0.00    -0.270 C  
HETATM    2  N   UNL     1     -10.245   5.611  68.014  1.00  0.00    -0.173 N  
HETATM    3  C   UNL     1      -9.908   4.828  69.093  1.00  0.00    -0.184 C  
HETATM    4  O   UNL     1      -9.620   3.643  69.111  1.00  0.00    -0.175 OA 
HETATM    5  N   UNL     1      -9.957   5.674  70.189  1.00  0.00    -0.192 NA 
HETATM    6  N   UNL     1     -10.273   6.941  69.801  1.00  0.00    -0.191 NA 
HETATM    7  C   UNL     1     -10.424   6.853  68.506  1.00  0.00    -0.203 C  
ENDROOT
BRANCH   7   8
HETATM    8  C   UNL     1     -10.649   8.103  67.673  1.00  0.00    -0.188 C  
BRANCH   8   9
HETATM    9  N   UNL     1      -9.794   9.278  67.807  1.00  0.00    -0.164 N  
HETATM   10  C   UNL     1      -8.435   9.215  67.541  1.00  0.00    -0.116 C  
HETATM   11  C   UNL     1      -7.721  10.342  67.393  1.00  0.00    -0.095 C  
HETATM   12  C   UNL     1      -8.325  11.642  67.670  1.00  0.00    -0.142 C  
HETATM   13  C   UNL     1      -7.502  12.885  67.517  1.00  0.00    -0.155 C  
HETATM   14  C   UNL     1      -9.622  11.715  68.030  1.00  0.00    -0.184 C  
HETATM   15  C   UNL     1     -10.443  10.511  67.690  1.00  0.00    -0.234 C  
HETATM   16  F   UNL     1      -6.281  12.642  66.971  1.00  0.00    -0.164 F  
HETATM   17  F   UNL     1      -8.108  13.783  66.693  1.00  0.00    -0.060 F  
HETATM   18  O   UNL     1     -11.610  10.634  67.331  1.00  0.00    -0.445 OA 
HETATM   19  F   UNL     1      -7.284  13.515  68.698  1.00  0.00    -0.088 F  
BRANCH  14  20
HETATM   20  O   UNL     1     -10.205  12.903  68.455  1.00  0.00    -0.234 OA 
BRANCH  20  21
HETATM   21  C   UNL     1     -10.587  13.908  67.585  1.00  0.00    -0.245 A  
HETATM   22  C   UNL     1     -10.306  15.209  68.044  1.00  0.00    -0.240 A  
HETATM   23  C   UNL     1     -10.583  16.338  67.255  1.00  0.00    -0.298 A  
HETATM   24  C   UNL     1     -11.149  16.167  65.990  1.00  0.00     0.064 A  
HETATM   25  C   UNL     1     -10.286  17.660  67.746  1.00  0.00    -0.365 C  
HETATM   26  C   UNL     1     -11.467  14.882  65.549  1.00  0.00    -0.307 A  
HETATM   27  N   UNL     1     -10.061  18.724  68.147  1.00  0.00    -0.361 NA 
HETATM   28 CL   UNL     1     -12.170  14.667  63.989  1.00  0.00    -0.369 Cl 
HETATM   29  C   UNL     1     -11.213  13.757  66.349  1.00  0.00    -0.321 A  
ENDBRANCH  20  21
ENDBRANCH  14  20
ENDBRANCH   8   9
ENDBRANCH   7   8
TORSDOF 4
ENDMDL
MODEL      224
REMARK 921   NORMALIZED FREE ENERGY PREDICTED BY IDOCK:   -4.40 KCAL/MOL
REMARK 922        TOTAL FREE ENERGY PREDICTED BY IDOCK:   -6.27 KCAL/MOL
REMARK 923 INTER-LIGAND FREE ENERGY PREDICTED BY IDOCK:   -6.31 KCAL/MOL
REMARK 924 INTRA-LIGAND FREE ENERGY PREDICTED BY IDOCK:    0.04 KCAL/MOL
REMARK 927      BINDING AFFINITY PREDICTED BY RF-SCORE:    0.00 PKD
ROOT
HETATM    1  C   UNL     1      -7.490   6.772  70.175  1.00  0.00    -0.094 C  
HETATM    2  N   UNL     1      -8.584   5.851  70.377  1.00  0.00    -0.133 N  
HETATM    3  C   UNL     1      -8.446   4.680  71.084  1.00  0.00    -0.107 C  
HETATM    4  O   UNL     1      -7.464   4.258  71.671  1.00  0.00    -0.060 OA 
HETATM    5  N   UNL     1      -9.680   4.056  71.002  1.00  0.00    -0.179 NA 
HETATM    6  N   UNL     1     -10.560   4.827  70.304  1.00  0.00     0.021 NA 
HETATM    7  C   UNL     1      -9.866   5.881  69.965  1.00  0.00    -0.175 C  
ENDROOT
BRANCH   7   8
HETATM    8  C   UNL     1     -10.542   7.057  69.282  1.00  0.00    -0.224 C  
BRANCH   8   9
HETATM    9  N   UNL     1      -9.989   7.666  68.077  1.00  0.00    -0.168 N  
HETATM   10  C   UNL     1      -9.762   6.920  66.932  1.00  0.00    -0.171 C  
HETATM   11  C   UNL     1      -9.525   7.532  65.760  1.00  0.00     0.213 C  
HETATM   12  C   UNL     1      -9.341   8.980  65.706  1.00  0.00    -0.302 C  
HETATM   13  C   UNL     1      -9.058   9.639  64.390  1.00  0.00    -0.229 C  
HETATM   14  C   UNL     1      -9.457   9.712  66.832  1.00  0.00    -0.153 C  
HETATM   15  C   UNL     1     -10.194   9.043  67.950  1.00  0.00    -0.221 C  
HETATM   16  F   UNL     1      -9.159   8.780  63.341  1.00  0.00    -0.068 F  
HETATM   17  F   UNL     1      -9.940  10.643  64.138  1.00  0.00    -0.307 F  
HETATM   18  O   UNL     1     -10.927   9.693  68.689  1.00  0.00    -0.195 OA 
HETATM   19  F   UNL     1      -7.816  10.179  64.334  1.00  0.00    -0.133 F  
BRANCH  14  20
HETATM   20  O   UNL     1      -9.140  11.065  66.869  1.00  0.00    -0.153 OA 
BRANCH  20  21
HETATM   21  C   UNL     1     -10.088  12.056  67.045  1.00  0.00    -0.203 A  
HETATM   22  C   UNL     1     -10.648  12.540  65.848  1.00  0.00    -0.292 A  
HETATM   23  C   UNL     1     -11.664  13.511  65.855  1.00  0.00    -0.380 A  
HETATM   24  C   UNL     1     -12.128  14.006  67.077  1.00  0.00    -0.455 A  
HETATM   25  C   UNL     1     -12.222  13.992  64.617  1.00  0.00    -0.435 C  
HETATM   26  C   UNL     1     -11.547  13.558  68.263  1.00  0.00    -0.346 A  
HETATM   27  N   UNL     1     -12.660  14.389  63.619  1.00  0.00    -0.723 NA 
HETATM   28 CL   UNL     1     -12.115  14.170  69.772  1.00  0.00    -0.388 Cl 
HETATM   29  C   UNL     1     -10.515  12.608  68.252  1.00  0.00    -0.249 A  
ENDBRANCH  20  21
ENDBRANCH  14  20
ENDBRANCH   8   9
ENDBRANCH   7   8
TORSDOF 4
ENDMDL
MODEL      225
REMARK 921   NORMALIZED FREE ENERGY PREDICTED BY IDOCK:   -4.36 KCAL/MOL
REMARK 922        TOTAL FREE ENERGY PREDICTED BY IDOCK:   -6.22 KCAL/MOL
REMARK 923 INTER-LIGAND FREE ENERGY PREDICTED BY IDOCK:   -5.07 KCAL/MOL
REMARK 924 INTRA-LIGAND FREE ENERGY PREDICTED BY IDOCK:   -1.15 KCAL/MOL
REMARK 927      BINDING AFFINITY PREDICTED BY RF-SCORE:    0.00 PKD
ROOT
HETATM    1  C   UNL     1      -8.645  14.816  68.574  1.00  0.00    -0.168 C  
HETATM    2  N   UNL     1      -7.962  13.640  68.089  1.00  0.00    -0.137 N  
HETATM    3  C   UNL     1      -6.657  13.666  67.657  1.00  0.00    -0.165 C  
HETATM    4  O   UNL     1      -5.877  14.603  67.649  1.00  0.00    -0.293 OA 
HETATM    5  N   UNL     1      -6.391  12.378  67.221  1.00  0.00    -0.156 NA 
HETATM    6  N   UNL     1      -7.475  11.575  67.413  1.00  0.00    -0.119 NA 
HETATM    7  C   UNL     1      -8.373  12.366  67.937  1.00  0.00    -0.165 C  
ENDROOT
BRANCH   7   8
HETATM    8  C   UNL     1      -9.695  11.805  68.430  1.00  0.00    -0.197 C  
BRANCH   8   9
HETATM    9  N   UNL     1      -9.799  10.456  68.978  1.00  0.00    -0.202 N  
HETATM   10  C   UNL     1      -9.612  10.210  70.329  1.00  0.00     0.126 C  
HETATM   11  C   UNL     1      -9.983   9.035  70.861  1.00  0.00    -0.326 C  
HETATM   12  C   UNL     1     -10.435   7.943  70.003  1.00  0.00    -0.231 C  
HETATM   13  C   UNL     1     -10.826   6.634  70.618  1.00  0.00    -0.253 C  
HETATM   14  C   UNL     1     -10.527   8.133  68.671  1.00  0.00    -0.165 C  
HETATM   15  C   UNL     1     -10.580   9.564  68.236  1.00  0.00    -0.216 C  
HETATM   16  F   UNL     1     -10.850   6.680  71.977  1.00  0.00    -0.233 F  
HETATM   17  F   UNL     1     -12.076   6.259  70.234  1.00  0.00    -0.426 F  
HETATM   18  O   UNL     1     -11.280   9.900  67.286  1.00  0.00    -0.125 OA 
HETATM   19  F   UNL     1      -9.986   5.626  70.277  1.00  0.00    -0.205 F  
BRANCH  14  20
HETATM   20  O   UNL     1     -10.799   7.090  67.794  1.00  0.00    -0.228 OA 
BRANCH  20  21
HETATM   21  C   UNL     1      -9.840   6.528  66.972  1.00  0.00    -0.157 A  
HETATM   22  C   UNL     1     -10.311   5.468  66.173  1.00  0.00    -0.145 A  
HETATM   23  C   UNL     1      -9.475   4.825  65.245  1.00  0.00    -0.141 A  
HETATM   24  C   UNL     1      -8.150   5.245  65.111  1.00  0.00    -0.122 A  
HETATM   25  C   UNL     1      -9.979   3.742  64.439  1.00  0.00    -0.197 C  
HETATM   26  C   UNL     1      -7.669   6.268  65.929  1.00  0.00    -0.093 A  
HETATM   27  N   UNL     1     -10.382   2.861  63.801  1.00  0.00    -0.184 NA 
HETATM   28 CL   UNL     1      -6.032   6.785  65.769  1.00  0.00    -0.034 Cl 
HETATM   29  C   UNL     1      -8.498   6.891  66.874  1.00  0.00    -0.115 A  
ENDBRANCH  20  21
ENDBRANCH  14  20
ENDBRANCH   8   9
ENDBRANCH   7   8
TORSDOF 4
ENDMDL
MODEL      226
REMARK 921   NORMALIZED FREE ENERGY PREDICTED BY IDOCK:   -4.36 KCAL/MOL
REMARK 922        TOTAL FREE ENERGY PREDICTED BY IDOCK:   -6.21 KCAL/MOL
REMARK 923 INTER-LIGAND FREE ENERGY PREDICTED BY IDOCK:   -5.05 KCAL/MOL
REMARK 924 INTRA-LIGAND FREE ENERGY PREDICTED BY IDOCK:   -1.16 KCAL/MOL
REMARK 927      BINDING AFFINITY PREDICTED BY RF-SCORE:    0.00 PKD
ROOT
HETATM    1  C   UNL     1     -11.708  14.739  67.981  1.00  0.00    -0.333 C  
HETATM    2  N   UNL     1     -12.004  13.910  69.125  1.00  0.00    -0.348 N  
HETATM    3  C   UNL     1     -12.555  14.409  70.281  1.00  0.00    -0.323 C  
HETATM    4  O   UNL     1     -12.916  15.549  70.520  1.00  0.00    -0.427 OA 
HETATM    5  N   UNL     1     -12.627  13.330  71.148  1.00  0.00    -0.361 NA 
HETATM    6  N   UNL     1     -12.175  12.198  70.540  1.00  0.00    -0.349 NA 
HETATM    7  C   UNL     1     -11.828  12.591  69.343  1.00  0.00    -0.308 C  
ENDROOT
BRANCH   7   8
HETATM    8  C   UNL     1     -11.396  11.578  68.298  1.00  0.00    -0.286 C  
BRANCH   8   9
HETATM    9  N   UNL     1     -10.022  11.091  68.223  1.00  0.00    -0.173 N  
HETATM   10  C   UNL     1      -8.950  11.966  68.161  1.00  0.00    -0.185 C  
HETATM   11  C   UNL     1      -7.700  11.524  68.377  1.00  0.00    -0.129 C  
HETATM   12  C   UNL     1      -7.436  10.094  68.517  1.00  0.00    -0.086 C  
HETATM   13  C   UNL     1      -6.031   9.622  68.737  1.00  0.00    -0.042 C  
HETATM   14  C   UNL     1      -8.459   9.217  68.478  1.00  0.00    -0.123 C  
HETATM   15  C   UNL     1      -9.810   9.807  68.735  1.00  0.00    -0.169 C  
HETATM   16  F   UNL     1      -5.159  10.646  68.935  1.00  0.00    -0.042 F  
HETATM   17  F   UNL     1      -5.940   8.835  69.843  1.00  0.00    -0.031 F  
HETATM   18  O   UNL     1     -10.655   9.176  69.362  1.00  0.00    -0.222 OA 
HETATM   19  F   UNL     1      -5.554   8.899  67.694  1.00  0.00    -0.037 F  
BRANCH  14  20
HETATM   20  O   UNL     1      -8.253   7.843  68.449  1.00  0.00    -0.121 OA 
BRANCH  20  21
HETATM   21  C   UNL     1      -8.213   7.112  67.276  1.00  0.00    -0.119 A  
HETATM   22  C   UNL     1      -8.277   5.718  67.460  1.00  0.00    -0.101 A  
HETATM   23  C   UNL     1      -8.301   4.837  66.366  1.00  0.00    -0.107 A  
HETATM   24  C   UNL     1      -8.260   5.354  65.069  1.00  0.00    -0.137 A  
HETATM   25  C   UNL     1      -8.367   3.412  66.579  1.00  0.00    -0.102 C  
HETATM   26  C   UNL     1      -8.155   6.733  64.884  1.00  0.00    -0.112 A  
HETATM   27  N   UNL     1      -8.405   2.266  66.751  1.00  0.00    -0.086 NA 
HETATM   28 CL   UNL     1      -8.100   7.374  63.284  1.00  0.00    -0.074 Cl 
HETATM   29  C   UNL     1      -8.105   7.610  65.978  1.00  0.00    -0.118 A  
ENDBRANCH  20  21
ENDBRANCH  14  20
ENDBRANCH   8   9
ENDBRANCH   7   8
TORSDOF 4
ENDMDL
MODEL      227
REMARK 921   NORMALIZED FREE ENERGY PREDICTED BY IDOCK:   -4.35 KCAL/MOL
REMARK 922        TOTAL FREE ENERGY PREDICTED BY IDOCK:   -6.21 KCAL/MOL
REMARK 923 INTER-LIGAND FREE ENERGY PREDICTED BY IDOCK:   -5.18 KCAL/MOL
REMARK 924 INTRA-LIGAND FREE ENERGY PREDICTED BY IDOCK:   -1.02 KCAL/MOL
REMARK 927      BINDING AFFINITY PREDICTED BY RF-SCORE:    0.00 PKD
ROOT
HETATM    1  C   UNL     1     -11.664  13.090  67.058  1.00  0.00    -0.383 C  
HETATM    2  N   UNL     1     -11.076  11.894  66.502  1.00  0.00    -0.293 N  
HETATM    3  C   UNL     1     -10.793  11.760  65.163  1.00  0.00    -0.297 C  
HETATM    4  O   UNL     1     -10.928  12.581  64.272  1.00  0.00    -0.313 OA 
HETATM    5  N   UNL     1     -10.305  10.471  65.020  1.00  0.00    -0.295 NA 
HETATM    6  N   UNL     1     -10.251   9.843  66.228  1.00  0.00    -0.235 NA 
HETATM    7  C   UNL     1     -10.708  10.730  67.072  1.00  0.00    -0.265 C  
ENDROOT
BRANCH   7   8
HETATM    8  C   UNL     1     -10.676  10.455  68.565  1.00  0.00    -0.221 C  
BRANCH   8   9
HETATM    9  N   UNL     1      -9.609   9.670  69.178  1.00  0.00    -0.166 N  
HETATM   10  C   UNL     1      -8.407  10.252  69.547  1.00  0.00    -0.151 C  
HETATM   11  C   UNL     1      -7.556   9.597  70.354  1.00  0.00    -0.176 C  
HETATM   12  C   UNL     1      -7.807   8.205  70.720  1.00  0.00    -0.089 C  
HETATM   13  C   UNL     1      -6.834   7.489  71.605  1.00  0.00    -0.053 C  
HETATM   14  C   UNL     1      -8.924   7.590  70.284  1.00  0.00    -0.147 C  
HETATM   15  C   UNL     1     -10.019   8.506  69.834  1.00  0.00    -0.189 C  
HETATM   16  F   UNL     1      -5.870   8.311  72.099  1.00  0.00    -0.038 F  
HETATM   17  F   UNL     1      -7.454   6.948  72.688  1.00  0.00    -0.086 F  
HETATM   18  O   UNL     1     -11.194   8.223  70.049  1.00  0.00    -0.203 OA 
HETATM   19  F   UNL     1      -6.195   6.477  70.967  1.00  0.00    -0.035 F  
BRANCH  14  20
HETATM   20  O   UNL     1      -9.137   6.228  70.469  1.00  0.00    -0.152 OA 
BRANCH  20  21
HETATM   21  C   UNL     1      -9.161   5.322  69.426  1.00  0.00    -0.104 A  
HETATM   22  C   UNL     1      -8.839   5.874  68.171  1.00  0.00    -0.110 A  
HETATM   23  C   UNL     1      -8.767   5.076  67.018  1.00  0.00    -0.103 A  
HETATM   24  C   UNL     1      -9.019   3.705  67.116  1.00  0.00    -0.162 A  
HETATM   25  C   UNL     1      -8.436   5.664  65.744  1.00  0.00    -0.140 C  
HETATM   26  C   UNL     1      -9.377   3.161  68.350  1.00  0.00    -0.184 A  
HETATM   27  N   UNL     1      -8.185   6.140  64.717  1.00  0.00    -0.134 NA 
HETATM   28 CL   UNL     1      -9.692   1.471  68.475  1.00  0.00    -0.199 Cl 
HETATM   29  C   UNL     1      -9.474   3.965  69.497  1.00  0.00    -0.259 A  
ENDBRANCH  20  21
ENDBRANCH  14  20
ENDBRANCH   8   9
ENDBRANCH   7   8
TORSDOF 4
ENDMDL
MODEL      228
REMARK 921   NORMALIZED FREE ENERGY PREDICTED BY IDOCK:   -4.35 KCAL/MOL
REMARK 922        TOTAL FREE ENERGY PREDICTED BY IDOCK:   -6.20 KCAL/MOL
REMARK 923 INTER-LIGAND FREE ENERGY PREDICTED BY IDOCK:   -5.30 KCAL/MOL
REMARK 924 INTRA-LIGAND FREE ENERGY PREDICTED BY IDOCK:   -0.90 KCAL/MOL
REMARK 927      BINDING AFFINITY PREDICTED BY RF-SCORE:    0.00 PKD
ROOT
HETATM    1  C   UNL     1     -11.973  13.484  66.970  1.00  0.00    -0.394 C  
HETATM    2  N   UNL     1     -11.184  12.538  66.217  1.00  0.00    -0.299 N  
HETATM    3  C   UNL     1     -10.556  12.867  65.038  1.00  0.00    -0.315 C  
HETATM    4  O   UNL     1     -10.511  13.949  64.478  1.00  0.00    -0.431 OA 
HETATM    5  N   UNL     1      -9.963  11.694  64.600  1.00  0.00    -0.250 NA 
HETATM    6  N   UNL     1     -10.181  10.686  65.490  1.00  0.00    -0.271 NA 
HETATM    7  C   UNL     1     -10.898  11.238  66.432  1.00  0.00    -0.251 C  
ENDROOT
BRANCH   7   8
HETATM    8  C   UNL     1     -11.235  10.464  67.694  1.00  0.00    -0.213 C  
BRANCH   8   9
HETATM    9  N   UNL     1     -10.227   9.684  68.407  1.00  0.00    -0.180 N  
HETATM   10  C   UNL     1      -9.742  10.089  69.640  1.00  0.00    -0.229 C  
HETATM   11  C   UNL     1      -9.040   9.236  70.405  1.00  0.00    -0.288 C  
HETATM   12  C   UNL     1      -8.639   7.932  69.883  1.00  0.00    -0.139 C  
HETATM   13  C   UNL     1      -7.840   7.006  70.748  1.00  0.00    -0.096 C  
HETATM   14  C   UNL     1      -9.017   7.563  68.643  1.00  0.00    -0.132 C  
HETATM   15  C   UNL     1     -10.174   8.326  68.078  1.00  0.00    -0.214 C  
HETATM   16  F   UNL     1      -7.709   7.461  72.023  1.00  0.00    -0.084 F  
HETATM   17  F   UNL     1      -8.431   5.785  70.846  1.00  0.00    -0.117 F  
HETATM   18  O   UNL     1     -11.009   7.762  67.378  1.00  0.00    -0.189 OA 
HETATM   19  F   UNL     1      -6.586   6.804  70.275  1.00  0.00    -0.039 F  
BRANCH  14  20
HETATM   20  O   UNL     1      -8.537   6.407  68.039  1.00  0.00    -0.118 OA 
BRANCH  20  21
HETATM   21  C   UNL     1      -8.282   6.316  66.683  1.00  0.00    -0.111 A  
HETATM   22  C   UNL     1      -8.835   5.179  66.064  1.00  0.00    -0.137 A  
HETATM   23  C   UNL     1      -8.713   4.966  64.681  1.00  0.00    -0.152 A  
HETATM   24  C   UNL     1      -8.028   5.902  63.902  1.00  0.00    -0.119 A  
HETATM   25  C   UNL     1      -9.287   3.794  64.070  1.00  0.00    -0.144 C  
HETATM   26  C   UNL     1      -7.444   7.010  64.518  1.00  0.00    -0.099 A  
HETATM   27  N   UNL     1      -9.737   2.843  63.582  1.00  0.00    -0.122 NA 
HETATM   28 CL   UNL     1      -6.594   8.165  63.561  1.00  0.00    -0.075 Cl 
HETATM   29  C   UNL     1      -7.545   7.207  65.904  1.00  0.00    -0.093 A  
ENDBRANCH  20  21
ENDBRANCH  14  20
ENDBRANCH   8   9
ENDBRANCH   7   8
TORSDOF 4
ENDMDL
MODEL      229
REMARK 921   NORMALIZED FREE ENERGY PREDICTED BY IDOCK:   -4.34 KCAL/MOL
REMARK 922        TOTAL FREE ENERGY PREDICTED BY IDOCK:   -6.19 KCAL/MOL
REMARK 923 INTER-LIGAND FREE ENERGY PREDICTED BY IDOCK:   -5.27 KCAL/MOL
REMARK 924 INTRA-LIGAND FREE ENERGY PREDICTED BY IDOCK:   -0.92 KCAL/MOL
REMARK 927      BINDING AFFINITY PREDICTED BY RF-SCORE:    0.00 PKD
ROOT
HETATM    1  C   UNL     1     -10.143  11.112  63.605  1.00  0.00    -0.379 C  
HETATM    2  N   UNL     1      -9.177  11.087  64.678  1.00  0.00    -0.195 N  
HETATM    3  C   UNL     1      -7.957  10.463  64.564  1.00  0.00    -0.093 C  
HETATM    4  O   UNL     1      -7.479   9.900  63.593  1.00  0.00    -0.127 OA 
HETATM    5  N   UNL     1      -7.356  10.606  65.804  1.00  0.00    -0.138 NA 
HETATM    6  N   UNL     1      -8.154  11.324  66.643  1.00  0.00    -0.158 NA 
HETATM    7  C   UNL     1      -9.214  11.593  65.926  1.00  0.00    -0.196 C  
ENDROOT
BRANCH   7   8
HETATM    8  C   UNL     1     -10.295  12.511  66.471  1.00  0.00    -0.237 C  
BRANCH   8   9
HETATM    9  N   UNL     1     -10.809  12.368  67.829  1.00  0.00    -0.218 N  
HETATM   10  C   UNL     1     -11.176  13.473  68.580  1.00  0.00    -0.278 C  
HETATM   11  C   UNL     1     -11.902  13.320  69.700  1.00  0.00    -0.391 C  
HETATM   12  C   UNL     1     -12.173  11.986  70.230  1.00  0.00    -0.348 C  
HETATM   13  C   UNL     1     -12.967  11.841  71.491  1.00  0.00    -0.341 C  
HETATM   14  C   UNL     1     -11.733  10.900  69.564  1.00  0.00    -0.328 C  
HETATM   15  C   UNL     1     -11.392  11.132  68.125  1.00  0.00    -0.309 C  
HETATM   16  F   UNL     1     -13.485  13.022  71.924  1.00  0.00    -0.474 F  
HETATM   17  F   UNL     1     -14.029  11.009  71.316  1.00  0.00     0.209 F  
HETATM   18  O   UNL     1     -11.627  10.271  67.283  1.00  0.00    -0.142 OA 
HETATM   19  F   UNL     1     -12.234  11.339  72.515  1.00  0.00     0.630 F  
BRANCH  14  20
HETATM   20  O   UNL     1     -11.825   9.619  70.098  1.00  0.00    -0.169 OA 
BRANCH  20  21
HETATM   21  C   UNL     1     -10.735   8.936  70.606  1.00  0.00    -0.234 A  
HETATM   22  C   UNL     1      -9.692   8.740  69.680  1.00  0.00    -0.173 A  
HETATM   23  C   UNL     1      -8.493   8.110  70.053  1.00  0.00    -0.128 A  
HETATM   24  C   UNL     1      -8.331   7.669  71.369  1.00  0.00    -0.111 A  
HETATM   25  C   UNL     1      -7.439   7.920  69.088  1.00  0.00    -0.093 C  
HETATM   26  C   UNL     1      -9.379   7.826  72.278  1.00  0.00    -0.158 A  
HETATM   27  N   UNL     1      -6.598   7.754  68.308  1.00  0.00    -0.056 NA 
HETATM   28 CL   UNL     1      -9.184   7.278  73.901  1.00  0.00    -0.268 Cl 
HETATM   29  C   UNL     1     -10.586   8.431  71.897  1.00  0.00    -0.370 A  
ENDBRANCH  20  21
ENDBRANCH  14  20
ENDBRANCH   8   9
ENDBRANCH   7   8
TORSDOF 4
ENDMDL
MODEL      230
REMARK 921   NORMALIZED FREE ENERGY PREDICTED BY IDOCK:   -4.34 KCAL/MOL
REMARK 922        TOTAL FREE ENERGY PREDICTED BY IDOCK:   -6.19 KCAL/MOL
REMARK 923 INTER-LIGAND FREE ENERGY PREDICTED BY IDOCK:   -5.57 KCAL/MOL
REMARK 924 INTRA-LIGAND FREE ENERGY PREDICTED BY IDOCK:   -0.62 KCAL/MOL
REMARK 927      BINDING AFFINITY PREDICTED BY RF-SCORE:    0.00 PKD
ROOT
HETATM    1  C   UNL     1      -5.133  15.437  70.307  1.00  0.00    -0.118 C  
HETATM    2  N   UNL     1      -5.702  15.573  68.988  1.00  0.00    -0.102 N  
HETATM    3  C   UNL     1      -5.803  16.784  68.344  1.00  0.00    -0.125 C  
HETATM    4  O   UNL     1      -5.414  17.877  68.717  1.00  0.00    -0.165 OA 
HETATM    5  N   UNL     1      -6.449  16.511  67.149  1.00  0.00    -0.180 NA 
HETATM    6  N   UNL     1      -6.704  15.177  67.038  1.00  0.00    -0.156 NA 
HETATM    7  C   UNL     1      -6.235  14.666  68.145  1.00  0.00    -0.141 C  
ENDROOT
BRANCH   7   8
HETATM    8  C   UNL     1      -6.205  13.160  68.343  1.00  0.00    -0.083 C  
BRANCH   8   9
HETATM    9  N   UNL     1      -7.034  12.265  67.541  1.00  0.00    -0.128 N  
HETATM   10  C   UNL     1      -6.510  11.572  66.462  1.00  0.00    -0.037 C  
HETATM   11  C   UNL     1      -7.193  10.553  65.915  1.00  0.00    -0.135 C  
HETATM   12  C   UNL     1      -8.560  10.267  66.339  1.00  0.00    -0.138 C  
HETATM   13  C   UNL     1      -9.310   9.137  65.701  1.00  0.00    -0.235 C  
HETATM   14  C   UNL     1      -9.124  11.000  67.321  1.00  0.00    -0.138 C  
HETATM   15  C   UNL     1      -8.160  11.747  68.188  1.00  0.00    -0.150 C  
HETATM   16  F   UNL     1      -8.531   8.394  64.871  1.00  0.00    -0.154 F  
HETATM   17  F   UNL     1      -9.793   8.273  66.634  1.00  0.00    -0.243 F  
HETATM   18  O   UNL     1      -8.374  11.875  69.389  1.00  0.00     0.436 OA 
HETATM   19  F   UNL     1     -10.367   9.562  64.967  1.00  0.00    -0.168 F  
BRANCH  14  20
HETATM   20  O   UNL     1     -10.468  10.876  67.656  1.00  0.00    -0.188 OA 
BRANCH  20  21
HETATM   21  C   UNL     1     -10.897  10.404  68.882  1.00  0.00    -0.236 A  
HETATM   22  C   UNL     1     -11.654  11.330  69.625  1.00  0.00    -0.401 A  
HETATM   23  C   UNL     1     -12.210  10.988  70.870  1.00  0.00    -0.471 A  
HETATM   24  C   UNL     1     -12.007   9.703  71.381  1.00  0.00    -0.480 A  
HETATM   25  C   UNL     1     -12.981  11.952  71.613  1.00  0.00    -0.342 C  
HETATM   26  C   UNL     1     -11.224   8.797  70.665  1.00  0.00    -0.257 A  
HETATM   27  N   UNL     1     -13.590  12.733  72.217  1.00  0.00    -0.542 NA 
HETATM   28 CL   UNL     1     -10.968   7.212  71.295  1.00  0.00    -0.258 Cl 
HETATM   29  C   UNL     1     -10.648   9.149  69.435  1.00  0.00    -0.232 A  
ENDBRANCH  20  21
ENDBRANCH  14  20
ENDBRANCH   8   9
ENDBRANCH   7   8
TORSDOF 4
ENDMDL
MODEL      231
REMARK 921   NORMALIZED FREE ENERGY PREDICTED BY IDOCK:   -4.32 KCAL/MOL
REMARK 922        TOTAL FREE ENERGY PREDICTED BY IDOCK:   -6.16 KCAL/MOL
REMARK 923 INTER-LIGAND FREE ENERGY PREDICTED BY IDOCK:   -6.13 KCAL/MOL
REMARK 924 INTRA-LIGAND FREE ENERGY PREDICTED BY IDOCK:   -0.03 KCAL/MOL
REMARK 927      BINDING AFFINITY PREDICTED BY RF-SCORE:    0.00 PKD
ROOT
HETATM    1  C   UNL     1     -11.048  11.335  64.246  1.00  0.00    -0.222 C  
HETATM    2  N   UNL     1     -11.743  12.358  64.992  1.00  0.00    -0.359 N  
HETATM    3  C   UNL     1     -12.477  13.350  64.385  1.00  0.00    -0.277 C  
HETATM    4  O   UNL     1     -12.701  13.510  63.197  1.00  0.00    -0.718 OA 
HETATM    5  N   UNL     1     -12.928  14.155  65.418  1.00  0.00    -0.709 NA 
HETATM    6  N   UNL     1     -12.525  13.660  66.621  1.00  0.00    -0.318 NA 
HETATM    7  C   UNL     1     -11.836  12.593  66.316  1.00  0.00    -0.410 C  
ENDROOT
BRANCH   7   8
HETATM    8  C   UNL     1     -11.325  11.671  67.409  1.00  0.00    -0.300 C  
BRANCH   8   9
HETATM    9  N   UNL     1      -9.947  11.190  67.425  1.00  0.00    -0.177 N  
HETATM   10  C   UNL     1      -8.877  12.070  67.399  1.00  0.00    -0.178 C  
HETATM   11  C   UNL     1      -7.639  11.640  67.696  1.00  0.00    -0.128 C  
HETATM   12  C   UNL     1      -7.377  10.217  67.889  1.00  0.00    -0.087 C  
HETATM   13  C   UNL     1      -5.985   9.759  68.201  1.00  0.00    -0.046 C  
HETATM   14  C   UNL     1      -8.393   9.333  67.817  1.00  0.00    -0.116 C  
HETATM   15  C   UNL     1      -9.759   9.921  67.982  1.00  0.00    -0.140 C  
HETATM   16  F   UNL     1      -5.129  10.793  68.419  1.00  0.00    -0.036 F  
HETATM   17  F   UNL     1      -5.952   9.002  69.331  1.00  0.00    -0.036 F  
HETATM   18  O   UNL     1     -10.635   9.303  68.578  1.00  0.00    -0.213 OA 
HETATM   19  F   UNL     1      -5.447   9.011  67.206  1.00  0.00    -0.038 F  
BRANCH  14  20
HETATM   20  O   UNL     1      -8.179   7.959  67.837  1.00  0.00    -0.126 OA 
BRANCH  20  21
HETATM   21  C   UNL     1      -8.456   7.170  68.938  1.00  0.00    -0.126 A  
HETATM   22  C   UNL     1      -8.320   7.832  70.173  1.00  0.00    -0.128 A  
HETATM   23  C   UNL     1      -8.616   7.187  71.385  1.00  0.00    -0.116 A  
HETATM   24  C   UNL     1      -9.055   5.860  71.365  1.00  0.00    -0.148 A  
HETATM   25  C   UNL     1      -8.470   7.884  72.638  1.00  0.00    -0.150 C  
HETATM   26  C   UNL     1      -9.152   5.189  70.145  1.00  0.00    -0.128 A  
HETATM   27  N   UNL     1      -8.338   8.442  73.645  1.00  0.00    -0.365 NA 
HETATM   28 CL   UNL     1      -9.689   3.550  70.117  1.00  0.00    -0.221 Cl 
HETATM   29  C   UNL     1      -8.830   5.827  68.938  1.00  0.00    -0.110 A  
ENDBRANCH  20  21
ENDBRANCH  14  20
ENDBRANCH   8   9
ENDBRANCH   7   8
TORSDOF 4
ENDMDL
MODEL      232
REMARK 921   NORMALIZED FREE ENERGY PREDICTED BY IDOCK:   -4.31 KCAL/MOL
REMARK 922        TOTAL FREE ENERGY PREDICTED BY IDOCK:   -6.15 KCAL/MOL
REMARK 923 INTER-LIGAND FREE ENERGY PREDICTED BY IDOCK:   -6.09 KCAL/MOL
REMARK 924 INTRA-LIGAND FREE ENERGY PREDICTED BY IDOCK:   -0.06 KCAL/MOL
REMARK 927      BINDING AFFINITY PREDICTED BY RF-SCORE:    0.00 PKD
ROOT
HETATM    1  C   UNL     1      -6.982  19.314  68.873  1.00  0.00    -0.338 C  
HETATM    2  N   UNL     1      -6.419  18.733  67.678  1.00  0.00    -0.204 N  
HETATM    3  C   UNL     1      -5.698  19.466  66.765  1.00  0.00    -0.169 C  
HETATM    4  O   UNL     1      -5.382  20.643  66.815  1.00  0.00    -0.166 OA 
HETATM    5  N   UNL     1      -5.388  18.580  65.746  1.00  0.00    -0.148 NA 
HETATM    6  N   UNL     1      -5.863  17.336  66.034  1.00  0.00    -0.242 NA 
HETATM    7  C   UNL     1      -6.456  17.477  67.190  1.00  0.00    -0.161 C  
ENDROOT
BRANCH   7   8
HETATM    8  C   UNL     1      -7.002  16.266  67.926  1.00  0.00    -0.138 C  
BRANCH   8   9
HETATM    9  N   UNL     1      -8.326  15.726  67.636  1.00  0.00    -0.153 N  
HETATM   10  C   UNL     1      -9.275  16.471  66.954  1.00  0.00    -0.226 C  
HETATM   11  C   UNL     1     -10.369  15.877  66.450  1.00  0.00    -0.313 C  
HETATM   12  C   UNL     1     -10.656  14.477  66.752  1.00  0.00    -0.276 C  
HETATM   13  C   UNL     1     -11.893  13.841  66.195  1.00  0.00    -0.398 C  
HETATM   14  C   UNL     1      -9.792  13.763  67.501  1.00  0.00    -0.230 C  
HETATM   15  C   UNL     1      -8.410  14.330  67.590  1.00  0.00    -0.181 C  
HETATM   16  F   UNL     1     -12.547  14.646  65.316  1.00  0.00    -0.365 F  
HETATM   17  F   UNL     1     -11.601  12.701  65.512  1.00  0.00    -0.339 F  
HETATM   18  O   UNL     1      -7.433  13.588  67.616  1.00  0.00    -0.151 OA 
HETATM   19  F   UNL     1     -12.787  13.508  67.158  1.00  0.00    -0.113 F  
BRANCH  14  20
HETATM   20  O   UNL     1     -10.088  12.480  67.949  1.00  0.00    -0.202 OA 
BRANCH  20  21
HETATM   21  C   UNL     1      -9.531  11.343  67.394  1.00  0.00    -0.167 A  
HETATM   22  C   UNL     1      -9.534  11.324  65.986  1.00  0.00    -0.240 A  
HETATM   23  C   UNL     1      -8.958  10.264  65.268  1.00  0.00    -0.214 A  
HETATM   24  C   UNL     1      -8.369   9.205  65.964  1.00  0.00    -0.125 A  
HETATM   25  C   UNL     1      -8.972  10.266  63.826  1.00  0.00    -0.239 C  
HETATM   26  C   UNL     1      -8.400   9.201  67.359  1.00  0.00    -0.115 A  
HETATM   27  N   UNL     1      -8.998  10.263  62.667  1.00  0.00    -0.230 NA 
HETATM   28 CL   UNL     1      -7.678   7.893  68.221  1.00  0.00    -0.119 Cl 
HETATM   29  C   UNL     1      -9.000  10.248  68.074  1.00  0.00    -0.132 A  
ENDBRANCH  20  21
ENDBRANCH  14  20
ENDBRANCH   8   9
ENDBRANCH   7   8
TORSDOF 4
ENDMDL
MODEL      233
REMARK 921   NORMALIZED FREE ENERGY PREDICTED BY IDOCK:   -4.29 KCAL/MOL
REMARK 922        TOTAL FREE ENERGY PREDICTED BY IDOCK:   -6.13 KCAL/MOL
REMARK 923 INTER-LIGAND FREE ENERGY PREDICTED BY IDOCK:   -5.70 KCAL/MOL
REMARK 924 INTRA-LIGAND FREE ENERGY PREDICTED BY IDOCK:   -0.43 KCAL/MOL
REMARK 927      BINDING AFFINITY PREDICTED BY RF-SCORE:    0.00 PKD
ROOT
HETATM    1  C   UNL     1      -9.549  12.658  66.475  1.00  0.00    -0.248 C  
HETATM    2  N   UNL     1     -10.375  11.752  67.238  1.00  0.00    -0.203 N  
HETATM    3  C   UNL     1     -11.512  12.159  67.894  1.00  0.00    -0.328 C  
HETATM    4  O   UNL     1     -12.025  13.265  67.912  1.00  0.00    -0.345 OA 
HETATM    5  N   UNL     1     -11.980  11.031  68.549  1.00  0.00    -0.563 NA 
HETATM    6  N   UNL     1     -11.186   9.957  68.278  1.00  0.00    -0.145 NA 
HETATM    7  C   UNL     1     -10.258  10.434  67.491  1.00  0.00    -0.210 C  
ENDROOT
BRANCH   7   8
HETATM    8  C   UNL     1      -9.244   9.503  66.849  1.00  0.00    -0.143 C  
BRANCH   8   9
HETATM    9  N   UNL     1      -9.344   8.053  66.981  1.00  0.00    -0.147 N  
HETATM   10  C   UNL     1      -9.298   7.223  65.873  1.00  0.00     0.119 C  
HETATM   11  C   UNL     1      -9.106   5.902  66.023  1.00  0.00    -0.154 C  
HETATM   12  C   UNL     1      -9.109   5.300  67.353  1.00  0.00    -0.112 C  
HETATM   13  C   UNL     1      -8.914   3.821  67.494  1.00  0.00    -0.135 C  
HETATM   14  C   UNL     1      -9.256   6.083  68.441  1.00  0.00    -0.114 C  
HETATM   15  C   UNL     1      -8.964   7.534  68.223  1.00  0.00    -0.130 C  
HETATM   16  F   UNL     1      -8.597   3.219  66.317  1.00  0.00    -0.104 F  
HETATM   17  F   UNL     1      -7.894   3.535  68.348  1.00  0.00    -0.062 F  
HETATM   18  O   UNL     1      -8.419   8.197  69.100  1.00  0.00    -0.132 OA 
HETATM   19  F   UNL     1     -10.017   3.193  67.970  1.00  0.00    -0.172 F  
BRANCH  14  20
HETATM   20  O   UNL     1      -9.423   5.552  69.715  1.00  0.00    -0.139 OA 
BRANCH  20  21
HETATM   21  C   UNL     1      -9.918   6.285  70.778  1.00  0.00    -0.187 A  
HETATM   22  C   UNL     1     -11.212   6.799  70.573  1.00  0.00    -0.370 A  
HETATM   23  C   UNL     1     -11.879   7.522  71.576  1.00  0.00    -0.324 A  
HETATM   24  C   UNL     1     -11.246   7.735  72.803  1.00  0.00    -0.456 A  
HETATM   25  C   UNL     1     -13.205   8.039  71.343  1.00  0.00    -0.227 C  
HETATM   26  C   UNL     1      -9.947   7.262  72.995  1.00  0.00    -0.227 A  
HETATM   27  N   UNL     1     -14.265   8.467  71.150  1.00  0.00    -0.195 NA 
HETATM   28 CL   UNL     1      -9.161   7.527  74.506  1.00  0.00    -0.100 Cl 
HETATM   29  C   UNL     1      -9.273   6.563  71.982  1.00  0.00    -0.147 A  
ENDBRANCH  20  21
ENDBRANCH  14  20
ENDBRANCH   8   9
ENDBRANCH   7   8
TORSDOF 4
ENDMDL
MODEL      234
REMARK 921   NORMALIZED FREE ENERGY PREDICTED BY IDOCK:   -4.28 KCAL/MOL
REMARK 922        TOTAL FREE ENERGY PREDICTED BY IDOCK:   -6.12 KCAL/MOL
REMARK 923 INTER-LIGAND FREE ENERGY PREDICTED BY IDOCK:   -6.21 KCAL/MOL
REMARK 924 INTRA-LIGAND FREE ENERGY PREDICTED BY IDOCK:    0.09 KCAL/MOL
REMARK 927      BINDING AFFINITY PREDICTED BY RF-SCORE:    0.00 PKD
ROOT
HETATM    1  C   UNL     1      -8.469  17.293  69.016  1.00  0.00    -0.080 C  
HETATM    2  N   UNL     1      -8.082  18.387  68.158  1.00  0.00    -0.281 N  
HETATM    3  C   UNL     1      -7.674  19.606  68.647  1.00  0.00    -0.328 C  
HETATM    4  O   UNL     1      -7.526  19.947  69.808  1.00  0.00    -0.105 OA 
HETATM    5  N   UNL     1      -7.453  20.394  67.529  1.00  0.00    -0.311 NA 
HETATM    6  N   UNL     1      -7.676  19.681  66.389  1.00  0.00    -0.282 NA 
HETATM    7  C   UNL     1      -8.036  18.499  66.815  1.00  0.00    -0.254 C  
ENDROOT
BRANCH   7   8
HETATM    8  C   UNL     1      -8.242  17.359  65.832  1.00  0.00     0.006 C  
BRANCH   8   9
HETATM    9  N   UNL     1      -9.189  16.281  66.096  1.00  0.00    -0.322 N  
HETATM   10  C   UNL     1     -10.383  16.183  65.400  1.00  0.00    -0.330 C  
HETATM   11  C   UNL     1     -11.104  15.051  65.446  1.00  0.00    -0.377 C  
HETATM   12  C   UNL     1     -10.728  13.971  66.355  1.00  0.00    -0.278 C  
HETATM   13  C   UNL     1     -11.558  12.725  66.403  1.00  0.00    -0.378 C  
HETATM   14  C   UNL     1      -9.622  14.092  67.117  1.00  0.00    -0.245 C  
HETATM   15  C   UNL     1      -8.640  15.120  66.651  1.00  0.00    -0.243 C  
HETATM   16  F   UNL     1     -12.519  12.697  65.442  1.00  0.00    -0.497 F  
HETATM   17  F   UNL     1     -10.799  11.614  66.204  1.00  0.00    -0.290 F  
HETATM   18  O   UNL     1      -7.434  14.923  66.760  1.00  0.00     0.032 OA 
HETATM   19  F   UNL     1     -12.191  12.565  67.592  1.00  0.00    -0.389 F  
BRANCH  14  20
HETATM   20  O   UNL     1      -9.304  13.170  68.107  1.00  0.00    -0.208 OA 
BRANCH  20  21
HETATM   21  C   UNL     1      -8.488  12.076  67.883  1.00  0.00    -0.160 A  
HETATM   22  C   UNL     1      -8.738  10.984  68.736  1.00  0.00    -0.146 A  
HETATM   23  C   UNL     1      -8.032   9.777  68.603  1.00  0.00    -0.089 A  
HETATM   24  C   UNL     1      -7.062   9.656  67.604  1.00  0.00    -0.088 A  
HETATM   25  C   UNL     1      -8.303   8.672  69.488  1.00  0.00    -0.117 C  
HETATM   26  C   UNL     1      -6.784  10.750  66.784  1.00  0.00    -0.110 A  
HETATM   27  N   UNL     1      -8.513   7.789  70.210  1.00  0.00    -0.131 NA 
HETATM   28 CL   UNL     1      -5.585  10.607  65.553  1.00  0.00    -0.125 Cl 
HETATM   29  C   UNL     1      -7.472  11.964  66.935  1.00  0.00    -0.079 A  
ENDBRANCH  20  21
ENDBRANCH  14  20
ENDBRANCH   8   9
ENDBRANCH   7   8
TORSDOF 4
ENDMDL
MODEL      235
REMARK 921   NORMALIZED FREE ENERGY PREDICTED BY IDOCK:   -4.26 KCAL/MOL
REMARK 922        TOTAL FREE ENERGY PREDICTED BY IDOCK:   -6.09 KCAL/MOL
REMARK 923 INTER-LIGAND FREE ENERGY PREDICTED BY IDOCK:   -5.90 KCAL/MOL
REMARK 924 INTRA-LIGAND FREE ENERGY PREDICTED BY IDOCK:   -0.19 KCAL/MOL
REMARK 927      BINDING AFFINITY PREDICTED BY RF-SCORE:    0.00 PKD
ROOT
HETATM    1  C   UNL     1     -11.117  16.215  70.173  1.00  0.00    -0.371 C  
HETATM    2  N   UNL     1     -11.768  15.094  70.809  1.00  0.00    -0.299 N  
HETATM    3  C   UNL     1     -12.188  15.125  72.118  1.00  0.00    -0.373 C  
HETATM    4  O   UNL     1     -12.138  16.050  72.910  1.00  0.00    -0.443 OA 
HETATM    5  N   UNL     1     -12.697  13.861  72.369  1.00  0.00    -0.243 NA 
HETATM    6  N   UNL     1     -12.632  13.088  71.248  1.00  0.00    -0.336 NA 
HETATM    7  C   UNL     1     -12.084  13.866  70.352  1.00  0.00    -0.351 C  
ENDROOT
BRANCH   7   8
HETATM    8  C   UNL     1     -11.965  13.409  68.909  1.00  0.00    -0.324 C  
BRANCH   8   9
HETATM    9  N   UNL     1     -10.679  13.041  68.325  1.00  0.00    -0.237 N  
HETATM   10  C   UNL     1      -9.775  14.005  67.908  1.00  0.00    -0.229 C  
HETATM   11  C   UNL     1      -8.503  13.670  67.641  1.00  0.00    -0.183 C  
HETATM   12  C   UNL     1      -8.094  12.268  67.626  1.00  0.00    -0.165 C  
HETATM   13  C   UNL     1      -6.673  11.917  67.306  1.00  0.00    -0.138 C  
HETATM   14  C   UNL     1      -8.990  11.307  67.931  1.00  0.00    -0.146 C  
HETATM   15  C   UNL     1     -10.196  11.778  68.680  1.00  0.00    -0.201 C  
HETATM   16  F   UNL     1      -5.872  13.011  67.209  1.00  0.00    -0.143 F  
HETATM   17  F   UNL     1      -6.125  11.136  68.275  1.00  0.00    -0.047 F  
HETATM   18  O   UNL     1     -10.702  11.075  69.549  1.00  0.00    -0.237 OA 
HETATM   19  F   UNL     1      -6.554  11.240  66.137  1.00  0.00    -0.125 F  
BRANCH  14  20
HETATM   20  O   UNL     1      -8.701   9.955  67.781  1.00  0.00    -0.128 OA 
BRANCH  20  21
HETATM   21  C   UNL     1      -8.761   9.053  68.827  1.00  0.00    -0.136 A  
HETATM   22  C   UNL     1      -7.606   9.021  69.632  1.00  0.00    -0.077 A  
HETATM   23  C   UNL     1      -7.528   8.196  70.766  1.00  0.00    -0.066 A  
HETATM   24  C   UNL     1      -8.618   7.391  71.104  1.00  0.00    -0.122 A  
HETATM   25  C   UNL     1      -6.334   8.180  71.575  1.00  0.00    -0.043 C  
HETATM   26  C   UNL     1      -9.749   7.390  70.287  1.00  0.00    -0.172 A  
HETATM   27  N   UNL     1      -5.369   8.157  72.216  1.00  0.00    -0.036 NA 
HETATM   28 CL   UNL     1     -11.095   6.394  70.699  1.00  0.00    -0.350 Cl 
HETATM   29  C   UNL     1      -9.815   8.195  69.139  1.00  0.00    -0.182 A  
ENDBRANCH  20  21
ENDBRANCH  14  20
ENDBRANCH   8   9
ENDBRANCH   7   8
TORSDOF 4
ENDMDL
MODEL      236
REMARK 921   NORMALIZED FREE ENERGY PREDICTED BY IDOCK:   -4.26 KCAL/MOL
REMARK 922        TOTAL FREE ENERGY PREDICTED BY IDOCK:   -6.09 KCAL/MOL
REMARK 923 INTER-LIGAND FREE ENERGY PREDICTED BY IDOCK:   -4.91 KCAL/MOL
REMARK 924 INTRA-LIGAND FREE ENERGY PREDICTED BY IDOCK:   -1.18 KCAL/MOL
REMARK 927      BINDING AFFINITY PREDICTED BY RF-SCORE:    0.00 PKD
ROOT
HETATM    1  C   UNL     1     -12.002  14.144  67.079  1.00  0.00    -0.439 C  
HETATM    2  N   UNL     1     -11.381  13.300  66.087  1.00  0.00    -0.301 N  
HETATM    3  C   UNL     1     -10.940  13.779  64.876  1.00  0.00    -0.375 C  
HETATM    4  O   UNL     1     -10.946  14.927  64.466  1.00  0.00    -0.322 OA 
HETATM    5  N   UNL     1     -10.470  12.670  64.192  1.00  0.00    -0.393 NA 
HETATM    6  N   UNL     1     -10.577  11.552  64.963  1.00  0.00    -0.287 NA 
HETATM    7  C   UNL     1     -11.112  11.979  66.076  1.00  0.00    -0.320 C  
ENDROOT
BRANCH   7   8
HETATM    8  C   UNL     1     -11.269  11.042  67.261  1.00  0.00    -0.258 C  
BRANCH   8   9
HETATM    9  N   UNL     1     -10.119  10.388  67.878  1.00  0.00    -0.166 N  
HETATM   10  C   UNL     1      -9.496  10.926  68.993  1.00  0.00    -0.146 C  
HETATM   11  C   UNL     1      -8.636  10.185  69.712  1.00  0.00    -0.148 C  
HETATM   12  C   UNL     1      -8.222   8.867  69.240  1.00  0.00    -0.114 C  
HETATM   13  C   UNL     1      -7.246   8.068  70.049  1.00  0.00    -0.061 C  
HETATM   14  C   UNL     1      -8.742   8.369  68.101  1.00  0.00    -0.143 C  
HETATM   15  C   UNL     1     -10.018   9.011  67.652  1.00  0.00    -0.201 C  
HETATM   16  F   UNL     1      -6.970   8.638  71.252  1.00  0.00    -0.053 F  
HETATM   17  F   UNL     1      -7.730   6.827  70.326  1.00  0.00    -0.091 F  
HETATM   18  O   UNL     1     -10.900   8.341  67.126  1.00  0.00    -0.244 OA 
HETATM   19  F   UNL     1      -6.059   7.899  69.416  1.00  0.00    -0.031 F  
BRANCH  14  20
HETATM   20  O   UNL     1      -8.271   7.195  67.525  1.00  0.00    -0.115 OA 
BRANCH  20  21
HETATM   21  C   UNL     1      -7.691   7.152  66.270  1.00  0.00    -0.100 A  
HETATM   22  C   UNL     1      -7.076   8.356  65.876  1.00  0.00    -0.072 A  
HETATM   23  C   UNL     1      -6.395   8.462  64.652  1.00  0.00    -0.065 A  
HETATM   24  C   UNL     1      -6.326   7.350  63.808  1.00  0.00    -0.049 A  
HETATM   25  C   UNL     1      -5.774   9.705  64.268  1.00  0.00    -0.082 C  
HETATM   26  C   UNL     1      -6.968   6.168  64.178  1.00  0.00    -0.051 A  
HETATM   27  N   UNL     1      -5.287  10.709  63.954  1.00  0.00    -0.154 NA 
HETATM   28 CL   UNL     1      -6.888   4.796  63.137  1.00  0.00    -0.037 Cl 
HETATM   29  C   UNL     1      -7.670   6.072  65.389  1.00  0.00    -0.091 A  
ENDBRANCH  20  21
ENDBRANCH  14  20
ENDBRANCH   8   9
ENDBRANCH   7   8
TORSDOF 4
ENDMDL
MODEL      237
REMARK 921   NORMALIZED FREE ENERGY PREDICTED BY IDOCK:   -4.25 KCAL/MOL
REMARK 922        TOTAL FREE ENERGY PREDICTED BY IDOCK:   -6.08 KCAL/MOL
REMARK 923 INTER-LIGAND FREE ENERGY PREDICTED BY IDOCK:   -6.29 KCAL/MOL
REMARK 924 INTRA-LIGAND FREE ENERGY PREDICTED BY IDOCK:    0.21 KCAL/MOL
REMARK 927      BINDING AFFINITY PREDICTED BY RF-SCORE:    0.00 PKD
ROOT
HETATM    1  C   UNL     1      -7.803  19.354  65.852  1.00  0.00    -0.215 C  
HETATM    2  N   UNL     1      -9.022  18.977  66.529  1.00  0.00    -0.322 N  
HETATM    3  C   UNL     1      -9.795  19.878  67.222  1.00  0.00    -0.403 C  
HETATM    4  O   UNL     1      -9.635  21.080  67.344  1.00  0.00    -0.395 OA 
HETATM    5  N   UNL     1     -10.825  19.131  67.770  1.00  0.00    -0.367 NA 
HETATM    6  N   UNL     1     -10.718  17.824  67.399  1.00  0.00    -0.328 NA 
HETATM    7  C   UNL     1      -9.642  17.787  66.659  1.00  0.00    -0.307 C  
ENDROOT
BRANCH   7   8
HETATM    8  C   UNL     1      -9.255  16.511  65.931  1.00  0.00    -0.174 C  
BRANCH   8   9
HETATM    9  N   UNL     1      -8.443  15.481  66.570  1.00  0.00    -0.278 N  
HETATM   10  C   UNL     1      -7.415  15.808  67.438  1.00  0.00    -0.194 C  
HETATM   11  C   UNL     1      -6.869  14.869  68.227  1.00  0.00    -0.121 C  
HETATM   12  C   UNL     1      -7.234  13.464  68.067  1.00  0.00    -0.123 C  
HETATM   13  C   UNL     1      -6.597  12.431  68.945  1.00  0.00    -0.095 C  
HETATM   14  C   UNL     1      -8.162  13.114  67.153  1.00  0.00    -0.120 C  
HETATM   15  C   UNL     1      -9.050  14.227  66.693  1.00  0.00    -0.226 C  
HETATM   16  F   UNL     1      -5.831  12.977  69.927  1.00  0.00    -0.093 F  
HETATM   17  F   UNL     1      -7.533  11.673  69.578  1.00  0.00    -0.055 F  
HETATM   18  O   UNL     1     -10.235  14.017  66.451  1.00  0.00    -0.277 OA 
HETATM   19  F   UNL     1      -5.798  11.580  68.255  1.00  0.00    -0.046 F  
BRANCH  14  20
HETATM   20  O   UNL     1      -8.434  11.785  66.849  1.00  0.00    -0.165 OA 
BRANCH  20  21
HETATM   21  C   UNL     1      -9.287  11.000  67.603  1.00  0.00    -0.157 A  
HETATM   22  C   UNL     1     -10.067  11.718  68.529  1.00  0.00    -0.212 A  
HETATM   23  C   UNL     1     -11.021  11.075  69.335  1.00  0.00    -0.301 A  
HETATM   24  C   UNL     1     -11.202   9.695  69.214  1.00  0.00    -0.083 A  
HETATM   25  C   UNL     1     -11.808  11.830  70.277  1.00  0.00    -0.295 C  
HETATM   26  C   UNL     1     -10.402   8.974  68.325  1.00  0.00    -0.209 A  
HETATM   27  N   UNL     1     -12.430  12.437  71.045  1.00  0.00    -0.332 NA 
HETATM   28 CL   UNL     1     -10.619   7.270  68.176  1.00  0.00    -0.242 Cl 
HETATM   29  C   UNL     1      -9.431   9.615  67.540  1.00  0.00    -0.157 A  
ENDBRANCH  20  21
ENDBRANCH  14  20
ENDBRANCH   8   9
ENDBRANCH   7   8
TORSDOF 4
ENDMDL
MODEL      238
REMARK 921   NORMALIZED FREE ENERGY PREDICTED BY IDOCK:   -4.21 KCAL/MOL
REMARK 922        TOTAL FREE ENERGY PREDICTED BY IDOCK:   -6.03 KCAL/MOL
REMARK 923 INTER-LIGAND FREE ENERGY PREDICTED BY IDOCK:   -5.97 KCAL/MOL
REMARK 924 INTRA-LIGAND FREE ENERGY PREDICTED BY IDOCK:   -0.06 KCAL/MOL
REMARK 927      BINDING AFFINITY PREDICTED BY RF-SCORE:    0.00 PKD
ROOT
HETATM    1  C   UNL     1      -8.849  15.601  67.270  1.00  0.00    -0.198 C  
HETATM    2  N   UNL     1     -10.092  15.325  67.951  1.00  0.00    -0.231 N  
HETATM    3  C   UNL     1     -10.780  16.283  68.657  1.00  0.00    -0.309 C  
HETATM    4  O   UNL     1     -10.516  17.467  68.788  1.00  0.00    -0.348 OA 
HETATM    5  N   UNL     1     -11.868  15.623  69.204  1.00  0.00    -0.377 NA 
HETATM    6  N   UNL     1     -11.877  14.316  68.821  1.00  0.00    -0.334 NA 
HETATM    7  C   UNL     1     -10.812  14.193  68.073  1.00  0.00    -0.246 C  
ENDROOT
BRANCH   7   8
HETATM    8  C   UNL     1     -10.541  12.895  67.332  1.00  0.00    -0.233 C  
BRANCH   8   9
HETATM    9  N   UNL     1      -9.700  11.848  67.902  1.00  0.00    -0.186 N  
HETATM   10  C   UNL     1      -8.419  12.119  68.356  1.00  0.00    -0.145 C  
HETATM   11  C   UNL     1      -7.770  11.230  69.125  1.00  0.00    -0.047 C  
HETATM   12  C   UNL     1      -8.333   9.903  69.358  1.00  0.00    -0.158 C  
HETATM   13  C   UNL     1      -7.582   8.921  70.204  1.00  0.00    -0.074 C  
HETATM   14  C   UNL     1      -9.536   9.586  68.838  1.00  0.00    -0.155 C  
HETATM   15  C   UNL     1     -10.384  10.753  68.441  1.00  0.00    -0.180 C  
HETATM   16  F   UNL     1      -6.487   9.468  70.796  1.00  0.00    -0.060 F  
HETATM   17  F   UNL     1      -8.355   8.444  71.216  1.00  0.00    -0.103 F  
HETATM   18  O   UNL     1     -11.600  10.720  68.595  1.00  0.00    -0.290 OA 
HETATM   19  F   UNL     1      -7.148   7.848  69.497  1.00  0.00    -0.053 F  
BRANCH  14  20
HETATM   20  O   UNL     1     -10.047   8.294  68.894  1.00  0.00    -0.189 OA 
BRANCH  20  21
HETATM   21  C   UNL     1     -10.827   7.839  69.942  1.00  0.00    -0.226 A  
HETATM   22  C   UNL     1     -10.334   6.678  70.568  1.00  0.00    -0.231 A  
HETATM   23  C   UNL     1     -10.981   6.118  71.682  1.00  0.00    -0.320 A  
HETATM   24  C   UNL     1     -12.136   6.725  72.180  1.00  0.00    -0.289 A  
HETATM   25  C   UNL     1     -10.458   4.928  72.306  1.00  0.00    -0.204 C  
HETATM   26  C   UNL     1     -12.649   7.852  71.538  1.00  0.00    -0.321 A  
HETATM   27  N   UNL     1     -10.045   3.963  72.799  1.00  0.00    -0.154 NA 
HETATM   28 CL   UNL     1     -14.078   8.601  72.147  1.00  0.00    -0.494 Cl 
HETATM   29  C   UNL     1     -12.017   8.395  70.409  1.00  0.00     0.184 A  
ENDBRANCH  20  21
ENDBRANCH  14  20
ENDBRANCH   8   9
ENDBRANCH   7   8
TORSDOF 4
ENDMDL
MODEL      239
REMARK 921   NORMALIZED FREE ENERGY PREDICTED BY IDOCK:   -4.19 KCAL/MOL
REMARK 922        TOTAL FREE ENERGY PREDICTED BY IDOCK:   -6.00 KCAL/MOL
REMARK 923 INTER-LIGAND FREE ENERGY PREDICTED BY IDOCK:   -4.73 KCAL/MOL
REMARK 924 INTRA-LIGAND FREE ENERGY PREDICTED BY IDOCK:   -1.27 KCAL/MOL
REMARK 927      BINDING AFFINITY PREDICTED BY RF-SCORE:    0.00 PKD
ROOT
HETATM    1  C   UNL     1     -11.520  10.096  70.028  1.00  0.00    -0.277 C  
HETATM    2  N   UNL     1     -10.456   9.529  70.823  1.00  0.00    -0.296 N  
HETATM    3  C   UNL     1     -10.691   8.768  71.943  1.00  0.00    -0.359 C  
HETATM    4  O   UNL     1     -11.761   8.415  72.411  1.00  0.00    -0.370 OA 
HETATM    5  N   UNL     1      -9.438   8.467  72.452  1.00  0.00    -0.288 NA 
HETATM    6  N   UNL     1      -8.462   8.988  71.656  1.00  0.00    -0.355 NA 
HETATM    7  C   UNL     1      -9.115   9.598  70.703  1.00  0.00    -0.063 C  
ENDROOT
BRANCH   7   8
HETATM    8  C   UNL     1      -8.369  10.197  69.523  1.00  0.00    -0.168 C  
BRANCH   8   9
HETATM    9  N   UNL     1      -8.406   9.581  68.201  1.00  0.00    -0.118 N  
HETATM   10  C   UNL     1      -8.984  10.228  67.120  1.00  0.00    -0.135 C  
HETATM   11  C   UNL     1      -8.765   9.789  65.870  1.00  0.00    -0.156 C  
HETATM   12  C   UNL     1      -8.053   8.534  65.642  1.00  0.00    -0.119 C  
HETATM   13  C   UNL     1      -7.837   8.054  64.239  1.00  0.00    -0.137 C  
HETATM   14  C   UNL     1      -7.570   7.838  66.690  1.00  0.00    -0.097 C  
HETATM   15  C   UNL     1      -7.419   8.620  67.957  1.00  0.00    -0.097 C  
HETATM   16  F   UNL     1      -8.223   8.966  63.307  1.00  0.00    -0.147 F  
HETATM   17  F   UNL     1      -6.522   7.804  63.996  1.00  0.00    -0.054 F  
HETATM   18  O   UNL     1      -6.474   8.409  68.710  1.00  0.00    -0.051 OA 
HETATM   19  F   UNL     1      -8.514   6.911  63.969  1.00  0.00    -0.033 F  
BRANCH  14  20
HETATM   20  O   UNL     1      -7.025   6.567  66.544  1.00  0.00    -0.063 OA 
BRANCH  20  21
HETATM   21  C   UNL     1      -7.741   5.409  66.786  1.00  0.00    -0.100 A  
HETATM   22  C   UNL     1      -8.264   5.313  68.090  1.00  0.00    -0.098 A  
HETATM   23  C   UNL     1      -9.060   4.224  68.480  1.00  0.00    -0.175 A  
HETATM   24  C   UNL     1      -9.338   3.213  67.556  1.00  0.00    -0.241 A  
HETATM   25  C   UNL     1      -9.584   4.147  69.821  1.00  0.00    -0.211 C  
HETATM   26  C   UNL     1      -8.788   3.285  66.276  1.00  0.00    -0.140 A  
HETATM   27  N   UNL     1      -9.994   4.079  70.903  1.00  0.00    -0.156 NA 
HETATM   28 CL   UNL     1      -9.127   2.037  65.134  1.00  0.00    -0.127 Cl 
HETATM   29  C   UNL     1      -7.972   4.361  65.896  1.00  0.00    -0.099 A  
ENDBRANCH  20  21
ENDBRANCH  14  20
ENDBRANCH   8   9
ENDBRANCH   7   8
TORSDOF 4
ENDMDL
MODEL      240
REMARK 921   NORMALIZED FREE ENERGY PREDICTED BY IDOCK:   -4.16 KCAL/MOL
REMARK 922        TOTAL FREE ENERGY PREDICTED BY IDOCK:   -5.97 KCAL/MOL
REMARK 923 INTER-LIGAND FREE ENERGY PREDICTED BY IDOCK:   -6.17 KCAL/MOL
REMARK 924 INTRA-LIGAND FREE ENERGY PREDICTED BY IDOCK:    0.20 KCAL/MOL
REMARK 927      BINDING AFFINITY PREDICTED BY RF-SCORE:    0.00 PKD
ROOT
HETATM    1  C   UNL     1      -9.265  18.574  67.997  1.00  0.00    -0.297 C  
HETATM    2  N   UNL     1      -8.245  17.611  67.654  1.00  0.00    -0.222 N  
HETATM    3  C   UNL     1      -6.908  17.830  67.889  1.00  0.00    -0.192 C  
HETATM    4  O   UNL     1      -6.379  18.783  68.436  1.00  0.00    -0.209 OA 
HETATM    5  N   UNL     1      -6.259  16.721  67.372  1.00  0.00    -0.150 NA 
HETATM    6  N   UNL     1      -7.160  15.830  66.870  1.00  0.00    -0.220 NA 
HETATM    7  C   UNL     1      -8.320  16.399  67.070  1.00  0.00    -0.199 C  
ENDROOT
BRANCH   7   8
HETATM    8  C   UNL     1      -9.605  15.648  66.767  1.00  0.00    -0.240 C  
BRANCH   8   9
HETATM    9  N   UNL     1     -10.139  14.644  67.682  1.00  0.00    -0.227 N  
HETATM   10  C   UNL     1     -11.339  14.840  68.346  1.00  0.00    -0.299 C  
HETATM   11  C   UNL     1     -11.954  13.811  68.953  1.00  0.00    -0.394 C  
HETATM   12  C   UNL     1     -11.291  12.514  69.063  1.00  0.00    -0.342 C  
HETATM   13  C   UNL     1     -11.988  11.387  69.762  1.00  0.00    -0.353 C  
HETATM   14  C   UNL     1     -10.075  12.335  68.510  1.00  0.00    -0.187 C  
HETATM   15  C   UNL     1      -9.702  13.334  67.460  1.00  0.00    -0.224 C  
HETATM   16  F   UNL     1     -13.272  11.688  70.092  1.00  0.00     0.138 F  
HETATM   17  F   UNL     1     -12.054  10.280  68.975  1.00  0.00    -0.190 F  
HETATM   18  O   UNL     1      -9.055  12.990  66.475  1.00  0.00    -0.214 OA 
HETATM   19  F   UNL     1     -11.365  11.021  70.910  1.00  0.00    -0.328 F  
BRANCH  14  20
HETATM   20  O   UNL     1      -9.333  11.178  68.717  1.00  0.00    -0.181 OA 
BRANCH  20  21
HETATM   21  C   UNL     1      -8.998  10.306  67.697  1.00  0.00    -0.134 A  
HETATM   22  C   UNL     1      -9.711   9.092  67.716  1.00  0.00    -0.188 A  
HETATM   23  C   UNL     1      -9.527   8.121  66.718  1.00  0.00    -0.256 A  
HETATM   24  C   UNL     1      -8.618   8.364  65.685  1.00  0.00    -0.197 A  
HETATM   25  C   UNL     1     -10.268   6.885  66.758  1.00  0.00    -0.206 C  
HETATM   26  C   UNL     1      -7.880   9.548  65.686  1.00  0.00    -0.101 A  
HETATM   27  N   UNL     1     -10.853   5.885  66.799  1.00  0.00    -0.307 NA 
HETATM   28 CL   UNL     1      -6.754   9.849  64.415  1.00  0.00    -0.120 Cl 
HETATM   29  C   UNL     1      -8.046  10.506  66.698  1.00  0.00    -0.127 A  
ENDBRANCH  20  21
ENDBRANCH  14  20
ENDBRANCH   8   9
ENDBRANCH   7   8
TORSDOF 4
ENDMDL
MODEL      241
REMARK 921   NORMALIZED FREE ENERGY PREDICTED BY IDOCK:   -4.13 KCAL/MOL
REMARK 922        TOTAL FREE ENERGY PREDICTED BY IDOCK:   -5.94 KCAL/MOL
REMARK 923 INTER-LIGAND FREE ENERGY PREDICTED BY IDOCK:   -6.35 KCAL/MOL
REMARK 924 INTRA-LIGAND FREE ENERGY PREDICTED BY IDOCK:    0.41 KCAL/MOL
REMARK 927      BINDING AFFINITY PREDICTED BY RF-SCORE:    0.00 PKD
ROOT
HETATM    1  C   UNL     1      -9.125  14.878  66.871  1.00  0.00    -0.250 C  
HETATM    2  N   UNL     1      -9.840  14.044  65.934  1.00  0.00    -0.301 N  
HETATM    3  C   UNL     1     -10.602  14.561  64.912  1.00  0.00    -0.427 C  
HETATM    4  O   UNL     1     -10.762  15.728  64.600  1.00  0.00    -0.497 OA 
HETATM    5  N   UNL     1     -11.166  13.462  64.285  1.00  0.00    -0.383 NA 
HETATM    6  N   UNL     1     -10.740  12.307  64.869  1.00  0.00    -0.285 NA 
HETATM    7  C   UNL     1      -9.951  12.705  65.832  1.00  0.00    -0.264 C  
ENDROOT
BRANCH   7   8
HETATM    8  C   UNL     1      -9.158  11.694  66.641  1.00  0.00    -0.194 C  
BRANCH   8   9
HETATM    9  N   UNL     1      -9.342  10.257  66.464  1.00  0.00    -0.163 N  
HETATM   10  C   UNL     1      -8.802   9.590  65.377  1.00  0.00    -0.178 C  
HETATM   11  C   UNL     1      -8.734   8.248  65.370  1.00  0.00    -0.147 C  
HETATM   12  C   UNL     1      -9.372   7.470  66.429  1.00  0.00    -0.211 C  
HETATM   13  C   UNL     1      -9.299   5.974  66.390  1.00  0.00    -0.154 C  
HETATM   14  C   UNL     1      -9.992   8.104  67.444  1.00  0.00    -0.209 C  
HETATM   15  C   UNL     1      -9.598   9.535  67.634  1.00  0.00    -0.136 C  
HETATM   16  F   UNL     1      -8.483   5.514  65.405  1.00  0.00    -0.122 F  
HETATM   17  F   UNL     1      -8.803   5.471  67.552  1.00  0.00    -0.110 F  
HETATM   18  O   UNL     1      -9.511  10.012  68.761  1.00  0.00    -0.150 OA 
HETATM   19  F   UNL     1     -10.511   5.398  66.194  1.00  0.00    -0.238 F  
BRANCH  14  20
HETATM   20  O   UNL     1     -10.746   7.419  68.390  1.00  0.00    -0.180 OA 
BRANCH  20  21
HETATM   21  C   UNL     1     -10.243   7.034  69.619  1.00  0.00    -0.202 A  
HETATM   22  C   UNL     1     -10.127   5.641  69.786  1.00  0.00    -0.286 A  
HETATM   23  C   UNL     1      -9.584   5.088  70.957  1.00  0.00    -0.232 A  
HETATM   24  C   UNL     1      -9.148   5.937  71.978  1.00  0.00    -0.147 A  
HETATM   25  C   UNL     1      -9.475   3.658  71.106  1.00  0.00    -0.164 C  
HETATM   26  C   UNL     1      -9.299   7.316  71.832  1.00  0.00    -0.137 A  
HETATM   27  N   UNL     1      -9.402   2.508  71.231  1.00  0.00    -0.123 NA 
HETATM   28 CL   UNL     1      -8.767   8.367  73.092  1.00  0.00    -0.274 Cl 
HETATM   29  C   UNL     1      -9.866   7.866  70.673  1.00  0.00    -0.187 A  
ENDBRANCH  20  21
ENDBRANCH  14  20
ENDBRANCH   8   9
ENDBRANCH   7   8
TORSDOF 4
ENDMDL
MODEL      242
REMARK 921   NORMALIZED FREE ENERGY PREDICTED BY IDOCK:   -4.10 KCAL/MOL
REMARK 922        TOTAL FREE ENERGY PREDICTED BY IDOCK:   -5.90 KCAL/MOL
REMARK 923 INTER-LIGAND FREE ENERGY PREDICTED BY IDOCK:   -6.25 KCAL/MOL
REMARK 924 INTRA-LIGAND FREE ENERGY PREDICTED BY IDOCK:    0.36 KCAL/MOL
REMARK 927      BINDING AFFINITY PREDICTED BY RF-SCORE:    0.00 PKD
ROOT
HETATM    1  C   UNL     1      -6.999   6.997  68.799  1.00  0.00    -0.079 C  
HETATM    2  N   UNL     1      -8.078   6.133  69.218  1.00  0.00    -0.108 N  
HETATM    3  C   UNL     1      -7.928   4.774  69.361  1.00  0.00    -0.070 C  
HETATM    4  O   UNL     1      -6.920   4.102  69.221  1.00  0.00    -0.045 OA 
HETATM    5  N   UNL     1      -9.183   4.302  69.711  1.00  0.00    -0.121 NA 
HETATM    6  N   UNL     1     -10.068   5.332  69.819  1.00  0.00    -0.241 NA 
HETATM    7  C   UNL     1      -9.364   6.393  69.527  1.00  0.00    -0.143 C  
ENDROOT
BRANCH   7   8
HETATM    8  C   UNL     1      -9.969   7.779  69.672  1.00  0.00    -0.190 C  
BRANCH   8   9
HETATM    9  N   UNL     1      -9.964   8.737  68.571  1.00  0.00    -0.177 N  
HETATM   10  C   UNL     1     -10.367   8.372  67.296  1.00  0.00    -0.299 C  
HETATM   11  C   UNL     1     -10.627   9.311  66.373  1.00  0.00    -0.037 C  
HETATM   12  C   UNL     1     -10.333  10.716  66.643  1.00  0.00    -0.297 C  
HETATM   13  C   UNL     1     -10.612  11.744  65.590  1.00  0.00    -0.268 C  
HETATM   14  C   UNL     1      -9.843  11.078  67.846  1.00  0.00    -0.171 C  
HETATM   15  C   UNL     1     -10.055  10.082  68.943  1.00  0.00    -0.190 C  
HETATM   16  F   UNL     1     -11.273  11.231  64.518  1.00  0.00    -0.376 F  
HETATM   17  F   UNL     1     -11.399  12.745  66.070  1.00  0.00    -0.301 F  
HETATM   18  O   UNL     1     -10.295  10.457  70.086  1.00  0.00    -0.218 OA 
HETATM   19  F   UNL     1      -9.483  12.322  65.112  1.00  0.00    -0.183 F  
BRANCH  14  20
HETATM   20  O   UNL     1      -9.400  12.370  68.105  1.00  0.00    -0.200 OA 
BRANCH  20  21
HETATM   21  C   UNL     1     -10.245  13.389  68.504  1.00  0.00    -0.223 A  
HETATM   22  C   UNL     1     -11.144  13.029  69.526  1.00  0.00    -0.052 A  
HETATM   23  C   UNL     1     -12.033  13.965  70.080  1.00  0.00    -0.404 A  
HETATM   24  C   UNL     1     -12.026  15.280  69.608  1.00  0.00    -0.364 A  
HETATM   25  C   UNL     1     -12.946  13.573  71.125  1.00  0.00    -0.262 C  
HETATM   26  C   UNL     1     -11.164  15.630  68.568  1.00  0.00    -0.342 A  
HETATM   27  N   UNL     1     -13.689  13.254  71.955  1.00  0.00    -0.462 NA 
HETATM   28 CL   UNL     1     -11.155  17.251  67.980  1.00  0.00    -0.194 Cl 
HETATM   29  C   UNL     1     -10.295  14.687  67.997  1.00  0.00    -0.235 A  
ENDBRANCH  20  21
ENDBRANCH  14  20
ENDBRANCH   8   9
ENDBRANCH   7   8
TORSDOF 4
ENDMDL
MODEL      243
REMARK 921   NORMALIZED FREE ENERGY PREDICTED BY IDOCK:   -4.10 KCAL/MOL
REMARK 922        TOTAL FREE ENERGY PREDICTED BY IDOCK:   -5.89 KCAL/MOL
REMARK 923 INTER-LIGAND FREE ENERGY PREDICTED BY IDOCK:   -5.79 KCAL/MOL
REMARK 924 INTRA-LIGAND FREE ENERGY PREDICTED BY IDOCK:   -0.10 KCAL/MOL
REMARK 927      BINDING AFFINITY PREDICTED BY RF-SCORE:    0.00 PKD
ROOT
HETATM    1  C   UNL     1      -8.941  11.682  65.676  1.00  0.00    -0.015 C  
HETATM    2  N   UNL     1      -9.875  10.928  66.478  1.00  0.00    -0.198 N  
HETATM    3  C   UNL     1     -11.007  11.487  67.022  1.00  0.00    -0.294 C  
HETATM    4  O   UNL     1     -11.428  12.625  66.896  1.00  0.00    -0.303 OA 
HETATM    5  N   UNL     1     -11.597  10.474  67.761  1.00  0.00    -0.407 NA 
HETATM    6  N   UNL     1     -10.881   9.321  67.648  1.00  0.00    -0.202 NA 
HETATM    7  C   UNL     1      -9.878   9.639  66.872  1.00  0.00    -0.200 C  
ENDROOT
BRANCH   7   8
HETATM    8  C   UNL     1      -8.913   8.571  66.389  1.00  0.00    -0.165 C  
BRANCH   8   9
HETATM    9  N   UNL     1      -9.044   7.177  66.800  1.00  0.00    -0.141 N  
HETATM   10  C   UNL     1      -8.884   6.140  65.895  1.00  0.00    -0.143 C  
HETATM   11  C   UNL     1      -8.727   4.879  66.330  1.00  0.00    -0.113 C  
HETATM   12  C   UNL     1      -8.885   4.560  67.746  1.00  0.00    -0.119 C  
HETATM   13  C   UNL     1      -8.724   3.142  68.205  1.00  0.00    -0.106 C  
HETATM   14  C   UNL     1      -9.142   5.545  68.630  1.00  0.00    -0.117 C  
HETATM   15  C   UNL     1      -8.810   6.925  68.156  1.00  0.00    -0.125 C  
HETATM   16  F   UNL     1      -8.285   2.318  67.217  1.00  0.00    -0.068 F  
HETATM   17  F   UNL     1      -7.808   3.046  69.207  1.00  0.00    -0.047 F  
HETATM   18  O   UNL     1      -8.359   7.758  68.935  1.00  0.00    -0.126 OA 
HETATM   19  F   UNL     1      -9.880   2.611  68.672  1.00  0.00    -0.208 F  
BRANCH  14  20
HETATM   20  O   UNL     1      -9.456   5.281  69.959  1.00  0.00    -0.143 OA 
BRANCH  20  21
HETATM   21  C   UNL     1      -9.995   6.231  70.807  1.00  0.00    -0.187 A  
HETATM   22  C   UNL     1      -9.101   6.705  71.786  1.00  0.00    -0.144 A  
HETATM   23  C   UNL     1      -9.477   7.711  72.693  1.00  0.00    -0.230 A  
HETATM   24  C   UNL     1     -10.763   8.252  72.621  1.00  0.00    -0.384 A  
HETATM   25  C   UNL     1      -8.545   8.181  73.687  1.00  0.00    -0.245 C  
HETATM   26  C   UNL     1     -11.664   7.755  71.678  1.00  0.00    -0.280 A  
HETATM   27  N   UNL     1      -7.800   8.548  74.496  1.00  0.00    -0.355 NA 
HETATM   28 CL   UNL     1     -13.253   8.417  71.590  1.00  0.00    -0.353 Cl 
HETATM   29  C   UNL     1     -11.295   6.732  70.791  1.00  0.00    -0.374 A  
ENDBRANCH  20  21
ENDBRANCH  14  20
ENDBRANCH   8   9
ENDBRANCH   7   8
TORSDOF 4
ENDMDL
MODEL      244
REMARK 921   NORMALIZED FREE ENERGY PREDICTED BY IDOCK:   -4.09 KCAL/MOL
REMARK 922        TOTAL FREE ENERGY PREDICTED BY IDOCK:   -5.88 KCAL/MOL
REMARK 923 INTER-LIGAND FREE ENERGY PREDICTED BY IDOCK:   -4.78 KCAL/MOL
REMARK 924 INTRA-LIGAND FREE ENERGY PREDICTED BY IDOCK:   -1.10 KCAL/MOL
REMARK 927      BINDING AFFINITY PREDICTED BY RF-SCORE:    0.00 PKD
ROOT
HETATM    1  C   UNL     1      -8.971   8.510  71.468  1.00  0.00    -0.213 C  
HETATM    2  N   UNL     1      -8.337   7.367  70.854  1.00  0.00    -0.114 N  
HETATM    3  C   UNL     1      -9.018   6.208  70.563  1.00  0.00    -0.146 C  
HETATM    4  O   UNL     1     -10.204   5.966  70.713  1.00  0.00    -0.193 OA 
HETATM    5  N   UNL     1      -8.066   5.343  70.049  1.00  0.00    -0.084 NA 
HETATM    6  N   UNL     1      -6.850   5.954  69.986  1.00  0.00    -0.055 NA 
HETATM    7  C   UNL     1      -7.066   7.151  70.464  1.00  0.00    -0.063 C  
ENDROOT
BRANCH   7   8
HETATM    8  C   UNL     1      -5.967   8.199  70.431  1.00  0.00    -0.028 C  
BRANCH   8   9
HETATM    9  N   UNL     1      -6.247   9.592  70.099  1.00  0.00    -0.056 N  
HETATM   10  C   UNL     1      -5.690  10.632  70.825  1.00  0.00    -0.103 C  
HETATM   11  C   UNL     1      -5.722  11.887  70.346  1.00  0.00    -0.163 C  
HETATM   12  C   UNL     1      -6.484  12.199  69.140  1.00  0.00    -0.099 C  
HETATM   13  C   UNL     1      -6.522  13.609  68.636  1.00  0.00    -0.094 C  
HETATM   14  C   UNL     1      -7.119  11.212  68.475  1.00  0.00    -0.080 C  
HETATM   15  C   UNL     1      -6.631   9.829  68.775  1.00  0.00    -0.046 C  
HETATM   16  F   UNL     1      -5.681  14.432  69.317  1.00  0.00    -0.087 F  
HETATM   17  F   UNL     1      -6.140  13.680  67.332  1.00  0.00    -0.154 F  
HETATM   18  O   UNL     1      -6.581   8.982  67.889  1.00  0.00    -0.059 OA 
HETATM   19  F   UNL     1      -7.758  14.159  68.718  1.00  0.00    -0.121 F  
BRANCH  14  20
HETATM   20  O   UNL     1      -7.982  11.472  67.417  1.00  0.00    -0.129 OA 
BRANCH  20  21
HETATM   21  C   UNL     1      -9.327  11.739  67.591  1.00  0.00    -0.180 A  
HETATM   22  C   UNL     1      -9.860  11.262  68.804  1.00  0.00    -0.194 A  
HETATM   23  C   UNL     1     -11.198  11.498  69.158  1.00  0.00    -0.337 A  
HETATM   24  C   UNL     1     -12.019  12.222  68.289  1.00  0.00    -0.259 A  
HETATM   25  C   UNL     1     -11.722  10.999  70.405  1.00  0.00    -0.343 C  
HETATM   26  C   UNL     1     -11.505  12.661  67.068  1.00  0.00    -0.346 A  
HETATM   27  N   UNL     1     -12.146  10.585  71.401  1.00  0.00    -0.323 NA 
HETATM   28 CL   UNL     1     -12.517  13.551  65.991  1.00  0.00    -0.474 Cl 
HETATM   29  C   UNL     1     -10.175  12.402  66.705  1.00  0.00    -0.241 A  
ENDBRANCH  20  21
ENDBRANCH  14  20
ENDBRANCH   8   9
ENDBRANCH   7   8
TORSDOF 4
ENDMDL
MODEL      245
REMARK 921   NORMALIZED FREE ENERGY PREDICTED BY IDOCK:   -4.09 KCAL/MOL
REMARK 922        TOTAL FREE ENERGY PREDICTED BY IDOCK:   -5.88 KCAL/MOL
REMARK 923 INTER-LIGAND FREE ENERGY PREDICTED BY IDOCK:   -5.41 KCAL/MOL
REMARK 924 INTRA-LIGAND FREE ENERGY PREDICTED BY IDOCK:   -0.47 KCAL/MOL
REMARK 927      BINDING AFFINITY PREDICTED BY RF-SCORE:    0.00 PKD
ROOT
HETATM    1  C   UNL     1      -8.838   5.241  71.225  1.00  0.00    -0.136 C  
HETATM    2  N   UNL     1      -9.738   5.535  70.135  1.00  0.00    -0.171 N  
HETATM    3  C   UNL     1      -9.899   4.695  69.058  1.00  0.00    -0.154 C  
HETATM    4  O   UNL     1      -9.388   3.605  68.862  1.00  0.00    -0.148 OA 
HETATM    5  N   UNL     1     -10.784   5.346  68.215  1.00  0.00    -0.082 NA 
HETATM    6  N   UNL     1     -11.188   6.526  68.764  1.00  0.00    -0.277 NA 
HETATM    7  C   UNL     1     -10.549   6.586  69.902  1.00  0.00    -0.233 C  
ENDROOT
BRANCH   7   8
HETATM    8  C   UNL     1     -10.842   7.704  70.888  1.00  0.00    -0.241 C  
BRANCH   8   9
HETATM    9  N   UNL     1     -11.252   9.032  70.441  1.00  0.00    -0.255 N  
HETATM   10  C   UNL     1     -12.297   9.706  71.050  1.00  0.00    -0.310 C  
HETATM   11  C   UNL     1     -12.480  11.018  70.826  1.00  0.00    -0.491 C  
HETATM   12  C   UNL     1     -11.686  11.713  69.817  1.00  0.00    -0.425 C  
HETATM   13  C   UNL     1     -11.921  13.173  69.571  1.00  0.00    -0.294 C  
HETATM   14  C   UNL     1     -10.730  11.046  69.140  1.00  0.00    -0.234 C  
HETATM   15  C   UNL     1     -10.267   9.776  69.782  1.00  0.00    -0.242 C  
HETATM   16  F   UNL     1     -12.785  13.723  70.465  1.00  0.00    -0.370 F  
HETATM   17  F   UNL     1     -10.767  13.886  69.677  1.00  0.00    -0.175 F  
HETATM   18  O   UNL     1      -9.089   9.440  69.719  1.00  0.00    -0.163 OA 
HETATM   19  F   UNL     1     -12.427  13.418  68.337  1.00  0.00    -0.298 F  
BRANCH  14  20
HETATM   20  O   UNL     1     -10.055  11.612  68.065  1.00  0.00    -0.179 OA 
BRANCH  20  21
HETATM   21  C   UNL     1      -8.678  11.735  68.022  1.00  0.00    -0.167 A  
HETATM   22  C   UNL     1      -8.135  12.524  69.053  1.00  0.00     0.329 A  
HETATM   23  C   UNL     1      -6.748  12.705  69.182  1.00  0.00    -0.086 A  
HETATM   24  C   UNL     1      -5.889  12.087  68.269  1.00  0.00    -0.051 A  
HETATM   25  C   UNL     1      -6.214  13.518  70.246  1.00  0.00    -0.052 C  
HETATM   26  C   UNL     1      -6.426  11.337  67.222  1.00  0.00    -0.085 A  
HETATM   27  N   UNL     1      -5.786  14.184  71.093  1.00  0.00    -0.221 NA 
HETATM   28 CL   UNL     1      -5.369  10.578  66.090  1.00  0.00    -0.064 Cl 
HETATM   29  C   UNL     1      -7.813  11.180  67.079  1.00  0.00    -0.142 A  
ENDBRANCH  20  21
ENDBRANCH  14  20
ENDBRANCH   8   9
ENDBRANCH   7   8
TORSDOF 4
ENDMDL
MODEL      246
REMARK 921   NORMALIZED FREE ENERGY PREDICTED BY IDOCK:   -4.02 KCAL/MOL
REMARK 922        TOTAL FREE ENERGY PREDICTED BY IDOCK:   -5.80 KCAL/MOL
REMARK 923 INTER-LIGAND FREE ENERGY PREDICTED BY IDOCK:   -5.42 KCAL/MOL
REMARK 924 INTRA-LIGAND FREE ENERGY PREDICTED BY IDOCK:   -0.38 KCAL/MOL
REMARK 927      BINDING AFFINITY PREDICTED BY RF-SCORE:    0.00 PKD
ROOT
HETATM    1  C   UNL     1     -12.028  10.940  70.565  1.00  0.00    -0.371 C  
HETATM    2  N   UNL     1     -11.802   9.800  71.422  1.00  0.00    -0.389 N  
HETATM    3  C   UNL     1     -12.801   9.226  72.172  1.00  0.00    -0.408 C  
HETATM    4  O   UNL     1     -13.984   9.519  72.212  1.00  0.00    -0.371 OA 
HETATM    5  N   UNL     1     -12.184   8.216  72.892  1.00  0.00    -0.173 NA 
HETATM    6  N   UNL     1     -10.862   8.140  72.572  1.00  0.00    -0.340 NA 
HETATM    7  C   UNL     1     -10.688   9.091  71.692  1.00  0.00    -0.371 C  
ENDROOT
BRANCH   7   8
HETATM    8  C   UNL     1      -9.356   9.242  70.980  1.00  0.00    -0.227 C  
BRANCH   8   9
HETATM    9  N   UNL     1      -9.269   9.323  69.525  1.00  0.00    -0.157 N  
HETATM   10  C   UNL     1      -8.606  10.367  68.899  1.00  0.00    -0.149 C  
HETATM   11  C   UNL     1      -8.291  10.285  67.596  1.00  0.00    -0.114 C  
HETATM   12  C   UNL     1      -8.784   9.175  66.784  1.00  0.00    -0.138 C  
HETATM   13  C   UNL     1      -8.436   9.115  65.328  1.00  0.00    -0.154 C  
HETATM   14  C   UNL     1      -9.519   8.201  67.357  1.00  0.00    -0.155 C  
HETATM   15  C   UNL     1      -9.398   8.107  68.846  1.00  0.00    -0.147 C  
HETATM   16  F   UNL     1      -7.540  10.071  64.963  1.00  0.00    -0.116 F  
HETATM   17  F   UNL     1      -7.865   7.924  65.003  1.00  0.00    -0.091 F  
HETATM   18  O   UNL     1      -9.410   7.015  69.404  1.00  0.00    -0.147 OA 
HETATM   19  F   UNL     1      -9.518   9.269  64.527  1.00  0.00    -0.256 F  
BRANCH  14  20
HETATM   20  O   UNL     1     -10.142   7.210  66.609  1.00  0.00    -0.209 OA 
BRANCH  20  21
HETATM   21  C   UNL     1      -9.566   5.977  66.363  1.00  0.00    -0.137 A  
HETATM   22  C   UNL     1     -10.265   5.186  65.432  1.00  0.00     0.166 A  
HETATM   23  C   UNL     1      -9.783   3.929  65.033  1.00  0.00    -0.192 A  
HETATM   24  C   UNL     1      -8.584   3.453  65.569  1.00  0.00    -0.112 A  
HETATM   25  C   UNL     1     -10.517   3.136  64.079  1.00  0.00    -0.149 C  
HETATM   26  C   UNL     1      -7.909   4.217  66.522  1.00  0.00    -0.094 A  
HETATM   27  N   UNL     1     -11.116   2.493  63.322  1.00  0.00    -0.274 NA 
HETATM   28 CL   UNL     1      -6.431   3.631  67.190  1.00  0.00    -0.037 Cl 
HETATM   29  C   UNL     1      -8.406   5.461  66.940  1.00  0.00    -0.108 A  
ENDBRANCH  20  21
ENDBRANCH  14  20
ENDBRANCH   8   9
ENDBRANCH   7   8
TORSDOF 4
ENDMDL
MODEL      247
REMARK 921   NORMALIZED FREE ENERGY PREDICTED BY IDOCK:   -3.99 KCAL/MOL
REMARK 922        TOTAL FREE ENERGY PREDICTED BY IDOCK:   -5.76 KCAL/MOL
REMARK 923 INTER-LIGAND FREE ENERGY PREDICTED BY IDOCK:   -4.95 KCAL/MOL
REMARK 924 INTRA-LIGAND FREE ENERGY PREDICTED BY IDOCK:   -0.81 KCAL/MOL
REMARK 927      BINDING AFFINITY PREDICTED BY RF-SCORE:    0.00 PKD
ROOT
HETATM    1  C   UNL     1      -9.990  11.554  62.982  1.00  0.00    -0.322 C  
HETATM    2  N   UNL     1     -10.622  11.780  64.260  1.00  0.00    -0.307 N  
HETATM    3  C   UNL     1     -11.906  12.258  64.380  1.00  0.00    -0.388 C  
HETATM    4  O   UNL     1     -12.706  12.515  63.496  1.00  0.00    -0.722 OA 
HETATM    5  N   UNL     1     -12.121  12.394  65.741  1.00  0.00    -0.610 NA 
HETATM    6  N   UNL     1     -11.029  11.978  66.442  1.00  0.00    -0.282 NA 
HETATM    7  C   UNL     1     -10.175  11.616  65.521  1.00  0.00    -0.260 C  
ENDROOT
BRANCH   7   8
HETATM    8  C   UNL     1      -8.864  10.954  65.908  1.00  0.00    -0.186 C  
BRANCH   8   9
HETATM    9  N   UNL     1      -8.678   9.509  65.817  1.00  0.00    -0.140 N  
HETATM   10  C   UNL     1      -9.016   8.810  64.670  1.00  0.00     0.084 C  
HETATM   11  C   UNL     1      -8.586   7.550  64.493  1.00  0.00     0.259 C  
HETATM   12  C   UNL     1      -7.897   6.845  65.571  1.00  0.00    -0.112 C  
HETATM   13  C   UNL     1      -7.444   5.433  65.357  1.00  0.00    -0.077 C  
HETATM   14  C   UNL     1      -7.650   7.479  66.734  1.00  0.00    -0.101 C  
HETATM   15  C   UNL     1      -7.705   8.973  66.667  1.00  0.00    -0.096 C  
HETATM   16  F   UNL     1      -7.609   5.018  64.073  1.00  0.00    -0.059 F  
HETATM   17  F   UNL     1      -6.118   5.292  65.628  1.00  0.00    -0.028 F  
HETATM   18  O   UNL     1      -6.927   9.655  67.327  1.00  0.00    -0.083 OA 
HETATM   19  F   UNL     1      -8.106   4.548  66.141  1.00  0.00    -0.100 F  
BRANCH  14  20
HETATM   20  O   UNL     1      -7.141   6.814  67.844  1.00  0.00    -0.080 OA 
BRANCH  20  21
HETATM   21  C   UNL     1      -7.832   6.704  69.037  1.00  0.00    -0.111 A  
HETATM   22  C   UNL     1      -8.125   5.380  69.416  1.00  0.00    -0.093 A  
HETATM   23  C   UNL     1      -8.775   5.094  70.628  1.00  0.00    -0.142 A  
HETATM   24  C   UNL     1      -9.137   6.143  71.476  1.00  0.00    -0.145 A  
HETATM   25  C   UNL     1      -9.066   3.730  70.995  1.00  0.00    -0.112 C  
HETATM   26  C   UNL     1      -8.884   7.459  71.085  1.00  0.00    -0.142 A  
HETATM   27  N   UNL     1      -9.312   2.634  71.282  1.00  0.00    -0.125 NA 
HETATM   28 CL   UNL     1      -9.333   8.757  72.127  1.00  0.00    -0.343 Cl 
HETATM   29  C   UNL     1      -8.258   7.744  69.861  1.00  0.00    -0.125 A  
ENDBRANCH  20  21
ENDBRANCH  14  20
ENDBRANCH   8   9
ENDBRANCH   7   8
TORSDOF 4
ENDMDL
MODEL      248
REMARK 921   NORMALIZED FREE ENERGY PREDICTED BY IDOCK:   -3.98 KCAL/MOL
REMARK 922        TOTAL FREE ENERGY PREDICTED BY IDOCK:   -5.75 KCAL/MOL
REMARK 923 INTER-LIGAND FREE ENERGY PREDICTED BY IDOCK:   -6.01 KCAL/MOL
REMARK 924 INTRA-LIGAND FREE ENERGY PREDICTED BY IDOCK:    0.26 KCAL/MOL
REMARK 927      BINDING AFFINITY PREDICTED BY RF-SCORE:    0.00 PKD
ROOT
HETATM    1  C   UNL     1     -13.801  15.506  71.476  1.00  0.00    -0.441 C  
HETATM    2  N   UNL     1     -13.209  14.251  71.077  1.00  0.00    -0.335 N  
HETATM    3  C   UNL     1     -13.265  13.122  71.860  1.00  0.00    -0.431 C  
HETATM    4  O   UNL     1     -13.826  12.968  72.931  1.00  0.00    -0.439 OA 
HETATM    5  N   UNL     1     -12.541  12.163  71.170  1.00  0.00    -0.330 NA 
HETATM    6  N   UNL     1     -12.087  12.665  69.988  1.00  0.00    -0.304 NA 
HETATM    7  C   UNL     1     -12.516  13.899  69.976  1.00  0.00    -0.266 C  
ENDROOT
BRANCH   7   8
HETATM    8  C   UNL     1     -12.329  14.764  68.742  1.00  0.00     0.016 C  
BRANCH   8   9
HETATM    9  N   UNL     1     -11.102  15.521  68.514  1.00  0.00    -0.289 N  
HETATM   10  C   UNL     1     -11.021  16.870  68.818  1.00  0.00    -0.234 C  
HETATM   11  C   UNL     1      -9.826  17.481  68.872  1.00  0.00    -0.289 C  
HETATM   12  C   UNL     1      -8.616  16.778  68.455  1.00  0.00    -0.235 C  
HETATM   13  C   UNL     1      -7.297  17.487  68.506  1.00  0.00    -0.243 C  
HETATM   14  C   UNL     1      -8.692  15.492  68.058  1.00  0.00    -0.163 C  
HETATM   15  C   UNL     1      -9.925  14.766  68.494  1.00  0.00    -0.228 C  
HETATM   16  F   UNL     1      -7.379  18.706  69.102  1.00  0.00    -0.306 F  
HETATM   17  F   UNL     1      -6.381  16.781  69.223  1.00  0.00    -0.161 F  
HETATM   18  O   UNL     1      -9.870  13.581  68.811  1.00  0.00    -0.165 OA 
HETATM   19  F   UNL     1      -6.766  17.690  67.275  1.00  0.00    -0.157 F  
BRANCH  14  20
HETATM   20  O   UNL     1      -7.605  14.825  67.505  1.00  0.00    -0.163 OA 
BRANCH  20  21
HETATM   21  C   UNL     1      -7.029  13.712  68.088  1.00  0.00    -0.119 A  
HETATM   22  C   UNL     1      -7.013  12.569  67.265  1.00  0.00    -0.114 A  
HETATM   23  C   UNL     1      -6.416  11.371  67.689  1.00  0.00    -0.063 A  
HETATM   24  C   UNL     1      -5.824  11.310  68.953  1.00  0.00    -0.043 A  
HETATM   25  C   UNL     1      -6.413  10.214  66.829  1.00  0.00    -0.071 C  
HETATM   26  C   UNL     1      -5.873  12.428  69.787  1.00  0.00    -0.123 A  
HETATM   27  N   UNL     1      -6.424   9.280  66.143  1.00  0.00    -0.068 NA 
HETATM   28 CL   UNL     1      -5.147  12.355  71.349  1.00  0.00    -0.139 Cl 
HETATM   29  C   UNL     1      -6.493  13.616  69.372  1.00  0.00    -0.106 A  
ENDBRANCH  20  21
ENDBRANCH  14  20
ENDBRANCH   8   9
ENDBRANCH   7   8
TORSDOF 4
ENDMDL
MODEL      249
REMARK 921   NORMALIZED FREE ENERGY PREDICTED BY IDOCK:   -3.97 KCAL/MOL
REMARK 922        TOTAL FREE ENERGY PREDICTED BY IDOCK:   -5.74 KCAL/MOL
REMARK 923 INTER-LIGAND FREE ENERGY PREDICTED BY IDOCK:   -4.67 KCAL/MOL
REMARK 924 INTRA-LIGAND FREE ENERGY PREDICTED BY IDOCK:   -1.07 KCAL/MOL
REMARK 927      BINDING AFFINITY PREDICTED BY RF-SCORE:    0.00 PKD
ROOT
HETATM    1  C   UNL     1     -14.008  10.358  72.144  1.00  0.00     0.327 C  
HETATM    2  N   UNL     1     -12.805  10.276  71.349  1.00  0.00    -0.404 N  
HETATM    3  C   UNL     1     -12.185  11.386  70.824  1.00  0.00    -0.376 C  
HETATM    4  O   UNL     1     -12.485  12.560  70.963  1.00  0.00    -0.369 OA 
HETATM    5  N   UNL     1     -11.119  10.896  70.088  1.00  0.00    -0.227 NA 
HETATM    6  N   UNL     1     -11.055   9.538  70.184  1.00  0.00    -0.247 NA 
HETATM    7  C   UNL     1     -12.067   9.222  70.948  1.00  0.00    -0.233 C  
ENDROOT
BRANCH   7   8
HETATM    8  C   UNL     1     -12.259   7.789  71.412  1.00  0.00    -0.319 C  
BRANCH   8   9
HETATM    9  N   UNL     1     -11.141   6.855  71.499  1.00  0.00    -0.238 N  
HETATM   10  C   UNL     1     -10.754   6.305  72.711  1.00  0.00    -0.242 C  
HETATM   11  C   UNL     1      -9.925   5.249  72.742  1.00  0.00    -0.189 C  
HETATM   12  C   UNL     1      -9.293   4.769  71.516  1.00  0.00    -0.197 C  
HETATM   13  C   UNL     1      -8.356   3.601  71.578  1.00  0.00    -0.069 C  
HETATM   14  C   UNL     1      -9.581   5.359  70.339  1.00  0.00    -0.175 C  
HETATM   15  C   UNL     1     -10.845   6.159  70.322  1.00  0.00    -0.319 C  
HETATM   16  F   UNL     1      -8.326   3.017  72.806  1.00  0.00    -0.070 F  
HETATM   17  F   UNL     1      -8.724   2.623  70.707  1.00  0.00    -0.081 F  
HETATM   18  O   UNL     1     -11.557   6.178  69.323  1.00  0.00    -0.329 OA 
HETATM   19  F   UNL     1      -7.078   3.941  71.277  1.00  0.00    -0.030 F  
BRANCH  14  20
HETATM   20  O   UNL     1      -8.895   5.048  69.170  1.00  0.00    -0.090 OA 
BRANCH  20  21
HETATM   21  C   UNL     1      -8.407   6.011  68.305  1.00  0.00    -0.113 A  
HETATM   22  C   UNL     1      -7.648   7.019  68.930  1.00  0.00    -0.104 A  
HETATM   23  C   UNL     1      -7.038   8.042  68.185  1.00  0.00    -0.089 A  
HETATM   24  C   UNL     1      -7.185   8.059  66.796  1.00  0.00    -0.082 A  
HETATM   25  C   UNL     1      -6.266   9.064  68.847  1.00  0.00    -0.044 C  
HETATM   26  C   UNL     1      -7.969   7.084  66.178  1.00  0.00    -0.110 A  
HETATM   27  N   UNL     1      -5.658   9.894  69.381  1.00  0.00    -0.034 NA 
HETATM   28 CL   UNL     1      -8.157   7.105  64.464  1.00  0.00    -0.107 Cl 
HETATM   29  C   UNL     1      -8.600   6.079  66.926  1.00  0.00    -0.108 A  
ENDBRANCH  20  21
ENDBRANCH  14  20
ENDBRANCH   8   9
ENDBRANCH   7   8
TORSDOF 4
ENDMDL
MODEL      250
REMARK 921   NORMALIZED FREE ENERGY PREDICTED BY IDOCK:   -3.97 KCAL/MOL
REMARK 922        TOTAL FREE ENERGY PREDICTED BY IDOCK:   -5.74 KCAL/MOL
REMARK 923 INTER-LIGAND FREE ENERGY PREDICTED BY IDOCK:   -5.51 KCAL/MOL
REMARK 924 INTRA-LIGAND FREE ENERGY PREDICTED BY IDOCK:   -0.23 KCAL/MOL
REMARK 927      BINDING AFFINITY PREDICTED BY RF-SCORE:    0.00 PKD
ROOT
HETATM    1  C   UNL     1      -6.691   6.749  68.865  1.00  0.00    -0.053 C  
HETATM    2  N   UNL     1      -7.522   5.997  69.776  1.00  0.00    -0.078 N  
HETATM    3  C   UNL     1      -7.102   4.833  70.376  1.00  0.00    -0.049 C  
HETATM    4  O   UNL     1      -6.014   4.288  70.296  1.00  0.00    -0.016 OA 
HETATM    5  N   UNL     1      -8.187   4.390  71.114  1.00  0.00    -0.081 NA 
HETATM    6  N   UNL     1      -9.226   5.264  71.008  1.00  0.00    -0.145 NA 
HETATM    7  C   UNL     1      -8.780   6.201  70.215  1.00  0.00    -0.145 C  
ENDROOT
BRANCH   7   8
HETATM    8  C   UNL     1      -9.608   7.447  69.957  1.00  0.00    -0.168 C  
BRANCH   8   9
HETATM    9  N   UNL     1      -9.515   8.184  68.701  1.00  0.00    -0.147 N  
HETATM   10  C   UNL     1     -10.064   7.685  67.530  1.00  0.00    -0.202 C  
HETATM   11  C   UNL     1     -10.221   8.483  66.462  1.00  0.00    -0.286 C  
HETATM   12  C   UNL     1      -9.670   9.835  66.461  1.00  0.00    -0.267 C  
HETATM   13  C   UNL     1      -9.840  10.700  65.249  1.00  0.00    -0.275 C  
HETATM   14  C   UNL     1      -9.041  10.302  67.558  1.00  0.00    -0.137 C  
HETATM   15  C   UNL     1      -9.344   9.566  68.825  1.00  0.00    -0.146 C  
HETATM   16  F   UNL     1     -10.654  10.140  64.315  1.00  0.00    -0.220 F  
HETATM   17  F   UNL     1     -10.405  11.896  65.569  1.00  0.00    -0.258 F  
HETATM   18  O   UNL     1      -9.434  10.171  69.889  1.00  0.00    -0.204 OA 
HETATM   19  F   UNL     1      -8.664  10.970  64.631  1.00  0.00    -0.168 F  
BRANCH  14  20
HETATM   20  O   UNL     1      -8.363  11.516  67.560  1.00  0.00    -0.134 OA 
BRANCH  20  21
HETATM   21  C   UNL     1      -8.993  12.730  67.764  1.00  0.00    -0.190 A  
HETATM   22  C   UNL     1      -8.365  13.822  67.136  1.00  0.00    -0.153 A  
HETATM   23  C   UNL     1      -8.909  15.115  67.201  1.00  0.00    -0.236 A  
HETATM   24  C   UNL     1     -10.098  15.323  67.905  1.00  0.00    -0.233 A  
HETATM   25  C   UNL     1      -8.247  16.218  66.550  1.00  0.00    -0.309 C  
HETATM   26  C   UNL     1     -10.701  14.251  68.563  1.00  0.00    -0.255 A  
HETATM   27  N   UNL     1      -7.707  17.107  66.038  1.00  0.00    -0.444 NA 
HETATM   28 CL   UNL     1     -12.167  14.505  69.435  1.00  0.00    -0.320 Cl 
HETATM   29  C   UNL     1     -10.143  12.965  68.518  1.00  0.00    -0.193 A  
ENDBRANCH  20  21
ENDBRANCH  14  20
ENDBRANCH   8   9
ENDBRANCH   7   8
TORSDOF 4
ENDMDL
MODEL      251
REMARK 921   NORMALIZED FREE ENERGY PREDICTED BY IDOCK:   -3.89 KCAL/MOL
REMARK 922        TOTAL FREE ENERGY PREDICTED BY IDOCK:   -5.63 KCAL/MOL
REMARK 923 INTER-LIGAND FREE ENERGY PREDICTED BY IDOCK:   -4.41 KCAL/MOL
REMARK 924 INTRA-LIGAND FREE ENERGY PREDICTED BY IDOCK:   -1.22 KCAL/MOL
REMARK 927      BINDING AFFINITY PREDICTED BY RF-SCORE:    0.00 PKD
ROOT
HETATM    1  C   UNL     1     -10.453  10.317  70.248  1.00  0.00    -0.146 C  
HETATM    2  N   UNL     1     -10.793  11.562  69.600  1.00  0.00    -0.075 N  
HETATM    3  C   UNL     1     -11.762  12.409  70.083  1.00  0.00    -0.185 C  
HETATM    4  O   UNL     1     -12.429  12.300  71.097  1.00  0.00    -0.343 OA 
HETATM    5  N   UNL     1     -11.833  13.445  69.165  1.00  0.00    -0.322 NA 
HETATM    6  N   UNL     1     -10.916  13.268  68.173  1.00  0.00    -0.246 NA 
HETATM    7  C   UNL     1     -10.321  12.146  68.481  1.00  0.00    -0.221 C  
ENDROOT
BRANCH   7   8
HETATM    8  C   UNL     1      -9.122  11.669  67.680  1.00  0.00    -0.174 C  
BRANCH   8   9
HETATM    9  N   UNL     1      -9.042  10.308  67.158  1.00  0.00    -0.142 N  
HETATM   10  C   UNL     1      -9.621   9.965  65.947  1.00  0.00    -0.239 C  
HETATM   11  C   UNL     1      -9.304   8.805  65.349  1.00  0.00    -0.095 C  
HETATM   12  C   UNL     1      -8.477   7.819  66.038  1.00  0.00    -0.146 C  
HETATM   13  C   UNL     1      -8.153   6.523  65.359  1.00  0.00    -0.129 C  
HETATM   14  C   UNL     1      -7.987   8.095  67.264  1.00  0.00    -0.113 C  
HETATM   15  C   UNL     1      -7.965   9.547  67.626  1.00  0.00    -0.106 C  
HETATM   16  F   UNL     1      -8.570   6.491  64.065  1.00  0.00     0.014 F  
HETATM   17  F   UNL     1      -6.811   6.303  65.325  1.00  0.00    -0.043 F  
HETATM   18  O   UNL     1      -7.043  10.009  68.290  1.00  0.00    -0.071 OA 
HETATM   19  F   UNL     1      -8.715   5.456  65.977  1.00  0.00    -0.120 F  
BRANCH  14  20
HETATM   20  O   UNL     1      -7.328   7.139  68.028  1.00  0.00    -0.091 OA 
BRANCH  20  21
HETATM   21  C   UNL     1      -7.989   6.254  68.859  1.00  0.00    -0.109 A  
HETATM   22  C   UNL     1      -8.961   6.850  69.685  1.00  0.00    -0.144 A  
HETATM   23  C   UNL     1      -9.758   6.081  70.549  1.00  0.00    -0.210 A  
HETATM   24  C   UNL     1      -9.584   4.695  70.590  1.00  0.00    -0.261 A  
HETATM   25  C   UNL     1     -10.746   6.713  71.387  1.00  0.00    -0.229 C  
HETATM   26  C   UNL     1      -8.594   4.105  69.802  1.00  0.00    -0.064 A  
HETATM   27  N   UNL     1     -11.530   7.225  72.070  1.00  0.00    -0.261 NA 
HETATM   28 CL   UNL     1      -8.374   2.396  69.852  1.00  0.00    -0.069 Cl 
HETATM   29  C   UNL     1      -7.781   4.879  68.959  1.00  0.00    -0.072 A  
ENDBRANCH  20  21
ENDBRANCH  14  20
ENDBRANCH   8   9
ENDBRANCH   7   8
TORSDOF 4
ENDMDL
MODEL      252
REMARK 921   NORMALIZED FREE ENERGY PREDICTED BY IDOCK:   -3.85 KCAL/MOL
REMARK 922        TOTAL FREE ENERGY PREDICTED BY IDOCK:   -5.59 KCAL/MOL
REMARK 923 INTER-LIGAND FREE ENERGY PREDICTED BY IDOCK:   -4.90 KCAL/MOL
REMARK 924 INTRA-LIGAND FREE ENERGY PREDICTED BY IDOCK:   -0.69 KCAL/MOL
REMARK 927      BINDING AFFINITY PREDICTED BY RF-SCORE:    0.00 PKD
ROOT
HETATM    1  C   UNL     1     -12.131  12.917  67.745  1.00  0.00    -0.163 C  
HETATM    2  N   UNL     1     -10.833  12.374  68.070  1.00  0.00    -0.212 N  
HETATM    3  C   UNL     1      -9.659  12.954  67.650  1.00  0.00    -0.196 C  
HETATM    4  O   UNL     1      -9.506  13.984  67.016  1.00  0.00    -0.231 OA 
HETATM    5  N   UNL     1      -8.654  12.117  68.106  1.00  0.00    -0.172 NA 
HETATM    6  N   UNL     1      -9.181  11.079  68.815  1.00  0.00    -0.178 NA 
HETATM    7  C   UNL     1     -10.471  11.283  68.773  1.00  0.00    -0.208 C  
ENDROOT
BRANCH   7   8
HETATM    8  C   UNL     1     -11.413  10.403  69.576  1.00  0.00    -0.246 C  
BRANCH   8   9
HETATM    9  N   UNL     1     -10.920   9.297  70.392  1.00  0.00    -0.242 N  
HETATM   10  C   UNL     1     -11.270   9.174  71.727  1.00  0.00    -0.381 C  
HETATM   11  C   UNL     1     -11.050   8.023  72.382  1.00  0.00    -0.416 C  
HETATM   12  C   UNL     1     -10.294   6.945  71.749  1.00  0.00    -0.217 C  
HETATM   13  C   UNL     1     -10.043   5.677  72.507  1.00  0.00    -0.178 C  
HETATM   14  C   UNL     1      -9.856   7.088  70.482  1.00  0.00    -0.179 C  
HETATM   15  C   UNL     1     -10.553   8.147  69.686  1.00  0.00    -0.223 C  
HETATM   16  F   UNL     1     -10.710   5.633  73.691  1.00  0.00    -0.234 F  
HETATM   17  F   UNL     1     -10.457   4.589  71.804  1.00  0.00    -0.261 F  
HETATM   18  O   UNL     1     -10.776   7.981  68.491  1.00  0.00    -0.142 OA 
HETATM   19  F   UNL     1      -8.731   5.490  72.791  1.00  0.00    -0.119 F  
BRANCH  14  20
HETATM   20  O   UNL     1      -9.003   6.166  69.887  1.00  0.00    -0.137 OA 
BRANCH  20  21
HETATM   21  C   UNL     1      -8.056   6.517  68.942  1.00  0.00    -0.115 A  
HETATM   22  C   UNL     1      -7.396   7.731  69.208  1.00  0.00    -0.087 A  
HETATM   23  C   UNL     1      -6.369   8.203  68.373  1.00  0.00    -0.050 A  
HETATM   24  C   UNL     1      -5.995   7.452  67.256  1.00  0.00    -0.045 A  
HETATM   25  C   UNL     1      -5.707   9.450  68.665  1.00  0.00    -0.040 C  
HETATM   26  C   UNL     1      -6.675   6.268  66.968  1.00  0.00    -0.061 A  
HETATM   27  N   UNL     1      -5.185  10.460  68.893  1.00  0.00    -0.042 NA 
HETATM   28 CL   UNL     1      -6.219   5.341  65.587  1.00  0.00    -0.033 Cl 
HETATM   29  C   UNL     1      -7.718   5.812  67.788  1.00  0.00    -0.097 A  
ENDBRANCH  20  21
ENDBRANCH  14  20
ENDBRANCH   8   9
ENDBRANCH   7   8
TORSDOF 4
ENDMDL
MODEL      253
REMARK 921   NORMALIZED FREE ENERGY PREDICTED BY IDOCK:   -3.79 KCAL/MOL
REMARK 922        TOTAL FREE ENERGY PREDICTED BY IDOCK:   -5.51 KCAL/MOL
REMARK 923 INTER-LIGAND FREE ENERGY PREDICTED BY IDOCK:   -4.99 KCAL/MOL
REMARK 924 INTRA-LIGAND FREE ENERGY PREDICTED BY IDOCK:   -0.52 KCAL/MOL
REMARK 927      BINDING AFFINITY PREDICTED BY RF-SCORE:    0.00 PKD
ROOT
HETATM    1  C   UNL     1     -12.009  13.797  70.111  1.00  0.00    -0.334 C  
HETATM    2  N   UNL     1     -12.333  12.448  70.510  1.00  0.00    -0.306 N  
HETATM    3  C   UNL     1     -12.904  12.151  71.725  1.00  0.00    -0.262 C  
HETATM    4  O   UNL     1     -13.262  12.916  72.604  1.00  0.00    -0.388 OA 
HETATM    5  N   UNL     1     -13.001  10.769  71.755  1.00  0.00    -0.474 NA 
HETATM    6  N   UNL     1     -12.545  10.232  70.589  1.00  0.00    -0.316 NA 
HETATM    7  C   UNL     1     -12.171  11.266  69.884  1.00  0.00    -0.288 C  
ENDROOT
BRANCH   7   8
HETATM    8  C   UNL     1     -11.725  11.091  68.442  1.00  0.00    -0.259 C  
BRANCH   8   9
HETATM    9  N   UNL     1     -10.390  10.606  68.106  1.00  0.00    -0.168 N  
HETATM   10  C   UNL     1      -9.256  11.176  68.661  1.00  0.00    -0.171 C  
HETATM   11  C   UNL     1      -8.070  10.552  68.570  1.00  0.00    -0.121 C  
HETATM   12  C   UNL     1      -7.926   9.353  67.749  1.00  0.00    -0.096 C  
HETATM   13  C   UNL     1      -6.589   8.686  67.646  1.00  0.00    -0.062 C  
HETATM   14  C   UNL     1      -9.002   8.842  67.117  1.00  0.00    -0.131 C  
HETATM   15  C   UNL     1     -10.325   9.283  67.659  1.00  0.00    -0.253 C  
HETATM   16  F   UNL     1      -5.668   9.224  68.489  1.00  0.00    -0.040 F  
HETATM   17  F   UNL     1      -6.667   7.367  67.970  1.00  0.00    -0.047 F  
HETATM   18  O   UNL     1     -11.273   8.504  67.697  1.00  0.00     0.223 OA 
HETATM   19  F   UNL     1      -6.064   8.758  66.398  1.00  0.00    -0.054 F  
BRANCH  14  20
HETATM   20  O   UNL     1      -8.895   7.801  66.202  1.00  0.00    -0.151 OA 
BRANCH  20  21
HETATM   21  C   UNL     1      -9.026   6.471  66.557  1.00  0.00    -0.143 A  
HETATM   22  C   UNL     1      -8.898   5.570  65.482  1.00  0.00    -0.147 A  
HETATM   23  C   UNL     1      -8.953   4.181  65.683  1.00  0.00    -0.130 A  
HETATM   24  C   UNL     1      -9.137   3.681  66.975  1.00  0.00    -0.186 A  
HETATM   25  C   UNL     1      -8.820   3.277  64.567  1.00  0.00    -0.108 C  
HETATM   26  C   UNL     1      -9.304   4.572  68.036  1.00  0.00    -0.140 A  
HETATM   27  N   UNL     1      -8.727   2.552  63.667  1.00  0.00    -0.086 NA 
HETATM   28 CL   UNL     1      -9.536   3.960  69.631  1.00  0.00    -0.252 Cl 
HETATM   29  C   UNL     1      -9.275   5.960  67.830  1.00  0.00    -0.108 A  
ENDBRANCH  20  21
ENDBRANCH  14  20
ENDBRANCH   8   9
ENDBRANCH   7   8
TORSDOF 4
ENDMDL
MODEL      254
REMARK 921   NORMALIZED FREE ENERGY PREDICTED BY IDOCK:   -3.74 KCAL/MOL
REMARK 922        TOTAL FREE ENERGY PREDICTED BY IDOCK:   -5.45 KCAL/MOL
REMARK 923 INTER-LIGAND FREE ENERGY PREDICTED BY IDOCK:   -4.43 KCAL/MOL
REMARK 924 INTRA-LIGAND FREE ENERGY PREDICTED BY IDOCK:   -1.02 KCAL/MOL
REMARK 927      BINDING AFFINITY PREDICTED BY RF-SCORE:    0.00 PKD
ROOT
HETATM    1  C   UNL     1     -11.850  12.584  67.672  1.00  0.00    -0.317 C  
HETATM    2  N   UNL     1     -10.615  11.938  67.295  1.00  0.00    -0.221 N  
HETATM    3  C   UNL     1      -9.653  12.561  66.535  1.00  0.00    -0.242 C  
HETATM    4  O   UNL     1      -9.642  13.705  66.113  1.00  0.00    -0.271 OA 
HETATM    5  N   UNL     1      -8.666  11.608  66.340  1.00  0.00    -0.190 NA 
HETATM    6  N   UNL     1      -8.984  10.451  66.987  1.00  0.00    -0.139 NA 
HETATM    7  C   UNL     1     -10.140  10.701  67.543  1.00  0.00    -0.184 C  
ENDROOT
BRANCH   7   8
HETATM    8  C   UNL     1     -10.773   9.690  68.482  1.00  0.00    -0.200 C  
BRANCH   8   9
HETATM    9  N   UNL     1      -9.994   8.616  69.091  1.00  0.00    -0.186 N  
HETATM   10  C   UNL     1      -9.332   8.799  70.295  1.00  0.00    -0.174 C  
HETATM   11  C   UNL     1      -8.863   7.742  70.978  1.00  0.00    -0.145 C  
HETATM   12  C   UNL     1      -8.896   6.407  70.388  1.00  0.00    -0.151 C  
HETATM   13  C   UNL     1      -8.349   5.245  71.161  1.00  0.00    -0.122 C  
HETATM   14  C   UNL     1      -9.447   6.226  69.171  1.00  0.00    -0.133 C  
HETATM   15  C   UNL     1     -10.363   7.319  68.720  1.00  0.00    -0.200 C  
HETATM   16  F   UNL     1      -8.007   5.577  72.435  1.00  0.00    -0.098 F  
HETATM   17  F   UNL     1      -9.264   4.245  71.268  1.00  0.00    -0.146 F  
HETATM   18  O   UNL     1     -11.371   7.058  68.070  1.00  0.00     0.005 OA 
HETATM   19  F   UNL     1      -7.243   4.712  70.587  1.00  0.00    -0.043 F  
BRANCH  14  20
HETATM   20  O   UNL     1      -9.367   5.012  68.497  1.00  0.00    -0.115 OA 
BRANCH  20  21
HETATM   21  C   UNL     1      -9.165   4.921  67.133  1.00  0.00    -0.123 A  
HETATM   22  C   UNL     1      -7.977   5.526  66.681  1.00  0.00    -0.101 A  
HETATM   23  C   UNL     1      -7.598   5.476  65.329  1.00  0.00    -0.080 A  
HETATM   24  C   UNL     1      -8.417   4.810  64.413  1.00  0.00    -0.134 A  
HETATM   25  C   UNL     1      -6.378   6.104  64.890  1.00  0.00    -0.034 C  
HETATM   26  C   UNL     1      -9.615   4.243  64.850  1.00  0.00    -0.173 A  
HETATM   27  N   UNL     1      -5.403   6.621  64.535  1.00  0.00    -0.026 NA 
HETATM   28 CL   UNL     1     -10.630   3.425  63.722  1.00  0.00    -0.258 Cl 
HETATM   29  C   UNL     1     -10.004   4.318  66.197  1.00  0.00    -0.231 A  
ENDBRANCH  20  21
ENDBRANCH  14  20
ENDBRANCH   8   9
ENDBRANCH   7   8
TORSDOF 4
ENDMDL
MODEL      255
REMARK 921   NORMALIZED FREE ENERGY PREDICTED BY IDOCK:   -3.69 KCAL/MOL
REMARK 922        TOTAL FREE ENERGY PREDICTED BY IDOCK:   -5.39 KCAL/MOL
REMARK 923 INTER-LIGAND FREE ENERGY PREDICTED BY IDOCK:   -4.60 KCAL/MOL
REMARK 924 INTRA-LIGAND FREE ENERGY PREDICTED BY IDOCK:   -0.79 KCAL/MOL
REMARK 927      BINDING AFFINITY PREDICTED BY RF-SCORE:    0.00 PKD
ROOT
HETATM    1  C   UNL     1     -10.112   4.351  71.698  1.00  0.00    -0.160 C  
HETATM    2  N   UNL     1     -10.472   5.605  72.317  1.00  0.00    -0.206 N  
HETATM    3  C   UNL     1     -10.169   5.901  73.625  1.00  0.00    -0.226 C  
HETATM    4  O   UNL     1      -9.545   5.231  74.431  1.00  0.00    -0.130 OA 
HETATM    5  N   UNL     1     -10.726   7.148  73.857  1.00  0.00    -0.249 NA 
HETATM    6  N   UNL     1     -11.316   7.626  72.726  1.00  0.00    -0.372 NA 
HETATM    7  C   UNL     1     -11.130   6.681  71.842  1.00  0.00    -0.253 C  
ENDROOT
BRANCH   7   8
HETATM    8  C   UNL     1     -11.529   6.897  70.393  1.00  0.00    -0.338 C  
BRANCH   8   9
HETATM    9  N   UNL     1     -10.595   7.444  69.414  1.00  0.00    -0.228 N  
HETATM   10  C   UNL     1      -9.744   8.490  69.736  1.00  0.00    -0.179 C  
HETATM   11  C   UNL     1      -8.709   8.792  68.934  1.00  0.00    -0.134 C  
HETATM   12  C   UNL     1      -8.561   8.136  67.638  1.00  0.00    -0.130 C  
HETATM   13  C   UNL     1      -7.410   8.504  66.753  1.00  0.00    -0.082 C  
HETATM   14  C   UNL     1      -9.442   7.186  67.264  1.00  0.00    -0.140 C  
HETATM   15  C   UNL     1     -10.229   6.576  68.381  1.00  0.00    -0.172 C  
HETATM   16  F   UNL     1      -6.524   9.336  67.362  1.00  0.00    -0.060 F  
HETATM   17  F   UNL     1      -6.697   7.406  66.383  1.00  0.00    -0.053 F  
HETATM   18  O   UNL     1     -10.516   5.383  68.360  1.00  0.00    -0.178 OA 
HETATM   19  F   UNL     1      -7.805   9.122  65.613  1.00  0.00    -0.091 F  
BRANCH  14  20
HETATM   20  O   UNL     1      -9.442   6.643  65.984  1.00  0.00    -0.078 OA 
BRANCH  20  21
HETATM   21  C   UNL     1      -9.129   5.321  65.728  1.00  0.00    -0.157 A  
HETATM   22  C   UNL     1     -10.023   4.673  64.853  1.00  0.00     0.006 A  
HETATM   23  C   UNL     1      -9.816   3.344  64.450  1.00  0.00    -0.174 A  
HETATM   24  C   UNL     1      -8.701   2.649  64.925  1.00  0.00    -0.111 A  
HETATM   25  C   UNL     1     -10.745   2.701  63.554  1.00  0.00    -0.197 C  
HETATM   26  C   UNL     1      -7.835   3.275  65.823  1.00  0.00    -0.085 A  
HETATM   27  N   UNL     1     -11.500   2.181  62.845  1.00  0.00    -0.298 NA 
HETATM   28 CL   UNL     1      -6.460   2.419  66.414  1.00  0.00    -0.027 Cl 
HETATM   29  C   UNL     1      -8.058   4.594  66.246  1.00  0.00    -0.103 A  
ENDBRANCH  20  21
ENDBRANCH  14  20
ENDBRANCH   8   9
ENDBRANCH   7   8
TORSDOF 4
ENDMDL
MODEL      256
REMARK 921   NORMALIZED FREE ENERGY PREDICTED BY IDOCK:   -3.65 KCAL/MOL
REMARK 922        TOTAL FREE ENERGY PREDICTED BY IDOCK:   -5.34 KCAL/MOL
REMARK 923 INTER-LIGAND FREE ENERGY PREDICTED BY IDOCK:   -5.67 KCAL/MOL
REMARK 924 INTRA-LIGAND FREE ENERGY PREDICTED BY IDOCK:    0.32 KCAL/MOL
REMARK 927      BINDING AFFINITY PREDICTED BY RF-SCORE:    0.00 PKD
ROOT
HETATM    1  C   UNL     1      -8.192  18.011  68.208  1.00  0.00    -0.292 C  
HETATM    2  N   UNL     1      -7.198  17.002  67.928  1.00  0.00    -0.151 N  
HETATM    3  C   UNL     1      -5.878  17.140  68.287  1.00  0.00    -0.135 C  
HETATM    4  O   UNL     1      -5.351  18.048  68.907  1.00  0.00    -0.170 OA 
HETATM    5  N   UNL     1      -5.245  16.010  67.796  1.00  0.00    -0.127 NA 
HETATM    6  N   UNL     1      -6.143  15.183  67.191  1.00  0.00    -0.202 NA 
HETATM    7  C   UNL     1      -7.284  15.810  67.304  1.00  0.00    -0.219 C  
ENDROOT
BRANCH   7   8
HETATM    8  C   UNL     1      -8.574  15.139  66.867  1.00  0.00    -0.257 C  
BRANCH   8   9
HETATM    9  N   UNL     1      -9.314  14.248  67.755  1.00  0.00    -0.193 N  
HETATM   10  C   UNL     1     -10.488  14.653  68.368  1.00  0.00    -0.243 C  
HETATM   11  C   UNL     1     -11.298  13.750  68.945  1.00  0.00    -0.328 C  
HETATM   12  C   UNL     1     -10.877  12.358  69.079  1.00  0.00    -0.194 C  
HETATM   13  C   UNL     1     -11.789  11.373  69.745  1.00  0.00    -0.364 C  
HETATM   14  C   UNL     1      -9.689  11.967  68.577  1.00  0.00    -0.169 C  
HETATM   15  C   UNL     1      -9.103  12.881  67.547  1.00  0.00    -0.191 C  
HETATM   16  F   UNL     1     -13.014  11.895  70.021  1.00  0.00     0.029 F  
HETATM   17  F   UNL     1     -12.014  10.291  68.951  1.00  0.00    -0.213 F  
HETATM   18  O   UNL     1      -8.485  12.425  66.590  1.00  0.00    -0.143 OA 
HETATM   19  F   UNL     1     -11.289  10.909  70.916  1.00  0.00    -0.368 F  
BRANCH  14  20
HETATM   20  O   UNL     1      -9.170  10.699  68.812  1.00  0.00    -0.164 OA 
BRANCH  20  21
HETATM   21  C   UNL     1      -9.182   9.693  67.863  1.00  0.00    -0.124 A  
HETATM   22  C   UNL     1      -8.156   9.789  66.904  1.00  0.00    -0.113 A  
HETATM   23  C   UNL     1      -7.997   8.817  65.903  1.00  0.00    -0.104 A  
HETATM   24  C   UNL     1      -8.875   7.731  65.858  1.00  0.00    -0.176 A  
HETATM   25  C   UNL     1      -6.939   8.936  64.932  1.00  0.00    -0.073 C  
HETATM   26  C   UNL     1      -9.917   7.653  66.782  1.00  0.00    -0.247 A  
HETATM   27  N   UNL     1      -6.097   9.041  64.142  1.00  0.00    -0.071 NA 
HETATM   28 CL   UNL     1     -11.005   6.317  66.727  1.00  0.00    -0.397 Cl 
HETATM   29  C   UNL     1     -10.090   8.640  67.765  1.00  0.00    -0.266 A  
ENDBRANCH  20  21
ENDBRANCH  14  20
ENDBRANCH   8   9
ENDBRANCH   7   8
TORSDOF 4
ENDMDL
MODEL      257
REMARK 921   NORMALIZED FREE ENERGY PREDICTED BY IDOCK:   -3.64 KCAL/MOL
REMARK 922        TOTAL FREE ENERGY PREDICTED BY IDOCK:   -5.33 KCAL/MOL
REMARK 923 INTER-LIGAND FREE ENERGY PREDICTED BY IDOCK:   -4.44 KCAL/MOL
REMARK 924 INTRA-LIGAND FREE ENERGY PREDICTED BY IDOCK:   -0.89 KCAL/MOL
REMARK 927      BINDING AFFINITY PREDICTED BY RF-SCORE:    0.00 PKD
ROOT
HETATM    1  C   UNL     1      -9.610  15.563  69.141  1.00  0.00    -0.253 C  
HETATM    2  N   UNL     1      -8.678  14.692  68.463  1.00  0.00    -0.172 N  
HETATM    3  C   UNL     1      -7.403  15.084  68.133  1.00  0.00    -0.115 C  
HETATM    4  O   UNL     1      -6.846  16.141  68.375  1.00  0.00    -0.123 OA 
HETATM    5  N   UNL     1      -6.855  14.009  67.452  1.00  0.00    -0.226 NA 
HETATM    6  N   UNL     1      -7.741  12.976  67.396  1.00  0.00    -0.169 NA 
HETATM    7  C   UNL     1      -8.799  13.426  68.017  1.00  0.00    -0.183 C  
ENDROOT
BRANCH   7   8
HETATM    8  C   UNL     1      -9.977  12.507  68.291  1.00  0.00    -0.229 C  
BRANCH   8   9
HETATM    9  N   UNL     1      -9.788  11.105  68.648  1.00  0.00    -0.198 N  
HETATM   10  C   UNL     1      -9.109  10.740  69.799  1.00  0.00     0.457 C  
HETATM   11  C   UNL     1      -9.186   9.481  70.261  1.00  0.00    -0.303 C  
HETATM   12  C   UNL     1      -9.846   8.443  69.473  1.00  0.00    -0.181 C  
HETATM   13  C   UNL     1      -9.902   7.041  69.999  1.00  0.00    -0.177 C  
HETATM   14  C   UNL     1     -10.426   8.762  68.298  1.00  0.00    -0.187 C  
HETATM   15  C   UNL     1     -10.726  10.216  68.112  1.00  0.00    -0.244 C  
HETATM   16  F   UNL     1      -9.436   6.940  71.272  1.00  0.00    -0.162 F  
HETATM   17  F   UNL     1     -11.179   6.573  70.030  1.00  0.00    -0.310 F  
HETATM   18  O   UNL     1     -11.742  10.571  67.524  1.00  0.00    -0.356 OA 
HETATM   19  F   UNL     1      -9.180   6.174  69.248  1.00  0.00    -0.130 F  
BRANCH  14  20
HETATM   20  O   UNL     1     -10.929   7.793  67.437  1.00  0.00    -0.189 OA 
BRANCH  20  21
HETATM   21  C   UNL     1     -10.126   7.030  66.610  1.00  0.00    -0.148 A  
HETATM   22  C   UNL     1      -8.933   7.666  66.215  1.00  0.00    -0.203 A  
HETATM   23  C   UNL     1      -7.983   7.006  65.418  1.00  0.00    -0.129 A  
HETATM   24  C   UNL     1      -8.225   5.692  65.009  1.00  0.00    -0.137 A  
HETATM   25  C   UNL     1      -6.769   7.677  65.026  1.00  0.00    -0.047 C  
HETATM   26  C   UNL     1      -9.424   5.074  65.365  1.00  0.00    -0.085 A  
HETATM   27  N   UNL     1      -5.799   8.222  64.698  1.00  0.00    -0.048 NA 
HETATM   28 CL   UNL     1      -9.729   3.454  64.859  1.00  0.00    -0.158 Cl 
HETATM   29  C   UNL     1     -10.384   5.744  66.139  1.00  0.00    -0.037 A  
ENDBRANCH  20  21
ENDBRANCH  14  20
ENDBRANCH   8   9
ENDBRANCH   7   8
TORSDOF 4
ENDMDL
MODEL      258
REMARK 921   NORMALIZED FREE ENERGY PREDICTED BY IDOCK:   -3.54 KCAL/MOL
REMARK 922        TOTAL FREE ENERGY PREDICTED BY IDOCK:   -5.20 KCAL/MOL
REMARK 923 INTER-LIGAND FREE ENERGY PREDICTED BY IDOCK:   -5.34 KCAL/MOL
REMARK 924 INTRA-LIGAND FREE ENERGY PREDICTED BY IDOCK:    0.13 KCAL/MOL
REMARK 927      BINDING AFFINITY PREDICTED BY RF-SCORE:    0.00 PKD
ROOT
HETATM    1  C   UNL     1     -10.785  10.985  64.675  1.00  0.00    -0.248 C  
HETATM    2  N   UNL     1     -11.006  12.281  65.271  1.00  0.00    -0.297 N  
HETATM    3  C   UNL     1     -11.478  13.357  64.556  1.00  0.00    -0.372 C  
HETATM    4  O   UNL     1     -11.819  13.400  63.386  1.00  0.00    -0.430 OA 
HETATM    5  N   UNL     1     -11.495  14.413  65.452  1.00  0.00    -0.335 NA 
HETATM    6  N   UNL     1     -11.087  14.001  66.685  1.00  0.00    -0.304 NA 
HETATM    7  C   UNL     1     -10.819  12.732  66.528  1.00  0.00    -0.256 C  
ENDROOT
BRANCH   7   8
HETATM    8  C   UNL     1     -10.460  11.870  67.725  1.00  0.00    -0.202 C  
BRANCH   8   9
HETATM    9  N   UNL     1      -9.460  10.811  67.636  1.00  0.00    -0.153 N  
HETATM   10  C   UNL     1      -8.104  11.099  67.632  1.00  0.00    -0.117 C  
HETATM   11  C   UNL     1      -7.204  10.123  67.834  1.00  0.00    -0.086 C  
HETATM   12  C   UNL     1      -7.628   8.727  67.895  1.00  0.00    -0.097 C  
HETATM   13  C   UNL     1      -6.603   7.653  68.101  1.00  0.00    -0.054 C  
HETATM   14  C   UNL     1      -8.937   8.419  67.798  1.00  0.00    -0.136 C  
HETATM   15  C   UNL     1      -9.876   9.551  68.076  1.00  0.00    -0.155 C  
HETATM   16  F   UNL     1      -5.366   8.152  68.364  1.00  0.00    -0.029 F  
HETATM   17  F   UNL     1      -6.919   6.861  69.161  1.00  0.00    -0.065 F  
HETATM   18  O   UNL     1     -10.937   9.349  68.659  1.00  0.00    -0.150 OA 
HETATM   19  F   UNL     1      -6.475   6.841  67.023  1.00  0.00    -0.036 F  
BRANCH  14  20
HETATM   20  O   UNL     1      -9.381   7.106  67.693  1.00  0.00    -0.127 OA 
BRANCH  20  21
HETATM   21  C   UNL     1      -9.817   6.370  68.779  1.00  0.00    -0.139 A  
HETATM   22  C   UNL     1      -9.253   5.084  68.871  1.00  0.00    -0.155 A  
HETATM   23  C   UNL     1      -9.551   4.229  69.945  1.00  0.00    -0.279 A  
HETATM   24  C   UNL     1     -10.426   4.665  70.944  1.00  0.00    -0.028 A  
HETATM   25  C   UNL     1      -8.961   2.916  70.018  1.00  0.00    -0.101 C  
HETATM   26  C   UNL     1     -11.018   5.923  70.835  1.00  0.00    -0.265 A  
HETATM   27  N   UNL     1      -8.497   1.855  70.067  1.00  0.00    -0.045 NA 
HETATM   28 CL   UNL     1     -12.101   6.462  72.064  1.00  0.00    -0.382 Cl 
HETATM   29  C   UNL     1     -10.739   6.765  69.747  1.00  0.00    -0.288 A  
ENDBRANCH  20  21
ENDBRANCH  14  20
ENDBRANCH   8   9
ENDBRANCH   7   8
TORSDOF 4
ENDMDL
MODEL      259
REMARK 921   NORMALIZED FREE ENERGY PREDICTED BY IDOCK:   -3.53 KCAL/MOL
REMARK 922        TOTAL FREE ENERGY PREDICTED BY IDOCK:   -5.19 KCAL/MOL
REMARK 923 INTER-LIGAND FREE ENERGY PREDICTED BY IDOCK:   -4.37 KCAL/MOL
REMARK 924 INTRA-LIGAND FREE ENERGY PREDICTED BY IDOCK:   -0.81 KCAL/MOL
REMARK 927      BINDING AFFINITY PREDICTED BY RF-SCORE:    0.00 PKD
ROOT
HETATM    1  C   UNL     1      -6.803   8.374  71.405  1.00  0.00    -0.069 C  
HETATM    2  N   UNL     1      -7.561   7.791  72.488  1.00  0.00    -0.091 N  
HETATM    3  C   UNL     1      -7.344   8.117  73.806  1.00  0.00    -0.154 C  
HETATM    4  O   UNL     1      -6.566   8.935  74.268  1.00  0.00    -0.300 OA 
HETATM    5  N   UNL     1      -8.211   7.315  74.529  1.00  0.00    -0.170 NA 
HETATM    6  N   UNL     1      -8.964   6.548  73.692  1.00  0.00    -0.124 NA 
HETATM    7  C   UNL     1      -8.549   6.874  72.496  1.00  0.00    -0.121 C  
ENDROOT
BRANCH   7   8
HETATM    8  C   UNL     1      -9.251   6.328  71.265  1.00  0.00    -0.152 C  
BRANCH   8   9
HETATM    9  N   UNL     1      -8.698   6.505  69.926  1.00  0.00    -0.139 N  
HETATM   10  C   UNL     1      -7.674   5.697  69.456  1.00  0.00    -0.091 C  
HETATM   11  C   UNL     1      -7.372   5.678  68.148  1.00  0.00    -0.073 C  
HETATM   12  C   UNL     1      -8.001   6.624  67.230  1.00  0.00    -0.117 C  
HETATM   13  C   UNL     1      -7.633   6.597  65.777  1.00  0.00    -0.085 C  
HETATM   14  C   UNL     1      -8.927   7.488  67.690  1.00  0.00    -0.127 C  
HETATM   15  C   UNL     1      -9.549   7.115  68.999  1.00  0.00    -0.146 C  
HETATM   16  F   UNL     1      -6.830   5.548  65.459  1.00  0.00    -0.055 F  
HETATM   17  F   UNL     1      -8.735   6.478  64.989  1.00  0.00    -0.113 F  
HETATM   18  O   UNL     1     -10.736   7.342  69.211  1.00  0.00    -0.222 OA 
HETATM   19  F   UNL     1      -6.983   7.720  65.384  1.00  0.00    -0.052 F  
BRANCH  14  20
HETATM   20  O   UNL     1      -9.442   8.509  66.899  1.00  0.00    -0.158 OA 
BRANCH  20  21
HETATM   21  C   UNL     1      -9.163   9.846  67.119  1.00  0.00    -0.138 A  
HETATM   22  C   UNL     1     -10.260  10.706  66.923  1.00  0.00    -0.272 A  
HETATM   23  C   UNL     1     -10.157  12.087  67.157  1.00  0.00    -0.217 A  
HETATM   24  C   UNL     1      -8.941  12.619  67.594  1.00  0.00    -0.186 A  
HETATM   25  C   UNL     1     -11.294  12.948  66.949  1.00  0.00    -0.312 C  
HETATM   26  C   UNL     1      -7.841  11.775  67.751  1.00  0.00    -0.135 A  
HETATM   27  N   UNL     1     -12.205  13.642  66.767  1.00  0.00    -0.396 NA 
HETATM   28 CL   UNL     1      -6.338  12.429  68.286  1.00  0.00    -0.052 Cl 
HETATM   29  C   UNL     1      -7.939  10.400  67.491  1.00  0.00    -0.106 A  
ENDBRANCH  20  21
ENDBRANCH  14  20
ENDBRANCH   8   9
ENDBRANCH   7   8
TORSDOF 4
ENDMDL
MODEL      260
REMARK 921   NORMALIZED FREE ENERGY PREDICTED BY IDOCK:   -3.46 KCAL/MOL
REMARK 922        TOTAL FREE ENERGY PREDICTED BY IDOCK:   -5.10 KCAL/MOL
REMARK 923 INTER-LIGAND FREE ENERGY PREDICTED BY IDOCK:   -4.03 KCAL/MOL
REMARK 924 INTRA-LIGAND FREE ENERGY PREDICTED BY IDOCK:   -1.07 KCAL/MOL
REMARK 927      BINDING AFFINITY PREDICTED BY RF-SCORE:    0.00 PKD
ROOT
HETATM    1  C   UNL     1     -11.380  10.056  69.694  1.00  0.00    -0.202 C  
HETATM    2  N   UNL     1     -10.062   9.757  70.201  1.00  0.00    -0.253 N  
HETATM    3  C   UNL     1      -9.847   8.888  71.245  1.00  0.00    -0.291 C  
HETATM    4  O   UNL     1     -10.663   8.221  71.857  1.00  0.00    -0.243 OA 
HETATM    5  N   UNL     1      -8.481   8.917  71.470  1.00  0.00    -0.310 NA 
HETATM    6  N   UNL     1      -7.866   9.741  70.575  1.00  0.00    -0.265 NA 
HETATM    7  C   UNL     1      -8.842  10.205  69.842  1.00  0.00    -0.056 C  
ENDROOT
BRANCH   7   8
HETATM    8  C   UNL     1      -8.546  11.065  68.625  1.00  0.00    -0.157 C  
BRANCH   8   9
HETATM    9  N   UNL     1      -8.558  10.512  67.274  1.00  0.00    -0.123 N  
HETATM   10  C   UNL     1      -9.291  11.104  66.259  1.00  0.00    -0.195 C  
HETATM   11  C   UNL     1      -9.075  10.763  64.979  1.00  0.00    -0.226 C  
HETATM   12  C   UNL     1      -8.186   9.652  64.649  1.00  0.00    -0.149 C  
HETATM   13  C   UNL     1      -7.975   9.276  63.214  1.00  0.00    -0.145 C  
HETATM   14  C   UNL     1      -7.541   8.996  65.635  1.00  0.00    -0.086 C  
HETATM   15  C   UNL     1      -7.446   9.735  66.933  1.00  0.00    -0.091 C  
HETATM   16  F   UNL     1      -8.552  10.155  62.352  1.00  0.00    -0.144 F  
HETATM   17  F   UNL     1      -6.653   9.254  62.896  1.00  0.00    -0.095 F  
HETATM   18  O   UNL     1      -6.439   9.645  67.627  1.00  0.00    -0.060 OA 
HETATM   19  F   UNL     1      -8.475   8.052  62.917  1.00  0.00    -0.154 F  
BRANCH  14  20
HETATM   20  O   UNL     1      -6.810   7.838  65.396  1.00  0.00    -0.047 OA 
BRANCH  20  21
HETATM   21  C   UNL     1      -7.377   6.577  65.390  1.00  0.00    -0.076 A  
HETATM   22  C   UNL     1      -6.478   5.539  65.080  1.00  0.00    -0.039 A  
HETATM   23  C   UNL     1      -6.883   4.195  65.084  1.00  0.00    -0.053 A  
HETATM   24  C   UNL     1      -8.207   3.879  65.404  1.00  0.00    -0.101 A  
HETATM   25  C   UNL     1      -5.945   3.148  64.762  1.00  0.00    -0.018 C  
HETATM   26  C   UNL     1      -9.110   4.908  65.673  1.00  0.00    -0.151 A  
HETATM   27  N   UNL     1      -5.193   2.309  64.489  1.00  0.00    -0.008 NA 
HETATM   28 CL   UNL     1     -10.745   4.523  66.064  1.00  0.00    -0.170 Cl 
HETATM   29  C   UNL     1      -8.709   6.252  65.642  1.00  0.00    -0.122 A  
ENDBRANCH  20  21
ENDBRANCH  14  20
ENDBRANCH   8   9
ENDBRANCH   7   8
TORSDOF 4
ENDMDL
MODEL      261
REMARK 921   NORMALIZED FREE ENERGY PREDICTED BY IDOCK:   -3.38 KCAL/MOL
REMARK 922        TOTAL FREE ENERGY PREDICTED BY IDOCK:   -5.00 KCAL/MOL
REMARK 923 INTER-LIGAND FREE ENERGY PREDICTED BY IDOCK:   -4.79 KCAL/MOL
REMARK 924 INTRA-LIGAND FREE ENERGY PREDICTED BY IDOCK:   -0.21 KCAL/MOL
REMARK 927      BINDING AFFINITY PREDICTED BY RF-SCORE:    0.00 PKD
ROOT
HETATM    1  C   UNL     1      -8.684   3.923  68.061  1.00  0.00    -0.102 C  
HETATM    2  N   UNL     1      -9.588   4.951  67.603  1.00  0.00    -0.144 N  
HETATM    3  C   UNL     1     -10.393   4.795  66.500  1.00  0.00    -0.244 C  
HETATM    4  O   UNL     1     -10.521   3.815  65.786  1.00  0.00     0.145 OA 
HETATM    5  N   UNL     1     -11.054   6.004  66.354  1.00  0.00     0.021 NA 
HETATM    6  N   UNL     1     -10.704   6.863  67.351  1.00  0.00    -0.295 NA 
HETATM    7  C   UNL     1      -9.843   6.191  68.068  1.00  0.00    -0.127 C  
ENDROOT
BRANCH   7   8
HETATM    8  C   UNL     1      -9.315   6.765  69.371  1.00  0.00    -0.148 C  
BRANCH   8   9
HETATM    9  N   UNL     1      -8.733   8.102  69.439  1.00  0.00    -0.142 N  
HETATM   10  C   UNL     1      -8.433   8.697  70.654  1.00  0.00    -0.157 C  
HETATM   11  C   UNL     1      -7.650   9.787  70.700  1.00  0.00    -0.026 C  
HETATM   12  C   UNL     1      -7.240  10.456  69.468  1.00  0.00    -0.130 C  
HETATM   13  C   UNL     1      -6.383  11.682  69.545  1.00  0.00    -0.122 C  
HETATM   14  C   UNL     1      -7.609   9.947  68.276  1.00  0.00    -0.080 C  
HETATM   15  C   UNL     1      -8.030   8.511  68.301  1.00  0.00    -0.114 C  
HETATM   16  F   UNL     1      -5.954  11.944  70.808  1.00  0.00    -0.163 F  
HETATM   17  F   UNL     1      -5.260  11.551  68.789  1.00  0.00    -0.047 F  
HETATM   18  O   UNL     1      -7.756   7.766  67.366  1.00  0.00    -0.108 OA 
HETATM   19  F   UNL     1      -7.025  12.795  69.112  1.00  0.00    -0.100 F  
BRANCH  14  20
HETATM   20  O   UNL     1      -7.382  10.623  67.082  1.00  0.00    -0.092 OA 
BRANCH  20  21
HETATM   21  C   UNL     1      -8.328  10.718  66.079  1.00  0.00    -0.163 A  
HETATM   22  C   UNL     1      -9.394  11.591  66.369  1.00  0.00    -0.222 A  
HETATM   23  C   UNL     1     -10.411  11.839  65.433  1.00  0.00    -0.317 A  
HETATM   24  C   UNL     1     -10.365  11.209  64.187  1.00  0.00    -0.423 A  
HETATM   25  C   UNL     1     -11.493  12.737  65.753  1.00  0.00    -0.348 C  
HETATM   26  C   UNL     1      -9.332  10.312  63.911  1.00  0.00    -0.291 A  
HETATM   27  N   UNL     1     -12.371  13.447  66.017  1.00  0.00    -0.429 NA 
HETATM   28 CL   UNL     1      -9.273   9.529  62.376  1.00  0.00    -0.262 Cl 
HETATM   29  C   UNL     1      -8.331  10.045  64.858  1.00  0.00    -0.160 A  
ENDBRANCH  20  21
ENDBRANCH  14  20
ENDBRANCH   8   9
ENDBRANCH   7   8
TORSDOF 4
ENDMDL
MODEL      262
REMARK 921   NORMALIZED FREE ENERGY PREDICTED BY IDOCK:   -3.37 KCAL/MOL
REMARK 922        TOTAL FREE ENERGY PREDICTED BY IDOCK:   -4.99 KCAL/MOL
REMARK 923 INTER-LIGAND FREE ENERGY PREDICTED BY IDOCK:   -5.17 KCAL/MOL
REMARK 924 INTRA-LIGAND FREE ENERGY PREDICTED BY IDOCK:    0.18 KCAL/MOL
REMARK 927      BINDING AFFINITY PREDICTED BY RF-SCORE:    0.00 PKD
ROOT
HETATM    1  C   UNL     1     -11.945  10.641  70.581  1.00  0.00    -0.367 C  
HETATM    2  N   UNL     1     -11.721   9.559  71.510  1.00  0.00    -0.381 N  
HETATM    3  C   UNL     1     -12.729   9.009  72.266  1.00  0.00    -0.387 C  
HETATM    4  O   UNL     1     -13.918   9.279  72.258  1.00  0.00    -0.440 OA 
HETATM    5  N   UNL     1     -12.112   8.057  73.061  1.00  0.00    -0.112 NA 
HETATM    6  N   UNL     1     -10.780   7.990  72.782  1.00  0.00    -0.356 NA 
HETATM    7  C   UNL     1     -10.601   8.891  71.852  1.00  0.00    -0.349 C  
ENDROOT
BRANCH   7   8
HETATM    8  C   UNL     1      -9.253   9.028  71.167  1.00  0.00    -0.256 C  
BRANCH   8   9
HETATM    9  N   UNL     1      -9.124   8.992  69.713  1.00  0.00    -0.151 N  
HETATM   10  C   UNL     1      -8.357   9.924  69.034  1.00  0.00    -0.130 C  
HETATM   11  C   UNL     1      -8.019   9.718  67.751  1.00  0.00    -0.101 C  
HETATM   12  C   UNL     1      -8.586   8.597  67.007  1.00  0.00    -0.120 C  
HETATM   13  C   UNL     1      -8.209   8.399  65.570  1.00  0.00    -0.140 C  
HETATM   14  C   UNL     1      -9.418   7.735  67.626  1.00  0.00    -0.144 C  
HETATM   15  C   UNL     1      -9.341   7.743  69.121  1.00  0.00    -0.151 C  
HETATM   16  F   UNL     1      -7.225   9.244  65.165  1.00  0.00    -0.088 F  
HETATM   17  F   UNL     1      -7.737   7.142  65.350  1.00  0.00    -0.086 F  
HETATM   18  O   UNL     1      -9.463   6.701  69.756  1.00  0.00    -0.148 OA 
HETATM   19  F   UNL     1      -9.254   8.583  64.727  1.00  0.00    -0.074 F  
BRANCH  14  20
HETATM   20  O   UNL     1     -10.107   6.747  66.933  1.00  0.00    -0.177 OA 
BRANCH  20  21
HETATM   21  C   UNL     1      -9.564   5.506  66.653  1.00  0.00    -0.151 A  
HETATM   22  C   UNL     1      -8.597   5.075  67.581  1.00  0.00    -0.104 A  
HETATM   23  C   UNL     1      -7.988   3.814  67.470  1.00  0.00    -0.089 A  
HETATM   24  C   UNL     1      -8.350   2.969  66.417  1.00  0.00    -0.098 A  
HETATM   25  C   UNL     1      -7.000   3.394  68.432  1.00  0.00    -0.050 C  
HETATM   26  C   UNL     1      -9.278   3.410  65.473  1.00  0.00    -0.153 A  
HETATM   27  N   UNL     1      -6.195   3.063  69.197  1.00  0.00    -0.028 NA 
HETATM   28 CL   UNL     1      -9.724   2.372  64.170  1.00  0.00    -0.141 Cl 
HETATM   29  C   UNL     1      -9.866   4.680  65.571  1.00  0.00    -0.198 A  
ENDBRANCH  20  21
ENDBRANCH  14  20
ENDBRANCH   8   9
ENDBRANCH   7   8
TORSDOF 4
ENDMDL
MODEL      263
REMARK 921   NORMALIZED FREE ENERGY PREDICTED BY IDOCK:   -3.34 KCAL/MOL
REMARK 922        TOTAL FREE ENERGY PREDICTED BY IDOCK:   -4.96 KCAL/MOL
REMARK 923 INTER-LIGAND FREE ENERGY PREDICTED BY IDOCK:   -5.76 KCAL/MOL
REMARK 924 INTRA-LIGAND FREE ENERGY PREDICTED BY IDOCK:    0.80 KCAL/MOL
REMARK 927      BINDING AFFINITY PREDICTED BY RF-SCORE:    0.00 PKD
ROOT
HETATM    1  C   UNL     1      -8.105  15.740  69.531  1.00  0.00    -0.137 C  
HETATM    2  N   UNL     1      -6.990  16.489  69.001  1.00  0.00    -0.196 N  
HETATM    3  C   UNL     1      -5.955  16.936  69.789  1.00  0.00    -0.232 C  
HETATM    4  O   UNL     1      -5.775  16.754  70.981  1.00  0.00     0.079 OA 
HETATM    5  N   UNL     1      -5.131  17.653  68.938  1.00  0.00    -0.156 NA 
HETATM    6  N   UNL     1      -5.613  17.619  67.664  1.00  0.00    -0.131 NA 
HETATM    7  C   UNL     1      -6.708  16.911  67.753  1.00  0.00    -0.145 C  
ENDROOT
BRANCH   7   8
HETATM    8  C   UNL     1      -7.475  16.524  66.501  1.00  0.00    -0.235 C  
BRANCH   8   9
HETATM    9  N   UNL     1      -8.716  15.759  66.568  1.00  0.00    -0.293 N  
HETATM   10  C   UNL     1      -9.892  16.244  66.018  1.00  0.00    -0.343 C  
HETATM   11  C   UNL     1     -10.942  15.426  65.835  1.00  0.00    -0.293 C  
HETATM   12  C   UNL     1     -10.918  14.064  66.360  1.00  0.00    -0.308 C  
HETATM   13  C   UNL     1     -12.109  13.176  66.161  1.00  0.00    -0.417 C  
HETATM   14  C   UNL     1      -9.817  13.608  66.990  1.00  0.00    -0.251 C  
HETATM   15  C   UNL     1      -8.563  14.377  66.712  1.00  0.00    -0.108 C  
HETATM   16  F   UNL     1     -13.048  13.732  65.350  1.00  0.00    -0.517 F  
HETATM   17  F   UNL     1     -11.759  11.999  65.576  1.00  0.00    -0.397 F  
HETATM   18  O   UNL     1      -7.486  13.797  66.620  1.00  0.00     0.507 OA 
HETATM   19  F   UNL     1     -12.732  12.870  67.326  1.00  0.00     0.008 F  
BRANCH  14  20
HETATM   20  O   UNL     1      -9.795  12.381  67.643  1.00  0.00    -0.191 OA 
BRANCH  20  21
HETATM   21  C   UNL     1      -9.655  11.176  66.978  1.00  0.00    -0.181 A  
HETATM   22  C   UNL     1      -8.756  11.213  65.896  1.00  0.00    -0.167 A  
HETATM   23  C   UNL     1      -8.462  10.060  65.150  1.00  0.00    -0.160 A  
HETATM   24  C   UNL     1      -9.074   8.851  65.489  1.00  0.00    -0.248 A  
HETATM   25  C   UNL     1      -7.538  10.122  64.045  1.00  0.00    -0.128 C  
HETATM   26  C   UNL     1      -9.996   8.819  66.535  1.00  0.00    -0.290 A  
HETATM   27  N   UNL     1      -6.806  10.177  63.148  1.00  0.00    -0.132 NA 
HETATM   28 CL   UNL     1     -10.756   7.329  66.954  1.00  0.00    -0.405 Cl 
HETATM   29  C   UNL     1     -10.308   9.978  67.263  1.00  0.00    -0.293 A  
ENDBRANCH  20  21
ENDBRANCH  14  20
ENDBRANCH   8   9
ENDBRANCH   7   8
TORSDOF 4
ENDMDL
MODEL      264
REMARK 921   NORMALIZED FREE ENERGY PREDICTED BY IDOCK:   -3.32 KCAL/MOL
REMARK 922        TOTAL FREE ENERGY PREDICTED BY IDOCK:   -4.94 KCAL/MOL
REMARK 923 INTER-LIGAND FREE ENERGY PREDICTED BY IDOCK:   -4.42 KCAL/MOL
REMARK 924 INTRA-LIGAND FREE ENERGY PREDICTED BY IDOCK:   -0.52 KCAL/MOL
REMARK 927      BINDING AFFINITY PREDICTED BY RF-SCORE:    0.00 PKD
ROOT
HETATM    1  C   UNL     1     -11.038   6.226  68.535  1.00  0.00    -0.308 C  
HETATM    2  N   UNL     1     -10.761   6.752  69.850  1.00  0.00    -0.234 N  
HETATM    3  C   UNL     1     -10.556   5.945  70.944  1.00  0.00    -0.256 C  
HETATM    4  O   UNL     1     -10.522   4.727  70.995  1.00  0.00    -0.162 OA 
HETATM    5  N   UNL     1     -10.386   6.812  72.012  1.00  0.00    -0.196 NA 
HETATM    6  N   UNL     1     -10.443   8.107  71.590  1.00  0.00    -0.217 NA 
HETATM    7  C   UNL     1     -10.657   8.017  70.304  1.00  0.00    -0.231 C  
ENDROOT
BRANCH   7   8
HETATM    8  C   UNL     1     -10.646   9.263  69.436  1.00  0.00    -0.223 C  
BRANCH   8   9
HETATM    9  N   UNL     1     -10.146   9.239  68.066  1.00  0.00    -0.183 N  
HETATM   10  C   UNL     1     -10.772   9.952  67.057  1.00  0.00    -0.167 C  
HETATM   11  C   UNL     1     -10.153  10.150  65.881  1.00  0.00    -0.325 C  
HETATM   12  C   UNL     1      -8.888   9.481  65.590  1.00  0.00    -0.194 C  
HETATM   13  C   UNL     1      -8.225   9.701  64.265  1.00  0.00    -0.156 C  
HETATM   14  C   UNL     1      -8.313   8.699  66.526  1.00  0.00    -0.108 C  
HETATM   15  C   UNL     1      -8.789   8.931  67.926  1.00  0.00    -0.133 C  
HETATM   16  F   UNL     1      -8.843  10.658  63.522  1.00  0.00    -0.169 F  
HETATM   17  F   UNL     1      -6.939  10.118  64.416  1.00  0.00    -0.121 F  
HETATM   18  O   UNL     1      -8.008   8.852  68.870  1.00  0.00    -0.101 OA 
HETATM   19  F   UNL     1      -8.192   8.578  63.506  1.00  0.00    -0.153 F  
BRANCH  14  20
HETATM   20  O   UNL     1      -7.196   7.918  66.252  1.00  0.00    -0.072 OA 
BRANCH  20  21
HETATM   21  C   UNL     1      -7.247   6.783  65.464  1.00  0.00    -0.077 A  
HETATM   22  C   UNL     1      -8.491   6.123  65.478  1.00  0.00    -0.149 A  
HETATM   23  C   UNL     1      -8.724   4.985  64.690  1.00  0.00    -0.141 A  
HETATM   24  C   UNL     1      -7.701   4.495  63.874  1.00  0.00    -0.076 A  
HETATM   25  C   UNL     1     -10.006   4.326  64.721  1.00  0.00    -0.150 C  
HETATM   26  C   UNL     1      -6.455   5.122  63.888  1.00  0.00    -0.029 A  
HETATM   27  N   UNL     1     -11.033   3.788  64.758  1.00  0.00    -0.047 NA 
HETATM   28 CL   UNL     1      -5.188   4.518  62.886  1.00  0.00    -0.009 Cl 
HETATM   29  C   UNL     1      -6.216   6.244  64.696  1.00  0.00    -0.030 A  
ENDBRANCH  20  21
ENDBRANCH  14  20
ENDBRANCH   8   9
ENDBRANCH   7   8
TORSDOF 4
ENDMDL
MODEL      265
REMARK 921   NORMALIZED FREE ENERGY PREDICTED BY IDOCK:   -3.32 KCAL/MOL
REMARK 922        TOTAL FREE ENERGY PREDICTED BY IDOCK:   -4.93 KCAL/MOL
REMARK 923 INTER-LIGAND FREE ENERGY PREDICTED BY IDOCK:   -4.26 KCAL/MOL
REMARK 924 INTRA-LIGAND FREE ENERGY PREDICTED BY IDOCK:   -0.66 KCAL/MOL
REMARK 927      BINDING AFFINITY PREDICTED BY RF-SCORE:    0.00 PKD
ROOT
HETATM    1  C   UNL     1     -10.489  11.361  63.412  1.00  0.00    -0.390 C  
HETATM    2  N   UNL     1      -9.939  11.863  64.649  1.00  0.00    -0.250 N  
HETATM    3  C   UNL     1     -10.378  13.025  65.239  1.00  0.00    -0.304 C  
HETATM    4  O   UNL     1     -11.279  13.765  64.882  1.00  0.00    -0.322 OA 
HETATM    5  N   UNL     1      -9.576  13.194  66.356  1.00  0.00    -0.267 NA 
HETATM    6  N   UNL     1      -8.699  12.158  66.476  1.00  0.00    -0.160 NA 
HETATM    7  C   UNL     1      -8.961  11.394  65.449  1.00  0.00    -0.047 C  
ENDROOT
BRANCH   7   8
HETATM    8  C   UNL     1      -8.278  10.045  65.302  1.00  0.00    -0.148 C  
BRANCH   8   9
HETATM    9  N   UNL     1      -7.779   9.309  66.459  1.00  0.00    -0.093 N  
HETATM   10  C   UNL     1      -6.471   9.451  66.895  1.00  0.00    -0.067 C  
HETATM   11  C   UNL     1      -6.107   8.998  68.106  1.00  0.00    -0.050 C  
HETATM   12  C   UNL     1      -7.036   8.208  68.910  1.00  0.00    -0.062 C  
HETATM   13  C   UNL     1      -6.601   7.697  70.250  1.00  0.00    -0.038 C  
HETATM   14  C   UNL     1      -8.283   7.973  68.455  1.00  0.00    -0.123 C  
HETATM   15  C   UNL     1      -8.751   8.902  67.379  1.00  0.00    -0.125 C  
HETATM   16  F   UNL     1      -5.388   8.182  70.627  1.00  0.00    -0.025 F  
HETATM   17  F   UNL     1      -7.471   8.065  71.228  1.00  0.00    -0.061 F  
HETATM   18  O   UNL     1      -9.922   9.267  67.338  1.00  0.00    -0.173 OA 
HETATM   19  F   UNL     1      -6.510   6.345  70.287  1.00  0.00    -0.035 F  
BRANCH  14  20
HETATM   20  O   UNL     1      -9.153   7.103  69.101  1.00  0.00    -0.138 OA 
BRANCH  20  21
HETATM   21  C   UNL     1      -9.169   5.741  68.864  1.00  0.00    -0.115 A  
HETATM   22  C   UNL     1      -9.438   4.958  70.003  1.00  0.00    -0.234 A  
HETATM   23  C   UNL     1      -9.541   3.559  69.921  1.00  0.00    -0.219 A  
HETATM   24  C   UNL     1      -9.374   2.931  68.683  1.00  0.00    -0.239 A  
HETATM   25  C   UNL     1      -9.817   2.778  71.100  1.00  0.00    -0.023 C  
HETATM   26  C   UNL     1      -9.068   3.701  67.560  1.00  0.00    -0.157 A  
HETATM   27  N   UNL     1     -10.024   2.150  72.052  1.00  0.00    -0.151 NA 
HETATM   28 CL   UNL     1      -8.857   2.929  66.033  1.00  0.00    -0.137 Cl 
HETATM   29  C   UNL     1      -8.938   5.095  67.649  1.00  0.00    -0.112 A  
ENDBRANCH  20  21
ENDBRANCH  14  20
ENDBRANCH   8   9
ENDBRANCH   7   8
TORSDOF 4
ENDMDL
MODEL      266
REMARK 921   NORMALIZED FREE ENERGY PREDICTED BY IDOCK:   -3.30 KCAL/MOL
REMARK 922        TOTAL FREE ENERGY PREDICTED BY IDOCK:   -4.91 KCAL/MOL
REMARK 923 INTER-LIGAND FREE ENERGY PREDICTED BY IDOCK:   -5.16 KCAL/MOL
REMARK 924 INTRA-LIGAND FREE ENERGY PREDICTED BY IDOCK:    0.25 KCAL/MOL
REMARK 927      BINDING AFFINITY PREDICTED BY RF-SCORE:    0.00 PKD
ROOT
HETATM    1  C   UNL     1     -10.456   8.648  67.490  1.00  0.00    -0.266 C  
HETATM    2  N   UNL     1      -9.046   8.647  67.176  1.00  0.00    -0.131 N  
HETATM    3  C   UNL     1      -8.530   7.993  66.082  1.00  0.00    -0.135 C  
HETATM    4  O   UNL     1      -9.126   7.380  65.212  1.00  0.00     0.173 OA 
HETATM    5  N   UNL     1      -7.159   8.174  66.161  1.00  0.00    -0.062 NA 
HETATM    6  N   UNL     1      -6.839   8.944  67.239  1.00  0.00    -0.076 NA 
HETATM    7  C   UNL     1      -7.990   9.205  67.800  1.00  0.00    -0.101 C  
ENDROOT
BRANCH   7   8
HETATM    8  C   UNL     1      -8.071  10.168  68.972  1.00  0.00    -0.125 C  
BRANCH   8   9
HETATM    9  N   UNL     1      -7.662  11.563  68.847  1.00  0.00    -0.118 N  
HETATM   10  C   UNL     1      -6.328  11.915  68.720  1.00  0.00    -0.063 C  
HETATM   11  C   UNL     1      -5.988  13.154  68.327  1.00  0.00    -0.090 C  
HETATM   12  C   UNL     1      -7.007  14.191  68.186  1.00  0.00    -0.126 C  
HETATM   13  C   UNL     1      -6.602  15.570  67.765  1.00  0.00    -0.159 C  
HETATM   14  C   UNL     1      -8.303  13.890  68.406  1.00  0.00    -0.157 C  
HETATM   15  C   UNL     1      -8.636  12.432  68.344  1.00  0.00    -0.129 C  
HETATM   16  F   UNL     1      -5.292  15.646  67.408  1.00  0.00    -0.132 F  
HETATM   17  F   UNL     1      -7.309  15.986  66.680  1.00  0.00    -0.249 F  
HETATM   18  O   UNL     1      -9.704  12.058  67.871  1.00  0.00    -0.183 OA 
HETATM   19  F   UNL     1      -6.794  16.491  68.741  1.00  0.00    -0.141 F  
BRANCH  14  20
HETATM   20  O   UNL     1      -9.292  14.867  68.439  1.00  0.00    -0.185 OA 
BRANCH  20  21
HETATM   21  C   UNL     1      -9.844  15.418  67.298  1.00  0.00    -0.217 A  
HETATM   22  C   UNL     1     -10.293  14.472  66.357  1.00  0.00    -0.296 A  
HETATM   23  C   UNL     1     -10.927  14.868  65.168  1.00  0.00    -0.410 A  
HETATM   24  C   UNL     1     -11.117  16.228  64.913  1.00  0.00    -0.301 A  
HETATM   25  C   UNL     1     -11.379  13.881  64.219  1.00  0.00    -0.294 C  
HETATM   26  C   UNL     1     -10.637  17.170  65.824  1.00  0.00    -0.195 A  
HETATM   27  N   UNL     1     -11.728  13.087  63.450  1.00  0.00    -0.486 NA 
HETATM   28 CL   UNL     1     -10.866  18.850  65.510  1.00  0.00    -0.244 Cl 
HETATM   29  C   UNL     1      -9.980  16.773  66.999  1.00  0.00    -0.269 A  
ENDBRANCH  20  21
ENDBRANCH  14  20
ENDBRANCH   8   9
ENDBRANCH   7   8
TORSDOF 4
ENDMDL
MODEL      267
REMARK 921   NORMALIZED FREE ENERGY PREDICTED BY IDOCK:   -3.10 KCAL/MOL
REMARK 922        TOTAL FREE ENERGY PREDICTED BY IDOCK:   -4.66 KCAL/MOL
REMARK 923 INTER-LIGAND FREE ENERGY PREDICTED BY IDOCK:   -3.97 KCAL/MOL
REMARK 924 INTRA-LIGAND FREE ENERGY PREDICTED BY IDOCK:   -0.69 KCAL/MOL
REMARK 927      BINDING AFFINITY PREDICTED BY RF-SCORE:    0.00 PKD
ROOT
HETATM    1  C   UNL     1      -9.130   9.742  70.132  1.00  0.00    -0.197 C  
HETATM    2  N   UNL     1      -9.402   9.696  68.715  1.00  0.00    -0.145 N  
HETATM    3  C   UNL     1      -8.837  10.575  67.822  1.00  0.00    -0.125 C  
HETATM    4  O   UNL     1      -8.025  11.459  68.036  1.00  0.00    -0.116 OA 
HETATM    5  N   UNL     1      -9.384  10.249  66.591  1.00  0.00    -0.159 NA 
HETATM    6  N   UNL     1     -10.225   9.184  66.709  1.00  0.00    -0.262 NA 
HETATM    7  C   UNL     1     -10.193   8.888  67.982  1.00  0.00    -0.213 C  
ENDROOT
BRANCH   7   8
HETATM    8  C   UNL     1     -10.905   7.651  68.499  1.00  0.00     0.040 C  
BRANCH   8   9
HETATM    9  N   UNL     1     -10.518   6.309  68.074  1.00  0.00    -0.196 N  
HETATM   10  C   UNL     1     -10.900   5.805  66.842  1.00  0.00    -0.254 C  
HETATM   11  C   UNL     1     -10.312   4.703  66.349  1.00  0.00    -0.264 C  
HETATM   12  C   UNL     1      -9.385   3.928  67.170  1.00  0.00    -0.216 C  
HETATM   13  C   UNL     1      -8.757   2.691  66.605  1.00  0.00    -0.123 C  
HETATM   14  C   UNL     1      -9.080   4.350  68.413  1.00  0.00    -0.124 C  
HETATM   15  C   UNL     1      -9.369   5.794  68.683  1.00  0.00    -0.122 C  
HETATM   16  F   UNL     1      -9.031   2.519  65.285  1.00  0.00    -0.115 F  
HETATM   17  F   UNL     1      -7.401   2.733  66.704  1.00  0.00    -0.064 F  
HETATM   18  O   UNL     1      -8.620   6.456  69.395  1.00  0.00    -0.128 OA 
HETATM   19  F   UNL     1      -9.166   1.564  67.238  1.00  0.00    -0.132 F  
BRANCH  14  20
HETATM   20  O   UNL     1      -8.331   3.576  69.292  1.00  0.00    -0.059 OA 
BRANCH  20  21
HETATM   21  C   UNL     1      -8.495   3.624  70.664  1.00  0.00    -0.069 A  
HETATM   22  C   UNL     1      -9.658   2.982  71.131  1.00  0.00    -0.229 A  
HETATM   23  C   UNL     1      -9.944   2.895  72.504  1.00  0.00    -0.229 A  
HETATM   24  C   UNL     1      -9.056   3.456  73.425  1.00  0.00    -0.101 A  
HETATM   25  C   UNL     1     -11.141   2.233  72.958  1.00  0.00    -0.049 C  
HETATM   26  C   UNL     1      -7.924   4.128  72.964  1.00  0.00    -0.089 A  
HETATM   27  N   UNL     1     -12.111   1.713  73.322  1.00  0.00    -0.093 NA 
HETATM   28 CL   UNL     1      -6.829   4.826  74.099  1.00  0.00    -0.069 Cl 
HETATM   29  C   UNL     1      -7.653   4.237  71.591  1.00  0.00    -0.073 A  
ENDBRANCH  20  21
ENDBRANCH  14  20
ENDBRANCH   8   9
ENDBRANCH   7   8
TORSDOF 4
ENDMDL
MODEL      268
REMARK 921   NORMALIZED FREE ENERGY PREDICTED BY IDOCK:   -2.83 KCAL/MOL
REMARK 922        TOTAL FREE ENERGY PREDICTED BY IDOCK:   -4.33 KCAL/MOL
REMARK 923 INTER-LIGAND FREE ENERGY PREDICTED BY IDOCK:   -5.54 KCAL/MOL
REMARK 924 INTRA-LIGAND FREE ENERGY PREDICTED BY IDOCK:    1.21 KCAL/MOL
REMARK 927      BINDING AFFINITY PREDICTED BY RF-SCORE:    0.00 PKD
ROOT
HETATM    1  C   UNL     1      -5.766  17.697  68.162  1.00  0.00    -0.155 C  
HETATM    2  N   UNL     1      -7.003  17.175  67.629  1.00  0.00    -0.140 N  
HETATM    3  C   UNL     1      -7.815  17.900  66.790  1.00  0.00    -0.232 C  
HETATM    4  O   UNL     1      -7.632  19.016  66.333  1.00  0.00    -0.242 OA 
HETATM    5  N   UNL     1      -8.914  17.090  66.554  1.00  0.00    -0.254 NA 
HETATM    6  N   UNL     1      -8.771  15.894  67.189  1.00  0.00    -0.189 NA 
HETATM    7  C   UNL     1      -7.621  15.990  67.803  1.00  0.00    -0.140 C  
ENDROOT
BRANCH   7   8
HETATM    8  C   UNL     1      -7.032  14.789  68.521  1.00  0.00    -0.108 C  
BRANCH   8   9
HETATM    9  N   UNL     1      -7.465  13.428  68.221  1.00  0.00    -0.118 N  
HETATM   10  C   UNL     1      -6.552  12.430  67.921  1.00  0.00    -0.097 C  
HETATM   11  C   UNL     1      -6.929  11.141  67.927  1.00  0.00    -0.069 C  
HETATM   12  C   UNL     1      -8.336  10.783  68.085  1.00  0.00    -0.120 C  
HETATM   13  C   UNL     1      -8.737   9.340  68.068  1.00  0.00    -0.125 C  
HETATM   14  C   UNL     1      -9.256  11.751  68.276  1.00  0.00    -0.188 C  
HETATM   15  C   UNL     1      -8.709  13.062  68.747  1.00  0.00     0.171 C  
HETATM   16  F   UNL     1      -7.668   8.499  68.053  1.00  0.00    -0.095 F  
HETATM   17  F   UNL     1      -9.455   9.011  69.175  1.00  0.00    -0.148 F  
HETATM   18  O   UNL     1      -9.337  13.747  69.548  1.00  0.00     0.616 OA 
HETATM   19  F   UNL     1      -9.498   9.022  66.992  1.00  0.00    -0.162 F  
BRANCH  14  20
HETATM   20  O   UNL     1     -10.620  11.483  68.277  1.00  0.00    -0.184 OA 
BRANCH  20  21
HETATM   21  C   UNL     1     -11.305  11.068  69.404  1.00  0.00    -0.284 A  
HETATM   22  C   UNL     1     -11.847  12.118  70.171  1.00  0.00    -0.368 A  
HETATM   23  C   UNL     1     -12.617  11.863  71.318  1.00  0.00    -0.383 A  
HETATM   24  C   UNL     1     -12.850  10.541  71.707  1.00  0.00    -0.559 A  
HETATM   25  C   UNL     1     -13.161  12.953  72.088  1.00  0.00    -0.448 C  
HETATM   26  C   UNL     1     -12.281   9.500  70.972  1.00  0.00    -0.304 A  
HETATM   27  N   UNL     1     -13.586  13.832  72.714  1.00  0.00    -0.694 NA 
HETATM   28 CL   UNL     1     -12.563   7.868  71.451  1.00  0.00    -0.330 Cl 
HETATM   29  C   UNL     1     -11.490   9.758  69.842  1.00  0.00    -0.190 A  
ENDBRANCH  20  21
ENDBRANCH  14  20
ENDBRANCH   8   9
ENDBRANCH   7   8
TORSDOF 4
ENDMDL
MODEL      269
REMARK 921   NORMALIZED FREE ENERGY PREDICTED BY IDOCK:   -2.82 KCAL/MOL
REMARK 922        TOTAL FREE ENERGY PREDICTED BY IDOCK:   -4.31 KCAL/MOL
REMARK 923 INTER-LIGAND FREE ENERGY PREDICTED BY IDOCK:   -3.90 KCAL/MOL
REMARK 924 INTRA-LIGAND FREE ENERGY PREDICTED BY IDOCK:   -0.41 KCAL/MOL
REMARK 927      BINDING AFFINITY PREDICTED BY RF-SCORE:    0.00 PKD
ROOT
HETATM    1  C   UNL     1      -7.281   6.959  71.669  1.00  0.00    -0.079 C  
HETATM    2  N   UNL     1      -8.147   6.151  72.496  1.00  0.00    -0.104 N  
HETATM    3  C   UNL     1      -8.273   6.346  73.851  1.00  0.00    -0.107 C  
HETATM    4  O   UNL     1      -7.755   7.203  74.547  1.00  0.00    -0.118 OA 
HETATM    5  N   UNL     1      -9.132   5.350  74.286  1.00  0.00    -0.117 NA 
HETATM    6  N   UNL     1      -9.555   4.591  73.236  1.00  0.00    -0.125 NA 
HETATM    7  C   UNL     1      -8.952   5.112  72.200  1.00  0.00    -0.129 C  
ENDROOT
BRANCH   7   8
HETATM    8  C   UNL     1      -9.277   4.624  70.798  1.00  0.00    -0.140 C  
BRANCH   8   9
HETATM    9  N   UNL     1      -8.679   5.236  69.616  1.00  0.00    -0.100 N  
HETATM   10  C   UNL     1      -7.380   4.944  69.231  1.00  0.00    -0.056 C  
HETATM   11  C   UNL     1      -6.943   5.283  68.007  1.00  0.00    -0.062 C  
HETATM   12  C   UNL     1      -7.770   6.106  67.129  1.00  0.00    -0.101 C  
HETATM   13  C   UNL     1      -7.254   6.489  65.775  1.00  0.00    -0.070 C  
HETATM   14  C   UNL     1      -9.000   6.486  67.529  1.00  0.00    -0.110 C  
HETATM   15  C   UNL     1      -9.583   5.675  68.644  1.00  0.00    -0.130 C  
HETATM   16  F   UNL     1      -6.084   5.869  65.466  1.00  0.00    -0.025 F  
HETATM   17  F   UNL     1      -8.130   6.145  64.794  1.00  0.00    -0.114 F  
HETATM   18  O   UNL     1     -10.785   5.426  68.670  1.00  0.00    -0.154 OA 
HETATM   19  F   UNL     1      -7.032   7.821  65.660  1.00  0.00    -0.051 F  
BRANCH  14  20
HETATM   20  O   UNL     1      -9.765   7.393  66.805  1.00  0.00    -0.185 OA 
BRANCH  20  21
HETATM   21  C   UNL     1      -9.985   8.693  67.221  1.00  0.00    -0.219 A  
HETATM   22  C   UNL     1     -10.817   8.806  68.352  1.00  0.00    -0.019 A  
HETATM   23  C   UNL     1     -11.097  10.054  68.933  1.00  0.00    -0.219 A  
HETATM   24  C   UNL     1     -10.538  11.208  68.378  1.00  0.00    -0.223 A  
HETATM   25  C   UNL     1     -11.951  10.145  70.090  1.00  0.00    -0.185 C  
HETATM   26  C   UNL     1      -9.746  11.104  67.233  1.00  0.00    -0.166 A  
HETATM   27  N   UNL     1     -12.650  10.218  71.012  1.00  0.00    -0.358 NA 
HETATM   28 CL   UNL     1      -9.058  12.527  66.543  1.00  0.00    -0.210 Cl 
HETATM   29  C   UNL     1      -9.489   9.859  66.639  1.00  0.00    -0.220 A  
ENDBRANCH  20  21
ENDBRANCH  14  20
ENDBRANCH   8   9
ENDBRANCH   7   8
TORSDOF 4
ENDMDL
MODEL      270
REMARK 921   NORMALIZED FREE ENERGY PREDICTED BY IDOCK:   -2.52 KCAL/MOL
REMARK 922        TOTAL FREE ENERGY PREDICTED BY IDOCK:   -3.94 KCAL/MOL
REMARK 923 INTER-LIGAND FREE ENERGY PREDICTED BY IDOCK:   -3.42 KCAL/MOL
REMARK 924 INTRA-LIGAND FREE ENERGY PREDICTED BY IDOCK:   -0.52 KCAL/MOL
REMARK 927      BINDING AFFINITY PREDICTED BY RF-SCORE:    0.00 PKD
ROOT
HETATM    1  C   UNL     1      -8.285   8.280  72.129  1.00  0.00    -0.157 C  
HETATM    2  N   UNL     1      -8.142   9.151  70.987  1.00  0.00    -0.163 N  
HETATM    3  C   UNL     1      -7.090  10.025  70.847  1.00  0.00     0.266 C  
HETATM    4  O   UNL     1      -6.128  10.180  71.580  1.00  0.00    -0.306 OA 
HETATM    5  N   UNL     1      -7.341  10.715  69.672  1.00  0.00    -0.146 NA 
HETATM    6  N   UNL     1      -8.483  10.260  69.085  1.00  0.00    -0.152 NA 
HETATM    7  C   UNL     1      -8.914   9.330  69.896  1.00  0.00    -0.183 C  
ENDROOT
BRANCH   7   8
HETATM    8  C   UNL     1     -10.110   8.475  69.517  1.00  0.00    -0.200 C  
BRANCH   8   9
HETATM    9  N   UNL     1     -10.054   7.528  68.407  1.00  0.00    -0.175 N  
HETATM   10  C   UNL     1      -9.924   7.960  67.097  1.00  0.00    -0.230 C  
HETATM   11  C   UNL     1      -9.593   7.092  66.127  1.00  0.00    -0.013 C  
HETATM   12  C   UNL     1      -9.526   5.660  66.407  1.00  0.00    -0.170 C  
HETATM   13  C   UNL     1      -9.174   4.709  65.304  1.00  0.00    -0.156 C  
HETATM   14  C   UNL     1      -9.751   5.212  67.658  1.00  0.00    -0.148 C  
HETATM   15  C   UNL     1      -9.615   6.241  68.735  1.00  0.00    -0.121 C  
HETATM   16  F   UNL     1      -8.800   5.345  64.162  1.00  0.00    -0.126 F  
HETATM   17  F   UNL     1      -8.125   3.915  65.650  1.00  0.00    -0.094 F  
HETATM   18  O   UNL     1      -9.141   5.942  69.827  1.00  0.00    -0.135 OA 
HETATM   19  F   UNL     1     -10.202   3.889  64.975  1.00  0.00    -0.185 F  
BRANCH  14  20
HETATM   20  O   UNL     1      -9.854   3.856  67.949  1.00  0.00    -0.119 OA 
BRANCH  20  21
HETATM   21  C   UNL     1      -9.013   3.210  68.837  1.00  0.00    -0.132 A  
HETATM   22  C   UNL     1      -9.621   2.858  70.057  1.00  0.00    -0.121 A  
HETATM   23  C   UNL     1      -8.918   2.150  71.046  1.00  0.00    -0.139 A  
HETATM   24  C   UNL     1      -7.589   1.786  70.814  1.00  0.00    -0.032 A  
HETATM   25  C   UNL     1      -9.560   1.800  72.288  1.00  0.00    -0.098 C  
HETATM   26  C   UNL     1      -6.972   2.169  69.622  1.00  0.00    -0.033 A  
HETATM   27  N   UNL     1     -10.074   1.532  73.292  1.00  0.00    -0.088 NA 
HETATM   28 CL   UNL     1      -5.330   1.726  69.334  1.00  0.00    -0.012 Cl 
HETATM   29  C   UNL     1      -7.668   2.900  68.647  1.00  0.00    -0.050 A  
ENDBRANCH  20  21
ENDBRANCH  14  20
ENDBRANCH   8   9
ENDBRANCH   7   8
TORSDOF 4
ENDMDL
MODEL      271
REMARK 921   NORMALIZED FREE ENERGY PREDICTED BY IDOCK:   -2.42 KCAL/MOL
REMARK 922        TOTAL FREE ENERGY PREDICTED BY IDOCK:   -3.82 KCAL/MOL
REMARK 923 INTER-LIGAND FREE ENERGY PREDICTED BY IDOCK:   -3.15 KCAL/MOL
REMARK 924 INTRA-LIGAND FREE ENERGY PREDICTED BY IDOCK:   -0.68 KCAL/MOL
REMARK 927      BINDING AFFINITY PREDICTED BY RF-SCORE:    0.00 PKD
ROOT
HETATM    1  C   UNL     1     -10.993  11.192  70.175  1.00  0.00     0.098 C  
HETATM    2  N   UNL     1     -10.848  11.132  68.740  1.00  0.00    -0.198 N  
HETATM    3  C   UNL     1     -10.674  12.253  67.963  1.00  0.00    -0.218 C  
HETATM    4  O   UNL     1     -10.567  13.414  68.319  1.00  0.00    -0.240 OA 
HETATM    5  N   UNL     1     -10.639  11.792  66.657  1.00  0.00    -0.231 NA 
HETATM    6  N   UNL     1     -10.747  10.434  66.627  1.00  0.00    -0.174 NA 
HETATM    7  C   UNL     1     -10.858  10.092  67.883  1.00  0.00    -0.271 C  
ENDROOT
BRANCH   7   8
HETATM    8  C   UNL     1     -10.862   8.626  68.281  1.00  0.00     0.053 C  
BRANCH   8   9
HETATM    9  N   UNL     1      -9.801   7.715  67.863  1.00  0.00    -0.151 N  
HETATM   10  C   UNL     1      -9.851   7.062  66.642  1.00  0.00    -0.156 C  
HETATM   11  C   UNL     1      -8.755   6.460  66.151  1.00  0.00    -0.151 C  
HETATM   12  C   UNL     1      -7.547   6.343  66.964  1.00  0.00    -0.095 C  
HETATM   13  C   UNL     1      -6.344   5.650  66.402  1.00  0.00    -0.035 C  
HETATM   14  C   UNL     1      -7.516   6.886  68.197  1.00  0.00    -0.099 C  
HETATM   15  C   UNL     1      -8.553   7.933  68.456  1.00  0.00    -0.128 C  
HETATM   16  F   UNL     1      -6.489   5.331  65.088  1.00  0.00    -0.035 F  
HETATM   17  F   UNL     1      -5.238   6.438  66.476  1.00  0.00    -0.011 F  
HETATM   18  O   UNL     1      -8.290   8.912  69.148  1.00  0.00    -0.119 OA 
HETATM   19  F   UNL     1      -6.055   4.497  67.054  1.00  0.00    -0.027 F  
BRANCH  14  20
HETATM   20  O   UNL     1      -6.456   6.673  69.071  1.00  0.00    -0.037 OA 
BRANCH  20  21
HETATM   21  C   UNL     1      -6.629   6.242  70.374  1.00  0.00    -0.048 A  
HETATM   22  C   UNL     1      -6.702   7.281  71.322  1.00  0.00    -0.051 A  
HETATM   23  C   UNL     1      -6.929   7.014  72.682  1.00  0.00    -0.069 A  
HETATM   24  C   UNL     1      -7.087   5.691  73.104  1.00  0.00    -0.086 A  
HETATM   25  C   UNL     1      -6.999   8.093  73.635  1.00  0.00    -0.128 C  
HETATM   26  C   UNL     1      -6.976   4.658  72.173  1.00  0.00    -0.060 A  
HETATM   27  N   UNL     1      -7.041   8.962  74.402  1.00  0.00    -0.403 NA 
HETATM   28 CL   UNL     1      -7.166   3.024  72.691  1.00  0.00    -0.039 Cl 
HETATM   29  C   UNL     1      -6.723   4.924  70.819  1.00  0.00    -0.039 A  
ENDBRANCH  20  21
ENDBRANCH  14  20
ENDBRANCH   8   9
ENDBRANCH   7   8
TORSDOF 4
ENDMDL
MODEL      272
REMARK 921   NORMALIZED FREE ENERGY PREDICTED BY IDOCK:   -2.34 KCAL/MOL
REMARK 922        TOTAL FREE ENERGY PREDICTED BY IDOCK:   -3.72 KCAL/MOL
REMARK 923 INTER-LIGAND FREE ENERGY PREDICTED BY IDOCK:   -3.34 KCAL/MOL
REMARK 924 INTRA-LIGAND FREE ENERGY PREDICTED BY IDOCK:   -0.39 KCAL/MOL
REMARK 927      BINDING AFFINITY PREDICTED BY RF-SCORE:    0.00 PKD
ROOT
HETATM    1  C   UNL     1      -9.797   9.751  70.551  1.00  0.00    -0.163 C  
HETATM    2  N   UNL     1      -9.982   9.690  69.120  1.00  0.00    -0.177 N  
HETATM    3  C   UNL     1      -9.622  10.718  68.281  1.00  0.00    -0.166 C  
HETATM    4  O   UNL     1      -9.075  11.771  68.561  1.00  0.00    -0.190 OA 
HETATM    5  N   UNL     1     -10.010  10.310  67.015  1.00  0.00    -0.192 NA 
HETATM    6  N   UNL     1     -10.553   9.061  67.061  1.00  0.00    -0.242 NA 
HETATM    7  C   UNL     1     -10.505   8.735  68.325  1.00  0.00    -0.187 C  
ENDROOT
BRANCH   7   8
HETATM    8  C   UNL     1     -10.898   7.338  68.773  1.00  0.00    -0.086 C  
BRANCH   8   9
HETATM    9  N   UNL     1     -10.305   6.147  68.174  1.00  0.00    -0.175 N  
HETATM   10  C   UNL     1     -10.764   5.640  66.969  1.00  0.00    -0.250 C  
HETATM   11  C   UNL     1     -10.041   4.730  66.297  1.00  0.00    -0.291 C  
HETATM   12  C   UNL     1      -8.848   4.141  66.899  1.00  0.00    -0.123 C  
HETATM   13  C   UNL     1      -8.068   3.113  66.138  1.00  0.00    -0.089 C  
HETATM   14  C   UNL     1      -8.443   4.550  68.118  1.00  0.00    -0.094 C  
HETATM   15  C   UNL     1      -8.988   5.872  68.558  1.00  0.00    -0.113 C  
HETATM   16  F   UNL     1      -8.510   2.959  64.861  1.00  0.00    -0.091 F  
HETATM   17  F   UNL     1      -6.756   3.458  66.041  1.00  0.00    -0.037 F  
HETATM   18  O   UNL     1      -8.294   6.645  69.211  1.00  0.00    -0.122 OA 
HETATM   19  F   UNL     1      -8.116   1.889  66.717  1.00  0.00    -0.068 F  
BRANCH  14  20
HETATM   20  O   UNL     1      -7.412   3.918  68.804  1.00  0.00    -0.054 OA 
BRANCH  20  21
HETATM   21  C   UNL     1      -7.410   3.753  70.176  1.00  0.00    -0.042 A  
HETATM   22  C   UNL     1      -6.709   4.752  70.878  1.00  0.00    -0.032 A  
HETATM   23  C   UNL     1      -6.657   4.760  72.282  1.00  0.00    -0.043 A  
HETATM   24  C   UNL     1      -7.316   3.756  72.997  1.00  0.00    -0.060 A  
HETATM   25  C   UNL     1      -5.933   5.793  72.979  1.00  0.00    -0.040 C  
HETATM   26  C   UNL     1      -7.977   2.742  72.304  1.00  0.00    -0.055 A  
HETATM   27  N   UNL     1      -5.338   6.616  73.539  1.00  0.00    -0.041 NA 
HETATM   28 CL   UNL     1      -8.787   1.499  73.183  1.00  0.00    -0.061 Cl 
HETATM   29  C   UNL     1      -8.005   2.721  70.901  1.00  0.00    -0.055 A  
ENDBRANCH  20  21
ENDBRANCH  14  20
ENDBRANCH   8   9
ENDBRANCH   7   8
TORSDOF 4
ENDMDL
MODEL      273
REMARK 921   NORMALIZED FREE ENERGY PREDICTED BY IDOCK:   -2.31 KCAL/MOL
REMARK 922        TOTAL FREE ENERGY PREDICTED BY IDOCK:   -3.69 KCAL/MOL
REMARK 923 INTER-LIGAND FREE ENERGY PREDICTED BY IDOCK:   -4.36 KCAL/MOL
REMARK 924 INTRA-LIGAND FREE ENERGY PREDICTED BY IDOCK:    0.67 KCAL/MOL
REMARK 927      BINDING AFFINITY PREDICTED BY RF-SCORE:    0.00 PKD
ROOT
HETATM    1  C   UNL     1      -5.641  15.389  70.677  1.00  0.00    -0.096 C  
HETATM    2  N   UNL     1      -6.085  15.498  69.307  1.00  0.00    -0.111 N  
HETATM    3  C   UNL     1      -6.258  16.708  68.677  1.00  0.00    -0.142 C  
HETATM    4  O   UNL     1      -6.039  17.827  69.108  1.00  0.00    -0.203 OA 
HETATM    5  N   UNL     1      -6.742  16.399  67.416  1.00  0.00    -0.152 NA 
HETATM    6  N   UNL     1      -6.828  15.048  67.255  1.00  0.00    -0.269 NA 
HETATM    7  C   UNL     1      -6.419  14.562  68.397  1.00  0.00    -0.102 C  
ENDROOT
BRANCH   7   8
HETATM    8  C   UNL     1      -6.236  13.064  68.571  1.00  0.00    -0.078 C  
BRANCH   8   9
HETATM    9  N   UNL     1      -6.497  12.129  67.482  1.00  0.00    -0.118 N  
HETATM   10  C   UNL     1      -5.488  11.723  66.623  1.00  0.00    -0.059 C  
HETATM   11  C   UNL     1      -5.670  10.664  65.817  1.00  0.00    -0.139 C  
HETATM   12  C   UNL     1      -6.980  10.028  65.714  1.00  0.00    -0.112 C  
HETATM   13  C   UNL     1      -7.164   8.861  64.793  1.00  0.00    -0.092 C  
HETATM   14  C   UNL     1      -8.003  10.477  66.470  1.00  0.00    -0.132 C  
HETATM   15  C   UNL     1      -7.602  11.291  67.660  1.00  0.00    -0.106 C  
HETATM   16  F   UNL     1      -5.993   8.429  64.254  1.00  0.00    -0.061 F  
HETATM   17  F   UNL     1      -7.692   7.791  65.448  1.00  0.00    -0.084 F  
HETATM   18  O   UNL     1      -8.226  11.202  68.713  1.00  0.00    -0.142 OA 
HETATM   19  F   UNL     1      -7.991   9.139  63.756  1.00  0.00    -0.119 F  
BRANCH  14  20
HETATM   20  O   UNL     1      -9.303  10.016  66.301  1.00  0.00    -0.156 OA 
BRANCH  20  21
HETATM   21  C   UNL     1      -9.805   8.916  66.972  1.00  0.00    -0.214 A  
HETATM   22  C   UNL     1     -10.082   9.145  68.333  1.00  0.00    -0.220 A  
HETATM   23  C   UNL     1     -10.645   8.145  69.143  1.00  0.00    -0.179 A  
HETATM   24  C   UNL     1     -10.939   6.897  68.586  1.00  0.00    -0.203 A  
HETATM   25  C   UNL     1     -10.920   8.402  70.534  1.00  0.00    -0.242 C  
HETATM   26  C   UNL     1     -10.629   6.654  67.247  1.00  0.00    -0.317 A  
HETATM   27  N   UNL     1     -11.126   8.605  71.657  1.00  0.00    -0.281 NA 
HETATM   28 CL   UNL     1     -10.985   5.115  66.558  1.00  0.00    -0.137 Cl 
HETATM   29  C   UNL     1     -10.041   7.646  66.447  1.00  0.00    -0.097 A  
ENDBRANCH  20  21
ENDBRANCH  14  20
ENDBRANCH   8   9
ENDBRANCH   7   8
TORSDOF 4
ENDMDL
MODEL      274
REMARK 921   NORMALIZED FREE ENERGY PREDICTED BY IDOCK:   -2.27 KCAL/MOL
REMARK 922        TOTAL FREE ENERGY PREDICTED BY IDOCK:   -3.63 KCAL/MOL
REMARK 923 INTER-LIGAND FREE ENERGY PREDICTED BY IDOCK:   -3.56 KCAL/MOL
REMARK 924 INTRA-LIGAND FREE ENERGY PREDICTED BY IDOCK:   -0.08 KCAL/MOL
REMARK 927      BINDING AFFINITY PREDICTED BY RF-SCORE:    0.00 PKD
ROOT
HETATM    1  C   UNL     1      -7.263  17.039  68.701  1.00  0.00    -0.221 C  
HETATM    2  N   UNL     1      -6.659  15.815  69.174  1.00  0.00    -0.138 N  
HETATM    3  C   UNL     1      -5.682  15.795  70.141  1.00  0.00    -0.159 C  
HETATM    4  O   UNL     1      -5.215  16.731  70.768  1.00  0.00    -0.218 OA 
HETATM    5  N   UNL     1      -5.324  14.463  70.272  1.00  0.00    -0.099 NA 
HETATM    6  N   UNL     1      -6.077  13.682  69.447  1.00  0.00    -0.098 NA 
HETATM    7  C   UNL     1      -6.857  14.528  68.827  1.00  0.00    -0.094 C  
ENDROOT
BRANCH   7   8
HETATM    8  C   UNL     1      -7.956  14.025  67.908  1.00  0.00    -0.158 C  
BRANCH   8   9
HETATM    9  N   UNL     1      -8.413  12.639  67.946  1.00  0.00    -0.162 N  
HETATM   10  C   UNL     1      -9.752  12.326  68.118  1.00  0.00    -0.213 C  
HETATM   11  C   UNL     1     -10.194  11.083  67.871  1.00  0.00    -0.207 C  
HETATM   12  C   UNL     1      -9.251  10.007  67.579  1.00  0.00    -0.151 C  
HETATM   13  C   UNL     1      -9.766   8.623  67.326  1.00  0.00    -0.185 C  
HETATM   14  C   UNL     1      -7.931  10.274  67.508  1.00  0.00    -0.106 C  
HETATM   15  C   UNL     1      -7.586  11.715  67.300  1.00  0.00    -0.147 C  
HETATM   16  F   UNL     1     -11.123   8.573  67.253  1.00  0.00    -0.268 F  
HETATM   17  F   UNL     1      -9.310   8.132  66.142  1.00  0.00    -0.215 F  
HETATM   18  O   UNL     1      -6.632  12.031  66.596  1.00  0.00    -0.041 OA 
HETATM   19  F   UNL     1      -9.395   7.744  68.289  1.00  0.00    -0.142 F  
BRANCH  14  20
HETATM   20  O   UNL     1      -6.980   9.267  67.389  1.00  0.00    -0.076 OA 
BRANCH  20  21
HETATM   21  C   UNL     1      -6.562   8.767  66.170  1.00  0.00    -0.065 A  
HETATM   22  C   UNL     1      -6.311   7.382  66.168  1.00  0.00    -0.042 A  
HETATM   23  C   UNL     1      -5.930   6.710  64.995  1.00  0.00    -0.035 A  
HETATM   24  C   UNL     1      -5.797   7.430  63.805  1.00  0.00    -0.044 A  
HETATM   25  C   UNL     1      -5.677   5.291  65.016  1.00  0.00    -0.017 C  
HETATM   26  C   UNL     1      -6.006   8.810  63.812  1.00  0.00    -0.072 A  
HETATM   27  N   UNL     1      -5.461   4.152  65.038  1.00  0.00    -0.013 NA 
HETATM   28 CL   UNL     1      -5.839   9.703  62.347  1.00  0.00    -0.089 Cl 
HETATM   29  C   UNL     1      -6.361   9.484  64.991  1.00  0.00    -0.083 A  
ENDBRANCH  20  21
ENDBRANCH  14  20
ENDBRANCH   8   9
ENDBRANCH   7   8
TORSDOF 4
ENDMDL
MODEL      275
REMARK 921   NORMALIZED FREE ENERGY PREDICTED BY IDOCK:   -2.24 KCAL/MOL
REMARK 922        TOTAL FREE ENERGY PREDICTED BY IDOCK:   -3.60 KCAL/MOL
REMARK 923 INTER-LIGAND FREE ENERGY PREDICTED BY IDOCK:   -4.33 KCAL/MOL
REMARK 924 INTRA-LIGAND FREE ENERGY PREDICTED BY IDOCK:    0.74 KCAL/MOL
REMARK 927      BINDING AFFINITY PREDICTED BY RF-SCORE:    0.00 PKD
ROOT
HETATM    1  C   UNL     1      -6.186   7.540  71.241  1.00  0.00    -0.035 C  
HETATM    2  N   UNL     1      -7.616   7.483  71.054  1.00  0.00    -0.083 N  
HETATM    3  C   UNL     1      -8.380   6.425  71.488  1.00  0.00    -0.125 C  
HETATM    4  O   UNL     1      -8.027   5.436  72.108  1.00  0.00    -0.104 OA 
HETATM    5  N   UNL     1      -9.671   6.711  71.073  1.00  0.00    -0.175 NA 
HETATM    6  N   UNL     1      -9.714   7.917  70.441  1.00  0.00    -0.178 NA 
HETATM    7  C   UNL     1      -8.476   8.337  70.465  1.00  0.00    -0.129 C  
ENDROOT
BRANCH   7   8
HETATM    8  C   UNL     1      -8.130   9.731  69.973  1.00  0.00    -0.189 C  
BRANCH   8   9
HETATM    9  N   UNL     1      -8.577  10.218  68.672  1.00  0.00    -0.121 N  
HETATM   10  C   UNL     1      -9.588   9.580  67.971  1.00  0.00    -0.137 C  
HETATM   11  C   UNL     1     -10.177  10.187  66.928  1.00  0.00    -0.295 C  
HETATM   12  C   UNL     1      -9.655  11.451  66.416  1.00  0.00    -0.228 C  
HETATM   13  C   UNL     1     -10.317  12.100  65.239  1.00  0.00    -0.277 C  
HETATM   14  C   UNL     1      -8.604  12.037  67.025  1.00  0.00    -0.185 C  
HETATM   15  C   UNL     1      -8.343  11.575  68.424  1.00  0.00    -0.154 C  
HETATM   16  F   UNL     1     -11.465  11.472  64.872  1.00  0.00    -0.331 F  
HETATM   17  F   UNL     1     -10.665  13.386  65.512  1.00  0.00    -0.277 F  
HETATM   18  O   UNL     1      -7.952  12.365  69.277  1.00  0.00     0.305 OA 
HETATM   19  F   UNL     1      -9.520  12.128  64.143  1.00  0.00    -0.139 F  
BRANCH  14  20
HETATM   20  O   UNL     1      -7.970  13.153  66.491  1.00  0.00     0.331 OA 
BRANCH  20  21
HETATM   21  C   UNL     1      -8.122  14.425  67.010  1.00  0.00    -0.065 A  
HETATM   22  C   UNL     1      -7.219  14.741  68.043  1.00  0.00    -0.145 A  
HETATM   23  C   UNL     1      -7.207  16.012  68.640  1.00  0.00    -0.146 A  
HETATM   24  C   UNL     1      -8.110  16.984  68.200  1.00  0.00    -0.212 A  
HETATM   25  C   UNL     1      -6.274  16.313  69.697  1.00  0.00    -0.195 C  
HETATM   26  C   UNL     1      -9.033  16.662  67.205  1.00  0.00    -0.210 A  
HETATM   27  N   UNL     1      -5.532  16.549  70.556  1.00  0.00    -0.181 NA 
HETATM   28 CL   UNL     1     -10.150  17.857  66.663  1.00  0.00    -0.344 Cl 
HETATM   29  C   UNL     1      -9.060  15.383  66.628  1.00  0.00    -0.310 A  
ENDBRANCH  20  21
ENDBRANCH  14  20
ENDBRANCH   8   9
ENDBRANCH   7   8
TORSDOF 4
ENDMDL
MODEL      276
REMARK 921   NORMALIZED FREE ENERGY PREDICTED BY IDOCK:   -2.24 KCAL/MOL
REMARK 922        TOTAL FREE ENERGY PREDICTED BY IDOCK:   -3.59 KCAL/MOL
REMARK 923 INTER-LIGAND FREE ENERGY PREDICTED BY IDOCK:   -6.28 KCAL/MOL
REMARK 924 INTRA-LIGAND FREE ENERGY PREDICTED BY IDOCK:    2.69 KCAL/MOL
REMARK 927      BINDING AFFINITY PREDICTED BY RF-SCORE:    0.00 PKD
ROOT
HETATM    1  C   UNL     1      -8.620  16.786  68.121  1.00  0.00    -0.218 C  
HETATM    2  N   UNL     1      -7.384  16.858  68.865  1.00  0.00    -0.228 N  
HETATM    3  C   UNL     1      -6.932  18.020  69.442  1.00  0.00    -0.077 C  
HETATM    4  O   UNL     1      -7.472  19.113  69.474  1.00  0.00    -0.154 OA 
HETATM    5  N   UNL     1      -5.706  17.698  70.002  1.00  0.00    -0.247 NA 
HETATM    6  N   UNL     1      -5.426  16.378  69.813  1.00  0.00    -0.148 NA 
HETATM    7  C   UNL     1      -6.453  15.924  69.145  1.00  0.00    -0.152 C  
ENDROOT
BRANCH   7   8
HETATM    8  C   UNL     1      -6.585  14.439  68.857  1.00  0.00    -0.094 C  
BRANCH   8   9
HETATM    9  N   UNL     1      -7.841  13.856  68.395  1.00  0.00    -0.133 N  
HETATM   10  C   UNL     1      -8.842  14.641  67.847  1.00  0.00    -0.170 C  
HETATM   11  C   UNL     1      -9.858  14.074  67.176  1.00  0.00    -0.240 C  
HETATM   12  C   UNL     1     -10.010  12.622  67.154  1.00  0.00    -0.217 C  
HETATM   13  C   UNL     1     -11.162  12.012  66.415  1.00  0.00    -0.337 C  
HETATM   14  C   UNL     1      -9.098  11.844  67.771  1.00  0.00    -0.180 C  
HETATM   15  C   UNL     1      -7.783  12.503  68.045  1.00  0.00    -0.140 C  
HETATM   16  F   UNL     1     -11.871  12.928  65.702  1.00  0.00    -0.360 F  
HETATM   17  F   UNL     1     -10.740  11.083  65.516  1.00  0.00    -0.318 F  
HETATM   18  O   UNL     1      -6.738  11.867  67.956  1.00  0.00    -0.063 OA 
HETATM   19  F   UNL     1     -12.043  11.394  67.240  1.00  0.00    -0.201 F  
BRANCH  14  20
HETATM   20  O   UNL     1      -9.275  10.472  67.915  1.00  0.00    -0.138 OA 
BRANCH  20  21
HETATM   21  C   UNL     1      -9.622   9.881  69.116  1.00  0.00    -0.199 A  
HETATM   22  C   UNL     1     -10.792  10.403  69.701  1.00  0.00    -0.320 A  
HETATM   23  C   UNL     1     -11.309   9.875  70.896  1.00  0.00    -0.446 A  
HETATM   24  C   UNL     1     -10.651   8.810  71.516  1.00  0.00    -0.379 A  
HETATM   25  C   UNL     1     -12.508  10.426  71.477  1.00  0.00    -0.404 C  
HETATM   26  C   UNL     1      -9.470   8.317  70.960  1.00  0.00    -0.161 A  
HETATM   27  N   UNL     1     -13.464  10.879  71.951  1.00  0.00    -0.293 NA 
HETATM   28 CL   UNL     1      -8.653   7.006  71.725  1.00  0.00    -0.115 Cl 
HETATM   29  C   UNL     1      -8.940   8.863  69.781  1.00  0.00    -0.149 A  
ENDBRANCH  20  21
ENDBRANCH  14  20
ENDBRANCH   8   9
ENDBRANCH   7   8
TORSDOF 4
ENDMDL
MODEL      277
REMARK 921   NORMALIZED FREE ENERGY PREDICTED BY IDOCK:   -2.11 KCAL/MOL
REMARK 922        TOTAL FREE ENERGY PREDICTED BY IDOCK:   -3.44 KCAL/MOL
REMARK 923 INTER-LIGAND FREE ENERGY PREDICTED BY IDOCK:   -3.11 KCAL/MOL
REMARK 924 INTRA-LIGAND FREE ENERGY PREDICTED BY IDOCK:   -0.33 KCAL/MOL
REMARK 927      BINDING AFFINITY PREDICTED BY RF-SCORE:    0.00 PKD
ROOT
HETATM    1  C   UNL     1      -6.099   7.565  71.290  1.00  0.00    -0.035 C  
HETATM    2  N   UNL     1      -7.528   7.384  71.388  1.00  0.00    -0.079 N  
HETATM    3  C   UNL     1      -8.098   6.297  72.007  1.00  0.00    -0.109 C  
HETATM    4  O   UNL     1      -7.546   5.378  72.589  1.00  0.00    -0.095 OA 
HETATM    5  N   UNL     1      -9.464   6.455  71.840  1.00  0.00    -0.153 NA 
HETATM    6  N   UNL     1      -9.734   7.615  71.178  1.00  0.00    -0.162 NA 
HETATM    7  C   UNL     1      -8.557   8.131  70.942  1.00  0.00    -0.135 C  
ENDROOT
BRANCH   7   8
HETATM    8  C   UNL     1      -8.437   9.517  70.332  1.00  0.00    -0.201 C  
BRANCH   8   9
HETATM    9  N   UNL     1      -9.170   9.891  69.128  1.00  0.00    -0.169 N  
HETATM   10  C   UNL     1      -9.980  11.015  69.096  1.00  0.00    -0.121 C  
HETATM   11  C   UNL     1     -10.418  11.503  67.924  1.00  0.00    -0.211 C  
HETATM   12  C   UNL     1     -10.185  10.767  66.684  1.00  0.00    -0.283 C  
HETATM   13  C   UNL     1     -10.700  11.321  65.390  1.00  0.00    -0.227 C  
HETATM   14  C   UNL     1      -9.484   9.616  66.710  1.00  0.00    -0.161 C  
HETATM   15  C   UNL     1      -8.635   9.417  67.926  1.00  0.00    -0.120 C  
HETATM   16  F   UNL     1     -11.216  12.572  65.524  1.00  0.00    -0.310 F  
HETATM   17  F   UNL     1      -9.708  11.422  64.464  1.00  0.00    -0.240 F  
HETATM   18  O   UNL     1      -7.539   8.872  67.837  1.00  0.00    -0.092 OA 
HETATM   19  F   UNL     1     -11.675  10.553  64.845  1.00  0.00     0.652 F  
BRANCH  14  20
HETATM   20  O   UNL     1      -9.367   8.798  65.592  1.00  0.00    -0.214 OA 
BRANCH  20  21
HETATM   21  C   UNL     1      -8.152   8.491  65.008  1.00  0.00    -0.148 A  
HETATM   22  C   UNL     1      -7.611   7.255  65.412  1.00  0.00    -0.100 A  
HETATM   23  C   UNL     1      -6.408   6.772  64.871  1.00  0.00    -0.039 A  
HETATM   24  C   UNL     1      -5.733   7.533  63.913  1.00  0.00    -0.041 A  
HETATM   25  C   UNL     1      -5.874   5.503  65.300  1.00  0.00    -0.021 C  
HETATM   26  C   UNL     1      -6.245   8.776  63.541  1.00  0.00    -0.085 A  
HETATM   27  N   UNL     1      -5.438   4.490  65.656  1.00  0.00    -0.013 NA 
HETATM   28 CL   UNL     1      -5.412   9.720  62.362  1.00  0.00    -0.087 Cl 
HETATM   29  C   UNL     1      -7.433   9.269  64.102  1.00  0.00    -0.110 A  
ENDBRANCH  20  21
ENDBRANCH  14  20
ENDBRANCH   8   9
ENDBRANCH   7   8
TORSDOF 4
ENDMDL
MODEL      278
REMARK 921   NORMALIZED FREE ENERGY PREDICTED BY IDOCK:   -2.08 KCAL/MOL
REMARK 922        TOTAL FREE ENERGY PREDICTED BY IDOCK:   -3.40 KCAL/MOL
REMARK 923 INTER-LIGAND FREE ENERGY PREDICTED BY IDOCK:   -2.44 KCAL/MOL
REMARK 924 INTRA-LIGAND FREE ENERGY PREDICTED BY IDOCK:   -0.96 KCAL/MOL
REMARK 927      BINDING AFFINITY PREDICTED BY RF-SCORE:    0.00 PKD
ROOT
HETATM    1  C   UNL     1     -11.312  10.466  65.573  1.00  0.00     1.227 C  
HETATM    2  N   UNL     1     -11.383  11.886  65.322  1.00  0.00    -0.306 N  
HETATM    3  C   UNL     1     -11.739  12.407  64.100  1.00  0.00    -0.400 C  
HETATM    4  O   UNL     1     -12.084  11.813  63.092  1.00  0.00    -0.389 OA 
HETATM    5  N   UNL     1     -11.631  13.781  64.242  1.00  0.00    -0.385 NA 
HETATM    6  N   UNL     1     -11.261  14.102  65.513  1.00  0.00    -0.310 NA 
HETATM    7  C   UNL     1     -11.136  12.948  66.114  1.00  0.00    -0.286 C  
ENDROOT
BRANCH   7   8
HETATM    8  C   UNL     1     -10.865  12.886  67.607  1.00  0.00    -0.232 C  
BRANCH   8   9
HETATM    9  N   UNL     1      -9.571  12.463  68.134  1.00  0.00    -0.214 N  
HETATM   10  C   UNL     1      -8.666  13.379  68.643  1.00  0.00     0.015 C  
HETATM   11  C   UNL     1      -7.618  12.963  69.373  1.00  0.00     0.531 C  
HETATM   12  C   UNL     1      -7.327  11.537  69.503  1.00  0.00     0.130 C  
HETATM   13  C   UNL     1      -6.141  11.097  70.306  1.00  0.00    -0.144 C  
HETATM   14  C   UNL     1      -8.143  10.632  68.926  1.00  0.00    -0.139 C  
HETATM   15  C   UNL     1      -9.508  11.138  68.579  1.00  0.00    -0.193 C  
HETATM   16  F   UNL     1      -5.543  12.125  70.965  1.00  0.00    -0.155 F  
HETATM   17  F   UNL     1      -6.495  10.196  71.261  1.00  0.00    -0.023 F  
HETATM   18  O   UNL     1     -10.489  10.411  68.694  1.00  0.00    -0.175 OA 
HETATM   19  F   UNL     1      -5.183  10.512  69.545  1.00  0.00    -0.039 F  
BRANCH  14  20
HETATM   20  O   UNL     1      -7.830   9.278  68.884  1.00  0.00    -0.084 OA 
BRANCH  20  21
HETATM   21  C   UNL     1      -7.464   8.626  67.721  1.00  0.00    -0.097 A  
HETATM   22  C   UNL     1      -8.062   9.142  66.555  1.00  0.00    -0.107 A  
HETATM   23  C   UNL     1      -7.754   8.626  65.286  1.00  0.00    -0.092 A  
HETATM   24  C   UNL     1      -6.835   7.578  65.177  1.00  0.00    -0.047 A  
HETATM   25  C   UNL     1      -8.378   9.170  64.106  1.00  0.00    -0.178 C  
HETATM   26  C   UNL     1      -6.272   7.038  66.333  1.00  0.00    -0.039 A  
HETATM   27  N   UNL     1      -8.892   9.598  63.159  1.00  0.00    -0.234 NA 
HETATM   28 CL   UNL     1      -5.141   5.743  66.203  1.00  0.00    -0.008 Cl 
HETATM   29  C   UNL     1      -6.601   7.538  67.603  1.00  0.00    -0.062 A  
ENDBRANCH  20  21
ENDBRANCH  14  20
ENDBRANCH   8   9
ENDBRANCH   7   8
TORSDOF 4
ENDMDL
MODEL      279
REMARK 921   NORMALIZED FREE ENERGY PREDICTED BY IDOCK:   -2.05 KCAL/MOL
REMARK 922        TOTAL FREE ENERGY PREDICTED BY IDOCK:   -3.37 KCAL/MOL
REMARK 923 INTER-LIGAND FREE ENERGY PREDICTED BY IDOCK:   -2.68 KCAL/MOL
REMARK 924 INTRA-LIGAND FREE ENERGY PREDICTED BY IDOCK:   -0.69 KCAL/MOL
REMARK 927      BINDING AFFINITY PREDICTED BY RF-SCORE:    0.00 PKD
ROOT
HETATM    1  C   UNL     1     -10.993  11.192  70.175  1.00  0.00     0.098 C  
HETATM    2  N   UNL     1     -10.848  11.132  68.740  1.00  0.00    -0.198 N  
HETATM    3  C   UNL     1     -10.674  12.253  67.963  1.00  0.00    -0.218 C  
HETATM    4  O   UNL     1     -10.567  13.414  68.319  1.00  0.00    -0.240 OA 
HETATM    5  N   UNL     1     -10.639  11.792  66.657  1.00  0.00    -0.231 NA 
HETATM    6  N   UNL     1     -10.747  10.434  66.627  1.00  0.00    -0.174 NA 
HETATM    7  C   UNL     1     -10.858  10.092  67.883  1.00  0.00    -0.271 C  
ENDROOT
BRANCH   7   8
HETATM    8  C   UNL     1     -10.862   8.626  68.281  1.00  0.00     0.053 C  
BRANCH   8   9
HETATM    9  N   UNL     1      -9.801   7.715  67.863  1.00  0.00    -0.151 N  
HETATM   10  C   UNL     1      -9.851   7.062  66.642  1.00  0.00    -0.156 C  
HETATM   11  C   UNL     1      -8.755   6.460  66.151  1.00  0.00    -0.151 C  
HETATM   12  C   UNL     1      -7.547   6.343  66.964  1.00  0.00    -0.095 C  
HETATM   13  C   UNL     1      -6.344   5.650  66.402  1.00  0.00    -0.035 C  
HETATM   14  C   UNL     1      -7.516   6.886  68.197  1.00  0.00    -0.099 C  
HETATM   15  C   UNL     1      -8.553   7.933  68.456  1.00  0.00    -0.128 C  
HETATM   16  F   UNL     1      -6.489   5.331  65.088  1.00  0.00    -0.035 F  
HETATM   17  F   UNL     1      -5.238   6.438  66.476  1.00  0.00    -0.011 F  
HETATM   18  O   UNL     1      -8.290   8.912  69.148  1.00  0.00    -0.119 OA 
HETATM   19  F   UNL     1      -6.055   4.497  67.054  1.00  0.00    -0.027 F  
BRANCH  14  20
HETATM   20  O   UNL     1      -6.456   6.673  69.071  1.00  0.00    -0.037 OA 
BRANCH  20  21
HETATM   21  C   UNL     1      -6.629   6.242  70.374  1.00  0.00    -0.048 A  
HETATM   22  C   UNL     1      -6.242   4.907  70.599  1.00  0.00    -0.019 A  
HETATM   23  C   UNL     1      -6.305   4.333  71.879  1.00  0.00    -0.018 A  
HETATM   24  C   UNL     1      -6.761   5.103  72.953  1.00  0.00    -0.067 A  
HETATM   25  C   UNL     1      -5.904   2.964  72.085  1.00  0.00    -0.009 C  
HETATM   26  C   UNL     1      -7.184   6.413  72.726  1.00  0.00    -0.083 A  
HETATM   27  N   UNL     1      -5.595   1.859  72.247  1.00  0.00    -0.004 NA 
HETATM   28 CL   UNL     1      -7.751   7.364  74.048  1.00  0.00    -0.140 Cl 
HETATM   29  C   UNL     1      -7.145   6.976  71.441  1.00  0.00    -0.070 A  
ENDBRANCH  20  21
ENDBRANCH  14  20
ENDBRANCH   8   9
ENDBRANCH   7   8
TORSDOF 4
ENDMDL
MODEL      280
REMARK 921   NORMALIZED FREE ENERGY PREDICTED BY IDOCK:   -1.78 KCAL/MOL
REMARK 922        TOTAL FREE ENERGY PREDICTED BY IDOCK:   -3.03 KCAL/MOL
REMARK 923 INTER-LIGAND FREE ENERGY PREDICTED BY IDOCK:   -3.92 KCAL/MOL
REMARK 924 INTRA-LIGAND FREE ENERGY PREDICTED BY IDOCK:    0.89 KCAL/MOL
REMARK 927      BINDING AFFINITY PREDICTED BY RF-SCORE:    0.00 PKD
ROOT
HETATM    1  C   UNL     1      -9.321   3.757  67.826  1.00  0.00    -0.189 C  
HETATM    2  N   UNL     1     -10.043   4.939  67.419  1.00  0.00    -0.170 N  
HETATM    3  C   UNL     1     -10.725   5.019  66.227  1.00  0.00    -0.199 C  
HETATM    4  O   UNL     1     -10.876   4.156  65.380  1.00  0.00    -0.107 OA 
HETATM    5  N   UNL     1     -11.225   6.310  66.177  1.00  0.00     0.740 NA 
HETATM    6  N   UNL     1     -10.900   6.993  67.311  1.00  0.00    -0.332 NA 
HETATM    7  C   UNL     1     -10.210   6.136  68.016  1.00  0.00    -0.175 C  
ENDROOT
BRANCH   7   8
HETATM    8  C   UNL     1      -9.779   6.478  69.432  1.00  0.00    -0.146 C  
BRANCH   8   9
HETATM    9  N   UNL     1      -9.027   7.693  69.731  1.00  0.00    -0.140 N  
HETATM   10  C   UNL     1      -8.456   7.899  70.976  1.00  0.00    -0.123 C  
HETATM   11  C   UNL     1      -7.543   8.868  71.151  1.00  0.00    -0.143 C  
HETATM   12  C   UNL     1      -7.260   9.820  70.080  1.00  0.00    -0.146 C  
HETATM   13  C   UNL     1      -6.252  10.905  70.306  1.00  0.00    -0.141 C  
HETATM   14  C   UNL     1      -7.884   9.696  68.892  1.00  0.00    -0.081 C  
HETATM   15  C   UNL     1      -8.476   8.347  68.624  1.00  0.00    -0.128 C  
HETATM   16  F   UNL     1      -5.589  10.769  71.485  1.00  0.00    -0.065 F  
HETATM   17  F   UNL     1      -5.296  10.903  69.337  1.00  0.00    -0.041 F  
HETATM   18  O   UNL     1      -8.459   7.874  67.492  1.00  0.00    -0.122 OA 
HETATM   19  F   UNL     1      -6.808  12.141  70.311  1.00  0.00     0.075 F  
BRANCH  14  20
HETATM   20  O   UNL     1      -7.773  10.658  67.895  1.00  0.00    -0.097 OA 
BRANCH  20  21
HETATM   21  C   UNL     1      -8.806  11.513  67.555  1.00  0.00    -0.155 A  
HETATM   22  C   UNL     1      -8.892  12.665  68.360  1.00  0.00    -0.119 A  
HETATM   23  C   UNL     1      -9.854  13.659  68.112  1.00  0.00    -0.236 A  
HETATM   24  C   UNL     1     -10.742  13.502  67.045  1.00  0.00    -0.278 A  
HETATM   25  C   UNL     1      -9.924  14.830  68.950  1.00  0.00    -0.233 C  
HETATM   26  C   UNL     1     -10.685  12.342  66.271  1.00  0.00    -0.256 A  
HETATM   27  N   UNL     1      -9.989  15.764  69.633  1.00  0.00    -0.285 NA 
HETATM   28 CL   UNL     1     -11.783  12.143  64.956  1.00  0.00    -0.393 Cl 
HETATM   29  C   UNL     1      -9.741  11.338  66.536  1.00  0.00    -0.230 A  
ENDBRANCH  20  21
ENDBRANCH  14  20
ENDBRANCH   8   9
ENDBRANCH   7   8
TORSDOF 4
ENDMDL
MODEL      281
REMARK 921   NORMALIZED FREE ENERGY PREDICTED BY IDOCK:   -1.66 KCAL/MOL
REMARK 922        TOTAL FREE ENERGY PREDICTED BY IDOCK:   -2.88 KCAL/MOL
REMARK 923 INTER-LIGAND FREE ENERGY PREDICTED BY IDOCK:   -2.84 KCAL/MOL
REMARK 924 INTRA-LIGAND FREE ENERGY PREDICTED BY IDOCK:   -0.04 KCAL/MOL
REMARK 927      BINDING AFFINITY PREDICTED BY RF-SCORE:    0.00 PKD
ROOT
HETATM    1  C   UNL     1      -7.249  17.057  68.697  1.00  0.00    -0.221 C  
HETATM    2  N   UNL     1      -6.600  15.859  69.176  1.00  0.00    -0.147 N  
HETATM    3  C   UNL     1      -5.626  15.880  70.145  1.00  0.00    -0.162 C  
HETATM    4  O   UNL     1      -5.196  16.835  70.770  1.00  0.00    -0.218 OA 
HETATM    5  N   UNL     1      -5.216  14.563  70.281  1.00  0.00    -0.096 NA 
HETATM    6  N   UNL     1      -5.936  13.751  69.457  1.00  0.00    -0.100 NA 
HETATM    7  C   UNL     1      -6.747  14.564  68.832  1.00  0.00    -0.099 C  
ENDROOT
BRANCH   7   8
HETATM    8  C   UNL     1      -7.824  14.016  67.912  1.00  0.00    -0.160 C  
BRANCH   8   9
HETATM    9  N   UNL     1      -8.678  12.902  68.310  1.00  0.00    -0.184 N  
HETATM   10  C   UNL     1     -10.058  13.016  68.311  1.00  0.00    -0.239 C  
HETATM   11  C   UNL     1     -10.829  11.920  68.402  1.00  0.00    -0.263 C  
HETATM   12  C   UNL     1     -10.230  10.614  68.664  1.00  0.00    -0.196 C  
HETATM   13  C   UNL     1     -11.112   9.408  68.781  1.00  0.00     0.051 C  
HETATM   14  C   UNL     1      -8.891  10.501  68.768  1.00  0.00    -0.158 C  
HETATM   15  C   UNL     1      -8.111  11.631  68.173  1.00  0.00    -0.148 C  
HETATM   16  F   UNL     1     -12.408   9.674  68.466  1.00  0.00     0.977 F  
HETATM   17  F   UNL     1     -10.716   8.420  67.933  1.00  0.00    -0.277 F  
HETATM   18  O   UNL     1      -7.044  11.419  67.604  1.00  0.00    -0.083 OA 
HETATM   19  F   UNL     1     -11.114   8.882  70.030  1.00  0.00    -0.240 F  
BRANCH  14  20
HETATM   20  O   UNL     1      -8.279   9.319  69.170  1.00  0.00    -0.105 OA 
BRANCH  20  21
HETATM   21  C   UNL     1      -7.929   8.314  68.286  1.00  0.00    -0.119 A  
HETATM   22  C   UNL     1      -8.111   7.012  68.789  1.00  0.00    -0.121 A  
HETATM   23  C   UNL     1      -7.852   5.880  67.998  1.00  0.00    -0.104 A  
HETATM   24  C   UNL     1      -7.406   6.049  66.685  1.00  0.00    -0.078 A  
HETATM   25  C   UNL     1      -8.045   4.556  68.535  1.00  0.00    -0.082 C  
HETATM   26  C   UNL     1      -7.187   7.338  66.197  1.00  0.00    -0.074 A  
HETATM   27  N   UNL     1      -8.187   3.492  68.972  1.00  0.00    -0.060 NA 
HETATM   28 CL   UNL     1      -6.632   7.551  64.578  1.00  0.00    -0.044 Cl 
HETATM   29  C   UNL     1      -7.420   8.467  66.997  1.00  0.00    -0.088 A  
ENDBRANCH  20  21
ENDBRANCH  14  20
ENDBRANCH   8   9
ENDBRANCH   7   8
TORSDOF 4
ENDMDL
MODEL      282
REMARK 921   NORMALIZED FREE ENERGY PREDICTED BY IDOCK:   -1.12 KCAL/MOL
REMARK 922        TOTAL FREE ENERGY PREDICTED BY IDOCK:   -2.21 KCAL/MOL
REMARK 923 INTER-LIGAND FREE ENERGY PREDICTED BY IDOCK:   -3.77 KCAL/MOL
REMARK 924 INTRA-LIGAND FREE ENERGY PREDICTED BY IDOCK:    1.56 KCAL/MOL
REMARK 927      BINDING AFFINITY PREDICTED BY RF-SCORE:    0.00 PKD
ROOT
HETATM    1  C   UNL     1      -7.345  16.838  68.736  1.00  0.00    -0.227 C  
HETATM    2  N   UNL     1      -6.775  15.617  69.253  1.00  0.00    -0.146 N  
HETATM    3  C   UNL     1      -5.725  15.605  70.141  1.00  0.00    -0.151 C  
HETATM    4  O   UNL     1      -5.155  16.552  70.656  1.00  0.00    -0.188 OA 
HETATM    5  N   UNL     1      -5.432  14.266  70.345  1.00  0.00    -0.109 NA 
HETATM    6  N   UNL     1      -6.293  13.477  69.643  1.00  0.00    -0.119 NA 
HETATM    7  C   UNL     1      -7.072  14.323  69.022  1.00  0.00    -0.116 C  
ENDROOT
BRANCH   7   8
HETATM    8  C   UNL     1      -8.270  13.825  68.232  1.00  0.00    -0.156 C  
BRANCH   8   9
HETATM    9  N   UNL     1      -9.320  13.025  68.855  1.00  0.00     0.173 N  
HETATM   10  C   UNL     1     -10.651  13.405  68.787  1.00  0.00    -0.210 C  
HETATM   11  C   UNL     1     -11.622  12.535  69.109  1.00  0.00    -0.375 C  
HETATM   12  C   UNL     1     -11.288  11.237  69.690  1.00  0.00    -0.359 C  
HETATM   13  C   UNL     1     -12.389  10.290  70.060  1.00  0.00    -0.090 C  
HETATM   14  C   UNL     1      -9.996  10.891  69.858  1.00  0.00     0.446 C  
HETATM   15  C   UNL     1      -9.018  11.672  69.038  1.00  0.00     0.210 C  
HETATM   16  F   UNL     1     -13.612  10.722  69.653  1.00  0.00     0.257 F  
HETATM   17  F   UNL     1     -12.211   9.071  69.481  1.00  0.00     0.557 F  
HETATM   18  O   UNL     1      -8.025  11.127  68.567  1.00  0.00    -0.127 OA 
HETATM   19  F   UNL     1     -12.473  10.085  71.397  1.00  0.00    -0.375 F  
BRANCH  14  20
HETATM   20  O   UNL     1      -9.623   9.741  70.545  1.00  0.00    -0.239 OA 
BRANCH  20  21
HETATM   21  C   UNL     1     -10.011   8.472  70.155  1.00  0.00    -0.181 A  
HETATM   22  C   UNL     1     -10.332   7.612  71.222  1.00  0.00    -0.215 A  
HETATM   23  C   UNL     1     -10.795   6.305  70.994  1.00  0.00    -0.326 A  
HETATM   24  C   UNL     1     -10.940   5.850  69.681  1.00  0.00    -0.447 A  
HETATM   25  C   UNL     1     -11.118   5.442  72.102  1.00  0.00    -0.168 C  
HETATM   26  C   UNL     1     -10.583   6.686  68.622  1.00  0.00    -0.234 A  
HETATM   27  N   UNL     1     -11.363   4.744  72.994  1.00  0.00    -0.266 NA 
HETATM   28 CL   UNL     1     -10.757   6.125  67.001  1.00  0.00    -0.383 Cl 
HETATM   29  C   UNL     1     -10.096   7.981  68.853  1.00  0.00    -0.209 A  
ENDBRANCH  20  21
ENDBRANCH  14  20
ENDBRANCH   8   9
ENDBRANCH   7   8
TORSDOF 4
ENDMDL
MODEL      283
REMARK 921   NORMALIZED FREE ENERGY PREDICTED BY IDOCK:   -1.08 KCAL/MOL
REMARK 922        TOTAL FREE ENERGY PREDICTED BY IDOCK:   -2.17 KCAL/MOL
REMARK 923 INTER-LIGAND FREE ENERGY PREDICTED BY IDOCK:   -3.82 KCAL/MOL
REMARK 924 INTRA-LIGAND FREE ENERGY PREDICTED BY IDOCK:    1.65 KCAL/MOL
REMARK 927      BINDING AFFINITY PREDICTED BY RF-SCORE:    0.00 PKD
ROOT
HETATM    1  C   UNL     1     -14.378  12.504  71.230  1.00  0.00     2.845 C  
HETATM    2  N   UNL     1     -13.362  13.494  70.964  1.00  0.00    -0.079 N  
HETATM    3  C   UNL     1     -13.460  14.795  71.400  1.00  0.00    -0.404 C  
HETATM    4  O   UNL     1     -14.333  15.303  72.083  1.00  0.00    -0.527 OA 
HETATM    5  N   UNL     1     -12.338  15.434  70.899  1.00  0.00    -0.363 NA 
HETATM    6  N   UNL     1     -11.553  14.557  70.213  1.00  0.00    -0.278 NA 
HETATM    7  C   UNL     1     -12.197  13.422  70.289  1.00  0.00    -0.335 C  
ENDROOT
BRANCH   7   8
HETATM    8  C   UNL     1     -11.569  12.147  69.755  1.00  0.00    -0.262 C  
BRANCH   8   9
HETATM    9  N   UNL     1     -11.316  11.954  68.331  1.00  0.00    -0.250 N  
HETATM   10  C   UNL     1     -11.204  13.031  67.467  1.00  0.00    -0.284 C  
HETATM   11  C   UNL     1     -10.697  12.861  66.234  1.00  0.00    -0.292 C  
HETATM   12  C   UNL     1     -10.412  11.521  65.730  1.00  0.00    -0.308 C  
HETATM   13  C   UNL     1      -9.866  11.355  64.345  1.00  0.00    -0.261 C  
HETATM   14  C   UNL     1     -10.613  10.450  66.525  1.00  0.00    -0.151 C  
HETATM   15  C   UNL     1     -10.690  10.752  67.988  1.00  0.00    -0.228 C  
HETATM   16  F   UNL     1      -9.552  12.541  63.759  1.00  0.00    -0.225 F  
HETATM   17  F   UNL     1      -8.718  10.624  64.348  1.00  0.00    -0.175 F  
HETATM   18  O   UNL     1     -10.218   9.971  68.810  1.00  0.00    -0.170 OA 
HETATM   19  F   UNL     1     -10.734  10.726  63.514  1.00  0.00    -0.376 F  
BRANCH  14  20
HETATM   20  O   UNL     1     -10.509   9.148  66.049  1.00  0.00    -0.067 OA 
BRANCH  20  21
HETATM   21  C   UNL     1     -10.344   8.054  66.879  1.00  0.00    -0.338 A  
HETATM   22  C   UNL     1      -9.370   7.137  66.440  1.00  0.00    -0.190 A  
HETATM   23  C   UNL     1      -9.044   5.999  67.197  1.00  0.00    -0.113 A  
HETATM   24  C   UNL     1      -9.699   5.773  68.411  1.00  0.00    -0.161 A  
HETATM   25  C   UNL     1      -8.044   5.073  66.728  1.00  0.00    -0.108 C  
HETATM   26  C   UNL     1     -10.693   6.659  68.828  1.00  0.00    -0.258 A  
HETATM   27  N   UNL     1      -7.249   4.322  66.343  1.00  0.00    -0.074 NA 
HETATM   28 CL   UNL     1     -11.506   6.381  70.323  1.00  0.00    -0.460 Cl 
HETATM   29  C   UNL     1     -11.036   7.781  68.058  1.00  0.00     0.072 A  
ENDBRANCH  20  21
ENDBRANCH  14  20
ENDBRANCH   8   9
ENDBRANCH   7   8
TORSDOF 4
ENDMDL
MODEL      284
REMARK 921   NORMALIZED FREE ENERGY PREDICTED BY IDOCK:   -0.78 KCAL/MOL
REMARK 922        TOTAL FREE ENERGY PREDICTED BY IDOCK:   -1.79 KCAL/MOL
REMARK 923 INTER-LIGAND FREE ENERGY PREDICTED BY IDOCK:   -5.48 KCAL/MOL
REMARK 924 INTRA-LIGAND FREE ENERGY PREDICTED BY IDOCK:    3.69 KCAL/MOL
REMARK 927      BINDING AFFINITY PREDICTED BY RF-SCORE:    0.00 PKD
ROOT
HETATM    1  C   UNL     1      -7.972   7.410  66.350  1.00  0.00    -0.108 C  
HETATM    2  N   UNL     1      -9.177   8.140  66.668  1.00  0.00    -0.168 N  
HETATM    3  C   UNL     1     -10.096   7.691  67.587  1.00  0.00    -0.192 C  
HETATM    4  O   UNL     1     -10.045   6.695  68.289  1.00  0.00    -0.146 OA 
HETATM    5  N   UNL     1     -11.122   8.622  67.563  1.00  0.00     0.186 NA 
HETATM    6  N   UNL     1     -10.833   9.630  66.692  1.00  0.00    -0.020 NA 
HETATM    7  C   UNL     1      -9.669   9.302  66.197  1.00  0.00    -0.279 C  
ENDROOT
BRANCH   7   8
HETATM    8  C   UNL     1      -8.932  10.258  65.275  1.00  0.00    -0.186 C  
BRANCH   8   9
HETATM    9  N   UNL     1      -9.303  11.666  65.175  1.00  0.00    -0.126 N  
HETATM   10  C   UNL     1     -10.372  12.076  64.395  1.00  0.00    -0.305 C  
HETATM   11  C   UNL     1     -10.875  13.314  64.531  1.00  0.00    -0.409 C  
HETATM   12  C   UNL     1     -10.204  14.296  65.379  1.00  0.00    -0.395 C  
HETATM   13  C   UNL     1     -10.773  15.677  65.500  1.00  0.00    -0.389 C  
HETATM   14  C   UNL     1      -9.101  13.943  66.068  1.00  0.00     0.213 C  
HETATM   15  C   UNL     1      -8.912  12.469  66.251  1.00  0.00    -0.003 C  
HETATM   16  F   UNL     1     -11.981  15.802  64.889  1.00  0.00    -0.120 F  
HETATM   17  F   UNL     1     -10.974  16.019  66.801  1.00  0.00    -0.315 F  
HETATM   18  O   UNL     1      -8.443  12.027  67.296  1.00  0.00    -0.160 OA 
HETATM   19  F   UNL     1      -9.964  16.623  64.961  1.00  0.00    -0.043 F  
BRANCH  14  20
HETATM   20  O   UNL     1      -8.336  14.872  66.764  1.00  0.00    -0.219 OA 
BRANCH  20  21
HETATM   21  C   UNL     1      -8.889  15.855  67.563  1.00  0.00    -0.189 A  
HETATM   22  C   UNL     1      -9.654  15.364  68.638  1.00  0.00    -0.204 A  
HETATM   23  C   UNL     1     -10.240  16.232  69.575  1.00  0.00    -0.251 A  
HETATM   24  C   UNL     1     -10.060  17.611  69.437  1.00  0.00    -0.033 A  
HETATM   25  C   UNL     1     -11.020  15.707  70.668  1.00  0.00    -0.340 C  
HETATM   26  C   UNL     1      -9.337  18.102  68.350  1.00  0.00    -0.309 A  
HETATM   27  N   UNL     1     -11.658  15.283  71.538  1.00  0.00    -0.367 NA 
HETATM   28 CL   UNL     1      -9.117  19.803  68.175  1.00  0.00    -0.392 Cl 
HETATM   29  C   UNL     1      -8.774  17.235  67.401  1.00  0.00    -0.212 A  
ENDBRANCH  20  21
ENDBRANCH  14  20
ENDBRANCH   8   9
ENDBRANCH   7   8
TORSDOF 4
ENDMDL
MODEL      285
REMARK 921   NORMALIZED FREE ENERGY PREDICTED BY IDOCK:   -0.40 KCAL/MOL
REMARK 922        TOTAL FREE ENERGY PREDICTED BY IDOCK:   -1.33 KCAL/MOL
REMARK 923 INTER-LIGAND FREE ENERGY PREDICTED BY IDOCK:   -3.53 KCAL/MOL
REMARK 924 INTRA-LIGAND FREE ENERGY PREDICTED BY IDOCK:    2.20 KCAL/MOL
REMARK 927      BINDING AFFINITY PREDICTED BY RF-SCORE:    0.00 PKD
ROOT
HETATM    1  C   UNL     1     -11.932  16.396  68.267  1.00  0.00     0.495 C  
HETATM    2  N   UNL     1     -10.632  17.022  68.338  1.00  0.00    -0.361 N  
HETATM    3  C   UNL     1     -10.422  18.336  67.994  1.00  0.00    -0.367 C  
HETATM    4  O   UNL     1     -11.239  19.169  67.640  1.00  0.00    -0.261 OA 
HETATM    5  N   UNL     1      -9.058  18.538  68.136  1.00  0.00    -0.300 NA 
HETATM    6  N   UNL     1      -8.452  17.405  68.588  1.00  0.00    -0.271 NA 
HETATM    7  C   UNL     1      -9.426  16.541  68.700  1.00  0.00    -0.243 C  
ENDROOT
BRANCH   7   8
HETATM    8  C   UNL     1      -9.174  15.176  69.317  1.00  0.00    -0.205 C  
BRANCH   8   9
HETATM    9  N   UNL     1      -9.430  13.943  68.579  1.00  0.00    -0.201 N  
HETATM   10  C   UNL     1     -10.624  13.254  68.718  1.00  0.00    -0.201 C  
HETATM   11  C   UNL     1     -10.959  12.295  67.839  1.00  0.00    -0.265 C  
HETATM   12  C   UNL     1     -10.005  11.853  66.827  1.00  0.00    -0.215 C  
HETATM   13  C   UNL     1     -10.394  10.768  65.870  1.00  0.00    -0.238 C  
HETATM   14  C   UNL     1      -8.796  12.445  66.742  1.00  0.00    -0.189 C  
HETATM   15  C   UNL     1      -8.700  13.788  67.396  1.00  0.00    -0.207 C  
HETATM   16  F   UNL     1     -11.704  10.419  65.978  1.00  0.00     0.618 F  
HETATM   17  F   UNL     1     -10.217  11.158  64.579  1.00  0.00    -0.285 F  
HETATM   18  O   UNL     1      -8.017  14.676  66.896  1.00  0.00    -0.139 OA 
HETATM   19  F   UNL     1      -9.672   9.634  66.045  1.00  0.00    -0.238 F  
BRANCH  14  20
HETATM   20  O   UNL     1      -7.795  11.963  65.906  1.00  0.00     0.390 OA 
BRANCH  20  21
HETATM   21  C   UNL     1      -7.387  10.642  65.905  1.00  0.00    -0.128 A  
HETATM   22  C   UNL     1      -7.710   9.938  64.730  1.00  0.00    -0.138 A  
HETATM   23  C   UNL     1      -7.320   8.601  64.548  1.00  0.00    -0.099 A  
HETATM   24  C   UNL     1      -6.594   7.956  65.553  1.00  0.00    -0.041 A  
HETATM   25  C   UNL     1      -7.662   7.899  63.336  1.00  0.00    -0.140 C  
HETATM   26  C   UNL     1      -6.306   8.639  66.735  1.00  0.00    -0.059 A  
HETATM   27  N   UNL     1      -7.952   7.332  62.367  1.00  0.00    -0.132 NA 
HETATM   28 CL   UNL     1      -5.415   7.846  67.980  1.00  0.00    -0.032 Cl 
HETATM   29  C   UNL     1      -6.721   9.966  66.926  1.00  0.00    -0.078 A  
ENDBRANCH  20  21
ENDBRANCH  14  20
ENDBRANCH   8   9
ENDBRANCH   7   8
TORSDOF 4
ENDMDL
MODEL      286
REMARK 921   NORMALIZED FREE ENERGY PREDICTED BY IDOCK:    0.50 KCAL/MOL
REMARK 922        TOTAL FREE ENERGY PREDICTED BY IDOCK:   -0.22 KCAL/MOL
REMARK 923 INTER-LIGAND FREE ENERGY PREDICTED BY IDOCK:   -1.75 KCAL/MOL
REMARK 924 INTRA-LIGAND FREE ENERGY PREDICTED BY IDOCK:    1.53 KCAL/MOL
REMARK 927      BINDING AFFINITY PREDICTED BY RF-SCORE:    0.00 PKD
ROOT
HETATM    1  C   UNL     1      -9.469  14.070  64.947  1.00  0.00     0.840 C  
HETATM    2  N   UNL     1      -9.952  12.710  64.926  1.00  0.00    -0.198 N  
HETATM    3  C   UNL     1     -11.195  12.371  64.445  1.00  0.00    -0.332 C  
HETATM    4  O   UNL     1     -12.036  13.094  63.939  1.00  0.00    -0.430 OA 
HETATM    5  N   UNL     1     -11.306  11.005  64.651  1.00  0.00     0.115 NA 
HETATM    6  N   UNL     1     -10.163  10.509  65.201  1.00  0.00    -0.306 NA 
HETATM    7  C   UNL     1      -9.391  11.555  65.335  1.00  0.00    -0.159 C  
ENDROOT
BRANCH   7   8
HETATM    8  C   UNL     1      -7.952  11.392  65.794  1.00  0.00     0.251 C  
BRANCH   8   9
HETATM    9  N   UNL     1      -7.608  10.604  66.973  1.00  0.00    -0.106 N  
HETATM   10  C   UNL     1      -7.908  11.049  68.250  1.00  0.00    -0.121 C  
HETATM   11  C   UNL     1      -7.847  10.206  69.294  1.00  0.00    -0.134 C  
HETATM   12  C   UNL     1      -7.310   8.858  69.126  1.00  0.00    -0.072 C  
HETATM   13  C   UNL     1      -7.234   7.942  70.308  1.00  0.00    -0.057 C  
HETATM   14  C   UNL     1      -6.917   8.442  67.905  1.00  0.00    -0.078 C  
HETATM   15  C   UNL     1      -7.469   9.229  66.758  1.00  0.00    -0.087 C  
HETATM   16  F   UNL     1      -7.840   8.457  71.411  1.00  0.00    -0.078 F  
HETATM   17  F   UNL     1      -7.855   6.757  70.059  1.00  0.00    -0.100 F  
HETATM   18  O   UNL     1      -7.775   8.669  65.709  1.00  0.00    -0.087 OA 
HETATM   19  F   UNL     1      -5.958   7.654  70.664  1.00  0.00    -0.030 F  
BRANCH  14  20
HETATM   20  O   UNL     1      -6.257   7.233  67.714  1.00  0.00    -0.042 OA 
BRANCH  20  21
HETATM   21  C   UNL     1      -6.609   6.331  66.727  1.00  0.00    -0.055 A  
HETATM   22  C   UNL     1      -6.811   5.017  67.190  1.00  0.00    -0.056 A  
HETATM   23  C   UNL     1      -7.224   3.992  66.322  1.00  0.00    -0.068 A  
HETATM   24  C   UNL     1      -7.439   4.282  64.973  1.00  0.00    -0.073 A  
HETATM   25  C   UNL     1      -7.424   2.653  66.818  1.00  0.00    -0.070 C  
HETATM   26  C   UNL     1      -7.200   5.574  64.503  1.00  0.00    -0.055 A  
HETATM   27  N   UNL     1      -7.571   1.574  67.216  1.00  0.00    -0.058 NA 
HETATM   28 CL   UNL     1      -7.460   5.935  62.837  1.00  0.00    -0.057 Cl 
HETATM   29  C   UNL     1      -6.762   6.590  65.366  1.00  0.00    -0.047 A  
ENDBRANCH  20  21
ENDBRANCH  14  20
ENDBRANCH   8   9
ENDBRANCH   7   8
TORSDOF 4
ENDMDL
MODEL      287
REMARK 921   NORMALIZED FREE ENERGY PREDICTED BY IDOCK:    0.79 KCAL/MOL
REMARK 922        TOTAL FREE ENERGY PREDICTED BY IDOCK:    0.14 KCAL/MOL
REMARK 923 INTER-LIGAND FREE ENERGY PREDICTED BY IDOCK:   -1.03 KCAL/MOL
REMARK 924 INTRA-LIGAND FREE ENERGY PREDICTED BY IDOCK:    1.17 KCAL/MOL
REMARK 927      BINDING AFFINITY PREDICTED BY RF-SCORE:    0.00 PKD
ROOT
HETATM    1  C   UNL     1     -14.396  12.490  71.195  1.00  0.00     3.208 C  
HETATM    2  N   UNL     1     -13.325  13.444  71.028  1.00  0.00    -0.034 N  
HETATM    3  C   UNL     1     -13.367  14.708  71.567  1.00  0.00    -0.364 C  
HETATM    4  O   UNL     1     -14.228  15.205  72.274  1.00  0.00    -0.494 OA 
HETATM    5  N   UNL     1     -12.203  15.327  71.141  1.00  0.00    -0.317 NA 
HETATM    6  N   UNL     1     -11.449  14.467  70.399  1.00  0.00    -0.240 NA 
HETATM    7  C   UNL     1     -12.151  13.366  70.371  1.00  0.00    -0.333 C  
ENDROOT
BRANCH   7   8
HETATM    8  C   UNL     1     -11.576  12.106  69.747  1.00  0.00    -0.262 C  
BRANCH   8   9
HETATM    9  N   UNL     1     -11.213  12.047  68.335  1.00  0.00    -0.239 N  
HETATM   10  C   UNL     1     -10.865  13.189  67.631  1.00  0.00    -0.254 C  
HETATM   11  C   UNL     1     -10.267  13.091  66.432  1.00  0.00    -0.283 C  
HETATM   12  C   UNL     1     -10.125  11.792  65.781  1.00  0.00    -0.270 C  
HETATM   13  C   UNL     1      -9.474  11.709  64.434  1.00  0.00    -0.029 C  
HETATM   14  C   UNL     1     -10.553  10.678  66.409  1.00  0.00    -0.175 C  
HETATM   15  C   UNL     1     -10.731  10.812  67.888  1.00  0.00    -0.239 C  
HETATM   16  F   UNL     1      -8.940  12.895  64.037  1.00  0.00     0.826 F  
HETATM   17  F   UNL     1      -8.446  10.818  64.434  1.00  0.00    -0.172 F  
HETATM   18  O   UNL     1     -10.458   9.878  68.635  1.00  0.00    -0.190 OA 
HETATM   19  F   UNL     1     -10.334  11.323  63.461  1.00  0.00    -0.323 F  
BRANCH  14  20
HETATM   20  O   UNL     1     -10.586   9.440  65.776  1.00  0.00     0.164 OA 
BRANCH  20  21
HETATM   21  C   UNL     1      -9.701   8.420  66.070  1.00  0.00    -0.076 A  
HETATM   22  C   UNL     1      -9.863   7.866  67.354  1.00  0.00    -0.237 A  
HETATM   23  C   UNL     1      -9.077   6.786  67.789  1.00  0.00    -0.117 A  
HETATM   24  C   UNL     1      -8.115   6.249  66.929  1.00  0.00    -0.109 A  
HETATM   25  C   UNL     1      -9.260   6.235  69.108  1.00  0.00    -0.128 C  
HETATM   26  C   UNL     1      -7.925   6.821  65.671  1.00  0.00    -0.116 A  
HETATM   27  N   UNL     1      -9.398   5.803  70.175  1.00  0.00    -0.153 NA 
HETATM   28 CL   UNL     1      -6.736   6.164  64.609  1.00  0.00    -0.045 Cl 
HETATM   29  C   UNL     1      -8.693   7.917  65.249  1.00  0.00    -0.032 A  
ENDBRANCH  20  21
ENDBRANCH  14  20
ENDBRANCH   8   9
ENDBRANCH   7   8
TORSDOF 4
ENDMDL
MODEL      288
REMARK 921   NORMALIZED FREE ENERGY PREDICTED BY IDOCK:    1.97 KCAL/MOL
REMARK 922        TOTAL FREE ENERGY PREDICTED BY IDOCK:    1.59 KCAL/MOL
REMARK 923 INTER-LIGAND FREE ENERGY PREDICTED BY IDOCK:   -1.47 KCAL/MOL
REMARK 924 INTRA-LIGAND FREE ENERGY PREDICTED BY IDOCK:    3.06 KCAL/MOL
REMARK 927      BINDING AFFINITY PREDICTED BY RF-SCORE:    0.00 PKD
ROOT
HETATM    1  C   UNL     1     -12.043  16.397  68.397  1.00  0.00     0.665 C  
HETATM    2  N   UNL     1     -10.801  17.065  68.709  1.00  0.00    -0.300 N  
HETATM    3  C   UNL     1     -10.587  18.396  68.442  1.00  0.00    -0.135 C  
HETATM    4  O   UNL     1     -11.364  19.212  67.974  1.00  0.00     0.190 OA 
HETATM    5  N   UNL     1      -9.278  18.640  68.823  1.00  0.00    -0.316 NA 
HETATM    6  N   UNL     1      -8.714  17.514  69.343  1.00  0.00     0.284 NA 
HETATM    7  C   UNL     1      -9.658  16.614  69.262  1.00  0.00    -0.148 C  
ENDROOT
BRANCH   7   8
HETATM    8  C   UNL     1      -9.462  15.239  69.876  1.00  0.00    -0.006 C  
BRANCH   8   9
HETATM    9  N   UNL     1      -9.708  14.018  69.116  1.00  0.00     0.061 N  
HETATM   10  C   UNL     1     -10.875  13.289  69.280  1.00  0.00    -0.023 C  
HETATM   11  C   UNL     1     -11.214  12.344  68.389  1.00  0.00    -0.316 C  
HETATM   12  C   UNL     1     -10.285  11.956  67.331  1.00  0.00    -0.214 C  
HETATM   13  C   UNL     1     -10.677  10.885  66.360  1.00  0.00    -0.194 C  
HETATM   14  C   UNL     1      -9.098  12.587  67.219  1.00  0.00    -0.189 C  
HETATM   15  C   UNL     1      -9.018  13.915  67.904  1.00  0.00    -0.191 C  
HETATM   16  F   UNL     1     -11.971  10.493  66.507  1.00  0.00     0.765 F  
HETATM   17  F   UNL     1     -10.559  11.312  65.075  1.00  0.00    -0.322 F  
HETATM   18  O   UNL     1      -8.380  14.836  67.403  1.00  0.00    -0.172 OA 
HETATM   19  F   UNL     1      -9.916   9.769  66.479  1.00  0.00    -0.235 F  
BRANCH  14  20
HETATM   20  O   UNL     1      -8.115  12.157  66.334  1.00  0.00     0.024 OA 
BRANCH  20  21
HETATM   21  C   UNL     1      -7.777  10.826  66.173  1.00  0.00    -0.149 A  
HETATM   22  C   UNL     1      -6.993  10.298  67.216  1.00  0.00    -0.086 A  
HETATM   23  C   UNL     1      -6.610   8.946  67.229  1.00  0.00    -0.062 A  
HETATM   24  C   UNL     1      -7.016   8.109  66.187  1.00  0.00    -0.058 A  
HETATM   25  C   UNL     1      -5.806   8.427  68.307  1.00  0.00    -0.042 C  
HETATM   26  C   UNL     1      -7.759   8.639  65.132  1.00  0.00    -0.101 A  
HETATM   27  N   UNL     1      -5.147   8.014  69.167  1.00  0.00    -0.022 NA 
HETATM   28 CL   UNL     1      -8.258   7.609  63.842  1.00  0.00    -0.036 Cl 
HETATM   29  C   UNL     1      -8.119   9.995  65.107  1.00  0.00    -0.144 A  
ENDBRANCH  20  21
ENDBRANCH  14  20
ENDBRANCH   8   9
ENDBRANCH   7   8
TORSDOF 4
ENDMDL
MODEL      289
REMARK 921   NORMALIZED FREE ENERGY PREDICTED BY IDOCK:    2.09 KCAL/MOL
REMARK 922        TOTAL FREE ENERGY PREDICTED BY IDOCK:    1.74 KCAL/MOL
REMARK 923 INTER-LIGAND FREE ENERGY PREDICTED BY IDOCK:   -1.11 KCAL/MOL
REMARK 924 INTRA-LIGAND FREE ENERGY PREDICTED BY IDOCK:    2.85 KCAL/MOL
REMARK 927      BINDING AFFINITY PREDICTED BY RF-SCORE:    0.00 PKD
ROOT
HETATM    1  C   UNL     1     -10.900  11.193  71.315  1.00  0.00     2.845 C  
HETATM    2  N   UNL     1     -12.207  10.612  71.510  1.00  0.00    -0.302 N  
HETATM    3  C   UNL     1     -13.288  11.345  71.941  1.00  0.00    -0.304 C  
HETATM    4  O   UNL     1     -13.351  12.540  72.172  1.00  0.00    -0.525 OA 
HETATM    5  N   UNL     1     -14.324  10.433  72.061  1.00  0.00     0.667 NA 
HETATM    6  N   UNL     1     -13.914   9.190  71.681  1.00  0.00    -0.331 NA 
HETATM    7  C   UNL     1     -12.658   9.352  71.356  1.00  0.00    -0.348 C  
ENDROOT
BRANCH   7   8
HETATM    8  C   UNL     1     -11.873   8.207  70.741  1.00  0.00    -0.159 C  
BRANCH   8   9
HETATM    9  N   UNL     1     -10.867   8.435  69.708  1.00  0.00    -0.219 N  
HETATM   10  C   UNL     1      -9.921   9.440  69.833  1.00  0.00    -0.212 C  
HETATM   11  C   UNL     1      -8.844   9.460  69.031  1.00  0.00    -0.141 C  
HETATM   12  C   UNL     1      -8.735   8.525  67.915  1.00  0.00    -0.138 C  
HETATM   13  C   UNL     1      -7.533   8.579  67.021  1.00  0.00    -0.084 C  
HETATM   14  C   UNL     1      -9.699   7.603  67.717  1.00  0.00    -0.148 C  
HETATM   15  C   UNL     1     -10.569   7.330  68.904  1.00  0.00    -0.191 C  
HETATM   16  F   UNL     1      -6.581   9.437  67.475  1.00  0.00    -0.061 F  
HETATM   17  F   UNL     1      -6.928   7.364  66.929  1.00  0.00    -0.070 F  
HETATM   18  O   UNL     1     -10.975   6.195  69.130  1.00  0.00    -0.318 OA 
HETATM   19  F   UNL     1      -7.839   8.967  65.759  1.00  0.00    -0.092 F  
BRANCH  14  20
HETATM   20  O   UNL     1      -9.727   6.795  66.586  1.00  0.00    -0.171 OA 
BRANCH  20  21
HETATM   21  C   UNL     1      -9.247   5.499  66.576  1.00  0.00    -0.141 A  
HETATM   22  C   UNL     1      -9.578   4.749  67.721  1.00  0.00    -0.194 A  
HETATM   23  C   UNL     1      -9.211   3.399  67.843  1.00  0.00    -0.237 A  
HETATM   24  C   UNL     1      -8.503   2.786  66.806  1.00  0.00    -0.103 A  
HETATM   25  C   UNL     1      -9.561   2.652  69.025  1.00  0.00     0.023 C  
HETATM   26  C   UNL     1      -8.139   3.536  65.688  1.00  0.00    -0.093 A  
HETATM   27  N   UNL     1      -9.830   2.056  69.983  1.00  0.00     0.123 NA 
HETATM   28 CL   UNL     1      -7.261   2.783  64.409  1.00  0.00    -0.056 Cl 
HETATM   29  C   UNL     1      -8.483   4.892  65.580  1.00  0.00    -0.130 A  
ENDBRANCH  20  21
ENDBRANCH  14  20
ENDBRANCH   8   9
ENDBRANCH   7   8
TORSDOF 4
ENDMDL
MODEL      290
REMARK 921   NORMALIZED FREE ENERGY PREDICTED BY IDOCK:    3.41 KCAL/MOL
REMARK 922        TOTAL FREE ENERGY PREDICTED BY IDOCK:    3.37 KCAL/MOL
REMARK 923 INTER-LIGAND FREE ENERGY PREDICTED BY IDOCK:   -1.05 KCAL/MOL
REMARK 924 INTRA-LIGAND FREE ENERGY PREDICTED BY IDOCK:    4.42 KCAL/MOL
REMARK 927      BINDING AFFINITY PREDICTED BY RF-SCORE:    0.00 PKD
ROOT
HETATM    1  C   UNL     1      -9.226  13.532  65.752  1.00  0.00     0.318 C  
HETATM    2  N   UNL     1      -9.591  12.141  65.877  1.00  0.00    -0.236 N  
HETATM    3  C   UNL     1     -10.799  11.649  65.442  1.00  0.00    -0.280 C  
HETATM    4  O   UNL     1     -11.698  12.240  64.869  1.00  0.00    -0.349 OA 
HETATM    5  N   UNL     1     -10.795  10.308  65.791  1.00  0.00     0.128 NA 
HETATM    6  N   UNL     1      -9.614   9.971  66.383  1.00  0.00    -0.185 NA 
HETATM    7  C   UNL     1      -8.934  11.087  66.401  1.00  0.00    -0.181 C  
ENDROOT
BRANCH   7   8
HETATM    8  C   UNL     1      -7.488  11.096  66.866  1.00  0.00    -0.138 C  
BRANCH   8   9
HETATM    9  N   UNL     1      -7.095  10.546  68.159  1.00  0.00    -0.081 N  
HETATM   10  C   UNL     1      -7.395  11.200  69.343  1.00  0.00    -0.062 C  
HETATM   11  C   UNL     1      -7.284  10.560  70.518  1.00  0.00     0.448 C  
HETATM   12  C   UNL     1      -6.693   9.226  70.581  1.00  0.00    -0.085 C  
HETATM   13  C   UNL     1      -6.561   8.539  71.906  1.00  0.00    -0.076 C  
HETATM   14  C   UNL     1      -6.300   8.614  69.446  1.00  0.00    -0.041 C  
HETATM   15  C   UNL     1      -6.901   9.161  68.189  1.00  0.00    -0.068 C  
HETATM   16  F   UNL     1      -7.174   9.218  72.912  1.00  0.00     0.230 F  
HETATM   17  F   UNL     1      -7.135   7.306  71.884  1.00  0.00    -0.061 F  
HETATM   18  O   UNL     1      -7.197   8.412  67.263  1.00  0.00    -0.081 OA 
HETATM   19  F   UNL     1      -5.269   8.370  72.280  1.00  0.00    -0.034 F  
BRANCH  14  20
HETATM   20  O   UNL     1      -5.592   7.417  69.459  1.00  0.00    -0.022 OA 
BRANCH  20  21
HETATM   21  C   UNL     1      -5.905   6.348  68.640  1.00  0.00    -0.020 A  
HETATM   22  C   UNL     1      -6.794   6.661  67.594  1.00  0.00    -0.080 A  
HETATM   23  C   UNL     1      -7.170   5.700  66.642  1.00  0.00    -0.074 A  
HETATM   24  C   UNL     1      -6.652   4.405  66.734  1.00  0.00    -0.050 A  
HETATM   25  C   UNL     1      -8.082   6.043  65.580  1.00  0.00    -0.133 C  
HETATM   26  C   UNL     1      -5.803   4.081  67.793  1.00  0.00    -0.023 A  
HETATM   27  N   UNL     1      -8.827   6.316  64.734  1.00  0.00     0.211 NA 
HETATM   28 CL   UNL     1      -5.165   2.483  67.912  1.00  0.00    -0.012 Cl 
HETATM   29  C   UNL     1      -5.449   5.036  68.758  1.00  0.00    -0.011 A  
ENDBRANCH  20  21
ENDBRANCH  14  20
ENDBRANCH   8   9
ENDBRANCH   7   8
TORSDOF 4
ENDMDL
MODEL      291
REMARK 921   NORMALIZED FREE ENERGY PREDICTED BY IDOCK:    3.72 KCAL/MOL
REMARK 922        TOTAL FREE ENERGY PREDICTED BY IDOCK:    3.75 KCAL/MOL
REMARK 923 INTER-LIGAND FREE ENERGY PREDICTED BY IDOCK:    3.13 KCAL/MOL
REMARK 924 INTRA-LIGAND FREE ENERGY PREDICTED BY IDOCK:    0.63 KCAL/MOL
REMARK 927      BINDING AFFINITY PREDICTED BY RF-SCORE:    0.00 PKD
ROOT
HETATM    1  C   UNL     1      -5.794  16.826  65.452  1.00  0.00     2.693 C  
HETATM    2  N   UNL     1      -5.603  18.247  65.282  1.00  0.00    -0.172 N  
HETATM    3  C   UNL     1      -5.698  18.869  64.059  1.00  0.00    -0.118 C  
HETATM    4  O   UNL     1      -5.988  18.381  62.980  1.00  0.00     0.981 OA 
HETATM    5  N   UNL     1      -5.393  20.198  64.300  1.00  0.00    -0.169 NA 
HETATM    6  N   UNL     1      -5.157  20.403  65.626  1.00  0.00    -0.167 NA 
HETATM    7  C   UNL     1      -5.303  19.221  66.164  1.00  0.00    -0.155 C  
ENDROOT
BRANCH   7   8
HETATM    8  C   UNL     1      -5.256  19.055  67.673  1.00  0.00    -0.173 C  
BRANCH   8   9
HETATM    9  N   UNL     1      -6.452  19.195  68.498  1.00  0.00    -0.239 N  
HETATM   10  C   UNL     1      -6.395  19.763  69.760  1.00  0.00    -0.352 C  
HETATM   11  C   UNL     1      -7.522  20.142  70.384  1.00  0.00     0.775 C  
HETATM   12  C   UNL     1      -8.827  19.812  69.818  1.00  0.00     0.676 C  
HETATM   13  C   UNL     1     -10.071  20.227  70.543  1.00  0.00     1.292 C  
HETATM   14  C   UNL     1      -8.901  19.166  68.637  1.00  0.00    -0.365 C  
HETATM   15  C   UNL     1      -7.663  19.233  67.799  1.00  0.00    -0.273 C  
HETATM   16  F   UNL     1      -9.814  21.025  71.613  1.00  0.00     1.209 F  
HETATM   17  F   UNL     1     -10.901  20.941  69.735  1.00  0.00    -0.230 F  
HETATM   18  O   UNL     1      -7.742  19.319  66.578  1.00  0.00    -0.248 OA 
HETATM   19  F   UNL     1     -10.782  19.170  71.007  1.00  0.00     0.849 F  
BRANCH  14  20
HETATM   20  O   UNL     1     -10.105  18.691  68.130  1.00  0.00    -0.343 OA 
BRANCH  20  21
HETATM   21  C   UNL     1     -10.418  17.345  68.072  1.00  0.00    -0.383 A  
HETATM   22  C   UNL     1     -10.257  16.767  66.799  1.00  0.00    -0.304 A  
HETATM   23  C   UNL     1     -10.483  15.398  66.584  1.00  0.00    -0.293 A  
HETATM   24  C   UNL     1     -10.875  14.592  67.655  1.00  0.00    -0.275 A  
HETATM   25  C   UNL     1     -10.311  14.828  65.271  1.00  0.00    -0.398 C  
HETATM   26  C   UNL     1     -11.075  15.169  68.910  1.00  0.00    -0.270 A  
HETATM   27  N   UNL     1     -10.187  14.374  64.211  1.00  0.00     0.213 NA 
HETATM   28 CL   UNL     1     -11.564  14.178  70.233  1.00  0.00    -0.303 Cl 
HETATM   29  C   UNL     1     -10.875  16.543  69.117  1.00  0.00    -0.334 A  
ENDBRANCH  20  21
ENDBRANCH  14  20
ENDBRANCH   8   9
ENDBRANCH   7   8
TORSDOF 4
ENDMDL
MODEL      292
REMARK 921   NORMALIZED FREE ENERGY PREDICTED BY IDOCK:    3.73 KCAL/MOL
REMARK 922        TOTAL FREE ENERGY PREDICTED BY IDOCK:    3.76 KCAL/MOL
REMARK 923 INTER-LIGAND FREE ENERGY PREDICTED BY IDOCK:    2.06 KCAL/MOL
REMARK 924 INTRA-LIGAND FREE ENERGY PREDICTED BY IDOCK:    1.70 KCAL/MOL
REMARK 927      BINDING AFFINITY PREDICTED BY RF-SCORE:    0.00 PKD
ROOT
HETATM    1  C   UNL     1     -10.032  10.182  70.632  1.00  0.00     0.325 C  
HETATM    2  N   UNL     1      -8.664   9.941  70.239  1.00  0.00    -0.124 N  
HETATM    3  C   UNL     1      -7.958   8.835  70.650  1.00  0.00    -0.122 C  
HETATM    4  O   UNL     1      -8.341   7.898  71.330  1.00  0.00    -0.106 OA 
HETATM    5  N   UNL     1      -6.687   8.996  70.122  1.00  0.00    -0.043 NA 
HETATM    6  N   UNL     1      -6.618  10.136  69.379  1.00  0.00    -0.049 NA 
HETATM    7  C   UNL     1      -7.815  10.653  69.473  1.00  0.00    -0.083 C  
ENDROOT
BRANCH   7   8
HETATM    8  C   UNL     1      -8.186  11.879  68.657  1.00  0.00    -0.072 C  
BRANCH   8   9
HETATM    9  N   UNL     1      -9.181  11.819  67.591  1.00  0.00    -0.176 N  
HETATM   10  C   UNL     1     -10.104  12.836  67.408  1.00  0.00    -0.219 C  
HETATM   11  C   UNL     1     -10.817  12.907  66.272  1.00  0.00    -0.295 C  
HETATM   12  C   UNL     1     -10.752  11.829  65.289  1.00  0.00    -0.338 C  
HETATM   13  C   UNL     1     -11.572  11.921  64.038  1.00  0.00    -0.389 C  
HETATM   14  C   UNL     1      -9.934  10.778  65.500  1.00  0.00    -0.263 C  
HETATM   15  C   UNL     1      -8.843  11.015  66.498  1.00  0.00    -0.169 C  
HETATM   16  F   UNL     1     -12.191  13.124  63.904  1.00  0.00    -0.438 F  
HETATM   17  F   UNL     1     -10.802  11.770  62.927  1.00  0.00    -0.295 F  
HETATM   18  O   UNL     1      -7.732  10.521  66.333  1.00  0.00    -0.122 OA 
HETATM   19  F   UNL     1     -12.542  10.975  63.980  1.00  0.00     0.301 F  
BRANCH  14  20
HETATM   20  O   UNL     1      -9.947   9.655  64.681  1.00  0.00    -0.054 OA 
BRANCH  20  21
HETATM   21  C   UNL     1      -9.279   8.486  64.995  1.00  0.00     0.290 A  
HETATM   22  C   UNL     1      -9.893   7.319  64.503  1.00  0.00     3.654 A  
HETATM   23  C   UNL     1      -9.312   6.053  64.690  1.00  0.00     0.875 A  
HETATM   24  C   UNL     1      -8.100   5.951  65.378  1.00  0.00    -0.130 A  
HETATM   25  C   UNL     1      -9.959   4.871  64.178  1.00  0.00     0.558 C  
HETATM   26  C   UNL     1      -7.510   7.101  65.902  1.00  0.00    -0.080 A  
HETATM   27  N   UNL     1     -10.488   3.920  63.778  1.00  0.00    -0.228 NA 
HETATM   28 CL   UNL     1      -6.017   6.978  66.756  1.00  0.00    -0.032 Cl 
HETATM   29  C   UNL     1      -8.105   8.362  65.737  1.00  0.00    -0.117 A  
ENDBRANCH  20  21
ENDBRANCH  14  20
ENDBRANCH   8   9
ENDBRANCH   7   8
TORSDOF 4
ENDMDL
MODEL      293
REMARK 921   NORMALIZED FREE ENERGY PREDICTED BY IDOCK:    3.88 KCAL/MOL
REMARK 922        TOTAL FREE ENERGY PREDICTED BY IDOCK:    3.95 KCAL/MOL
REMARK 923 INTER-LIGAND FREE ENERGY PREDICTED BY IDOCK:    2.59 KCAL/MOL
REMARK 924 INTRA-LIGAND FREE ENERGY PREDICTED BY IDOCK:    1.36 KCAL/MOL
REMARK 927      BINDING AFFINITY PREDICTED BY RF-SCORE:    0.00 PKD
ROOT
HETATM    1  C   UNL     1     -10.717   4.099  67.664  1.00  0.00     1.642 C  
HETATM    2  N   UNL     1     -10.777   5.533  67.823  1.00  0.00    -0.160 N  
HETATM    3  C   UNL     1     -11.269   6.369  66.848  1.00  0.00    -0.133 C  
HETATM    4  O   UNL     1     -11.757   6.074  65.770  1.00  0.00     1.748 OA 
HETATM    5  N   UNL     1     -11.102   7.651  67.346  1.00  0.00    -0.014 NA 
HETATM    6  N   UNL     1     -10.563   7.611  68.597  1.00  0.00    -0.171 NA 
HETATM    7  C   UNL     1     -10.399   6.337  68.837  1.00  0.00    -0.204 C  
ENDROOT
BRANCH   7   8
HETATM    8  C   UNL     1      -9.942   5.867  70.207  1.00  0.00    -0.192 C  
BRANCH   8   9
HETATM    9  N   UNL     1      -9.163   6.727  71.092  1.00  0.00    -0.159 N  
HETATM   10  C   UNL     1      -8.870   6.347  72.392  1.00  0.00    -0.134 C  
HETATM   11  C   UNL     1      -7.930   7.001  73.093  1.00  0.00    -0.109 C  
HETATM   12  C   UNL     1      -7.322   8.218  72.561  1.00  0.00    -0.142 C  
HETATM   13  C   UNL     1      -6.290   8.942  73.370  1.00  0.00     0.071 C  
HETATM   14  C   UNL     1      -7.671   8.660  71.336  1.00  0.00    -0.122 C  
HETATM   15  C   UNL     1      -8.315   7.638  70.452  1.00  0.00    -0.124 C  
HETATM   16  F   UNL     1      -5.927   8.259  74.489  1.00  0.00    -0.091 F  
HETATM   17  F   UNL     1      -5.145   9.131  72.660  1.00  0.00    -0.047 F  
HETATM   18  O   UNL     1      -8.089   7.627  69.246  1.00  0.00    -0.123 OA 
HETATM   19  F   UNL     1      -6.710  10.164  73.778  1.00  0.00     1.154 F  
BRANCH  14  20
HETATM   20  O   UNL     1      -7.245   9.889  70.845  1.00  0.00    -0.330 OA 
BRANCH  20  21
HETATM   21  C   UNL     1      -7.824  10.504  69.751  1.00  0.00    -0.034 A  
HETATM   22  C   UNL     1      -9.214  10.699  69.865  1.00  0.00     0.409 A  
HETATM   23  C   UNL     1      -9.944  11.358  68.862  1.00  0.00    -0.146 A  
HETATM   24  C   UNL     1      -9.278  11.831  67.728  1.00  0.00    -0.181 A  
HETATM   25  C   UNL     1     -11.367  11.547  69.001  1.00  0.00    -0.276 C  
HETATM   26  C   UNL     1      -7.908  11.603  67.593  1.00  0.00    -0.135 A  
HETATM   27  N   UNL     1     -12.513  11.685  69.106  1.00  0.00    -0.148 NA 
HETATM   28 CL   UNL     1      -7.084  12.181  66.193  1.00  0.00     0.826 Cl 
HETATM   29  C   UNL     1      -7.185  10.921  68.584  1.00  0.00    -0.088 A  
ENDBRANCH  20  21
ENDBRANCH  14  20
ENDBRANCH   8   9
ENDBRANCH   7   8
TORSDOF 4
ENDMDL
MODEL      294
REMARK 921   NORMALIZED FREE ENERGY PREDICTED BY IDOCK:    3.90 KCAL/MOL
REMARK 922        TOTAL FREE ENERGY PREDICTED BY IDOCK:    3.97 KCAL/MOL
REMARK 923 INTER-LIGAND FREE ENERGY PREDICTED BY IDOCK:    2.93 KCAL/MOL
REMARK 924 INTRA-LIGAND FREE ENERGY PREDICTED BY IDOCK:    1.05 KCAL/MOL
REMARK 927      BINDING AFFINITY PREDICTED BY RF-SCORE:    0.00 PKD
ROOT
HETATM    1  C   UNL     1      -5.447  17.294  65.207  1.00  0.00     1.164 C  
HETATM    2  N   UNL     1      -6.451  18.244  65.622  1.00  0.00    -0.272 N  
HETATM    3  C   UNL     1      -7.068  19.104  64.744  1.00  0.00     0.923 C  
HETATM    4  O   UNL     1      -6.929  19.183  63.535  1.00  0.00     2.059 OA 
HETATM    5  N   UNL     1      -7.907  19.883  65.524  1.00  0.00    -0.335 NA 
HETATM    6  N   UNL     1      -7.844  19.496  66.829  1.00  0.00    -0.260 NA 
HETATM    7  C   UNL     1      -6.977  18.518  66.833  1.00  0.00    -0.197 C  
ENDROOT
BRANCH   7   8
HETATM    8  C   UNL     1      -6.729  17.718  68.099  1.00  0.00    -0.204 C  
BRANCH   8   9
HETATM    9  N   UNL     1      -7.754  16.852  68.672  1.00  0.00    -0.224 N  
HETATM   10  C   UNL     1      -8.283  17.095  69.929  1.00  0.00     1.510 C  
HETATM   11  C   UNL     1      -9.407  16.474  70.323  1.00  0.00     1.638 C  
HETATM   12  C   UNL     1      -9.995  15.418  69.504  1.00  0.00    -0.266 C  
HETATM   13  C   UNL     1     -11.238  14.725  69.973  1.00  0.00    -0.235 C  
HETATM   14  C   UNL     1      -9.432  15.097  68.321  1.00  0.00    -0.201 C  
HETATM   15  C   UNL     1      -8.524  16.138  67.748  1.00  0.00    -0.158 C  
HETATM   16  F   UNL     1     -11.769  15.298  71.086  1.00  0.00    -0.287 F  
HETATM   17  F   UNL     1     -12.216  14.766  69.029  1.00  0.00    -0.322 F  
HETATM   18  O   UNL     1      -8.484  16.331  66.536  1.00  0.00    -0.242 OA 
HETATM   19  F   UNL     1     -11.027  13.419  70.270  1.00  0.00     0.089 F  
BRANCH  14  20
HETATM   20  O   UNL     1      -9.853  14.001  67.577  1.00  0.00    -0.229 OA 
BRANCH  20  21
HETATM   21  C   UNL     1      -9.713  12.696  68.014  1.00  0.00    -0.215 A  
HETATM   22  C   UNL     1      -8.379  12.255  68.101  1.00  0.00    -0.174 A  
HETATM   23  C   UNL     1      -8.064  10.972  68.578  1.00  0.00    -0.140 A  
HETATM   24  C   UNL     1      -9.094  10.116  68.975  1.00  0.00    -0.176 A  
HETATM   25  C   UNL     1      -6.690  10.542  68.659  1.00  0.00    -0.053 C  
HETATM   26  C   UNL     1     -10.419  10.535  68.852  1.00  0.00    -0.206 A  
HETATM   27  N   UNL     1      -5.586  10.191  68.710  1.00  0.00    -0.038 NA 
HETATM   28 CL   UNL     1     -11.694   9.480  69.336  1.00  0.00     0.227 Cl 
HETATM   29  C   UNL     1     -10.734  11.807  68.350  1.00  0.00    -0.249 A  
ENDBRANCH  20  21
ENDBRANCH  14  20
ENDBRANCH   8   9
ENDBRANCH   7   8
TORSDOF 4
ENDMDL
MODEL      295
REMARK 921   NORMALIZED FREE ENERGY PREDICTED BY IDOCK:    4.75 KCAL/MOL
REMARK 922        TOTAL FREE ENERGY PREDICTED BY IDOCK:    5.03 KCAL/MOL
REMARK 923 INTER-LIGAND FREE ENERGY PREDICTED BY IDOCK:    4.45 KCAL/MOL
REMARK 924 INTRA-LIGAND FREE ENERGY PREDICTED BY IDOCK:    0.58 KCAL/MOL
REMARK 927      BINDING AFFINITY PREDICTED BY RF-SCORE:    0.00 PKD
ROOT
HETATM    1  C   UNL     1     -14.400  12.453  71.169  1.00  0.00     3.359 C  
HETATM    2  N   UNL     1     -13.086  13.052  71.171  1.00  0.00    -0.174 N  
HETATM    3  C   UNL     1     -12.803  14.219  71.841  1.00  0.00    -0.348 C  
HETATM    4  O   UNL     1     -13.540  14.888  72.545  1.00  0.00    -0.393 OA 
HETATM    5  N   UNL     1     -11.476  14.493  71.554  1.00  0.00    -0.023 NA 
HETATM    6  N   UNL     1     -10.944  13.514  70.769  1.00  0.00     1.426 NA 
HETATM    7  C   UNL     1     -11.933  12.681  70.579  1.00  0.00    -0.192 C  
ENDROOT
BRANCH   7   8
HETATM    8  C   UNL     1     -11.700  11.366  69.857  1.00  0.00    -0.346 C  
BRANCH   8   9
HETATM    9  N   UNL     1     -10.951  10.275  70.473  1.00  0.00    -0.307 N  
HETATM   10  C   UNL     1     -11.113   9.956  71.812  1.00  0.00     0.415 C  
HETATM   11  C   UNL     1     -10.643   8.793  72.292  1.00  0.00    -0.319 C  
HETATM   12  C   UNL     1      -9.817   7.926  71.456  1.00  0.00    -0.206 C  
HETATM   13  C   UNL     1      -9.288   6.643  72.020  1.00  0.00    -0.142 C  
HETATM   14  C   UNL     1      -9.565   8.273  70.178  1.00  0.00    -0.167 C  
HETATM   15  C   UNL     1     -10.505   9.282  69.596  1.00  0.00    -0.224 C  
HETATM   16  F   UNL     1      -9.791   6.365  73.252  1.00  0.00    -0.155 F  
HETATM   17  F   UNL     1      -9.617   5.583  71.234  1.00  0.00    -0.162 F  
HETATM   18  O   UNL     1     -10.845   9.209  68.419  1.00  0.00    -0.161 OA 
HETATM   19  F   UNL     1      -7.938   6.644  72.141  1.00  0.00    -0.096 F  
BRANCH  14  20
HETATM   20  O   UNL     1      -8.662   7.571  69.387  1.00  0.00    -0.136 OA 
BRANCH  20  21
HETATM   21  C   UNL     1      -9.024   6.941  68.210  1.00  0.00    -0.124 A  
HETATM   22  C   UNL     1      -9.171   7.808  67.111  1.00  0.00    -0.174 A  
HETATM   23  C   UNL     1      -9.483   7.321  65.832  1.00  0.00     0.126 A  
HETATM   24  C   UNL     1      -9.650   5.946  65.645  1.00  0.00     0.181 A  
HETATM   25  C   UNL     1      -9.630   8.228  64.721  1.00  0.00     1.538 C  
HETATM   26  C   UNL     1      -9.545   5.088  66.740  1.00  0.00    -0.155 A  
HETATM   27  N   UNL     1      -9.762   8.960  63.832  1.00  0.00     1.598 NA 
HETATM   28 CL   UNL     1      -9.755   3.391  66.513  1.00  0.00    -0.073 Cl 
HETATM   29  C   UNL     1      -9.259   5.580  68.022  1.00  0.00    -0.114 A  
ENDBRANCH  20  21
ENDBRANCH  14  20
ENDBRANCH   8   9
ENDBRANCH   7   8
TORSDOF 4
ENDMDL
MODEL      296
REMARK 921   NORMALIZED FREE ENERGY PREDICTED BY IDOCK:    5.05 KCAL/MOL
REMARK 922        TOTAL FREE ENERGY PREDICTED BY IDOCK:    5.39 KCAL/MOL
REMARK 923 INTER-LIGAND FREE ENERGY PREDICTED BY IDOCK:   -1.44 KCAL/MOL
REMARK 924 INTRA-LIGAND FREE ENERGY PREDICTED BY IDOCK:    6.83 KCAL/MOL
REMARK 927      BINDING AFFINITY PREDICTED BY RF-SCORE:    0.00 PKD
ROOT
HETATM    1  C   UNL     1      -8.687  15.336  66.038  1.00  0.00     0.150 C  
HETATM    2  N   UNL     1      -9.223  16.198  67.065  1.00  0.00    -0.205 N  
HETATM    3  C   UNL     1      -8.869  17.521  67.184  1.00  0.00    -0.238 C  
HETATM    4  O   UNL     1      -8.130  18.176  66.468  1.00  0.00    -0.250 OA 
HETATM    5  N   UNL     1      -9.537  17.979  68.307  1.00  0.00    -0.304 NA 
HETATM    6  N   UNL     1     -10.308  16.991  68.842  1.00  0.00    -0.320 NA 
HETATM    7  C   UNL     1     -10.094  15.961  68.065  1.00  0.00    -0.230 C  
ENDROOT
BRANCH   7   8
HETATM    8  C   UNL     1     -10.891  14.682  68.252  1.00  0.00    -0.245 C  
BRANCH   8   9
HETATM    9  N   UNL     1     -10.270  13.367  68.127  1.00  0.00    -0.240 N  
HETATM   10  C   UNL     1      -9.114  13.047  68.820  1.00  0.00     0.175 C  
HETATM   11  C   UNL     1      -8.716  11.768  68.920  1.00  0.00     0.122 C  
HETATM   12  C   UNL     1      -9.399  10.719  68.167  1.00  0.00    -0.155 C  
HETATM   13  C   UNL     1      -8.925   9.303  68.279  1.00  0.00    -0.129 C  
HETATM   14  C   UNL     1     -10.467  11.030  67.405  1.00  0.00    -0.218 C  
HETATM   15  C   UNL     1     -11.126  12.332  67.737  1.00  0.00    -0.255 C  
HETATM   16  F   UNL     1      -7.964   9.144  69.227  1.00  0.00    -0.087 F  
HETATM   17  F   UNL     1      -9.939   8.466  68.630  1.00  0.00    -0.164 F  
HETATM   18  O   UNL     1     -12.345  12.448  67.664  1.00  0.00    -0.305 OA 
HETATM   19  F   UNL     1      -8.407   8.833  67.117  1.00  0.00    -0.102 F  
BRANCH  14  20
HETATM   20  O   UNL     1     -11.057  10.107  66.549  1.00  0.00     0.044 OA 
BRANCH  20  21
HETATM   21  C   UNL     1     -10.371   9.032  66.013  1.00  0.00     0.230 A  
HETATM   22  C   UNL     1     -10.445   7.857  66.784  1.00  0.00    -0.317 A  
HETATM   23  C   UNL     1      -9.847   6.661  66.353  1.00  0.00    -0.101 A  
HETATM   24  C   UNL     1      -9.166   6.637  65.134  1.00  0.00     0.588 A  
HETATM   25  C   UNL     1      -9.936   5.470  67.160  1.00  0.00    -0.169 C  
HETATM   26  C   UNL     1      -9.056   7.810  64.386  1.00  0.00     1.158 A  
HETATM   27  N   UNL     1      -9.995   4.516  67.816  1.00  0.00    -0.110 NA 
HETATM   28 CL   UNL     1      -8.212   7.785  62.883  1.00  0.00    -0.096 Cl 
HETATM   29  C   UNL     1      -9.632   9.010  64.832  1.00  0.00     0.338 A  
ENDBRANCH  20  21
ENDBRANCH  14  20
ENDBRANCH   8   9
ENDBRANCH   7   8
TORSDOF 4
ENDMDL
MODEL      297
REMARK 921   NORMALIZED FREE ENERGY PREDICTED BY IDOCK:    5.25 KCAL/MOL
REMARK 922        TOTAL FREE ENERGY PREDICTED BY IDOCK:    5.64 KCAL/MOL
REMARK 923 INTER-LIGAND FREE ENERGY PREDICTED BY IDOCK:    6.82 KCAL/MOL
REMARK 924 INTRA-LIGAND FREE ENERGY PREDICTED BY IDOCK:   -1.18 KCAL/MOL
REMARK 927      BINDING AFFINITY PREDICTED BY RF-SCORE:    0.00 PKD
ROOT
HETATM    1  C   UNL     1     -11.433  11.989  65.188  1.00  0.00    -0.287 C  
HETATM    2  N   UNL     1     -10.247  11.859  64.375  1.00  0.00    -0.282 N  
HETATM    3  C   UNL     1      -9.985  10.743  63.616  1.00  0.00    -0.345 C  
HETATM    4  O   UNL     1     -10.678   9.751  63.461  1.00  0.00     2.212 OA 
HETATM    5  N   UNL     1      -8.746  10.972  63.042  1.00  0.00    -0.172 NA 
HETATM    6  N   UNL     1      -8.274  12.200  63.398  1.00  0.00     1.769 NA 
HETATM    7  C   UNL     1      -9.202  12.687  64.178  1.00  0.00     1.071 C  
ENDROOT
BRANCH   7   8
HETATM    8  C   UNL     1      -9.109  14.119  64.678  1.00  0.00     3.031 C  
BRANCH   8   9
HETATM    9  N   UNL     1      -8.976  14.428  66.098  1.00  0.00    -0.013 N  
HETATM   10  C   UNL     1      -7.732  14.577  66.689  1.00  0.00     0.751 C  
HETATM   11  C   UNL     1      -7.622  15.132  67.907  1.00  0.00    -0.151 C  
HETATM   12  C   UNL     1      -8.816  15.434  68.692  1.00  0.00    -0.186 C  
HETATM   13  C   UNL     1      -8.669  16.034  70.057  1.00  0.00     0.772 C  
HETATM   14  C   UNL     1     -10.037  15.199  68.171  1.00  0.00    -0.222 C  
HETATM   15  C   UNL     1     -10.076  15.065  66.681  1.00  0.00    -0.261 C  
HETATM   16  F   UNL     1      -7.385  16.374  70.345  1.00  0.00     0.561 F  
HETATM   17  F   UNL     1      -9.394  17.179  70.176  1.00  0.00     0.723 F  
HETATM   18  O   UNL     1     -11.028  15.501  66.041  1.00  0.00    -0.316 OA 
HETATM   19  F   UNL     1      -9.082  15.199  71.042  1.00  0.00     0.793 F  
BRANCH  14  20
HETATM   20  O   UNL     1     -11.198  15.319  68.926  1.00  0.00    -0.252 OA 
BRANCH  20  21
HETATM   21  C   UNL     1     -11.694  14.295  69.712  1.00  0.00    -0.309 A  
HETATM   22  C   UNL     1     -11.139  13.032  69.435  1.00  0.00    -0.137 A  
HETATM   23  C   UNL     1     -11.497  11.896  70.180  1.00  0.00    -0.136 A  
HETATM   24  C   UNL     1     -12.423  12.023  71.219  1.00  0.00    -0.303 A  
HETATM   25  C   UNL     1     -10.915  10.612  69.877  1.00  0.00    -0.274 C  
HETATM   26  C   UNL     1     -13.005  13.266  71.470  1.00  0.00    -0.337 A  
HETATM   27  N   UNL     1     -10.458   9.578  69.624  1.00  0.00    -0.211 NA 
HETATM   28 CL   UNL     1     -14.151  13.424  72.748  1.00  0.00    -0.246 Cl 
HETATM   29  C   UNL     1     -12.666  14.393  70.707  1.00  0.00    -0.427 A  
ENDBRANCH  20  21
ENDBRANCH  14  20
ENDBRANCH   8   9
ENDBRANCH   7   8
TORSDOF 4
ENDMDL
MODEL      298
REMARK 921   NORMALIZED FREE ENERGY PREDICTED BY IDOCK:    9.45 KCAL/MOL
REMARK 922        TOTAL FREE ENERGY PREDICTED BY IDOCK:   10.82 KCAL/MOL
REMARK 923 INTER-LIGAND FREE ENERGY PREDICTED BY IDOCK:   10.57 KCAL/MOL
REMARK 924 INTRA-LIGAND FREE ENERGY PREDICTED BY IDOCK:    0.26 KCAL/MOL
REMARK 927      BINDING AFFINITY PREDICTED BY RF-SCORE:    0.00 PKD
ROOT
HETATM    1  C   UNL     1     -14.410  13.027  71.568  1.00  0.00     1.447 C  
HETATM    2  N   UNL     1     -13.132  13.152  72.227  1.00  0.00    -0.385 N  
HETATM    3  C   UNL     1     -12.900  14.063  73.231  1.00  0.00     0.164 C  
HETATM    4  O   UNL     1     -13.684  14.841  73.746  1.00  0.00     0.398 OA 
HETATM    5  N   UNL     1     -11.561  13.917  73.555  1.00  0.00     1.664 NA 
HETATM    6  N   UNL     1     -10.993  12.928  72.809  1.00  0.00     8.527 NA 
HETATM    7  C   UNL     1     -11.965  12.501  72.048  1.00  0.00     2.024 C  
ENDROOT
BRANCH   7   8
HETATM    8  C   UNL     1     -11.765  11.288  71.156  1.00  0.00     0.431 C  
BRANCH   8   9
HETATM    9  N   UNL     1     -11.703   9.936  71.704  1.00  0.00    -0.338 N  
HETATM   10  C   UNL     1     -12.854   9.218  71.984  1.00  0.00    -0.415 C  
HETATM   11  C   UNL     1     -12.789   7.897  72.214  1.00  0.00    -0.152 C  
HETATM   12  C   UNL     1     -11.496   7.229  72.334  1.00  0.00    -0.327 C  
HETATM   13  C   UNL     1     -11.448   5.757  72.610  1.00  0.00    -0.287 C  
HETATM   14  C   UNL     1     -10.360   7.935  72.165  1.00  0.00    -0.237 C  
HETATM   15  C   UNL     1     -10.522   9.234  71.440  1.00  0.00    -0.338 C  
HETATM   16  F   UNL     1     -12.676   5.175  72.566  1.00  0.00     0.003 F  
HETATM   17  F   UNL     1     -10.691   5.104  71.688  1.00  0.00    -0.279 F  
HETATM   18  O   UNL     1      -9.655   9.627  70.665  1.00  0.00    -0.252 OA 
HETATM   19  F   UNL     1     -10.925   5.472  73.828  1.00  0.00    -0.291 F  
BRANCH  14  20
HETATM   20  O   UNL     1      -9.107   7.390  72.421  1.00  0.00    -0.128 OA 
BRANCH  20  21
HETATM   21  C   UNL     1      -8.530   6.421  71.621  1.00  0.00    -0.128 A  
HETATM   22  C   UNL     1      -7.578   5.619  72.279  1.00  0.00    -0.101 A  
HETATM   23  C   UNL     1      -6.939   4.555  71.621  1.00  0.00    -0.039 A  
HETATM   24  C   UNL     1      -7.254   4.286  70.286  1.00  0.00    -0.045 A  
HETATM   25  C   UNL     1      -5.968   3.747  72.314  1.00  0.00    -0.009 C  
HETATM   26  C   UNL     1      -8.167   5.104  69.620  1.00  0.00    -0.093 A  
HETATM   27  N   UNL     1      -5.176   3.107  72.869  1.00  0.00     0.000 NA 
HETATM   28 CL   UNL     1      -8.555   4.778  67.972  1.00  0.00    -0.102 Cl 
HETATM   29  C   UNL     1      -8.785   6.183  70.271  1.00  0.00    -0.145 A  
ENDBRANCH  20  21
ENDBRANCH  14  20
ENDBRANCH   8   9
ENDBRANCH   7   8
TORSDOF 4
ENDMDL
MODEL      299
REMARK 921   NORMALIZED FREE ENERGY PREDICTED BY IDOCK:    9.67 KCAL/MOL
REMARK 922        TOTAL FREE ENERGY PREDICTED BY IDOCK:   11.09 KCAL/MOL
REMARK 923 INTER-LIGAND FREE ENERGY PREDICTED BY IDOCK:    9.78 KCAL/MOL
REMARK 924 INTRA-LIGAND FREE ENERGY PREDICTED BY IDOCK:    1.31 KCAL/MOL
REMARK 927      BINDING AFFINITY PREDICTED BY RF-SCORE:    0.00 PKD
ROOT
HETATM    1  C   UNL     1     -14.407  13.023  71.571  1.00  0.00     1.447 C  
HETATM    2  N   UNL     1     -13.128  13.161  72.228  1.00  0.00    -0.385 N  
HETATM    3  C   UNL     1     -12.894  14.095  73.209  1.00  0.00    -0.019 C  
HETATM    4  O   UNL     1     -13.677  14.888  73.705  1.00  0.00     0.053 OA 
HETATM    5  N   UNL     1     -11.556  13.953  73.537  1.00  0.00     1.664 NA 
HETATM    6  N   UNL     1     -10.991  12.945  72.816  1.00  0.00     8.527 NA 
HETATM    7  C   UNL     1     -11.964  12.502  72.065  1.00  0.00     2.024 C  
ENDROOT
BRANCH   7   8
HETATM    8  C   UNL     1     -11.767  11.267  71.203  1.00  0.00     0.431 C  
BRANCH   8   9
HETATM    9  N   UNL     1     -11.744   9.926  71.779  1.00  0.00    -0.250 N  
HETATM   10  C   UNL     1     -12.916   9.239  72.052  1.00  0.00    -0.425 C  
HETATM   11  C   UNL     1     -12.885   7.921  72.310  1.00  0.00    -0.152 C  
HETATM   12  C   UNL     1     -11.609   7.229  72.469  1.00  0.00    -0.285 C  
HETATM   13  C   UNL     1     -11.599   5.762  72.776  1.00  0.00    -0.214 C  
HETATM   14  C   UNL     1     -10.455   7.907  72.307  1.00  0.00    -0.262 C  
HETATM   15  C   UNL     1     -10.575   9.193  71.552  1.00  0.00    -0.358 C  
HETATM   16  F   UNL     1     -12.839   5.207  72.720  1.00  0.00    -0.155 F  
HETATM   17  F   UNL     1     -10.840   5.073  71.882  1.00  0.00    -0.274 F  
HETATM   18  O   UNL     1      -9.685   9.551  70.787  1.00  0.00    -0.269 OA 
HETATM   19  F   UNL     1     -11.106   5.491  74.009  1.00  0.00    -0.270 F  
BRANCH  14  20
HETATM   20  O   UNL     1      -9.219   7.340  72.598  1.00  0.00    -0.135 OA 
BRANCH  20  21
HETATM   21  C   UNL     1      -8.654   6.335  71.835  1.00  0.00    -0.128 A  
HETATM   22  C   UNL     1      -9.243   6.170  70.567  1.00  0.00    -0.166 A  
HETATM   23  C   UNL     1      -8.751   5.227  69.649  1.00  0.00    -0.112 A  
HETATM   24  C   UNL     1      -7.653   4.437  70.001  1.00  0.00    -0.050 A  
HETATM   25  C   UNL     1      -9.370   5.075  68.357  1.00  0.00    -0.126 C  
HETATM   26  C   UNL     1      -7.093   4.570  71.272  1.00  0.00    -0.043 A  
HETATM   27  N   UNL     1      -9.878   4.944  67.323  1.00  0.00    -0.173 NA 
HETATM   28 CL   UNL     1      -5.741   3.593  71.712  1.00  0.00    -0.008 Cl 
HETATM   29  C   UNL     1      -7.603   5.494  72.197  1.00  0.00    -0.100 A  
ENDBRANCH  20  21
ENDBRANCH  14  20
ENDBRANCH   8   9
ENDBRANCH   7   8
TORSDOF 4
ENDMDL
MODEL      300
REMARK 921   NORMALIZED FREE ENERGY PREDICTED BY IDOCK:   10.02 KCAL/MOL
REMARK 922        TOTAL FREE ENERGY PREDICTED BY IDOCK:   11.53 KCAL/MOL
REMARK 923 INTER-LIGAND FREE ENERGY PREDICTED BY IDOCK:   10.82 KCAL/MOL
REMARK 924 INTRA-LIGAND FREE ENERGY PREDICTED BY IDOCK:    0.70 KCAL/MOL
REMARK 927      BINDING AFFINITY PREDICTED BY RF-SCORE:    0.00 PKD
ROOT
HETATM    1  C   UNL     1     -14.410  13.027  71.568  1.00  0.00     1.447 C  
HETATM    2  N   UNL     1     -13.132  13.152  72.227  1.00  0.00    -0.385 N  
HETATM    3  C   UNL     1     -12.900  14.063  73.231  1.00  0.00     0.164 C  
HETATM    4  O   UNL     1     -13.684  14.841  73.746  1.00  0.00     0.398 OA 
HETATM    5  N   UNL     1     -11.561  13.917  73.555  1.00  0.00     1.664 NA 
HETATM    6  N   UNL     1     -10.993  12.928  72.809  1.00  0.00     8.527 NA 
HETATM    7  C   UNL     1     -11.965  12.501  72.048  1.00  0.00     2.024 C  
ENDROOT
BRANCH   7   8
HETATM    8  C   UNL     1     -11.765  11.288  71.156  1.00  0.00     0.431 C  
BRANCH   8   9
HETATM    9  N   UNL     1     -11.559   9.954  71.712  1.00  0.00    -0.195 N  
HETATM   10  C   UNL     1     -12.626   9.165  72.108  1.00  0.00    -0.381 C  
HETATM   11  C   UNL     1     -12.449   7.855  72.346  1.00  0.00    -0.208 C  
HETATM   12  C   UNL     1     -11.107   7.279  72.353  1.00  0.00    -0.315 C  
HETATM   13  C   UNL     1     -10.932   5.820  72.642  1.00  0.00    -0.268 C  
HETATM   14  C   UNL     1     -10.043   8.058  72.069  1.00  0.00    -0.218 C  
HETATM   15  C   UNL     1     -10.362   9.329  71.347  1.00  0.00    -0.321 C  
HETATM   16  F   UNL     1     -12.115   5.155  72.720  1.00  0.00    -0.319 F  
HETATM   17  F   UNL     1     -10.220   5.202  71.661  1.00  0.00    -0.233 F  
HETATM   18  O   UNL     1      -9.600   9.765  70.490  1.00  0.00    -0.239 OA 
HETATM   19  F   UNL     1     -10.279   5.593  73.808  1.00  0.00    -0.168 F  
BRANCH  14  20
HETATM   20  O   UNL     1      -8.737   7.604  72.213  1.00  0.00    -0.114 OA 
BRANCH  20  21
HETATM   21  C   UNL     1      -7.845   7.531  71.159  1.00  0.00    -0.091 A  
HETATM   22  C   UNL     1      -7.331   8.776  70.748  1.00  0.00    -0.080 A  
HETATM   23  C   UNL     1      -6.374   8.870  69.725  1.00  0.00    -0.035 A  
HETATM   24  C   UNL     1      -5.921   7.704  69.101  1.00  0.00    -0.034 A  
HETATM   25  C   UNL     1      -5.862  10.155  69.320  1.00  0.00    -0.037 C  
HETATM   26  C   UNL     1      -6.458   6.472  69.478  1.00  0.00    -0.043 A  
HETATM   27  N   UNL     1      -5.462  11.191  68.986  1.00  0.00    -0.040 NA 
HETATM   28 CL   UNL     1      -5.905   5.032  68.708  1.00  0.00    -0.019 Cl 
HETATM   29  C   UNL     1      -7.434   6.383  70.482  1.00  0.00    -0.091 A  
ENDBRANCH  20  21
ENDBRANCH  14  20
ENDBRANCH   8   9
ENDBRANCH   7   8
TORSDOF 4
ENDMDL
MODEL      301
REMARK 921   NORMALIZED FREE ENERGY PREDICTED BY IDOCK:   10.43 KCAL/MOL
REMARK 922        TOTAL FREE ENERGY PREDICTED BY IDOCK:   12.03 KCAL/MOL
REMARK 923 INTER-LIGAND FREE ENERGY PREDICTED BY IDOCK:   11.15 KCAL/MOL
REMARK 924 INTRA-LIGAND FREE ENERGY PREDICTED BY IDOCK:    0.87 KCAL/MOL
REMARK 927      BINDING AFFINITY PREDICTED BY RF-SCORE:    0.00 PKD
ROOT
HETATM    1  C   UNL     1      -7.928  14.404  65.601  1.00  0.00     4.173 C  
HETATM    2  N   UNL     1      -8.041  15.101  66.861  1.00  0.00    -0.203 N  
HETATM    3  C   UNL     1      -7.730  16.433  67.003  1.00  0.00    -0.215 C  
HETATM    4  O   UNL     1      -7.376  17.226  66.147  1.00  0.00    -0.295 OA 
HETATM    5  N   UNL     1      -7.907  16.709  68.349  1.00  0.00    -0.192 NA 
HETATM    6  N   UNL     1      -8.348  15.602  69.010  1.00  0.00    -0.216 NA 
HETATM    7  C   UNL     1      -8.420  14.682  68.084  1.00  0.00    -0.156 C  
ENDROOT
BRANCH   7   8
HETATM    8  C   UNL     1      -9.013  13.320  68.401  1.00  0.00    -0.124 C  
BRANCH   8   9
HETATM    9  N   UNL     1      -8.228  12.275  69.049  1.00  0.00     0.212 N  
HETATM   10  C   UNL     1      -7.949  12.318  70.406  1.00  0.00     4.289 C  
HETATM   11  C   UNL     1      -7.480  11.229  71.036  1.00  0.00     3.987 C  
HETATM   12  C   UNL     1      -7.102  10.040  70.277  1.00  0.00    -0.156 C  
HETATM   13  C   UNL     1      -6.562   8.844  71.001  1.00  0.00    -0.069 C  
HETATM   14  C   UNL     1      -7.272  10.018  68.940  1.00  0.00    -0.077 C  
HETATM   15  C   UNL     1      -8.232  11.033  68.405  1.00  0.00    -0.137 C  
HETATM   16  F   UNL     1      -6.633   8.973  72.352  1.00  0.00    -0.079 F  
HETATM   17  F   UNL     1      -7.264   7.720  70.694  1.00  0.00    -0.057 F  
HETATM   18  O   UNL     1      -8.966  10.758  67.461  1.00  0.00    -0.132 OA 
HETATM   19  F   UNL     1      -5.263   8.596  70.700  1.00  0.00    -0.022 F  
BRANCH  14  20
HETATM   20  O   UNL     1      -6.788   8.980  68.152  1.00  0.00    -0.067 OA 
BRANCH  20  21
HETATM   21  C   UNL     1      -7.241   7.678  68.261  1.00  0.00    -0.093 A  
HETATM   22  C   UNL     1      -8.640   7.543  68.178  1.00  0.00    -0.123 A  
HETATM   23  C   UNL     1      -9.256   6.281  68.217  1.00  0.00    -0.111 A  
HETATM   24  C   UNL     1      -8.465   5.136  68.341  1.00  0.00    -0.095 A  
HETATM   25  C   UNL     1     -10.691   6.168  68.131  1.00  0.00    -0.294 C  
HETATM   26  C   UNL     1      -7.082   5.269  68.465  1.00  0.00    -0.062 A  
HETATM   27  N   UNL     1     -11.845   6.078  68.075  1.00  0.00     1.548 NA 
HETATM   28 CL   UNL     1      -6.103   3.858  68.622  1.00  0.00    -0.030 Cl 
HETATM   29  C   UNL     1      -6.470   6.532  68.451  1.00  0.00    -0.049 A  
ENDBRANCH  20  21
ENDBRANCH  14  20
ENDBRANCH   8   9
ENDBRANCH   7   8
TORSDOF 4
ENDMDL
MODEL      302
REMARK 921   NORMALIZED FREE ENERGY PREDICTED BY IDOCK:   11.03 KCAL/MOL
REMARK 922        TOTAL FREE ENERGY PREDICTED BY IDOCK:   12.78 KCAL/MOL
REMARK 923 INTER-LIGAND FREE ENERGY PREDICTED BY IDOCK:   10.64 KCAL/MOL
REMARK 924 INTRA-LIGAND FREE ENERGY PREDICTED BY IDOCK:    2.14 KCAL/MOL
REMARK 927      BINDING AFFINITY PREDICTED BY RF-SCORE:    0.00 PKD
ROOT
HETATM    1  C   UNL     1      -5.345  17.046  66.173  1.00  0.00     0.239 C  
HETATM    2  N   UNL     1      -5.524  18.298  65.477  1.00  0.00    -0.174 N  
HETATM    3  C   UNL     1      -5.890  18.366  64.153  1.00  0.00     0.548 C  
HETATM    4  O   UNL     1      -6.160  17.452  63.392  1.00  0.00     4.487 OA 
HETATM    5  N   UNL     1      -5.897  19.716  63.844  1.00  0.00    -0.298 NA 
HETATM    6  N   UNL     1      -5.586  20.460  64.942  1.00  0.00    -0.180 NA 
HETATM    7  C   UNL     1      -5.384  19.576  65.883  1.00  0.00    -0.154 C  
ENDROOT
BRANCH   7   8
HETATM    8  C   UNL     1      -5.147  20.021  67.315  1.00  0.00    -0.162 C  
BRANCH   8   9
HETATM    9  N   UNL     1      -6.200  19.955  68.323  1.00  0.00    -0.242 N  
HETATM   10  C   UNL     1      -6.211  20.812  69.412  1.00  0.00    -0.026 C  
HETATM   11  C   UNL     1      -7.314  20.934  70.167  1.00  0.00     2.436 C  
HETATM   12  C   UNL     1      -8.458  20.051  69.955  1.00  0.00     0.952 C  
HETATM   13  C   UNL     1      -9.671  20.193  70.823  1.00  0.00     1.585 C  
HETATM   14  C   UNL     1      -8.424  19.139  68.962  1.00  0.00    -0.201 C  
HETATM   15  C   UNL     1      -7.411  19.403  67.893  1.00  0.00    -0.260 C  
HETATM   16  F   UNL     1      -9.606  21.276  71.642  1.00  0.00     1.141 F  
HETATM   17  F   UNL     1     -10.798  20.354  70.078  1.00  0.00    -0.084 F  
HETATM   18  O   UNL     1      -7.661  19.142  66.720  1.00  0.00    -0.233 OA 
HETATM   19  F   UNL     1      -9.872  19.114  71.619  1.00  0.00     2.106 F  
BRANCH  14  20
HETATM   20  O   UNL     1      -9.412  18.173  68.813  1.00  0.00    -0.313 OA 
BRANCH  20  21
HETATM   21  C   UNL     1      -9.497  17.347  67.708  1.00  0.00    -0.261 A  
HETATM   22  C   UNL     1      -8.802  16.130  67.840  1.00  0.00    -0.182 A  
HETATM   23  C   UNL     1      -8.831  15.157  66.828  1.00  0.00    -0.302 A  
HETATM   24  C   UNL     1      -9.567  15.401  65.665  1.00  0.00    -0.323 A  
HETATM   25  C   UNL     1      -8.111  13.918  66.985  1.00  0.00     0.008 C  
HETATM   26  C   UNL     1     -10.224  16.622  65.513  1.00  0.00    -0.202 A  
HETATM   27  N   UNL     1      -7.520  12.928  67.107  1.00  0.00    -0.071 NA 
HETATM   28 CL   UNL     1     -11.128  16.929  64.078  1.00  0.00     1.155 Cl 
HETATM   29  C   UNL     1     -10.171  17.604  66.515  1.00  0.00    -0.355 A  
ENDBRANCH  20  21
ENDBRANCH  14  20
ENDBRANCH   8   9
ENDBRANCH   7   8
TORSDOF 4
ENDMDL
MODEL      303
REMARK 921   NORMALIZED FREE ENERGY PREDICTED BY IDOCK:   11.92 KCAL/MOL
REMARK 922        TOTAL FREE ENERGY PREDICTED BY IDOCK:   13.87 KCAL/MOL
REMARK 923 INTER-LIGAND FREE ENERGY PREDICTED BY IDOCK:    3.39 KCAL/MOL
REMARK 924 INTRA-LIGAND FREE ENERGY PREDICTED BY IDOCK:   10.48 KCAL/MOL
REMARK 927      BINDING AFFINITY PREDICTED BY RF-SCORE:    0.00 PKD
ROOT
HETATM    1  C   UNL     1      -8.432  18.669  69.959  1.00  0.00     1.659 C  
HETATM    2  N   UNL     1      -7.254  18.975  70.737  1.00  0.00     1.563 N  
HETATM    3  C   UNL     1      -7.176  20.069  71.566  1.00  0.00     1.114 C  
HETATM    4  O   UNL     1      -8.038  20.895  71.818  1.00  0.00     1.215 OA 
HETATM    5  N   UNL     1      -5.889  20.049  72.078  1.00  0.00    -0.341 NA 
HETATM    6  N   UNL     1      -5.208  18.963  71.617  1.00  0.00    -0.492 NA 
HETATM    7  C   UNL     1      -6.062  18.356  70.836  1.00  0.00     0.597 C  
ENDROOT
BRANCH   7   8
HETATM    8  C   UNL     1      -5.720  17.006  70.229  1.00  0.00    -0.173 C  
BRANCH   8   9
HETATM    9  N   UNL     1      -6.758  16.063  69.824  1.00  0.00    -0.164 N  
HETATM   10  C   UNL     1      -8.100  16.403  69.874  1.00  0.00     0.901 C  
HETATM   11  C   UNL     1      -9.015  15.649  69.242  1.00  0.00    -0.267 C  
HETATM   12  C   UNL     1      -8.632  14.377  68.635  1.00  0.00    -0.161 C  
HETATM   13  C   UNL     1      -9.673  13.543  67.953  1.00  0.00    -0.225 C  
HETATM   14  C   UNL     1      -7.344  13.980  68.666  1.00  0.00    -0.120 C  
HETATM   15  C   UNL     1      -6.351  15.070  68.927  1.00  0.00    -0.090 C  
HETATM   16  F   UNL     1     -10.872  14.177  67.854  1.00  0.00    -0.236 F  
HETATM   17  F   UNL     1      -9.306  13.235  66.679  1.00  0.00    -0.234 F  
HETATM   18  O   UNL     1      -5.258  15.062  68.370  1.00  0.00    -0.096 OA 
HETATM   19  F   UNL     1      -9.904  12.370  68.593  1.00  0.00    -0.208 F  
BRANCH  14  20
HETATM   20  O   UNL     1      -6.950  12.715  68.246  1.00  0.00    -0.079 OA 
BRANCH  20  21
HETATM   21  C   UNL     1      -7.452  11.550  68.796  1.00  0.00    -0.119 A  
HETATM   22  C   UNL     1      -8.847  11.405  68.673  1.00  0.00    -0.126 A  
HETATM   23  C   UNL     1      -9.506  10.253  69.133  1.00  0.00    -0.225 A  
HETATM   24  C   UNL     1      -8.762   9.228  69.723  1.00  0.00    -0.168 A  
HETATM   25  C   UNL     1     -10.935  10.128  68.997  1.00  0.00    -0.226 C  
HETATM   26  C   UNL     1      -7.384   9.385  69.882  1.00  0.00    -0.088 A  
HETATM   27  N   UNL     1     -12.087  10.034  68.901  1.00  0.00     0.291 NA 
HETATM   28 CL   UNL     1      -6.464   8.124  70.613  1.00  0.00    -0.036 Cl 
HETATM   29  C   UNL     1      -6.732  10.549  69.446  1.00  0.00    -0.076 A  
ENDBRANCH  20  21
ENDBRANCH  14  20
ENDBRANCH   8   9
ENDBRANCH   7   8
TORSDOF 4
ENDMDL
MODEL      304
REMARK 921   NORMALIZED FREE ENERGY PREDICTED BY IDOCK:   13.71 KCAL/MOL
REMARK 922        TOTAL FREE ENERGY PREDICTED BY IDOCK:   16.08 KCAL/MOL
REMARK 923 INTER-LIGAND FREE ENERGY PREDICTED BY IDOCK:   -1.83 KCAL/MOL
REMARK 924 INTRA-LIGAND FREE ENERGY PREDICTED BY IDOCK:   17.91 KCAL/MOL
REMARK 927      BINDING AFFINITY PREDICTED BY RF-SCORE:    0.00 PKD
ROOT
HETATM    1  C   UNL     1     -11.405   9.694  71.437  1.00  0.00    -0.374 C  
HETATM    2  N   UNL     1     -10.907   8.385  71.788  1.00  0.00    -0.262 N  
HETATM    3  C   UNL     1     -11.537   7.572  72.701  1.00  0.00    -0.282 C  
HETATM    4  O   UNL     1     -12.580   7.768  73.300  1.00  0.00     0.560 OA 
HETATM    5  N   UNL     1     -10.732   6.449  72.807  1.00  0.00    -0.228 NA 
HETATM    6  N   UNL     1      -9.665   6.545  71.964  1.00  0.00    -0.151 NA 
HETATM    7  C   UNL     1      -9.820   7.702  71.378  1.00  0.00    -0.174 C  
ENDROOT
BRANCH   7   8
HETATM    8  C   UNL     1      -8.895   8.121  70.249  1.00  0.00    -0.141 C  
BRANCH   8   9
HETATM    9  N   UNL     1      -9.183   9.281  69.412  1.00  0.00    -0.153 N  
HETATM   10  C   UNL     1      -8.242   9.782  68.526  1.00  0.00    -0.106 C  
HETATM   11  C   UNL     1      -8.606  10.655  67.573  1.00  0.00    -0.122 C  
HETATM   12  C   UNL     1      -9.956  11.212  67.557  1.00  0.00    -0.204 C  
HETATM   13  C   UNL     1     -10.334  12.199  66.495  1.00  0.00    -0.213 C  
HETATM   14  C   UNL     1     -10.857  10.811  68.476  1.00  0.00    -0.228 C  
HETATM   15  C   UNL     1     -10.537   9.516  69.155  1.00  0.00    -0.222 C  
HETATM   16  F   UNL     1      -9.369  12.346  65.548  1.00  0.00    -0.179 F  
HETATM   17  F   UNL     1     -11.454  11.808  65.830  1.00  0.00    -0.370 F  
HETATM   18  O   UNL     1     -11.432   8.730  69.450  1.00  0.00     0.203 OA 
HETATM   19  F   UNL     1     -10.581  13.435  66.996  1.00  0.00    -0.257 F  
BRANCH  14  20
HETATM   20  O   UNL     1     -12.101  11.418  68.606  1.00  0.00    -0.518 OA 
BRANCH  20  21
HETATM   21  C   UNL     1     -12.812  11.432  69.791  1.00  0.00     0.327 A  
HETATM   22  C   UNL     1     -13.134  10.154  70.287  1.00  0.00     0.062 A  
HETATM   23  C   UNL     1     -13.809   9.992  71.508  1.00  0.00    -0.048 A  
HETATM   24  C   UNL     1     -14.167  11.123  72.247  1.00  0.00     0.997 A  
HETATM   25  C   UNL     1     -14.128   8.674  71.996  1.00  0.00    -0.453 C  
HETATM   26  C   UNL     1     -13.886  12.391  71.739  1.00  0.00     0.399 A  
HETATM   27  N   UNL     1     -14.398   7.614  72.380  1.00  0.00    -0.071 NA 
HETATM   28 CL   UNL     1     -14.331  13.788  72.647  1.00  0.00    -0.264 Cl 
HETATM   29  C   UNL     1     -13.235  12.551  70.506  1.00  0.00     0.636 A  
ENDBRANCH  20  21
ENDBRANCH  14  20
ENDBRANCH   8   9
ENDBRANCH   7   8
TORSDOF 4
ENDMDL
MODEL      305
REMARK 921   NORMALIZED FREE ENERGY PREDICTED BY IDOCK:   28.63 KCAL/MOL
REMARK 922        TOTAL FREE ENERGY PREDICTED BY IDOCK:   34.48 KCAL/MOL
REMARK 923 INTER-LIGAND FREE ENERGY PREDICTED BY IDOCK:   31.11 KCAL/MOL
REMARK 924 INTRA-LIGAND FREE ENERGY PREDICTED BY IDOCK:    3.37 KCAL/MOL
REMARK 927      BINDING AFFINITY PREDICTED BY RF-SCORE:    0.00 PKD
ROOT
HETATM    1  C   UNL     1      -8.935   9.528  64.526  1.00  0.00    -0.212 C  
HETATM    2  N   UNL     1      -9.580  10.672  63.926  1.00  0.00    -0.279 N  
HETATM    3  C   UNL     1     -10.729  10.569  63.178  1.00  0.00     0.898 C  
HETATM    4  O   UNL     1     -11.395   9.575  62.942  1.00  0.00     5.957 OA 
HETATM    5  N   UNL     1     -10.993  11.854  62.734  1.00  0.00     0.275 NA 
HETATM    6  N   UNL     1     -10.067  12.727  63.220  1.00  0.00     0.048 NA 
HETATM    7  C   UNL     1      -9.260  11.981  63.926  1.00  0.00     0.378 C  
ENDROOT
BRANCH   7   8
HETATM    8  C   UNL     1      -8.157  12.615  64.754  1.00  0.00     4.188 C  
BRANCH   8   9
HETATM    9  N   UNL     1      -8.348  13.890  65.438  1.00  0.00     3.022 N  
HETATM   10  C   UNL     1      -7.300  14.780  65.612  1.00  0.00     6.453 C  
HETATM   11  C   UNL     1      -7.543  16.048  65.981  1.00  0.00     0.970 C  
HETATM   12  C   UNL     1      -8.890  16.463  66.363  1.00  0.00    -0.346 C  
HETATM   13  C   UNL     1      -9.132  17.879  66.790  1.00  0.00    -0.268 C  
HETATM   14  C   UNL     1      -9.906  15.580  66.298  1.00  0.00    -0.294 C  
HETATM   15  C   UNL     1      -9.655  14.387  65.429  1.00  0.00     0.030 C  
HETATM   16  F   UNL     1      -8.041  18.672  66.619  1.00  0.00    -0.236 F  
HETATM   17  F   UNL     1     -10.129  18.452  66.065  1.00  0.00    -0.343 F  
HETATM   18  O   UNL     1     -10.563  13.904  64.759  1.00  0.00    -0.391 OA 
HETATM   19  F   UNL     1      -9.484  17.976  68.096  1.00  0.00    -0.257 F  
BRANCH  14  20
HETATM   20  O   UNL     1     -11.171  15.872  66.794  1.00  0.00    -0.149 OA 
BRANCH  20  21
HETATM   21  C   UNL     1     -11.492  15.782  68.136  1.00  0.00    -0.302 A  
HETATM   22  C   UNL     1     -10.426  15.375  68.960  1.00  0.00    -0.249 A  
HETATM   23  C   UNL     1     -10.572  15.285  70.354  1.00  0.00    -0.225 A  
HETATM   24  C   UNL     1     -11.801  15.606  70.936  1.00  0.00    -0.428 A  
HETATM   25  C   UNL     1      -9.466  14.866  71.178  1.00  0.00     2.637 C  
HETATM   26  C   UNL     1     -12.872  15.970  70.119  1.00  0.00     0.639 A  
HETATM   27  N   UNL     1      -8.580  14.515  71.839  1.00  0.00     5.031 NA 
HETATM   28 CL   UNL     1     -14.392  16.363  70.833  1.00  0.00     3.200 Cl 
HETATM   29  C   UNL     1     -12.731  16.034  68.724  1.00  0.00     1.364 A  
ENDBRANCH  20  21
ENDBRANCH  14  20
ENDBRANCH   8   9
ENDBRANCH   7   8
TORSDOF 4
ENDMDL
MODEL      306
REMARK 921   NORMALIZED FREE ENERGY PREDICTED BY IDOCK:   31.58 KCAL/MOL
REMARK 922        TOTAL FREE ENERGY PREDICTED BY IDOCK:   38.13 KCAL/MOL
REMARK 923 INTER-LIGAND FREE ENERGY PREDICTED BY IDOCK:   23.68 KCAL/MOL
REMARK 924 INTRA-LIGAND FREE ENERGY PREDICTED BY IDOCK:   14.45 KCAL/MOL
REMARK 927      BINDING AFFINITY PREDICTED BY RF-SCORE:    0.00 PKD
ROOT
HETATM    1  C   UNL     1      -8.191  14.296  71.382  1.00  0.00     5.192 C  
HETATM    2  N   UNL     1      -7.170  15.316  71.415  1.00  0.00     1.964 N  
HETATM    3  C   UNL     1      -6.944  16.105  72.519  1.00  0.00     7.101 C  
HETATM    4  O   UNL     1      -7.489  16.060  73.608  1.00  0.00     9.781 OA 
HETATM    5  N   UNL     1      -5.943  16.985  72.141  1.00  0.00     1.913 NA 
HETATM    6  N   UNL     1      -5.536  16.727  70.866  1.00  0.00    -0.100 NA 
HETATM    7  C   UNL     1      -6.284  15.726  70.485  1.00  0.00     0.178 C  
ENDROOT
BRANCH   7   8
HETATM    8  C   UNL     1      -6.036  15.048  69.150  1.00  0.00    -0.103 C  
BRANCH   8   9
HETATM    9  N   UNL     1      -6.924  14.007  68.642  1.00  0.00    -0.099 N  
HETATM   10  C   UNL     1      -7.453  14.071  67.363  1.00  0.00    -0.127 C  
HETATM   11  C   UNL     1      -8.028  12.990  66.812  1.00  0.00     0.234 C  
HETATM   12  C   UNL     1      -8.250  11.785  67.606  1.00  0.00    -0.145 C  
HETATM   13  C   UNL     1      -8.911  10.597  66.975  1.00  0.00    -0.137 C  
HETATM   14  C   UNL     1      -7.832  11.741  68.887  1.00  0.00    -0.013 C  
HETATM   15  C   UNL     1      -6.793  12.754  69.250  1.00  0.00    -0.012 C  
HETATM   16  F   UNL     1      -9.096  10.749  65.637  1.00  0.00    -0.175 F  
HETATM   17  F   UNL     1      -8.159   9.474  67.124  1.00  0.00    -0.103 F  
HETATM   18  O   UNL     1      -5.893  12.469  70.035  1.00  0.00    -0.123 OA 
HETATM   19  F   UNL     1     -10.129  10.333  67.510  1.00  0.00    -0.194 F  
BRANCH  14  20
HETATM   20  O   UNL     1      -8.154  10.685  69.733  1.00  0.00    -0.061 OA 
BRANCH  20  21
HETATM   21  C   UNL     1      -8.846   9.566  69.309  1.00  0.00    -0.153 A  
HETATM   22  C   UNL     1      -8.273   8.917  68.198  1.00  0.00    -0.114 A  
HETATM   23  C   UNL     1      -8.824   7.735  67.678  1.00  0.00    -0.128 A  
HETATM   24  C   UNL     1      -9.964   7.189  68.275  1.00  0.00    -0.171 A  
HETATM   25  C   UNL     1      -8.221   7.088  66.539  1.00  0.00    -0.114 C  
HETATM   26  C   UNL     1     -10.557   7.851  69.351  1.00  0.00    -0.205 A  
HETATM   27  N   UNL     1      -7.743   6.577  65.615  1.00  0.00    -0.089 NA 
HETATM   28 CL   UNL     1     -11.966   7.184  70.087  1.00  0.00    -0.119 Cl 
HETATM   29  C   UNL     1     -10.020   9.047  69.852  1.00  0.00    -0.203 A  
ENDBRANCH  20  21
ENDBRANCH  14  20
ENDBRANCH   8   9
ENDBRANCH   7   8
TORSDOF 4
ENDMDL
MODEL      307
REMARK 921   NORMALIZED FREE ENERGY PREDICTED BY IDOCK:   39.24 KCAL/MOL
REMARK 922        TOTAL FREE ENERGY PREDICTED BY IDOCK:   47.58 KCAL/MOL
REMARK 923 INTER-LIGAND FREE ENERGY PREDICTED BY IDOCK:   29.66 KCAL/MOL
REMARK 924 INTRA-LIGAND FREE ENERGY PREDICTED BY IDOCK:   17.92 KCAL/MOL
REMARK 927      BINDING AFFINITY PREDICTED BY RF-SCORE:    0.00 PKD
ROOT
HETATM    1  C   UNL     1      -8.191  14.296  71.382  1.00  0.00     5.192 C  
HETATM    2  N   UNL     1      -7.170  15.316  71.415  1.00  0.00     1.964 N  
HETATM    3  C   UNL     1      -6.944  16.105  72.519  1.00  0.00     7.101 C  
HETATM    4  O   UNL     1      -7.489  16.060  73.608  1.00  0.00     9.781 OA 
HETATM    5  N   UNL     1      -5.943  16.985  72.141  1.00  0.00     1.913 NA 
HETATM    6  N   UNL     1      -5.536  16.727  70.866  1.00  0.00    -0.100 NA 
HETATM    7  C   UNL     1      -6.284  15.726  70.485  1.00  0.00     0.178 C  
ENDROOT
BRANCH   7   8
HETATM    8  C   UNL     1      -6.036  15.048  69.150  1.00  0.00    -0.103 C  
BRANCH   8   9
HETATM    9  N   UNL     1      -6.924  14.007  68.642  1.00  0.00    -0.099 N  
HETATM   10  C   UNL     1      -8.301  14.119  68.747  1.00  0.00    -0.069 C  
HETATM   11  C   UNL     1      -9.103  13.310  68.037  1.00  0.00    -0.202 C  
HETATM   12  C   UNL     1      -8.544  12.197  67.274  1.00  0.00    -0.180 C  
HETATM   13  C   UNL     1      -9.461  11.295  66.505  1.00  0.00    -0.193 C  
HETATM   14  C   UNL     1      -7.209  12.011  67.243  1.00  0.00    -0.150 C  
HETATM   15  C   UNL     1      -6.393  13.206  67.626  1.00  0.00    -0.160 C  
HETATM   16  F   UNL     1     -10.746  11.737  66.497  1.00  0.00    -0.258 F  
HETATM   17  F   UNL     1      -9.088  11.206  65.200  1.00  0.00    -0.203 F  
HETATM   18  O   UNL     1      -5.330  13.440  67.060  1.00  0.00    -0.173 OA 
HETATM   19  F   UNL     1      -9.485  10.033  66.998  1.00  0.00    -0.167 F  
BRANCH  14  20
HETATM   20  O   UNL     1      -6.634  10.885  66.665  1.00  0.00    -0.100 OA 
BRANCH  20  21
HETATM   21  C   UNL     1      -7.370   9.919  66.005  1.00  0.00    -0.106 A  
HETATM   22  C   UNL     1      -6.602   8.854  65.496  1.00  0.00    -0.068 A  
HETATM   23  C   UNL     1      -7.204   7.764  64.845  1.00  0.00    -0.066 A  
HETATM   24  C   UNL     1      -8.594   7.736  64.700  1.00  0.00     0.155 A  
HETATM   25  C   UNL     1      -6.398   6.685  64.332  1.00  0.00    -0.038 C  
HETATM   26  C   UNL     1      -9.353   8.809  65.167  1.00  0.00     0.147 A  
HETATM   27  N   UNL     1      -5.747   5.825  63.907  1.00  0.00    -0.020 NA 
HETATM   28 CL   UNL     1     -11.068   8.780  64.985  1.00  0.00     5.843 Cl 
HETATM   29  C   UNL     1      -8.748   9.909  65.793  1.00  0.00    -0.157 A  
ENDBRANCH  20  21
ENDBRANCH  14  20
ENDBRANCH   8   9
ENDBRANCH   7   8
TORSDOF 4
ENDMDL
MODEL      308
REMARK 921   NORMALIZED FREE ENERGY PREDICTED BY IDOCK:   46.57 KCAL/MOL
REMARK 922        TOTAL FREE ENERGY PREDICTED BY IDOCK:   56.63 KCAL/MOL
REMARK 923 INTER-LIGAND FREE ENERGY PREDICTED BY IDOCK:   53.65 KCAL/MOL
REMARK 924 INTRA-LIGAND FREE ENERGY PREDICTED BY IDOCK:    2.98 KCAL/MOL
REMARK 927      BINDING AFFINITY PREDICTED BY RF-SCORE:    0.00 PKD
ROOT
HETATM    1  C   UNL     1      -9.000   9.042  64.465  1.00  0.00    -0.019 C  
HETATM    2  N   UNL     1      -9.836  10.128  64.010  1.00  0.00    -0.225 N  
HETATM    3  C   UNL     1     -11.140   9.946  63.614  1.00  0.00     4.486 C  
HETATM    4  O   UNL     1     -11.799   8.920  63.619  1.00  0.00    13.638 OA 
HETATM    5  N   UNL     1     -11.574  11.194  63.197  1.00  0.00     0.377 NA 
HETATM    6  N   UNL     1     -10.592  12.122  63.366  1.00  0.00    -0.442 NA 
HETATM    7  C   UNL     1      -9.589  11.444  63.857  1.00  0.00    -0.216 C  
ENDROOT
BRANCH   7   8
HETATM    8  C   UNL     1      -8.331  12.160  64.318  1.00  0.00     2.397 C  
BRANCH   8   9
HETATM    9  N   UNL     1      -8.385  13.284  65.248  1.00  0.00     2.886 N  
HETATM   10  C   UNL     1      -7.405  14.263  65.253  1.00  0.00     9.982 C  
HETATM   11  C   UNL     1      -7.608  15.421  65.903  1.00  0.00     2.771 C  
HETATM   12  C   UNL     1      -8.788  15.600  66.745  1.00  0.00    -0.304 C  
HETATM   13  C   UNL     1      -8.983  16.894  67.476  1.00  0.00    -0.206 C  
HETATM   14  C   UNL     1      -9.704  14.615  66.832  1.00  0.00    -0.242 C  
HETATM   15  C   UNL     1      -9.659  13.607  65.726  1.00  0.00    -0.061 C  
HETATM   16  F   UNL     1      -8.066  17.836  67.129  1.00  0.00    -0.201 F  
HETATM   17  F   UNL     1     -10.199  17.438  67.204  1.00  0.00    -0.286 F  
HETATM   18  O   UNL     1     -10.696  13.118  65.288  1.00  0.00    -0.289 OA 
HETATM   19  F   UNL     1      -8.904  16.749  68.821  1.00  0.00    -0.230 F  
BRANCH  14  20
HETATM   20  O   UNL     1     -10.760  14.667  67.734  1.00  0.00    -0.258 OA 
BRANCH  20  21
HETATM   21  C   UNL     1     -10.649  14.253  69.048  1.00  0.00    -0.232 A  
HETATM   22  C   UNL     1     -11.744  13.500  69.513  1.00  0.00    -0.382 A  
HETATM   23  C   UNL     1     -11.763  12.959  70.809  1.00  0.00     0.337 A  
HETATM   24  C   UNL     1     -10.672  13.172  71.656  1.00  0.00     6.432 A  
HETATM   25  C   UNL     1     -12.896  12.192  71.263  1.00  0.00    -0.250 C  
HETATM   26  C   UNL     1      -9.603  13.951  71.213  1.00  0.00     6.637 A  
HETATM   27  N   UNL     1     -13.813  11.587  71.632  1.00  0.00     0.506 NA 
HETATM   28 CL   UNL     1      -8.257  14.220  72.256  1.00  0.00     6.434 Cl 
HETATM   29  C   UNL     1      -9.598  14.513  69.926  1.00  0.00     0.610 A  
ENDBRANCH  20  21
ENDBRANCH  14  20
ENDBRANCH   8   9
ENDBRANCH   7   8
TORSDOF 4
ENDMDL
