MODEL        1
REMARK 921   NORMALIZED FREE ENERGY PREDICTED BY IDOCK:   -7.72 KCAL/MOL
REMARK 922        TOTAL FREE ENERGY PREDICTED BY IDOCK:  -11.31 KCAL/MOL
REMARK 923 INTER-LIGAND FREE ENERGY PREDICTED BY IDOCK:  -10.43 KCAL/MOL
REMARK 924 INTRA-LIGAND FREE ENERGY PREDICTED BY IDOCK:   -0.88 KCAL/MOL
REMARK 927      BINDING AFFINITY PREDICTED BY RF-SCORE:    0.00 PKD
ROOT
HETATM    1  C   UNL     1      -9.713  15.395  66.256  1.00  0.00    -0.299 C  
HETATM    2  C   UNL     1      -9.995  14.284  67.278  1.00  0.00    -0.252 C  
HETATM    3  C   UNL     1     -10.901  13.354  66.500  1.00  0.00    -0.282 C  
HETATM    4  C   UNL     1     -10.554  14.872  68.568  1.00  0.00    -0.245 C  
HETATM    5  O   UNL     1     -12.419  14.031  63.236  1.00  0.00    -0.795 OA 
HETATM    6  C   UNL     1     -11.120  13.824  65.253  1.00  0.00    -0.313 C  
HETATM    7  N   UNL     1     -10.408  14.989  65.002  1.00  0.00    -0.385 N  
HETATM    8  O   UNL     1     -11.849  16.515  63.997  1.00  0.00    -1.022 OA 
HETATM    9  C   UNL     1     -11.993  13.192  64.206  1.00  0.00    -0.411 C  
HETATM   10  C   UNL     1     -10.499  16.742  66.156  1.00  0.00    -0.282 C  
HETATM   11  O   UNL     1     -12.289  12.008  64.179  1.00  0.00    -0.389 OA 
HETATM   12  C   UNL     1     -11.028  16.195  64.826  1.00  0.00    -0.313 C  
ENDROOT
BRANCH   3  13
HETATM   13  S   UNL     1     -11.612  11.937  67.175  1.00  0.00    -0.239 SA 
BRANCH  13  14
HETATM   14  C   UNL     1     -10.229  10.797  67.528  1.00  0.00    -0.196 C  
HETATM   15  N   UNL     1     -11.130   8.919  68.696  1.00  0.00    -0.433 NA 
HETATM   16  C   UNL     1     -10.524   9.300  67.422  1.00  0.00    -0.273 C  
HETATM   17  C   UNL     1      -9.850  10.951  69.006  1.00  0.00    -0.196 C  
HETATM   18  C   UNL     1     -10.451   9.739  69.725  1.00  0.00    -0.250 C  
HETATM   19  H   UNL     1     -11.094   7.917  68.882  1.00  0.00     0.000 HD 
BRANCH  18  20
HETATM   20  C   UNL     1     -11.435  10.085  70.863  1.00  0.00    -0.371 C  
BRANCH  20  21
HETATM   21  N   UNL     1     -12.732   9.346  70.674  1.00  0.00    -0.509 N  
HETATM   22  H   UNL     1     -13.362   9.543  69.897  1.00  0.00     0.000 HD 
BRANCH  21  23
HETATM   23  S   UNL     1     -13.069   8.182  71.821  1.00  0.00    -0.336 S  
HETATM   24  O   UNL     1     -14.081   7.303  71.288  1.00  0.00    -0.384 OA 
HETATM   25  N   UNL     1     -13.825   9.167  72.906  1.00  0.00    -0.901 N  
HETATM   26  O   UNL     1     -11.836   7.724  72.400  1.00  0.00    -0.324 OA 
HETATM   27  H2  UNL     1     -14.024  10.167  72.884  1.00  0.00     0.000 HD 
HETATM   28  H1  UNL     1     -14.031   8.456  73.607  1.00  0.00     0.000 HD 
ENDBRANCH  21  23
ENDBRANCH  20  21
ENDBRANCH  18  20
ENDBRANCH  13  14
ENDBRANCH   3  13
BRANCH  10  29
HETATM   29  C   UNL     1      -9.612  17.971  66.150  1.00  0.00    -0.173 C  
HETATM   30  H   UNL     1      -7.754  18.303  65.759  1.00  0.00     0.000 HD 
HETATM   31  O   UNL     1      -8.310  17.532  65.762  1.00  0.00    -0.538 OA 
HETATM   32  C   UNL     1      -9.540  18.614  67.526  1.00  0.00    -0.317 C  
ENDBRANCH  10  29
TORSDOF 6
ENDMDL
MODEL        2
REMARK 921   NORMALIZED FREE ENERGY PREDICTED BY IDOCK:   -7.59 KCAL/MOL
REMARK 922        TOTAL FREE ENERGY PREDICTED BY IDOCK:  -11.14 KCAL/MOL
REMARK 923 INTER-LIGAND FREE ENERGY PREDICTED BY IDOCK:  -10.25 KCAL/MOL
REMARK 924 INTRA-LIGAND FREE ENERGY PREDICTED BY IDOCK:   -0.90 KCAL/MOL
REMARK 927      BINDING AFFINITY PREDICTED BY RF-SCORE:    0.00 PKD
ROOT
HETATM    1  C   UNL     1      -9.522  16.945  67.528  1.00  0.00    -0.241 C  
HETATM    2  C   UNL     1     -10.153  15.714  68.196  1.00  0.00    -0.222 C  
HETATM    3  C   UNL     1     -10.917  15.083  67.052  1.00  0.00    -0.318 C  
HETATM    4  C   UNL     1     -10.960  16.125  69.422  1.00  0.00    -0.333 C  
HETATM    5  O   UNL     1     -11.499  16.566  63.753  1.00  0.00    -1.065 OA 
HETATM    6  C   UNL     1     -10.772  15.804  65.919  1.00  0.00    -0.313 C  
HETATM    7  N   UNL     1      -9.915  16.882  66.092  1.00  0.00    -0.316 N  
HETATM    8  O   UNL     1     -10.909  18.757  65.140  1.00  0.00    -0.523 OA 
HETATM    9  C   UNL     1     -11.410  15.509  64.591  1.00  0.00    -0.357 C  
HETATM   10  C   UNL     1     -10.128  18.384  67.545  1.00  0.00    -0.373 C  
HETATM   11  O   UNL     1     -11.799  14.404  64.244  1.00  0.00    -0.413 OA 
HETATM   12  C   UNL     1     -10.356  18.176  66.044  1.00  0.00    -0.353 C  
ENDROOT
BRANCH   3  13
HETATM   13  S   UNL     1     -11.904  13.682  67.227  1.00  0.00    -0.389 SA 
BRANCH  13  14
HETATM   14  C   UNL     1     -10.781  12.335  67.741  1.00  0.00    -0.217 C  
HETATM   15  N   UNL     1     -12.129  10.595  68.668  1.00  0.00    -0.812 NA 
HETATM   16  C   UNL     1     -11.275  10.905  67.523  1.00  0.00    -0.293 C  
HETATM   17  C   UNL     1     -10.627  12.398  69.266  1.00  0.00     0.092 C  
HETATM   18  C   UNL     1     -11.510  11.279  69.826  1.00  0.00    -0.310 C  
HETATM   19  H   UNL     1     -12.272   9.595  68.812  1.00  0.00     0.000 HD 
BRANCH  18  20
HETATM   20  C   UNL     1     -12.602  11.749  70.810  1.00  0.00    -0.253 C  
BRANCH  20  21
HETATM   21  N   UNL     1     -13.030  13.154  70.483  1.00  0.00     0.070 N  
HETATM   22  H   UNL     1     -13.148  13.477  69.523  1.00  0.00     0.000 HD 
BRANCH  21  23
HETATM   23  S   UNL     1     -13.297  14.148  71.797  1.00  0.00    -0.409 S  
HETATM   24  O   UNL     1     -14.212  13.479  72.690  1.00  0.00    -0.751 OA 
HETATM   25  N   UNL     1     -14.168  15.307  71.012  1.00  0.00    -0.803 N  
HETATM   26  O   UNL     1     -12.045  14.719  72.214  1.00  0.00    -0.332 OA 
HETATM   27  H2  UNL     1     -14.453  15.390  70.036  1.00  0.00     0.000 HD 
HETATM   28  H1  UNL     1     -14.331  15.914  71.815  1.00  0.00     0.000 HD 
ENDBRANCH  21  23
ENDBRANCH  20  21
ENDBRANCH  18  20
ENDBRANCH  13  14
ENDBRANCH   3  13
BRANCH  10  29
HETATM   29  C   UNL     1      -9.158  19.454  68.004  1.00  0.00    -0.328 C  
HETATM   30  H   UNL     1      -9.100  21.377  67.880  1.00  0.00     0.000 HD 
HETATM   31  O   UNL     1      -9.708  20.706  67.592  1.00  0.00    -0.404 OA 
HETATM   32  C   UNL     1      -7.787  19.272  67.374  1.00  0.00    -0.283 C  
ENDBRANCH  10  29
TORSDOF 6
ENDMDL
MODEL        3
REMARK 921   NORMALIZED FREE ENERGY PREDICTED BY IDOCK:   -7.45 KCAL/MOL
REMARK 922        TOTAL FREE ENERGY PREDICTED BY IDOCK:  -10.95 KCAL/MOL
REMARK 923 INTER-LIGAND FREE ENERGY PREDICTED BY IDOCK:  -10.13 KCAL/MOL
REMARK 924 INTRA-LIGAND FREE ENERGY PREDICTED BY IDOCK:   -0.82 KCAL/MOL
REMARK 927      BINDING AFFINITY PREDICTED BY RF-SCORE:    0.00 PKD
ROOT
HETATM    1  C   UNL     1     -11.553  13.830  67.831  1.00  0.00    -0.341 C  
HETATM    2  C   UNL     1     -10.547  14.986  67.933  1.00  0.00    -0.259 C  
HETATM    3  C   UNL     1     -10.694  15.661  66.586  1.00  0.00    -0.296 C  
HETATM    4  C   UNL     1      -9.162  14.460  68.293  1.00  0.00    -0.201 C  
HETATM    5  O   UNL     1     -12.573  14.382  63.713  1.00  0.00    -0.829 OA 
HETATM    6  C   UNL     1     -11.611  15.025  65.825  1.00  0.00    -0.171 C  
HETATM    7  N   UNL     1     -12.213  13.973  66.503  1.00  0.00    -0.459 N  
HETATM    8  O   UNL     1     -12.253  12.128  65.087  1.00  0.00    -0.445 OA 
HETATM    9  C   UNL     1     -12.001  15.383  64.419  1.00  0.00    -0.228 C  
HETATM   10  C   UNL     1     -11.201  12.369  67.404  1.00  0.00    -0.351 C  
HETATM   11  O   UNL     1     -11.860  16.492  63.926  1.00  0.00    -1.059 OA 
HETATM   12  C   UNL     1     -12.016  12.669  66.143  1.00  0.00    -0.395 C  
ENDROOT
BRANCH   3  13
HETATM   13  S   UNL     1      -9.739  17.006  66.088  1.00  0.00    -0.228 SA 
BRANCH  13  14
HETATM   14  C   UNL     1     -10.680  18.497  66.567  1.00  0.00    -0.218 C  
HETATM   15  N   UNL     1      -9.381  20.397  65.931  1.00  0.00    -0.601 NA 
HETATM   16  C   UNL     1     -10.618  19.688  65.610  1.00  0.00    -0.364 C  
HETATM   17  C   UNL     1     -10.050  19.069  67.842  1.00  0.00    -0.455 C  
HETATM   18  C   UNL     1      -9.218  20.277  67.397  1.00  0.00    -0.380 C  
HETATM   19  H   UNL     1      -9.363  21.360  65.595  1.00  0.00     0.000 HD 
BRANCH  18  20
HETATM   20  C   UNL     1      -7.719  20.197  67.760  1.00  0.00    -0.285 C  
BRANCH  20  21
HETATM   21  N   UNL     1      -7.549  19.684  69.164  1.00  0.00    -0.312 N  
HETATM   22  H   UNL     1      -8.323  19.288  69.697  1.00  0.00     0.000 HD 
BRANCH  21  23
HETATM   23  S   UNL     1      -6.006  19.807  69.790  1.00  0.00    -0.324 S  
HETATM   24  O   UNL     1      -6.110  20.239  71.163  1.00  0.00    -0.501 OA 
HETATM   25  N   UNL     1      -5.527  21.122  68.918  1.00  0.00    -0.375 N  
HETATM   26  O   UNL     1      -5.236  18.670  69.366  1.00  0.00    -0.189 OA 
HETATM   27  H2  UNL     1      -6.016  21.681  68.219  1.00  0.00     0.000 HD 
HETATM   28  H1  UNL     1      -4.585  21.196  69.301  1.00  0.00     0.000 HD 
ENDBRANCH  21  23
ENDBRANCH  20  21
ENDBRANCH  18  20
ENDBRANCH  13  14
ENDBRANCH   3  13
BRANCH  10  29
HETATM   29  C   UNL     1     -11.695  11.311  68.370  1.00  0.00    -0.294 C  
HETATM   30  H   UNL     1     -12.049  11.262  70.265  1.00  0.00     0.000 HD 
HETATM   31  O   UNL     1     -11.739  11.926  69.659  1.00  0.00    -0.304 OA 
HETATM   32  C   UNL     1     -10.760  10.114  68.413  1.00  0.00    -0.266 C  
ENDBRANCH  10  29
TORSDOF 6
ENDMDL
MODEL        4
REMARK 921   NORMALIZED FREE ENERGY PREDICTED BY IDOCK:   -7.38 KCAL/MOL
REMARK 922        TOTAL FREE ENERGY PREDICTED BY IDOCK:  -10.86 KCAL/MOL
REMARK 923 INTER-LIGAND FREE ENERGY PREDICTED BY IDOCK:   -9.81 KCAL/MOL
REMARK 924 INTRA-LIGAND FREE ENERGY PREDICTED BY IDOCK:   -1.05 KCAL/MOL
REMARK 927      BINDING AFFINITY PREDICTED BY RF-SCORE:    0.00 PKD
ROOT
HETATM    1  C   UNL     1     -10.588   8.131  71.149  1.00  0.00    -0.204 C  
HETATM    2  C   UNL     1     -10.282   8.436  69.676  1.00  0.00    -0.209 C  
HETATM    3  C   UNL     1     -10.970   9.769  69.474  1.00  0.00    -0.227 C  
HETATM    4  C   UNL     1     -10.734   7.285  68.786  1.00  0.00    -0.168 C  
HETATM    5  O   UNL     1     -13.242  11.417  71.827  1.00  0.00    -0.458 OA 
HETATM    6  C   UNL     1     -11.574  10.178  70.610  1.00  0.00    -0.343 C  
HETATM    7  N   UNL     1     -11.346   9.305  71.666  1.00  0.00    -0.381 N  
HETATM    8  O   UNL     1     -13.375   8.921  72.737  1.00  0.00    -0.405 OA 
HETATM    9  C   UNL     1     -12.382  11.433  70.785  1.00  0.00    -0.386 C  
HETATM   10  C   UNL     1     -11.773   7.249  71.655  1.00  0.00    -0.316 C  
HETATM   11  O   UNL     1     -12.274  12.425  70.082  1.00  0.00    -0.296 OA 
HETATM   12  C   UNL     1     -12.348   8.554  72.215  1.00  0.00    -0.387 C  
ENDROOT
BRANCH   3  13
HETATM   13  S   UNL     1     -11.031  10.587  67.958  1.00  0.00    -0.303 SA 
BRANCH  13  14
HETATM   14  C   UNL     1      -9.434  10.246  67.137  1.00  0.00    -0.158 C  
HETATM   15  N   UNL     1      -8.965  12.090  65.693  1.00  0.00    -0.417 NA 
HETATM   16  C   UNL     1      -8.503  11.439  66.918  1.00  0.00    -0.157 C  
HETATM   17  C   UNL     1      -9.724   9.790  65.702  1.00  0.00    -0.357 C  
HETATM   18  C   UNL     1      -9.423  10.997  64.806  1.00  0.00    -0.230 C  
HETATM   19  H   UNL     1      -8.267  12.698  65.265  1.00  0.00     0.000 HD 
BRANCH  18  20
HETATM   20  C   UNL     1     -10.612  11.474  63.946  1.00  0.00    -0.391 C  
BRANCH  20  21
HETATM   21  N   UNL     1     -10.731  12.973  64.006  1.00  0.00    -0.474 N  
HETATM   22  H   UNL     1     -10.051  13.591  63.564  1.00  0.00     0.000 HD 
BRANCH  21  23
HETATM   23  S   UNL     1     -12.051  13.556  64.845  1.00  0.00    -0.421 S  
HETATM   24  O   UNL     1     -13.121  12.595  64.727  1.00  0.00    -0.852 OA 
HETATM   25  N   UNL     1     -12.418  14.798  63.824  1.00  0.00    -1.063 N  
HETATM   26  O   UNL     1     -11.604  14.107  66.096  1.00  0.00    -0.346 OA 
HETATM   27  H2  UNL     1     -11.981  15.110  62.958  1.00  0.00     0.000 HD 
HETATM   28  H1  UNL     1     -13.225  15.154  64.337  1.00  0.00     0.000 HD 
ENDBRANCH  21  23
ENDBRANCH  20  21
ENDBRANCH  18  20
ENDBRANCH  13  14
ENDBRANCH   3  13
BRANCH  10  29
HETATM   29  C   UNL     1     -11.357   6.152  72.615  1.00  0.00    -0.259 C  
HETATM   30  H   UNL     1     -10.460   6.110  74.321  1.00  0.00     0.000 HD 
HETATM   31  O   UNL     1     -10.721   6.798  73.720  1.00  0.00    -0.325 OA 
HETATM   32  C   UNL     1     -10.381   5.183  71.967  1.00  0.00    -0.274 C  
ENDBRANCH  10  29
TORSDOF 6
ENDMDL
MODEL        5
REMARK 921   NORMALIZED FREE ENERGY PREDICTED BY IDOCK:   -7.15 KCAL/MOL
REMARK 922        TOTAL FREE ENERGY PREDICTED BY IDOCK:  -10.54 KCAL/MOL
REMARK 923 INTER-LIGAND FREE ENERGY PREDICTED BY IDOCK:   -9.52 KCAL/MOL
REMARK 924 INTRA-LIGAND FREE ENERGY PREDICTED BY IDOCK:   -1.02 KCAL/MOL
REMARK 927      BINDING AFFINITY PREDICTED BY RF-SCORE:    0.00 PKD
ROOT
HETATM    1  C   UNL     1     -10.332   8.379  70.050  1.00  0.00    -0.211 C  
HETATM    2  C   UNL     1     -10.330   9.637  69.170  1.00  0.00    -0.219 C  
HETATM    3  C   UNL     1     -11.383  10.496  69.835  1.00  0.00    -0.309 C  
HETATM    4  C   UNL     1     -10.560   9.270  67.709  1.00  0.00    -0.307 C  
HETATM    5  O   UNL     1     -13.678   9.448  72.491  1.00  0.00    -0.448 OA 
HETATM    6  C   UNL     1     -11.915   9.867  70.906  1.00  0.00    -0.345 C  
HETATM    7  N   UNL     1     -11.309   8.641  71.144  1.00  0.00    -0.264 N  
HETATM    8  O   UNL     1     -12.982   7.069  71.526  1.00  0.00    -0.382 OA 
HETATM    9  C   UNL     1     -13.009  10.391  71.792  1.00  0.00    -0.475 C  
HETATM   10  C   UNL     1     -11.141   7.077  69.751  1.00  0.00    -0.278 C  
HETATM   11  O   UNL     1     -13.281  11.575  71.924  1.00  0.00    -0.485 OA 
HETATM   12  C   UNL     1     -11.975   7.458  70.979  1.00  0.00    -0.306 C  
ENDROOT
BRANCH   3  13
HETATM   13  S   UNL     1     -11.879  12.032  69.229  1.00  0.00    -0.298 SA 
BRANCH  13  14
HETATM   14  C   UNL     1     -10.352  12.878  68.690  1.00  0.00    -0.188 C  
HETATM   15  N   UNL     1     -10.969  15.060  67.941  1.00  0.00    -0.281 NA 
HETATM   16  C   UNL     1     -10.242  14.370  69.006  1.00  0.00    -0.179 C  
HETATM   17  C   UNL     1     -10.314  12.864  67.157  1.00  0.00    -0.239 C  
HETATM   18  C   UNL     1     -10.725  14.272  66.712  1.00  0.00    -0.287 C  
HETATM   19  H   UNL     1     -10.723  16.046  67.851  1.00  0.00     0.000 HD 
BRANCH  18  20
HETATM   20  C   UNL     1     -11.964  14.323  65.794  1.00  0.00    -0.393 C  
BRANCH  20  21
HETATM   21  N   UNL     1     -12.384  12.932  65.405  1.00  0.00    -0.480 N  
HETATM   22  H   UNL     1     -12.767  12.270  66.080  1.00  0.00     0.000 HD 
BRANCH  21  23
HETATM   23  S   UNL     1     -12.179  12.543  63.794  1.00  0.00    -0.544 S  
HETATM   24  O   UNL     1     -10.792  12.208  63.584  1.00  0.00    -0.386 OA 
HETATM   25  N   UNL     1     -12.394  14.060  63.182  1.00  0.00    -1.094 N  
HETATM   26  O   UNL     1     -13.276  11.718  63.369  1.00  0.00    -0.569 OA 
HETATM   27  H2  UNL     1     -12.589  14.950  63.641  1.00  0.00     0.000 HD 
HETATM   28  H1  UNL     1     -12.269  13.822  62.199  1.00  0.00     0.000 HD 
ENDBRANCH  21  23
ENDBRANCH  20  21
ENDBRANCH  18  20
ENDBRANCH  13  14
ENDBRANCH   3  13
BRANCH  10  29
HETATM   29  C   UNL     1     -10.307   5.812  69.787  1.00  0.00    -0.263 C  
HETATM   30  H   UNL     1      -9.153   4.984  71.090  1.00  0.00     0.000 HD 
HETATM   31  O   UNL     1      -9.676   5.777  71.068  1.00  0.00    -0.164 OA 
HETATM   32  C   UNL     1      -9.244   5.813  68.700  1.00  0.00    -0.125 C  
ENDBRANCH  10  29
TORSDOF 6
ENDMDL
MODEL        6
REMARK 921   NORMALIZED FREE ENERGY PREDICTED BY IDOCK:   -7.14 KCAL/MOL
REMARK 922        TOTAL FREE ENERGY PREDICTED BY IDOCK:  -10.53 KCAL/MOL
REMARK 923 INTER-LIGAND FREE ENERGY PREDICTED BY IDOCK:   -9.51 KCAL/MOL
REMARK 924 INTRA-LIGAND FREE ENERGY PREDICTED BY IDOCK:   -1.02 KCAL/MOL
REMARK 927      BINDING AFFINITY PREDICTED BY RF-SCORE:    0.00 PKD
ROOT
HETATM    1  C   UNL     1     -10.141  10.268  65.717  1.00  0.00    -0.255 C  
HETATM    2  C   UNL     1     -10.430  10.922  67.076  1.00  0.00    -0.291 C  
HETATM    3  C   UNL     1     -11.294  12.103  66.688  1.00  0.00    -0.350 C  
HETATM    4  C   UNL     1      -9.130  11.230  67.809  1.00  0.00    -0.152 C  
HETATM    5  O   UNL     1     -11.936  13.294  63.284  1.00  0.00    -0.511 OA 
HETATM    6  C   UNL     1     -11.480  12.146  65.351  1.00  0.00    -0.336 C  
HETATM    7  N   UNL     1     -10.890  11.067  64.707  1.00  0.00    -0.230 N  
HETATM    8  O   UNL     1      -9.727  11.874  62.860  1.00  0.00    -0.349 OA 
HETATM    9  C   UNL     1     -12.251  13.190  64.594  1.00  0.00    -0.414 C  
HETATM   10  C   UNL     1      -8.866  10.523  64.852  1.00  0.00    -0.207 C  
HETATM   11  O   UNL     1     -13.126  13.889  65.082  1.00  0.00    -0.773 OA 
HETATM   12  C   UNL     1      -9.817  11.218  63.872  1.00  0.00    -0.300 C  
ENDROOT
BRANCH   3  13
HETATM   13  S   UNL     1     -11.872  13.269  67.817  1.00  0.00    -0.329 SA 
BRANCH  13  14
HETATM   14  C   UNL     1     -10.812  14.743  67.607  1.00  0.00    -0.285 C  
HETATM   15  N   UNL     1      -9.619  15.062  69.651  1.00  0.00    -0.444 NA 
HETATM   16  C   UNL     1      -9.425  14.692  68.250  1.00  0.00    -0.211 C  
HETATM   17  C   UNL     1     -11.471  15.914  68.344  1.00  0.00    -0.348 C  
HETATM   18  C   UNL     1     -10.690  16.084  69.651  1.00  0.00    -0.316 C  
HETATM   19  H   UNL     1      -8.763  15.367  70.115  1.00  0.00     0.000 HD 
BRANCH  18  20
HETATM   20  C   UNL     1     -11.541  15.960  70.933  1.00  0.00    -0.421 C  
BRANCH  20  21
HETATM   21  N   UNL     1     -11.693  14.515  71.320  1.00  0.00    -0.487 N  
HETATM   22  H   UNL     1     -10.948  13.833  71.182  1.00  0.00     0.000 HD 
BRANCH  21  23
HETATM   23  S   UNL     1     -13.166  14.102  71.991  1.00  0.00    -0.440 S  
HETATM   24  O   UNL     1     -13.461  12.738  71.624  1.00  0.00    -0.322 OA 
HETATM   25  N   UNL     1     -14.109  15.061  71.036  1.00  0.00    -0.684 N  
HETATM   26  O   UNL     1     -13.222  14.599  73.338  1.00  0.00    -0.585 OA 
HETATM   27  H2  UNL     1     -13.870  15.701  70.279  1.00  0.00     0.000 HD 
HETATM   28  H1  UNL     1     -15.008  14.808  71.446  1.00  0.00     0.000 HD 
ENDBRANCH  21  23
ENDBRANCH  20  21
ENDBRANCH  18  20
ENDBRANCH  13  14
ENDBRANCH   3  13
BRANCH  10  29
HETATM   29  C   UNL     1      -8.153   9.258  64.420  1.00  0.00    -0.142 C  
HETATM   30  H   UNL     1      -8.245   8.108  62.876  1.00  0.00     0.000 HD 
HETATM   31  O   UNL     1      -8.693   8.901  63.146  1.00  0.00    -0.165 OA 
HETATM   32  C   UNL     1      -8.386   8.122  65.403  1.00  0.00    -0.163 C  
ENDBRANCH  10  29
TORSDOF 6
ENDMDL
MODEL        7
REMARK 921   NORMALIZED FREE ENERGY PREDICTED BY IDOCK:   -7.14 KCAL/MOL
REMARK 922        TOTAL FREE ENERGY PREDICTED BY IDOCK:  -10.52 KCAL/MOL
REMARK 923 INTER-LIGAND FREE ENERGY PREDICTED BY IDOCK:   -9.77 KCAL/MOL
REMARK 924 INTRA-LIGAND FREE ENERGY PREDICTED BY IDOCK:   -0.76 KCAL/MOL
REMARK 927      BINDING AFFINITY PREDICTED BY RF-SCORE:    0.00 PKD
ROOT
HETATM    1  C   UNL     1     -10.342   8.878  70.285  1.00  0.00    -0.206 C  
HETATM    2  C   UNL     1     -10.202   9.722  69.010  1.00  0.00    -0.214 C  
HETATM    3  C   UNL     1     -11.073  10.920  69.320  1.00  0.00    -0.248 C  
HETATM    4  C   UNL     1     -10.571   8.901  67.780  1.00  0.00    -0.266 C  
HETATM    5  O   UNL     1     -13.340  11.273  72.176  1.00  0.00    -0.457 OA 
HETATM    6  C   UNL     1     -11.629  10.808  70.546  1.00  0.00    -0.330 C  
HETATM    7  N   UNL     1     -11.203   9.666  71.210  1.00  0.00    -0.370 N  
HETATM    8  O   UNL     1     -13.068   8.627  72.134  1.00  0.00    -0.346 OA 
HETATM    9  C   UNL     1     -12.578  11.783  71.184  1.00  0.00    -0.309 C  
HETATM   10  C   UNL     1     -11.356   7.704  70.476  1.00  0.00    -0.266 C  
HETATM   11  O   UNL     1     -12.660  12.964  70.880  1.00  0.00    -0.343 OA 
HETATM   12  C   UNL     1     -12.048   8.627  71.484  1.00  0.00    -0.316 C  
ENDROOT
BRANCH   3  13
HETATM   13  S   UNL     1     -11.366  12.198  68.202  1.00  0.00    -0.319 SA 
BRANCH  13  14
HETATM   14  C   UNL     1      -9.896  13.281  68.278  1.00  0.00    -0.231 C  
HETATM   15  N   UNL     1     -10.530  15.408  67.396  1.00  0.00    -0.272 NA 
HETATM   16  C   UNL     1     -10.139  14.747  68.640  1.00  0.00    -0.238 C  
HETATM   17  C   UNL     1      -9.307  13.386  66.867  1.00  0.00    -0.253 C  
HETATM   18  C   UNL     1      -9.740  14.754  66.328  1.00  0.00    -0.303 C  
HETATM   19  H   UNL     1     -10.423  16.422  67.421  1.00  0.00     0.000 HD 
BRANCH  18  20
HETATM   20  C   UNL     1     -10.556  14.703  65.019  1.00  0.00    -0.439 C  
BRANCH  20  21
HETATM   21  N   UNL     1     -10.702  13.282  64.549  1.00  0.00    -0.391 N  
HETATM   22  H   UNL     1      -9.955  12.595  64.651  1.00  0.00     0.000 HD 
BRANCH  21  23
HETATM   23  S   UNL     1     -12.170  12.903  63.849  1.00  0.00    -0.448 S  
HETATM   24  O   UNL     1     -13.088  12.533  64.899  1.00  0.00    -0.833 OA 
HETATM   25  N   UNL     1     -11.700  11.501  63.119  1.00  0.00    -0.890 N  
HETATM   26  O   UNL     1     -12.467  13.873  62.831  1.00  0.00    -0.572 OA 
HETATM   27  H2  UNL     1     -10.801  11.019  63.101  1.00  0.00     0.000 HD 
HETATM   28  H1  UNL     1     -12.596  11.270  62.692  1.00  0.00     0.000 HD 
ENDBRANCH  21  23
ENDBRANCH  20  21
ENDBRANCH  18  20
ENDBRANCH  13  14
ENDBRANCH   3  13
BRANCH  10  29
HETATM   29  C   UNL     1     -10.721   6.418  70.966  1.00  0.00    -0.251 C  
HETATM   30  H   UNL     1     -10.399   4.683  70.191  1.00  0.00     0.000 HD 
HETATM   31  O   UNL     1     -10.797   5.489  69.883  1.00  0.00    -0.326 OA 
HETATM   32  C   UNL     1     -11.459   5.854  72.169  1.00  0.00    -0.333 C  
ENDBRANCH  10  29
TORSDOF 6
ENDMDL
MODEL        8
REMARK 921   NORMALIZED FREE ENERGY PREDICTED BY IDOCK:   -7.13 KCAL/MOL
REMARK 922        TOTAL FREE ENERGY PREDICTED BY IDOCK:  -10.51 KCAL/MOL
REMARK 923 INTER-LIGAND FREE ENERGY PREDICTED BY IDOCK:   -8.84 KCAL/MOL
REMARK 924 INTRA-LIGAND FREE ENERGY PREDICTED BY IDOCK:   -1.67 KCAL/MOL
REMARK 927      BINDING AFFINITY PREDICTED BY RF-SCORE:    0.00 PKD
ROOT
HETATM    1  C   UNL     1     -12.755  14.651  70.451  1.00  0.00    -0.316 C  
HETATM    2  C   UNL     1     -11.772  15.171  69.392  1.00  0.00    -0.355 C  
HETATM    3  C   UNL     1     -11.463  13.920  68.598  1.00  0.00    -0.298 C  
HETATM    4  C   UNL     1     -10.594  15.875  70.054  1.00  0.00    -0.320 C  
HETATM    5  O   UNL     1     -12.429  10.498  69.479  1.00  0.00    -0.201 OA 
HETATM    6  C   UNL     1     -12.133  12.856  69.093  1.00  0.00    -0.168 C  
HETATM    7  N   UNL     1     -12.967  13.209  70.145  1.00  0.00     0.311 N  
HETATM    8  O   UNL     1     -12.662  11.664  71.858  1.00  0.00    -0.285 OA 
HETATM    9  C   UNL     1     -12.053  11.443  68.590  1.00  0.00    -0.145 C  
HETATM   10  C   UNL     1     -12.363  14.202  71.895  1.00  0.00    -0.281 C  
HETATM   11  O   UNL     1     -11.711  11.133  67.459  1.00  0.00    -0.574 OA 
HETATM   12  C   UNL     1     -12.735  12.791  71.427  1.00  0.00    -0.255 C  
ENDROOT
BRANCH   3  13
HETATM   13  S   UNL     1     -10.335  13.874  67.296  1.00  0.00    -0.257 SA 
BRANCH  13  14
HETATM   14  C   UNL     1     -11.218  14.535  65.840  1.00  0.00    -0.331 C  
HETATM   15  N   UNL     1     -12.727  12.842  65.089  1.00  0.00    -0.740 NA 
HETATM   16  C   UNL     1     -12.697  14.167  65.705  1.00  0.00    -0.441 C  
HETATM   17  C   UNL     1     -10.608  13.901  64.584  1.00  0.00    -0.432 C  
HETATM   18  C   UNL     1     -11.593  12.816  64.137  1.00  0.00    -0.396 C  
HETATM   19  H   UNL     1     -13.624  12.609  64.664  1.00  0.00     0.000 HD 
BRANCH  18  20
HETATM   20  C   UNL     1     -10.997  11.394  64.060  1.00  0.00    -0.355 C  
BRANCH  20  21
HETATM   21  N   UNL     1      -9.502  11.463  63.907  1.00  0.00    -0.389 N  
HETATM   22  H   UNL     1      -9.052  12.063  63.216  1.00  0.00     0.000 HD 
BRANCH  21  23
HETATM   23  S   UNL     1      -8.629  10.492  64.947  1.00  0.00    -0.147 S  
HETATM   24  O   UNL     1      -7.729   9.683  64.160  1.00  0.00    -0.117 OA 
HETATM   25  N   UNL     1      -9.868   9.506  65.406  1.00  0.00    -0.430 N  
HETATM   26  O   UNL     1      -8.218  11.271  66.083  1.00  0.00    -0.160 OA 
HETATM   27  H2  UNL     1     -10.853   9.493  65.140  1.00  0.00     0.000 HD 
HETATM   28  H1  UNL     1      -9.334   8.912  66.041  1.00  0.00     0.000 HD 
ENDBRANCH  21  23
ENDBRANCH  20  21
ENDBRANCH  18  20
ENDBRANCH  13  14
ENDBRANCH   3  13
BRANCH  10  29
HETATM   29  C   UNL     1     -13.183  14.860  72.986  1.00  0.00    -0.494 C  
HETATM   30  H   UNL     1     -14.370  16.377  73.065  1.00  0.00     0.000 HD 
HETATM   31  O   UNL     1     -13.856  15.965  72.380  1.00  0.00    -0.467 OA 
HETATM   32  C   UNL     1     -12.304  15.363  74.119  1.00  0.00    -0.800 C  
ENDBRANCH  10  29
TORSDOF 6
ENDMDL
MODEL        9
REMARK 921   NORMALIZED FREE ENERGY PREDICTED BY IDOCK:   -6.90 KCAL/MOL
REMARK 922        TOTAL FREE ENERGY PREDICTED BY IDOCK:  -10.20 KCAL/MOL
REMARK 923 INTER-LIGAND FREE ENERGY PREDICTED BY IDOCK:   -8.89 KCAL/MOL
REMARK 924 INTRA-LIGAND FREE ENERGY PREDICTED BY IDOCK:   -1.31 KCAL/MOL
REMARK 927      BINDING AFFINITY PREDICTED BY RF-SCORE:    0.00 PKD
ROOT
HETATM    1  C   UNL     1     -10.463   8.169  71.042  1.00  0.00    -0.201 C  
HETATM    2  C   UNL     1     -10.178   8.273  69.536  1.00  0.00    -0.210 C  
HETATM    3  C   UNL     1     -10.798   9.608  69.183  1.00  0.00    -0.190 C  
HETATM    4  C   UNL     1     -10.713   7.048  68.804  1.00  0.00    -0.226 C  
HETATM    5  O   UNL     1     -12.921  11.657  71.354  1.00  0.00    -0.404 OA 
HETATM    6  C   UNL     1     -11.351  10.186  70.271  1.00  0.00    -0.315 C  
HETATM    7  N   UNL     1     -11.145   9.438  71.422  1.00  0.00    -0.361 N  
HETATM    8  O   UNL     1     -13.164   9.303  72.569  1.00  0.00    -0.437 OA 
HETATM    9  C   UNL     1     -12.086  11.496  70.303  1.00  0.00    -0.359 C  
HETATM   10  C   UNL     1     -11.682   7.423  71.674  1.00  0.00    -0.311 C  
HETATM   11  O   UNL     1     -11.943  12.387  69.480  1.00  0.00    -0.298 OA 
HETATM   12  C   UNL     1     -12.171   8.817  72.078  1.00  0.00    -0.377 C  
ENDROOT
BRANCH   3  13
HETATM   13  S   UNL     1     -10.853  10.235  67.579  1.00  0.00    -0.275 SA 
BRANCH  13  14
HETATM   14  C   UNL     1      -9.206  10.962  67.266  1.00  0.00    -0.151 C  
HETATM   15  N   UNL     1      -9.127  13.067  68.392  1.00  0.00    -0.318 NA 
HETATM   16  C   UNL     1      -8.556  11.721  68.423  1.00  0.00    -0.156 C  
HETATM   17  C   UNL     1      -9.361  12.056  66.203  1.00  0.00    -0.217 C  
HETATM   18  C   UNL     1      -9.317  13.388  66.959  1.00  0.00    -0.243 C  
HETATM   19  H   UNL     1      -8.572  13.758  68.896  1.00  0.00     0.000 HD 
BRANCH  18  20
HETATM   20  C   UNL     1     -10.566  14.277  66.776  1.00  0.00    -0.278 C  
BRANCH  20  21
HETATM   21  N   UNL     1     -10.621  14.816  65.373  1.00  0.00    -0.349 N  
HETATM   22  H   UNL     1      -9.790  15.150  64.885  1.00  0.00     0.000 HD 
BRANCH  21  23
HETATM   23  S   UNL     1     -12.134  14.832  64.668  1.00  0.00    -0.372 S  
HETATM   24  O   UNL     1     -13.080  14.301  65.620  1.00  0.00    -0.561 OA 
HETATM   25  N   UNL     1     -11.863  13.641  63.560  1.00  0.00    -0.720 N  
HETATM   26  O   UNL     1     -12.313  16.075  63.970  1.00  0.00    -0.752 OA 
HETATM   27  H2  UNL     1     -11.037  13.075  63.367  1.00  0.00     0.000 HD 
HETATM   28  H1  UNL     1     -12.788  13.650  63.129  1.00  0.00     0.000 HD 
ENDBRANCH  21  23
ENDBRANCH  20  21
ENDBRANCH  18  20
ENDBRANCH  13  14
ENDBRANCH   3  13
BRANCH  10  29
HETATM   29  C   UNL     1     -11.301   6.431  72.755  1.00  0.00    -0.191 C  
HETATM   30  H   UNL     1     -10.487   6.567  74.497  1.00  0.00     0.000 HD 
HETATM   31  O   UNL     1     -10.726   7.190  73.820  1.00  0.00    -0.361 OA 
HETATM   32  C   UNL     1     -10.286   5.418  72.251  1.00  0.00    -0.260 C  
ENDBRANCH  10  29
TORSDOF 6
ENDMDL
MODEL       10
REMARK 921   NORMALIZED FREE ENERGY PREDICTED BY IDOCK:   -6.89 KCAL/MOL
REMARK 922        TOTAL FREE ENERGY PREDICTED BY IDOCK:  -10.19 KCAL/MOL
REMARK 923 INTER-LIGAND FREE ENERGY PREDICTED BY IDOCK:   -9.65 KCAL/MOL
REMARK 924 INTRA-LIGAND FREE ENERGY PREDICTED BY IDOCK:   -0.55 KCAL/MOL
REMARK 927      BINDING AFFINITY PREDICTED BY RF-SCORE:    0.00 PKD
ROOT
HETATM    1  C   UNL     1      -8.217  17.297  67.194  1.00  0.00    -0.204 C  
HETATM    2  C   UNL     1      -8.210  15.886  67.798  1.00  0.00    -0.157 C  
HETATM    3  C   UNL     1      -9.160  15.141  66.886  1.00  0.00    -0.247 C  
HETATM    4  C   UNL     1      -8.570  15.935  69.278  1.00  0.00    -0.247 C  
HETATM    5  O   UNL     1     -11.305  16.621  64.312  1.00  0.00    -1.116 OA 
HETATM    6  C   UNL     1      -9.644  15.955  65.924  1.00  0.00    -0.343 C  
HETATM    7  N   UNL     1      -9.093  17.228  65.991  1.00  0.00    -0.146 N  
HETATM    8  O   UNL     1     -10.818  18.776  65.794  1.00  0.00    -0.364 OA 
HETATM    9  C   UNL     1     -10.637  15.582  64.860  1.00  0.00    -0.342 C  
HETATM   10  C   UNL     1      -9.119  18.476  67.680  1.00  0.00    -0.293 C  
HETATM   11  O   UNL     1     -10.831  14.441  64.469  1.00  0.00    -0.366 OA 
HETATM   12  C   UNL     1      -9.835  18.324  66.334  1.00  0.00    -0.357 C  
ENDROOT
BRANCH   3  13
HETATM   13  S   UNL     1      -9.612  13.495  67.124  1.00  0.00    -0.249 SA 
BRANCH  13  14
HETATM   14  C   UNL     1     -11.375  13.521  67.601  1.00  0.00    -0.296 C  
HETATM   15  N   UNL     1     -11.494  13.005  69.930  1.00  0.00    -0.512 NA 
HETATM   16  C   UNL     1     -11.709  14.094  68.979  1.00  0.00    -0.324 C  
HETATM   17  C   UNL     1     -11.857  12.070  67.726  1.00  0.00    -0.308 C  
HETATM   18  C   UNL     1     -11.912  11.771  69.228  1.00  0.00    -0.291 C  
HETATM   19  H   UNL     1     -11.963  13.146  70.825  1.00  0.00     0.000 HD 
BRANCH  18  20
HETATM   20  C   UNL     1     -11.038  10.581  69.681  1.00  0.00    -0.283 C  
BRANCH  20  21
HETATM   21  N   UNL     1     -11.903   9.396  70.015  1.00  0.00    -0.459 N  
HETATM   22  H   UNL     1     -12.003   8.600  69.386  1.00  0.00     0.000 HD 
BRANCH  21  23
HETATM   23  S   UNL     1     -12.690   9.473  71.485  1.00  0.00    -0.399 S  
HETATM   24  O   UNL     1     -12.112   8.480  72.358  1.00  0.00    -0.377 OA 
HETATM   25  N   UNL     1     -14.140   8.870  70.981  1.00  0.00    -0.560 N  
HETATM   26  O   UNL     1     -12.869  10.852  71.850  1.00  0.00    -0.425 OA 
HETATM   27  H2  UNL     1     -14.455   8.551  70.065  1.00  0.00     0.000 HD 
HETATM   28  H1  UNL     1     -14.620   8.917  71.879  1.00  0.00     0.000 HD 
ENDBRANCH  21  23
ENDBRANCH  20  21
ENDBRANCH  18  20
ENDBRANCH  13  14
ENDBRANCH   3  13
BRANCH  10  29
HETATM   29  C   UNL     1      -8.357  19.753  67.972  1.00  0.00    -0.295 C  
HETATM   30  H   UNL     1      -7.324  20.990  66.913  1.00  0.00     0.000 HD 
HETATM   31  O   UNL     1      -7.802  20.189  66.730  1.00  0.00    -0.290 OA 
HETATM   32  C   UNL     1      -7.237  19.519  68.972  1.00  0.00    -0.397 C  
ENDBRANCH  10  29
TORSDOF 6
ENDMDL
MODEL       11
REMARK 921   NORMALIZED FREE ENERGY PREDICTED BY IDOCK:   -6.80 KCAL/MOL
REMARK 922        TOTAL FREE ENERGY PREDICTED BY IDOCK:  -10.07 KCAL/MOL
REMARK 923 INTER-LIGAND FREE ENERGY PREDICTED BY IDOCK:   -8.60 KCAL/MOL
REMARK 924 INTRA-LIGAND FREE ENERGY PREDICTED BY IDOCK:   -1.47 KCAL/MOL
REMARK 927      BINDING AFFINITY PREDICTED BY RF-SCORE:    0.00 PKD
ROOT
HETATM    1  C   UNL     1     -11.269  11.497  65.795  1.00  0.00    -0.164 C  
HETATM    2  C   UNL     1     -10.189  10.414  65.936  1.00  0.00    -0.302 C  
HETATM    3  C   UNL     1     -10.217  10.123  67.421  1.00  0.00    -0.218 C  
HETATM    4  C   UNL     1      -8.867  10.897  65.351  1.00  0.00    -0.192 C  
HETATM    5  O   UNL     1     -12.027  12.029  69.972  1.00  0.00    -0.326 OA 
HETATM    6  C   UNL     1     -11.135  10.891  68.046  1.00  0.00    -0.293 C  
HETATM    7  N   UNL     1     -11.846  11.684  67.156  1.00  0.00    -0.133 N  
HETATM    8  O   UNL     1     -11.942  13.840  68.026  1.00  0.00    -0.361 OA 
HETATM    9  C   UNL     1     -11.424  10.907  69.521  1.00  0.00    -0.301 C  
HETATM   10  C   UNL     1     -11.000  13.036  65.789  1.00  0.00    -0.299 C  
HETATM   11  O   UNL     1     -11.178   9.983  70.281  1.00  0.00    -0.267 OA 
HETATM   12  C   UNL     1     -11.724  13.046  67.140  1.00  0.00    -0.382 C  
ENDROOT
BRANCH   3  13
HETATM   13  S   UNL     1      -9.143   9.018  68.192  1.00  0.00    -0.132 SA 
BRANCH  13  14
HETATM   14  C   UNL     1      -9.344   7.426  67.317  1.00  0.00    -0.133 C  
HETATM   15  N   UNL     1     -11.509   6.579  67.863  1.00  0.00    -0.641 NA 
HETATM   16  C   UNL     1     -10.731   7.122  66.750  1.00  0.00    -0.189 C  
HETATM   17  C   UNL     1      -9.151   6.295  68.334  1.00  0.00    -0.114 C  
HETATM   18  C   UNL     1     -10.555   5.783  68.669  1.00  0.00    -0.235 C  
HETATM   19  H   UNL     1     -12.333   6.054  67.568  1.00  0.00     0.000 HD 
BRANCH  18  20
HETATM   20  C   UNL     1     -10.932   5.860  70.164  1.00  0.00    -0.342 C  
BRANCH  20  21
HETATM   21  N   UNL     1     -11.825   7.044  70.417  1.00  0.00    -0.538 N  
HETATM   22  H   UNL     1     -11.871   7.837  69.779  1.00  0.00     0.000 HD 
BRANCH  21  23
HETATM   23  S   UNL     1     -12.736   6.970  71.814  1.00  0.00    -0.293 S  
HETATM   24  O   UNL     1     -14.087   7.360  71.492  1.00  0.00    -0.422 OA 
HETATM   25  N   UNL     1     -12.046   8.255  72.584  1.00  0.00    -0.553 N  
HETATM   26  O   UNL     1     -12.398   5.771  72.531  1.00  0.00    -0.144 OA 
HETATM   27  H2  UNL     1     -11.301   8.891  72.298  1.00  0.00     0.000 HD 
HETATM   28  H1  UNL     1     -12.602   8.211  73.437  1.00  0.00     0.000 HD 
ENDBRANCH  21  23
ENDBRANCH  20  21
ENDBRANCH  18  20
ENDBRANCH  13  14
ENDBRANCH   3  13
BRANCH  10  29
HETATM   29  C   UNL     1     -11.619  13.764  64.613  1.00  0.00    -0.378 C  
HETATM   30  H   UNL     1     -13.336  14.568  64.266  1.00  0.00     0.000 HD 
HETATM   31  O   UNL     1     -12.948  14.113  65.004  1.00  0.00    -0.721 OA 
HETATM   32  C   UNL     1     -11.670  12.882  63.376  1.00  0.00    -0.526 C  
ENDBRANCH  10  29
TORSDOF 6
ENDMDL
MODEL       12
REMARK 921   NORMALIZED FREE ENERGY PREDICTED BY IDOCK:   -6.67 KCAL/MOL
REMARK 922        TOTAL FREE ENERGY PREDICTED BY IDOCK:   -9.90 KCAL/MOL
REMARK 923 INTER-LIGAND FREE ENERGY PREDICTED BY IDOCK:   -9.83 KCAL/MOL
REMARK 924 INTRA-LIGAND FREE ENERGY PREDICTED BY IDOCK:   -0.07 KCAL/MOL
REMARK 927      BINDING AFFINITY PREDICTED BY RF-SCORE:    0.00 PKD
ROOT
HETATM    1  C   UNL     1     -10.687  15.866  67.595  1.00  0.00    -0.312 C  
HETATM    2  C   UNL     1      -9.749  14.800  67.009  1.00  0.00    -0.242 C  
HETATM    3  C   UNL     1     -10.069  13.589  67.858  1.00  0.00    -0.248 C  
HETATM    4  C   UNL     1      -8.306  15.290  67.022  1.00  0.00    -0.267 C  
HETATM    5  O   UNL     1     -12.134  13.543  70.883  1.00  0.00    -0.332 OA 
HETATM    6  C   UNL     1     -11.014  13.879  68.778  1.00  0.00    -0.263 C  
HETATM    7  N   UNL     1     -11.481  15.181  68.653  1.00  0.00    -0.308 N  
HETATM    8  O   UNL     1     -11.542  16.134  70.775  1.00  0.00    -0.392 OA 
HETATM    9  C   UNL     1     -11.560  12.942  69.817  1.00  0.00    -0.218 C  
HETATM   10  C   UNL     1     -10.287  16.909  68.687  1.00  0.00    -0.332 C  
HETATM   11  O   UNL     1     -11.538  11.724  69.727  1.00  0.00    -0.295 OA 
HETATM   12  C   UNL     1     -11.238  16.133  69.604  1.00  0.00    -0.331 C  
ENDROOT
BRANCH   3  13
HETATM   13  S   UNL     1      -9.253  12.079  67.705  1.00  0.00    -0.189 SA 
BRANCH  13  14
HETATM   14  C   UNL     1     -10.466  10.922  66.977  1.00  0.00    -0.244 C  
HETATM   15  N   UNL     1      -9.769  10.470  64.738  1.00  0.00    -0.277 NA 
HETATM   16  C   UNL     1      -9.915   9.839  66.049  1.00  0.00    -0.272 C  
HETATM   17  C   UNL     1     -11.383  11.719  66.041  1.00  0.00    -0.335 C  
HETATM   18  C   UNL     1     -10.903  11.414  64.619  1.00  0.00    -0.292 C  
HETATM   19  H   UNL     1      -9.709   9.803  63.968  1.00  0.00     0.000 HD 
BRANCH  18  20
HETATM   20  C   UNL     1     -10.477  12.653  63.802  1.00  0.00    -0.379 C  
BRANCH  20  21
HETATM   21  N   UNL     1     -10.790  13.912  64.563  1.00  0.00    -0.528 N  
HETATM   22  H   UNL     1     -10.139  14.319  65.234  1.00  0.00     0.000 HD 
BRANCH  21  23
HETATM   23  S   UNL     1     -12.276  14.600  64.234  1.00  0.00    -0.263 S  
HETATM   24  O   UNL     1     -13.214  14.145  65.232  1.00  0.00    -0.760 OA 
HETATM   25  N   UNL     1     -12.602  13.750  62.859  1.00  0.00    -0.787 N  
HETATM   26  O   UNL     1     -12.085  15.982  63.885  1.00  0.00    -0.880 OA 
HETATM   27  H2  UNL     1     -12.069  13.034  62.367  1.00  0.00     0.000 HD 
HETATM   28  H1  UNL     1     -13.510  14.170  62.658  1.00  0.00     0.000 HD 
ENDBRANCH  21  23
ENDBRANCH  20  21
ENDBRANCH  18  20
ENDBRANCH  13  14
ENDBRANCH   3  13
BRANCH  10  29
HETATM   29  C   UNL     1     -10.618  18.341  68.320  1.00  0.00    -0.226 C  
HETATM   30  H   UNL     1     -10.917  19.283  66.664  1.00  0.00     0.000 HD 
HETATM   31  O   UNL     1     -10.710  18.385  66.895  1.00  0.00    -0.370 OA 
HETATM   32  C   UNL     1      -9.536  19.302  68.786  1.00  0.00    -0.485 C  
ENDBRANCH  10  29
TORSDOF 6
ENDMDL
MODEL       13
REMARK 921   NORMALIZED FREE ENERGY PREDICTED BY IDOCK:   -6.59 KCAL/MOL
REMARK 922        TOTAL FREE ENERGY PREDICTED BY IDOCK:   -9.78 KCAL/MOL
REMARK 923 INTER-LIGAND FREE ENERGY PREDICTED BY IDOCK:   -8.77 KCAL/MOL
REMARK 924 INTRA-LIGAND FREE ENERGY PREDICTED BY IDOCK:   -1.01 KCAL/MOL
REMARK 927      BINDING AFFINITY PREDICTED BY RF-SCORE:    0.00 PKD
ROOT
HETATM    1  C   UNL     1     -11.182   8.454  70.908  1.00  0.00    -0.262 C  
HETATM    2  C   UNL     1     -12.105   9.494  70.255  1.00  0.00     0.031 C  
HETATM    3  C   UNL     1     -11.149  10.257  69.363  1.00  0.00    -0.252 C  
HETATM    4  C   UNL     1     -12.845  10.296  71.319  1.00  0.00    -0.522 C  
HETATM    5  O   UNL     1      -7.498   9.962  69.340  1.00  0.00    -0.086 OA 
HETATM    6  C   UNL     1      -9.895   9.767  69.468  1.00  0.00    -0.214 C  
HETATM    7  N   UNL     1      -9.835   8.663  70.308  1.00  0.00    -0.174 N  
HETATM    8  O   UNL     1      -8.022   8.941  71.740  1.00  0.00    -0.303 OA 
HETATM    9  C   UNL     1      -8.675  10.289  68.763  1.00  0.00    -0.144 C  
HETATM   10  C   UNL     1     -10.494   8.614  72.301  1.00  0.00    -0.376 C  
HETATM   11  O   UNL     1      -8.703  10.935  67.726  1.00  0.00    -0.126 OA 
HETATM   12  C   UNL     1      -9.185   8.700  71.510  1.00  0.00    -0.246 C  
ENDROOT
BRANCH   3  13
HETATM   13  S   UNL     1     -11.615  11.623  68.420  1.00  0.00    -0.314 SA 
BRANCH  13  14
HETATM   14  C   UNL     1     -10.986  13.089  69.311  1.00  0.00    -0.067 C  
HETATM   15  N   UNL     1     -12.268  14.969  68.588  1.00  0.00    -0.593 NA 
HETATM   16  C   UNL     1     -12.021  14.123  69.754  1.00  0.00    -0.339 C  
HETATM   17  C   UNL     1     -10.111  13.896  68.343  1.00  0.00    -0.237 C  
HETATM   18  C   UNL     1     -10.966  15.085  67.893  1.00  0.00    -0.291 C  
HETATM   19  H   UNL     1     -12.691  15.869  68.818  1.00  0.00     0.000 HD 
BRANCH  18  20
HETATM   20  C   UNL     1     -11.185  15.181  66.368  1.00  0.00    -0.277 C  
BRANCH  20  21
HETATM   21  N   UNL     1     -12.354  14.330  65.954  1.00  0.00    -0.425 N  
HETATM   22  H   UNL     1     -13.260  14.386  66.419  1.00  0.00     0.000 HD 
BRANCH  21  23
HETATM   23  S   UNL     1     -12.069  13.287  64.682  1.00  0.00    -0.425 S  
HETATM   24  O   UNL     1     -10.652  13.019  64.628  1.00  0.00    -0.334 OA 
HETATM   25  N   UNL     1     -12.394  14.348  63.462  1.00  0.00    -1.114 N  
HETATM   26  O   UNL     1     -13.078  12.264  64.680  1.00  0.00    -0.770 OA 
HETATM   27  H2  UNL     1     -12.677  15.328  63.478  1.00  0.00     0.000 HD 
HETATM   28  H1  UNL     1     -12.219  13.711  62.685  1.00  0.00     0.000 HD 
ENDBRANCH  21  23
ENDBRANCH  20  21
ENDBRANCH  18  20
ENDBRANCH  13  14
ENDBRANCH   3  13
BRANCH  10  29
HETATM   29  C   UNL     1     -10.719   7.442  73.235  1.00  0.00    -0.391 C  
HETATM   30  H   UNL     1      -9.713   6.637  74.669  1.00  0.00     0.000 HD 
HETATM   31  O   UNL     1      -9.572   7.372  74.084  1.00  0.00    -0.243 OA 
HETATM   32  C   UNL     1     -10.861   6.137  72.469  1.00  0.00    -0.275 C  
ENDBRANCH  10  29
TORSDOF 6
ENDMDL
MODEL       14
REMARK 921   NORMALIZED FREE ENERGY PREDICTED BY IDOCK:   -6.53 KCAL/MOL
REMARK 922        TOTAL FREE ENERGY PREDICTED BY IDOCK:   -9.71 KCAL/MOL
REMARK 923 INTER-LIGAND FREE ENERGY PREDICTED BY IDOCK:   -8.24 KCAL/MOL
REMARK 924 INTRA-LIGAND FREE ENERGY PREDICTED BY IDOCK:   -1.47 KCAL/MOL
REMARK 927      BINDING AFFINITY PREDICTED BY RF-SCORE:    0.00 PKD
ROOT
HETATM    1  C   UNL     1     -10.274   8.116  71.035  1.00  0.00    -0.188 C  
HETATM    2  C   UNL     1     -10.068   8.358  69.533  1.00  0.00    -0.200 C  
HETATM    3  C   UNL     1     -10.805   9.661  69.313  1.00  0.00    -0.205 C  
HETATM    4  C   UNL     1     -10.541   7.154  68.726  1.00  0.00    -0.219 C  
HETATM    5  O   UNL     1     -12.976  11.360  71.726  1.00  0.00    -0.459 OA 
HETATM    6  C   UNL     1     -11.350  10.109  70.465  1.00  0.00    -0.338 C  
HETATM    7  N   UNL     1     -11.033   9.293  71.543  1.00  0.00    -0.360 N  
HETATM    8  O   UNL     1     -12.980   8.908  72.756  1.00  0.00    -0.359 OA 
HETATM    9  C   UNL     1     -12.182  11.348  70.632  1.00  0.00    -0.389 C  
HETATM   10  C   UNL     1     -11.400   7.228  71.654  1.00  0.00    -0.285 C  
HETATM   11  O   UNL     1     -12.146  12.309  69.878  1.00  0.00    -0.299 OA 
HETATM   12  C   UNL     1     -11.977   8.543  72.188  1.00  0.00    -0.383 C  
ENDROOT
BRANCH   3  13
HETATM   13  S   UNL     1     -10.983  10.404  67.768  1.00  0.00    -0.294 SA 
BRANCH  13  14
HETATM   14  C   UNL     1      -9.307  10.933  67.267  1.00  0.00    -0.155 C  
HETATM   15  N   UNL     1      -8.562  12.550  68.859  1.00  0.00    -0.338 NA 
HETATM   16  C   UNL     1      -8.301  11.190  68.390  1.00  0.00    -0.149 C  
HETATM   17  C   UNL     1      -9.419  12.312  66.607  1.00  0.00    -0.227 C  
HETATM   18  C   UNL     1      -8.945  13.323  67.656  1.00  0.00    -0.199 C  
HETATM   19  H   UNL     1      -7.785  12.959  69.379  1.00  0.00     0.000 HD 
BRANCH  18  20
HETATM   20  C   UNL     1      -9.983  14.403  68.027  1.00  0.00    -0.225 C  
BRANCH  20  21
HETATM   21  N   UNL     1     -10.143  14.482  69.521  1.00  0.00    -0.423 N  
HETATM   22  H   UNL     1      -9.728  13.794  70.150  1.00  0.00     0.000 HD 
BRANCH  21  23
HETATM   23  S   UNL     1     -11.044  15.771  70.081  1.00  0.00    -0.380 S  
HETATM   24  O   UNL     1     -11.237  15.603  71.501  1.00  0.00    -0.374 OA 
HETATM   25  N   UNL     1     -12.470  15.359  69.360  1.00  0.00    -0.607 N  
HETATM   26  O   UNL     1     -10.557  16.980  69.476  1.00  0.00    -0.316 OA 
HETATM   27  H2  UNL     1     -12.721  14.571  68.765  1.00  0.00     0.000 HD 
HETATM   28  H1  UNL     1     -13.020  16.147  69.702  1.00  0.00     0.000 HD 
ENDBRANCH  21  23
ENDBRANCH  20  21
ENDBRANCH  18  20
ENDBRANCH  13  14
ENDBRANCH   3  13
BRANCH  10  29
HETATM   29  C   UNL     1     -10.894   6.190  72.635  1.00  0.00    -0.245 C  
HETATM   30  H   UNL     1     -11.678   4.676  73.535  1.00  0.00     0.000 HD 
HETATM   31  O   UNL     1     -11.996   5.327  72.920  1.00  0.00    -0.227 OA 
HETATM   32  C   UNL     1     -10.408   6.830  73.925  1.00  0.00    -0.397 C  
ENDBRANCH  10  29
TORSDOF 6
ENDMDL
MODEL       15
REMARK 921   NORMALIZED FREE ENERGY PREDICTED BY IDOCK:   -6.53 KCAL/MOL
REMARK 922        TOTAL FREE ENERGY PREDICTED BY IDOCK:   -9.70 KCAL/MOL
REMARK 923 INTER-LIGAND FREE ENERGY PREDICTED BY IDOCK:   -8.42 KCAL/MOL
REMARK 924 INTRA-LIGAND FREE ENERGY PREDICTED BY IDOCK:   -1.28 KCAL/MOL
REMARK 927      BINDING AFFINITY PREDICTED BY RF-SCORE:    0.00 PKD
ROOT
HETATM    1  C   UNL     1      -9.512  16.014  66.922  1.00  0.00    -0.226 C  
HETATM    2  C   UNL     1     -10.011  15.022  67.982  1.00  0.00    -0.219 C  
HETATM    3  C   UNL     1     -10.956  14.148  67.186  1.00  0.00    -0.299 C  
HETATM    4  C   UNL     1     -10.600  15.764  69.176  1.00  0.00    -0.242 C  
HETATM    5  O   UNL     1     -12.103  14.755  63.760  1.00  0.00    -0.425 OA 
HETATM    6  C   UNL     1     -11.012  14.547  65.897  1.00  0.00    -0.320 C  
HETATM    7  N   UNL     1     -10.144  15.600  65.639  1.00  0.00    -0.347 N  
HETATM    8  O   UNL     1     -11.299  17.205  64.412  1.00  0.00    -1.115 OA 
HETATM    9  C   UNL     1     -11.865  13.946  64.816  1.00  0.00    -0.397 C  
HETATM   10  C   UNL     1     -10.116  17.432  66.666  1.00  0.00    -0.317 C  
HETATM   11  O   UNL     1     -12.300  12.805  64.837  1.00  0.00    -0.441 OA 
HETATM   12  C   UNL     1     -10.595  16.854  65.331  1.00  0.00    -0.162 C  
ENDROOT
BRANCH   3  13
HETATM   13  S   UNL     1     -11.889  12.877  67.881  1.00  0.00    -0.296 SA 
BRANCH  13  14
HETATM   14  C   UNL     1     -10.701  11.798  68.754  1.00  0.00    -0.221 C  
HETATM   15  N   UNL     1      -8.941  11.286  67.222  1.00  0.00    -0.148 NA 
HETATM   16  C   UNL     1      -9.218  12.022  68.455  1.00  0.00    -0.160 C  
HETATM   17  C   UNL     1     -10.917  10.359  68.271  1.00  0.00    -0.321 C  
HETATM   18  C   UNL     1      -9.781  10.068  67.285  1.00  0.00    -0.167 C  
HETATM   19  H   UNL     1      -7.950  11.093  67.076  1.00  0.00     0.000 HD 
BRANCH  18  20
HETATM   20  C   UNL     1     -10.242   9.668  65.868  1.00  0.00    -0.149 C  
BRANCH  20  21
HETATM   21  N   UNL     1     -10.210  10.861  64.952  1.00  0.00    -0.300 N  
HETATM   22  H   UNL     1     -10.823  11.665  65.084  1.00  0.00     0.000 HD 
BRANCH  21  23
HETATM   23  S   UNL     1      -9.103  10.781  63.705  1.00  0.00    -0.204 S  
HETATM   24  O   UNL     1      -9.320  11.912  62.836  1.00  0.00    -0.331 OA 
HETATM   25  N   UNL     1      -9.744   9.469  62.938  1.00  0.00    -0.363 N  
HETATM   26  O   UNL     1      -7.820  10.417  64.240  1.00  0.00    -0.141 OA 
HETATM   27  H2  UNL     1     -10.557   8.892  63.155  1.00  0.00     0.000 HD 
HETATM   28  H1  UNL     1      -9.068   9.420  62.176  1.00  0.00     0.000 HD 
ENDBRANCH  21  23
ENDBRANCH  20  21
ENDBRANCH  18  20
ENDBRANCH  13  14
ENDBRANCH   3  13
BRANCH  10  29
HETATM   29  C   UNL     1      -9.089  18.546  66.664  1.00  0.00    -0.305 C  
HETATM   30  H   UNL     1      -7.463  18.891  65.688  1.00  0.00     0.000 HD 
HETATM   31  O   UNL     1      -8.107  18.192  65.689  1.00  0.00    -0.488 OA 
HETATM   32  C   UNL     1      -8.422  18.694  68.022  1.00  0.00    -0.314 C  
ENDBRANCH  10  29
TORSDOF 6
ENDMDL
MODEL       16
REMARK 921   NORMALIZED FREE ENERGY PREDICTED BY IDOCK:   -6.51 KCAL/MOL
REMARK 922        TOTAL FREE ENERGY PREDICTED BY IDOCK:   -9.68 KCAL/MOL
REMARK 923 INTER-LIGAND FREE ENERGY PREDICTED BY IDOCK:   -7.91 KCAL/MOL
REMARK 924 INTRA-LIGAND FREE ENERGY PREDICTED BY IDOCK:   -1.78 KCAL/MOL
REMARK 927      BINDING AFFINITY PREDICTED BY RF-SCORE:    0.00 PKD
ROOT
HETATM    1  C   UNL     1     -10.171  15.665  66.973  1.00  0.00    -0.274 C  
HETATM    2  C   UNL     1      -9.084  14.583  66.884  1.00  0.00    -0.274 C  
HETATM    3  C   UNL     1      -9.596  13.533  67.846  1.00  0.00    -0.218 C  
HETATM    4  C   UNL     1      -7.712  15.177  67.178  1.00  0.00    -0.223 C  
HETATM    5  O   UNL     1     -12.410  13.900  70.162  1.00  0.00    -0.331 OA 
HETATM    6  C   UNL     1     -10.764  13.918  68.405  1.00  0.00    -0.257 C  
HETATM    7  N   UNL     1     -11.208  15.133  67.900  1.00  0.00    -0.318 N  
HETATM    8  O   UNL     1     -11.871  16.461  69.691  1.00  0.00    -0.087 OA 
HETATM    9  C   UNL     1     -11.553  13.154  69.431  1.00  0.00    -0.300 C  
HETATM   10  C   UNL     1     -10.110  16.923  67.897  1.00  0.00    -0.288 C  
HETATM   11  O   UNL     1     -11.478  11.947  69.599  1.00  0.00    -0.285 OA 
HETATM   12  C   UNL     1     -11.258  16.263  68.668  1.00  0.00    -0.354 C  
ENDROOT
BRANCH   3  13
HETATM   13  S   UNL     1      -8.735  12.088  68.223  1.00  0.00    -0.159 SA 
BRANCH  13  14
HETATM   14  C   UNL     1      -9.126  10.905  66.887  1.00  0.00    -0.154 C  
HETATM   15  N   UNL     1     -11.280   9.986  67.353  1.00  0.00    -0.384 NA 
HETATM   16  C   UNL     1     -10.579  10.857  66.412  1.00  0.00    -0.229 C  
HETATM   17  C   UNL     1      -8.912   9.487  67.428  1.00  0.00    -0.141 C  
HETATM   18  C   UNL     1     -10.309   8.932  67.725  1.00  0.00    -0.242 C  
HETATM   19  H   UNL     1     -12.162   9.621  66.993  1.00  0.00     0.000 HD 
BRANCH  18  20
HETATM   20  C   UNL     1     -10.533   8.497  69.190  1.00  0.00    -0.205 C  
BRANCH  20  21
HETATM   21  N   UNL     1     -11.771   9.149  69.744  1.00  0.00    -0.365 N  
HETATM   22  H   UNL     1     -12.398   9.706  69.165  1.00  0.00     0.000 HD 
BRANCH  21  23
HETATM   23  S   UNL     1     -12.047   8.898  71.371  1.00  0.00    -0.336 S  
HETATM   24  O   UNL     1     -13.069   7.888  71.504  1.00  0.00    -0.331 OA 
HETATM   25  N   UNL     1     -12.773  10.345  71.687  1.00  0.00    -0.434 N  
HETATM   26  O   UNL     1     -10.786   8.857  72.059  1.00  0.00    -0.349 OA 
HETATM   27  H2  UNL     1     -12.985  11.139  71.083  1.00  0.00     0.000 HD 
HETATM   28  H1  UNL     1     -12.941  10.192  72.681  1.00  0.00     0.000 HD 
ENDBRANCH  21  23
ENDBRANCH  20  21
ENDBRANCH  18  20
ENDBRANCH  13  14
ENDBRANCH   3  13
BRANCH  10  29
HETATM   29  C   UNL     1     -10.360  18.230  67.172  1.00  0.00    -0.384 C  
HETATM   30  H   UNL     1      -9.790  18.980  65.491  1.00  0.00     0.000 HD 
HETATM   31  O   UNL     1      -9.633  18.160  65.945  1.00  0.00    -0.519 OA 
HETATM   32  C   UNL     1      -9.872  19.420  67.982  1.00  0.00    -0.465 C  
ENDBRANCH  10  29
TORSDOF 6
ENDMDL
MODEL       17
REMARK 921   NORMALIZED FREE ENERGY PREDICTED BY IDOCK:   -6.48 KCAL/MOL
REMARK 922        TOTAL FREE ENERGY PREDICTED BY IDOCK:   -9.63 KCAL/MOL
REMARK 923 INTER-LIGAND FREE ENERGY PREDICTED BY IDOCK:   -8.24 KCAL/MOL
REMARK 924 INTRA-LIGAND FREE ENERGY PREDICTED BY IDOCK:   -1.39 KCAL/MOL
REMARK 927      BINDING AFFINITY PREDICTED BY RF-SCORE:    0.00 PKD
ROOT
HETATM    1  C   UNL     1     -10.867   9.388  69.959  1.00  0.00    -0.241 C  
HETATM    2  C   UNL     1     -11.661  10.600  69.453  1.00  0.00    -0.344 C  
HETATM    3  C   UNL     1     -10.604  11.393  68.716  1.00  0.00    -0.204 C  
HETATM    4  C   UNL     1     -12.366  11.299  70.609  1.00  0.00    -0.477 C  
HETATM    5  O   UNL     1      -6.998  10.748  68.741  1.00  0.00    -0.065 OA 
HETATM    6  C   UNL     1      -9.406  10.772  68.775  1.00  0.00    -0.182 C  
HETATM    7  N   UNL     1      -9.482   9.552  69.434  1.00  0.00    -0.167 N  
HETATM    8  O   UNL     1      -7.712   9.430  70.938  1.00  0.00    -0.224 OA 
HETATM    9  C   UNL     1      -8.115  11.273  68.192  1.00  0.00    -0.134 C  
HETATM   10  C   UNL     1     -10.224   9.265  71.378  1.00  0.00    -0.371 C  
HETATM   11  O   UNL     1      -8.040  12.069  67.268  1.00  0.00    -0.158 OA 
HETATM   12  C   UNL     1      -8.881   9.341  70.644  1.00  0.00    -0.237 C  
ENDROOT
BRANCH   3  13
HETATM   13  S   UNL     1     -10.901  12.925  67.985  1.00  0.00    -0.251 SA 
BRANCH  13  14
HETATM   14  C   UNL     1     -11.666  12.570  66.364  1.00  0.00    -0.397 C  
HETATM   15  N   UNL     1     -10.237  13.486  64.683  1.00  0.00    -0.592 NA 
HETATM   16  C   UNL     1     -10.718  12.213  65.218  1.00  0.00    -0.288 C  
HETATM   17  C   UNL     1     -12.324  13.857  65.854  1.00  0.00    -0.517 C  
HETATM   18  C   UNL     1     -11.379  14.422  64.789  1.00  0.00    -0.388 C  
HETATM   19  H   UNL     1      -9.852  13.414  63.742  1.00  0.00     0.000 HD 
BRANCH  18  20
HETATM   20  C   UNL     1     -10.869  15.852  65.070  1.00  0.00    -0.426 C  
BRANCH  20  21
HETATM   21  N   UNL     1     -10.444  15.980  66.507  1.00  0.00    -0.302 N  
HETATM   22  H   UNL     1     -11.087  15.818  67.282  1.00  0.00     0.000 HD 
BRANCH  21  23
HETATM   23  S   UNL     1      -8.848  16.407  66.749  1.00  0.00    -0.250 S  
HETATM   24  O   UNL     1      -8.428  17.229  65.640  1.00  0.00    -0.475 OA 
HETATM   25  N   UNL     1      -8.191  14.914  66.503  1.00  0.00    -0.337 N  
HETATM   26  O   UNL     1      -8.663  16.767  68.128  1.00  0.00    -0.207 OA 
HETATM   27  H2  UNL     1      -8.621  14.018  66.276  1.00  0.00     0.000 HD 
HETATM   28  H1  UNL     1      -7.216  15.175  66.651  1.00  0.00     0.000 HD 
ENDBRANCH  21  23
ENDBRANCH  20  21
ENDBRANCH  18  20
ENDBRANCH  13  14
ENDBRANCH   3  13
BRANCH  10  29
HETATM   29  C   UNL     1     -10.595   7.992  72.111  1.00  0.00    -0.272 C  
HETATM   30  H   UNL     1     -12.169   7.362  73.028  1.00  0.00     0.000 HD 
HETATM   31  O   UNL     1     -11.938   8.161  72.568  1.00  0.00    -0.376 OA 
HETATM   32  C   UNL     1      -9.683   7.748  73.303  1.00  0.00    -0.357 C  
ENDBRANCH  10  29
TORSDOF 6
ENDMDL
MODEL       18
REMARK 921   NORMALIZED FREE ENERGY PREDICTED BY IDOCK:   -6.46 KCAL/MOL
REMARK 922        TOTAL FREE ENERGY PREDICTED BY IDOCK:   -9.61 KCAL/MOL
REMARK 923 INTER-LIGAND FREE ENERGY PREDICTED BY IDOCK:   -8.63 KCAL/MOL
REMARK 924 INTRA-LIGAND FREE ENERGY PREDICTED BY IDOCK:   -0.98 KCAL/MOL
REMARK 927      BINDING AFFINITY PREDICTED BY RF-SCORE:    0.00 PKD
ROOT
HETATM    1  C   UNL     1     -11.416  10.005  69.046  1.00  0.00    -0.012 C  
HETATM    2  C   UNL     1     -11.666  11.285  68.236  1.00  0.00    -0.344 C  
HETATM    3  C   UNL     1     -10.864  11.031  66.978  1.00  0.00    -0.279 C  
HETATM    4  C   UNL     1     -11.297  12.518  69.053  1.00  0.00    -0.342 C  
HETATM    5  O   UNL     1      -8.504   8.284  66.427  1.00  0.00    -0.112 OA 
HETATM    6  C   UNL     1     -10.249   9.830  67.031  1.00  0.00    -0.229 C  
HETATM    7  N   UNL     1     -10.570   9.130  68.187  1.00  0.00    -0.209 N  
HETATM    8  O   UNL     1      -8.602   8.274  69.085  1.00  0.00    -0.135 OA 
HETATM    9  C   UNL     1      -9.340   9.249  65.985  1.00  0.00    -0.223 C  
HETATM   10  C   UNL     1     -10.320   9.841  70.148  1.00  0.00    -0.335 C  
HETATM   11  O   UNL     1      -9.350   9.574  64.808  1.00  0.00    -0.245 OA 
HETATM   12  C   UNL     1      -9.647   8.878  69.164  1.00  0.00    -0.162 C  
ENDROOT
BRANCH   3  13
HETATM   13  S   UNL     1     -10.704  12.181  65.704  1.00  0.00    -0.286 SA 
BRANCH  13  14
HETATM   14  C   UNL     1     -12.406  12.632  65.216  1.00  0.00    -0.466 C  
HETATM   15  N   UNL     1     -12.254  13.964  63.239  1.00  0.00    -1.111 NA 
HETATM   16  C   UNL     1     -12.709  12.659  63.717  1.00  0.00    -0.241 C  
HETATM   17  C   UNL     1     -12.650  14.089  65.625  1.00  0.00    -0.542 C  
HETATM   18  C   UNL     1     -12.535  14.914  64.339  1.00  0.00    -0.207 C  
HETATM   19  H   UNL     1     -12.664  14.238  62.347  1.00  0.00     0.000 HD 
BRANCH  18  20
HETATM   20  C   UNL     1     -11.458  16.019  64.375  1.00  0.00    -0.242 C  
BRANCH  20  21
HETATM   21  N   UNL     1     -10.503  15.780  65.513  1.00  0.00    -0.379 N  
HETATM   22  H   UNL     1     -10.189  14.845  65.772  1.00  0.00     0.000 HD 
BRANCH  21  23
HETATM   23  S   UNL     1      -9.994  17.148  66.323  1.00  0.00    -0.291 S  
HETATM   24  O   UNL     1      -8.602  16.979  66.663  1.00  0.00    -0.217 OA 
HETATM   25  N   UNL     1     -10.851  16.903  67.710  1.00  0.00    -0.323 N  
HETATM   26  O   UNL     1     -10.520  18.309  65.658  1.00  0.00    -0.627 OA 
HETATM   27  H2  UNL     1     -11.487  16.156  67.986  1.00  0.00     0.000 HD 
HETATM   28  H1  UNL     1     -10.540  17.739  68.205  1.00  0.00     0.000 HD 
ENDBRANCH  21  23
ENDBRANCH  20  21
ENDBRANCH  18  20
ENDBRANCH  13  14
ENDBRANCH   3  13
BRANCH  10  29
HETATM   29  C   UNL     1     -10.847   9.305  71.463  1.00  0.00    -0.372 C  
HETATM   30  H   UNL     1     -10.989   7.554  72.256  1.00  0.00     0.000 HD 
HETATM   31  O   UNL     1     -10.659   7.889  71.431  1.00  0.00    -0.209 OA 
HETATM   32  C   UNL     1     -12.324   9.614  71.641  1.00  0.00    -0.489 C  
ENDBRANCH  10  29
TORSDOF 6
ENDMDL
MODEL       19
REMARK 921   NORMALIZED FREE ENERGY PREDICTED BY IDOCK:   -6.46 KCAL/MOL
REMARK 922        TOTAL FREE ENERGY PREDICTED BY IDOCK:   -9.61 KCAL/MOL
REMARK 923 INTER-LIGAND FREE ENERGY PREDICTED BY IDOCK:   -8.16 KCAL/MOL
REMARK 924 INTRA-LIGAND FREE ENERGY PREDICTED BY IDOCK:   -1.45 KCAL/MOL
REMARK 927      BINDING AFFINITY PREDICTED BY RF-SCORE:    0.00 PKD
ROOT
HETATM    1  C   UNL     1     -11.291   9.313  70.395  1.00  0.00    -0.242 C  
HETATM    2  C   UNL     1     -12.298  10.453  70.181  1.00  0.00    -0.281 C  
HETATM    3  C   UNL     1     -11.507  11.426  69.334  1.00  0.00    -0.310 C  
HETATM    4  C   UNL     1     -12.818  10.967  71.519  1.00  0.00    -0.560 C  
HETATM    5  O   UNL     1      -7.927  11.235  68.581  1.00  0.00    -0.133 OA 
HETATM    6  C   UNL     1     -10.264  10.957  69.093  1.00  0.00    -0.195 C  
HETATM    7  N   UNL     1     -10.072   9.689  69.627  1.00  0.00    -0.209 N  
HETATM    8  O   UNL     1      -8.025   9.672  70.732  1.00  0.00    -0.288 OA 
HETATM    9  C   UNL     1      -9.184  11.658  68.320  1.00  0.00    -0.187 C  
HETATM   10  C   UNL     1     -10.359   9.162  71.639  1.00  0.00    -0.388 C  
HETATM   11  O   UNL     1      -9.387  12.526  67.484  1.00  0.00    -0.177 OA 
HETATM   12  C   UNL     1      -9.214   9.462  70.667  1.00  0.00    -0.242 C  
ENDROOT
BRANCH   3  13
HETATM   13  S   UNL     1     -12.112  12.961  68.835  1.00  0.00    -0.030 SA 
BRANCH  13  14
HETATM   14  C   UNL     1     -11.611  14.145  70.133  1.00  0.00    -0.224 C  
HETATM   15  N   UNL     1     -12.345  16.312  69.445  1.00  0.00    -0.334 NA 
HETATM   16  C   UNL     1     -12.591  15.277  70.448  1.00  0.00    -0.375 C  
HETATM   17  C   UNL     1     -10.380  14.909  69.633  1.00  0.00    -0.144 C  
HETATM   18  C   UNL     1     -10.887  16.286  69.191  1.00  0.00    -0.314 C  
HETATM   19  H   UNL     1     -12.698  17.231  69.711  1.00  0.00     0.000 HD 
BRANCH  18  20
HETATM   20  C   UNL     1     -10.598  16.638  67.716  1.00  0.00    -0.342 C  
BRANCH  20  21
HETATM   21  N   UNL     1     -10.189  15.405  66.956  1.00  0.00    -0.257 N  
HETATM   22  H   UNL     1      -9.468  14.770  67.297  1.00  0.00     0.000 HD 
BRANCH  21  23
HETATM   23  S   UNL     1     -10.994  15.148  65.517  1.00  0.00    -0.372 S  
HETATM   24  O   UNL     1     -12.218  14.440  65.805  1.00  0.00    -0.389 OA 
HETATM   25  N   UNL     1      -9.948  14.040  64.885  1.00  0.00    -0.599 N  
HETATM   26  O   UNL     1     -10.930  16.345  64.723  1.00  0.00    -0.664 OA 
HETATM   27  H2  UNL     1      -9.086  13.641  65.254  1.00  0.00     0.000 HD 
HETATM   28  H1  UNL     1     -10.440  13.883  64.005  1.00  0.00     0.000 HD 
ENDBRANCH  21  23
ENDBRANCH  20  21
ENDBRANCH  18  20
ENDBRANCH  13  14
ENDBRANCH   3  13
BRANCH  10  29
HETATM   29  C   UNL     1     -10.431   7.800  72.299  1.00  0.00    -0.246 C  
HETATM   30  H   UNL     1     -11.817   6.790  73.180  1.00  0.00     0.000 HD 
HETATM   31  O   UNL     1     -11.772   7.644  72.767  1.00  0.00    -0.310 OA 
HETATM   32  C   UNL     1      -9.471   7.696  73.473  1.00  0.00    -0.347 C  
ENDBRANCH  10  29
TORSDOF 6
ENDMDL
MODEL       20
REMARK 921   NORMALIZED FREE ENERGY PREDICTED BY IDOCK:   -6.44 KCAL/MOL
REMARK 922        TOTAL FREE ENERGY PREDICTED BY IDOCK:   -9.58 KCAL/MOL
REMARK 923 INTER-LIGAND FREE ENERGY PREDICTED BY IDOCK:   -8.68 KCAL/MOL
REMARK 924 INTRA-LIGAND FREE ENERGY PREDICTED BY IDOCK:   -0.90 KCAL/MOL
REMARK 927      BINDING AFFINITY PREDICTED BY RF-SCORE:    0.00 PKD
ROOT
HETATM    1  C   UNL     1     -11.607  14.891  67.042  1.00  0.00    -0.304 C  
HETATM    2  C   UNL     1     -11.568  13.378  66.782  1.00  0.00    -0.404 C  
HETATM    3  C   UNL     1     -11.798  12.808  68.165  1.00  0.00    -0.324 C  
HETATM    4  C   UNL     1     -10.271  12.988  66.083  1.00  0.00    -0.288 C  
HETATM    5  O   UNL     1     -11.823  14.687  71.310  1.00  0.00    -0.333 OA 
HETATM    6  C   UNL     1     -11.943  13.794  69.076  1.00  0.00    -0.360 C  
HETATM    7  N   UNL     1     -11.908  15.053  68.492  1.00  0.00    -0.319 N  
HETATM    8  O   UNL     1     -10.504  16.403  69.764  1.00  0.00    -0.290 OA 
HETATM    9  C   UNL     1     -12.152  13.616  70.553  1.00  0.00    -0.339 C  
HETATM   10  C   UNL     1     -10.355  15.792  67.287  1.00  0.00    -0.290 C  
HETATM   11  O   UNL     1     -12.614  12.609  71.067  1.00  0.00    -0.361 OA 
HETATM   12  C   UNL     1     -10.884  15.931  68.718  1.00  0.00    -0.284 C  
ENDROOT
BRANCH   3  13
HETATM   13  S   UNL     1     -11.783  11.120  68.512  1.00  0.00    -0.256 SA 
BRANCH  13  14
HETATM   14  C   UNL     1     -10.030  10.675  68.774  1.00  0.00    -0.193 C  
HETATM   15  N   UNL     1      -9.801   8.350  68.279  1.00  0.00    -0.163 NA 
HETATM   16  C   UNL     1      -9.419   9.674  67.793  1.00  0.00    -0.127 C  
HETATM   17  C   UNL     1      -9.921   9.930  70.110  1.00  0.00    -0.291 C  
HETATM   18  C   UNL     1      -9.786   8.446  69.757  1.00  0.00    -0.187 C  
HETATM   19  H   UNL     1      -9.219   7.597  67.912  1.00  0.00     0.000 HD 
BRANCH  18  20
HETATM   20  C   UNL     1     -10.879   7.537  70.358  1.00  0.00    -0.244 C  
BRANCH  20  21
HETATM   21  N   UNL     1     -12.180   8.285  70.463  1.00  0.00    -0.469 N  
HETATM   22  H   UNL     1     -12.522   8.890  69.717  1.00  0.00     0.000 HD 
BRANCH  21  23
HETATM   23  S   UNL     1     -13.027   8.057  71.884  1.00  0.00    -0.287 S  
HETATM   24  O   UNL     1     -13.442   9.350  72.373  1.00  0.00    -0.457 OA 
HETATM   25  N   UNL     1     -11.751   7.589  72.817  1.00  0.00    -0.575 N  
HETATM   26  O   UNL     1     -13.915   6.938  71.726  1.00  0.00    -0.302 OA 
HETATM   27  H2  UNL     1     -10.762   7.474  72.598  1.00  0.00     0.000 HD 
HETATM   28  H1  UNL     1     -12.268   7.450  73.685  1.00  0.00     0.000 HD 
ENDBRANCH  21  23
ENDBRANCH  20  21
ENDBRANCH  18  20
ENDBRANCH  13  14
ENDBRANCH   3  13
BRANCH  10  29
HETATM   29  C   UNL     1     -10.296  17.017  66.397  1.00  0.00    -0.303 C  
HETATM   30  H   UNL     1     -10.416  17.323  64.498  1.00  0.00     0.000 HD 
HETATM   31  O   UNL     1     -10.453  16.554  65.055  1.00  0.00    -0.652 OA 
HETATM   32  C   UNL     1      -8.967  17.741  66.530  1.00  0.00    -0.280 C  
ENDBRANCH  10  29
TORSDOF 6
ENDMDL
MODEL       21
REMARK 921   NORMALIZED FREE ENERGY PREDICTED BY IDOCK:   -6.43 KCAL/MOL
REMARK 922        TOTAL FREE ENERGY PREDICTED BY IDOCK:   -9.57 KCAL/MOL
REMARK 923 INTER-LIGAND FREE ENERGY PREDICTED BY IDOCK:   -8.65 KCAL/MOL
REMARK 924 INTRA-LIGAND FREE ENERGY PREDICTED BY IDOCK:   -0.93 KCAL/MOL
REMARK 927      BINDING AFFINITY PREDICTED BY RF-SCORE:    0.00 PKD
ROOT
HETATM    1  C   UNL     1     -12.822  14.827  70.138  1.00  0.00    -0.148 C  
HETATM    2  C   UNL     1     -12.048  15.811  69.248  1.00  0.00    -0.226 C  
HETATM    3  C   UNL     1     -11.538  14.912  68.143  1.00  0.00    -0.334 C  
HETATM    4  C   UNL     1     -11.003  16.563  70.064  1.00  0.00    -0.245 C  
HETATM    5  O   UNL     1     -11.691  11.252  68.079  1.00  0.00    -0.501 OA 
HETATM    6  C   UNL     1     -11.930  13.634  68.340  1.00  0.00    -0.356 C  
HETATM    7  N   UNL     1     -12.744  13.505  69.458  1.00  0.00     0.194 N  
HETATM    8  O   UNL     1     -11.998  11.675  70.687  1.00  0.00    -0.358 OA 
HETATM    9  C   UNL     1     -11.587  12.456  67.473  1.00  0.00    -0.365 C  
HETATM   10  C   UNL     1     -12.243  14.117  71.404  1.00  0.00    -0.383 C  
HETATM   11  O   UNL     1     -11.268  12.536  66.297  1.00  0.00    -0.286 OA 
HETATM   12  C   UNL     1     -12.339  12.831  70.576  1.00  0.00    -0.275 C  
ENDROOT
BRANCH   3  13
HETATM   13  S   UNL     1     -10.519  15.460  66.866  1.00  0.00    -0.300 SA 
BRANCH  13  14
HETATM   14  C   UNL     1      -8.873  14.735  67.187  1.00  0.00    -0.216 C  
HETATM   15  N   UNL     1      -7.986  15.808  69.128  1.00  0.00    -0.217 NA 
HETATM   16  C   UNL     1      -8.489  14.520  68.652  1.00  0.00    -0.161 C  
HETATM   17  C   UNL     1      -7.811  15.735  66.714  1.00  0.00    -0.248 C  
HETATM   18  C   UNL     1      -7.272  16.410  67.979  1.00  0.00    -0.136 C  
HETATM   19  H   UNL     1      -7.418  15.738  69.972  1.00  0.00     0.000 HD 
BRANCH  18  20
HETATM   20  C   UNL     1      -7.424  17.946  68.006  1.00  0.00    -0.233 C  
BRANCH  20  21
HETATM   21  N   UNL     1      -8.295  18.404  66.868  1.00  0.00    -0.246 N  
HETATM   22  H   UNL     1      -8.185  18.046  65.920  1.00  0.00     0.000 HD 
BRANCH  21  23
HETATM   23  S   UNL     1      -9.454  19.539  67.263  1.00  0.00    -0.346 S  
HETATM   24  O   UNL     1     -10.391  19.626  66.169  1.00  0.00    -0.452 OA 
HETATM   25  N   UNL     1      -8.488  20.872  67.163  1.00  0.00    -0.542 N  
HETATM   26  O   UNL     1      -9.841  19.355  68.636  1.00  0.00    -0.393 OA 
HETATM   27  H2  UNL     1      -7.499  20.971  66.933  1.00  0.00     0.000 HD 
HETATM   28  H1  UNL     1      -9.196  21.564  67.404  1.00  0.00     0.000 HD 
ENDBRANCH  21  23
ENDBRANCH  20  21
ENDBRANCH  18  20
ENDBRANCH  13  14
ENDBRANCH   3  13
BRANCH  10  29
HETATM   29  C   UNL     1     -13.105  14.267  72.641  1.00  0.00    -0.478 C  
HETATM   30  H   UNL     1     -14.768  13.495  73.238  1.00  0.00     0.000 HD 
HETATM   31  O   UNL     1     -14.227  13.400  72.462  1.00  0.00    -0.721 OA 
HETATM   32  C   UNL     1     -13.593  15.696  72.812  1.00  0.00    -0.678 C  
ENDBRANCH  10  29
TORSDOF 6
ENDMDL
MODEL       22
REMARK 921   NORMALIZED FREE ENERGY PREDICTED BY IDOCK:   -6.42 KCAL/MOL
REMARK 922        TOTAL FREE ENERGY PREDICTED BY IDOCK:   -9.55 KCAL/MOL
REMARK 923 INTER-LIGAND FREE ENERGY PREDICTED BY IDOCK:   -7.82 KCAL/MOL
REMARK 924 INTRA-LIGAND FREE ENERGY PREDICTED BY IDOCK:   -1.74 KCAL/MOL
REMARK 927      BINDING AFFINITY PREDICTED BY RF-SCORE:    0.00 PKD
ROOT
HETATM    1  C   UNL     1      -8.158  17.644  68.242  1.00  0.00    -0.278 C  
HETATM    2  C   UNL     1      -9.596  17.111  68.165  1.00  0.00    -0.270 C  
HETATM    3  C   UNL     1      -9.380  15.621  68.011  1.00  0.00    -0.193 C  
HETATM    4  C   UNL     1     -10.370  17.814  67.056  1.00  0.00    -0.344 C  
HETATM    5  O   UNL     1      -6.182  13.947  67.391  1.00  0.00    -0.335 OA 
HETATM    6  C   UNL     1      -8.063  15.324  67.994  1.00  0.00    -0.137 C  
HETATM    7  N   UNL     1      -7.271  16.448  68.189  1.00  0.00    -0.140 N  
HETATM    8  O   UNL     1      -5.564  16.413  66.609  1.00  0.00    -0.328 OA 
HETATM    9  C   UNL     1      -7.462  13.957  67.822  1.00  0.00    -0.167 C  
HETATM   10  C   UNL     1      -7.342  18.199  67.031  1.00  0.00    -0.226 C  
HETATM   11  O   UNL     1      -8.043  12.913  68.075  1.00  0.00    -0.137 OA 
HETATM   12  C   UNL     1      -6.470  16.951  67.202  1.00  0.00    -0.188 C  
ENDROOT
BRANCH   3  13
HETATM   13  S   UNL     1     -10.664  14.491  67.797  1.00  0.00    -0.260 SA 
BRANCH  13  14
HETATM   14  C   UNL     1     -11.115  14.570  66.028  1.00  0.00    -0.329 C  
HETATM   15  N   UNL     1     -12.419  12.630  65.536  1.00  0.00    -0.648 NA 
HETATM   16  C   UNL     1     -12.515  14.084  65.652  1.00  0.00    -0.504 C  
HETATM   17  C   UNL     1     -10.214  13.594  65.262  1.00  0.00    -0.341 C  
HETATM   18  C   UNL     1     -11.076  12.361  64.973  1.00  0.00    -0.304 C  
HETATM   19  H   UNL     1     -13.179  12.212  65.000  1.00  0.00     0.000 HD 
BRANCH  18  20
HETATM   20  C   UNL     1     -10.520  11.037  65.537  1.00  0.00    -0.238 C  
BRANCH  20  21
HETATM   21  N   UNL     1     -10.005  11.241  66.936  1.00  0.00    -0.203 N  
HETATM   22  H   UNL     1      -9.188  11.818  67.136  1.00  0.00     0.000 HD 
BRANCH  21  23
HETATM   23  S   UNL     1     -10.860  10.460  68.138  1.00  0.00    -0.281 S  
HETATM   24  O   UNL     1     -12.146  11.102  68.267  1.00  0.00    -0.620 OA 
HETATM   25  N   UNL     1      -9.948  10.972  69.413  1.00  0.00    -0.429 N  
HETATM   26  O   UNL     1     -10.685   9.040  67.990  1.00  0.00    -0.208 OA 
HETATM   27  H2  UNL     1      -9.125  11.573  69.455  1.00  0.00     0.000 HD 
HETATM   28  H1  UNL     1     -10.471  10.494  70.147  1.00  0.00     0.000 HD 
ENDBRANCH  21  23
ENDBRANCH  20  21
ENDBRANCH  18  20
ENDBRANCH  13  14
ENDBRANCH   3  13
BRANCH  10  29
HETATM   29  C   UNL     1      -6.734  19.566  67.275  1.00  0.00    -0.196 C  
HETATM   30  H   UNL     1      -7.301  21.158  68.203  1.00  0.00     0.000 HD 
HETATM   31  O   UNL     1      -7.683  20.301  68.051  1.00  0.00    -0.271 OA 
HETATM   32  C   UNL     1      -6.469  20.301  65.971  1.00  0.00    -0.240 C  
ENDBRANCH  10  29
TORSDOF 6
ENDMDL
MODEL       23
REMARK 921   NORMALIZED FREE ENERGY PREDICTED BY IDOCK:   -6.41 KCAL/MOL
REMARK 922        TOTAL FREE ENERGY PREDICTED BY IDOCK:   -9.54 KCAL/MOL
REMARK 923 INTER-LIGAND FREE ENERGY PREDICTED BY IDOCK:   -8.46 KCAL/MOL
REMARK 924 INTRA-LIGAND FREE ENERGY PREDICTED BY IDOCK:   -1.08 KCAL/MOL
REMARK 927      BINDING AFFINITY PREDICTED BY RF-SCORE:    0.00 PKD
ROOT
HETATM    1  C   UNL     1     -10.189   8.012  69.934  1.00  0.00    -0.204 C  
HETATM    2  C   UNL     1     -10.314   9.178  68.944  1.00  0.00    -0.232 C  
HETATM    3  C   UNL     1     -11.348  10.059  69.612  1.00  0.00    -0.202 C  
HETATM    4  C   UNL     1     -10.645   8.663  67.548  1.00  0.00    -0.292 C  
HETATM    5  O   UNL     1     -13.373   9.189  72.538  1.00  0.00    -0.458 OA 
HETATM    6  C   UNL     1     -11.763   9.517  70.777  1.00  0.00    -0.298 C  
HETATM    7  N   UNL     1     -11.086   8.342  71.077  1.00  0.00    -0.251 N  
HETATM    8  O   UNL     1     -12.651   6.755  71.744  1.00  0.00    -0.357 OA 
HETATM    9  C   UNL     1     -12.805  10.084  71.700  1.00  0.00    -0.440 C  
HETATM   10  C   UNL     1     -10.962   6.658  69.828  1.00  0.00    -0.367 C  
HETATM   11  O   UNL     1     -13.117  11.264  71.743  1.00  0.00    -0.472 OA 
HETATM   12  C   UNL     1     -11.710   7.125  71.081  1.00  0.00    -0.313 C  
ENDROOT
BRANCH   3  13
HETATM   13  S   UNL     1     -11.959  11.509  68.909  1.00  0.00    -0.227 SA 
BRANCH  13  14
HETATM   14  C   UNL     1     -10.664  12.097  67.762  1.00  0.00    -0.209 C  
HETATM   15  N   UNL     1      -9.504  13.881  68.846  1.00  0.00    -0.402 NA 
HETATM   16  C   UNL     1      -9.327  12.506  68.382  1.00  0.00    -0.149 C  
HETATM   17  C   UNL     1     -11.146  13.408  67.130  1.00  0.00    -0.303 C  
HETATM   18  C   UNL     1     -10.392  14.528  67.853  1.00  0.00    -0.231 C  
HETATM   19  H   UNL     1      -8.626  14.378  68.995  1.00  0.00     0.000 HD 
BRANCH  18  20
HETATM   20  C   UNL     1     -11.295  15.570  68.549  1.00  0.00    -0.351 C  
BRANCH  20  21
HETATM   21  N   UNL     1     -12.531  14.908  69.095  1.00  0.00    -0.587 N  
HETATM   22  H   UNL     1     -13.202  14.429  68.495  1.00  0.00     0.000 HD 
BRANCH  21  23
HETATM   23  S   UNL     1     -12.729  15.009  70.749  1.00  0.00    -0.396 S  
HETATM   24  O   UNL     1     -12.069  16.207  71.210  1.00  0.00    -0.414 OA 
HETATM   25  N   UNL     1     -11.749  13.747  71.157  1.00  0.00    -0.352 N  
HETATM   26  O   UNL     1     -14.084  14.664  71.081  1.00  0.00    -0.351 OA 
HETATM   27  H2  UNL     1     -11.199  13.108  70.583  1.00  0.00     0.000 HD 
HETATM   28  H1  UNL     1     -11.871  13.809  72.168  1.00  0.00     0.000 HD 
ENDBRANCH  21  23
ENDBRANCH  20  21
ENDBRANCH  18  20
ENDBRANCH  13  14
ENDBRANCH   3  13
BRANCH  10  29
HETATM   29  C   UNL     1     -10.072   5.435  69.911  1.00  0.00    -0.252 C  
HETATM   30  H   UNL     1      -8.360   5.053  70.711  1.00  0.00     0.000 HD 
HETATM   31  O   UNL     1      -8.918   5.821  70.659  1.00  0.00    -0.137 OA 
HETATM   32  C   UNL     1      -9.645   4.960  68.532  1.00  0.00    -0.210 C  
ENDBRANCH  10  29
TORSDOF 6
ENDMDL
MODEL       24
REMARK 921   NORMALIZED FREE ENERGY PREDICTED BY IDOCK:   -6.40 KCAL/MOL
REMARK 922        TOTAL FREE ENERGY PREDICTED BY IDOCK:   -9.53 KCAL/MOL
REMARK 923 INTER-LIGAND FREE ENERGY PREDICTED BY IDOCK:   -8.84 KCAL/MOL
REMARK 924 INTRA-LIGAND FREE ENERGY PREDICTED BY IDOCK:   -0.69 KCAL/MOL
REMARK 927      BINDING AFFINITY PREDICTED BY RF-SCORE:    0.00 PKD
ROOT
HETATM    1  C   UNL     1     -10.817   7.336  70.854  1.00  0.00    -0.243 C  
HETATM    2  C   UNL     1     -10.155   8.721  70.802  1.00  0.00    -0.261 C  
HETATM    3  C   UNL     1     -10.032   8.963  69.313  1.00  0.00    -0.192 C  
HETATM    4  C   UNL     1      -8.863   8.728  71.611  1.00  0.00    -0.278 C  
HETATM    5  O   UNL     1     -10.652   6.516  66.659  1.00  0.00    -0.230 OA 
HETATM    6  C   UNL     1     -10.524   7.919  68.611  1.00  0.00    -0.167 C  
HETATM    7  N   UNL     1     -11.065   6.944  69.438  1.00  0.00    -0.231 N  
HETATM    8  O   UNL     1     -10.289   4.872  68.718  1.00  0.00    -0.108 OA 
HETATM    9  C   UNL     1     -10.542   7.783  67.115  1.00  0.00    -0.331 C  
HETATM   10  C   UNL     1     -10.053   5.982  71.008  1.00  0.00    -0.241 C  
HETATM   11  O   UNL     1     -10.498   8.724  66.338  1.00  0.00    -0.216 OA 
HETATM   12  C   UNL     1     -10.499   5.706  69.568  1.00  0.00    -0.302 C  
ENDROOT
BRANCH   3  13
HETATM   13  S   UNL     1      -9.278  10.357  68.636  1.00  0.00    -0.172 SA 
BRANCH  13  14
HETATM   14  C   UNL     1     -10.348  11.772  69.075  1.00  0.00    -0.059 C  
HETATM   15  N   UNL     1     -12.030  11.947  67.389  1.00  0.00    -0.601 NA 
HETATM   16  C   UNL     1     -11.844  11.616  68.801  1.00  0.00    -0.325 C  
HETATM   17  C   UNL     1      -9.971  12.953  68.173  1.00  0.00    -0.234 C  
HETATM   18  C   UNL     1     -11.063  13.030  67.100  1.00  0.00    -0.273 C  
HETATM   19  H   UNL     1     -12.993  12.184  67.148  1.00  0.00     0.000 HD 
BRANCH  18  20
HETATM   20  C   UNL     1     -10.551  12.910  65.648  1.00  0.00    -0.277 C  
BRANCH  20  21
HETATM   21  N   UNL     1     -10.638  14.242  64.953  1.00  0.00    -0.417 N  
HETATM   22  H   UNL     1      -9.831  14.855  64.847  1.00  0.00     0.000 HD 
BRANCH  21  23
HETATM   23  S   UNL     1     -12.148  14.648  64.366  1.00  0.00    -0.385 S  
HETATM   24  O   UNL     1     -13.137  14.192  65.312  1.00  0.00    -0.763 OA 
HETATM   25  N   UNL     1     -12.177  13.584  63.106  1.00  0.00    -0.999 N  
HETATM   26  O   UNL     1     -12.101  15.984  63.838  1.00  0.00    -0.880 OA 
HETATM   27  H2  UNL     1     -11.493  12.898  62.787  1.00  0.00     0.000 HD 
HETATM   28  H1  UNL     1     -13.099  13.832  62.747  1.00  0.00     0.000 HD 
ENDBRANCH  21  23
ENDBRANCH  20  21
ENDBRANCH  18  20
ENDBRANCH  13  14
ENDBRANCH   3  13
BRANCH  10  29
HETATM   29  C   UNL     1     -10.579   5.105  72.126  1.00  0.00    -0.211 C  
HETATM   30  H   UNL     1     -11.209   5.424  73.920  1.00  0.00     0.000 HD 
HETATM   31  O   UNL     1     -10.880   5.974  73.219  1.00  0.00    -0.254 OA 
HETATM   32  C   UNL     1      -9.545   4.081  72.565  1.00  0.00    -0.189 C  
ENDBRANCH  10  29
TORSDOF 6
ENDMDL
MODEL       25
REMARK 921   NORMALIZED FREE ENERGY PREDICTED BY IDOCK:   -6.35 KCAL/MOL
REMARK 922        TOTAL FREE ENERGY PREDICTED BY IDOCK:   -9.47 KCAL/MOL
REMARK 923 INTER-LIGAND FREE ENERGY PREDICTED BY IDOCK:   -8.24 KCAL/MOL
REMARK 924 INTRA-LIGAND FREE ENERGY PREDICTED BY IDOCK:   -1.22 KCAL/MOL
REMARK 927      BINDING AFFINITY PREDICTED BY RF-SCORE:    0.00 PKD
ROOT
HETATM    1  C   UNL     1      -9.878   8.354  70.339  1.00  0.00    -0.181 C  
HETATM    2  C   UNL     1     -11.006   9.220  69.761  1.00  0.00    -0.213 C  
HETATM    3  C   UNL     1     -10.286  10.020  68.697  1.00  0.00    -0.190 C  
HETATM    4  C   UNL     1     -11.696  10.009  70.868  1.00  0.00    -0.462 C  
HETATM    5  O   UNL     1      -6.664  10.164  68.173  1.00  0.00    -0.061 OA 
HETATM    6  C   UNL     1      -8.976   9.694  68.653  1.00  0.00    -0.129 C  
HETATM    7  N   UNL     1      -8.661   8.675  69.542  1.00  0.00    -0.137 N  
HETATM    8  O   UNL     1      -6.726   9.282  70.681  1.00  0.00    -0.064 OA 
HETATM    9  C   UNL     1      -7.940  10.301  67.750  1.00  0.00    -0.102 C  
HETATM   10  C   UNL     1      -9.037   8.705  71.608  1.00  0.00    -0.318 C  
HETATM   11  O   UNL     1      -8.188  10.855  66.690  1.00  0.00    -0.134 OA 
HETATM   12  C   UNL     1      -7.867   8.885  70.635  1.00  0.00    -0.115 C  
ENDROOT
BRANCH   3  13
HETATM   13  S   UNL     1     -11.047  11.240  67.747  1.00  0.00    -0.291 SA 
BRANCH  13  14
HETATM   14  C   UNL     1     -10.767  12.814  68.631  1.00  0.00    -0.246 C  
HETATM   15  N   UNL     1     -12.209  14.449  67.655  1.00  0.00    -0.623 NA 
HETATM   16  C   UNL     1     -11.995  13.690  68.886  1.00  0.00    -0.356 C  
HETATM   17  C   UNL     1      -9.903  13.715  67.741  1.00  0.00    -0.232 C  
HETATM   18  C   UNL     1     -10.859  14.742  67.124  1.00  0.00    -0.311 C  
HETATM   19  H   UNL     1     -12.788  15.279  67.782  1.00  0.00     0.000 HD 
BRANCH  18  20
HETATM   20  C   UNL     1     -10.886  14.753  65.580  1.00  0.00    -0.339 C  
BRANCH  20  21
HETATM   21  N   UNL     1     -10.748  13.354  65.046  1.00  0.00    -0.324 N  
HETATM   22  H   UNL     1      -9.912  12.791  65.204  1.00  0.00     0.000 HD 
BRANCH  21  23
HETATM   23  S   UNL     1     -12.054  12.785  64.176  1.00  0.00    -0.464 S  
HETATM   24  O   UNL     1     -11.574  11.804  63.232  1.00  0.00    -0.366 OA 
HETATM   25  N   UNL     1     -12.349  14.160  63.315  1.00  0.00    -1.133 N  
HETATM   26  O   UNL     1     -13.153  12.561  65.074  1.00  0.00    -0.765 OA 
HETATM   27  H2  UNL     1     -11.884  15.068  63.314  1.00  0.00     0.000 HD 
HETATM   28  H1  UNL     1     -13.147  13.812  62.783  1.00  0.00     0.000 HD 
ENDBRANCH  21  23
ENDBRANCH  20  21
ENDBRANCH  18  20
ENDBRANCH  13  14
ENDBRANCH   3  13
BRANCH  10  29
HETATM   29  C   UNL     1      -8.981   7.592  72.635  1.00  0.00    -0.154 C  
HETATM   30  H   UNL     1      -8.763   5.679  72.552  1.00  0.00     0.000 HD 
HETATM   31  O   UNL     1      -8.798   6.376  71.908  1.00  0.00    -0.138 OA 
HETATM   32  C   UNL     1     -10.267   7.511  73.441  1.00  0.00    -0.399 C  
ENDBRANCH  10  29
TORSDOF 6
ENDMDL
MODEL       26
REMARK 921   NORMALIZED FREE ENERGY PREDICTED BY IDOCK:   -6.33 KCAL/MOL
REMARK 922        TOTAL FREE ENERGY PREDICTED BY IDOCK:   -9.44 KCAL/MOL
REMARK 923 INTER-LIGAND FREE ENERGY PREDICTED BY IDOCK:   -8.58 KCAL/MOL
REMARK 924 INTRA-LIGAND FREE ENERGY PREDICTED BY IDOCK:   -0.85 KCAL/MOL
REMARK 927      BINDING AFFINITY PREDICTED BY RF-SCORE:    0.00 PKD
ROOT
HETATM    1  C   UNL     1     -11.869  10.605  69.016  1.00  0.00    -0.185 C  
HETATM    2  C   UNL     1     -11.336  11.553  67.933  1.00  0.00    -0.372 C  
HETATM    3  C   UNL     1      -9.951  11.001  67.673  1.00  0.00    -0.173 C  
HETATM    4  C   UNL     1     -11.425  13.002  68.398  1.00  0.00    -0.345 C  
HETATM    5  O   UNL     1      -8.240   8.427  69.640  1.00  0.00    -0.113 OA 
HETATM    6  C   UNL     1      -9.704   9.929  68.457  1.00  0.00    -0.154 C  
HETATM    7  N   UNL     1     -10.803   9.586  69.234  1.00  0.00    -0.218 N  
HETATM    8  O   UNL     1     -10.064   9.213  71.408  1.00  0.00    -0.305 OA 
HETATM    9  C   UNL     1      -8.427   9.139  68.507  1.00  0.00    -0.128 C  
HETATM   10  C   UNL     1     -11.808  10.875  70.553  1.00  0.00    -0.457 C  
HETATM   11  O   UNL     1      -7.612   9.091  67.598  1.00  0.00    -0.091 OA 
HETATM   12  C   UNL     1     -10.801   9.721  70.595  1.00  0.00    -0.329 C  
ENDROOT
BRANCH   3  13
HETATM   13  S   UNL     1      -8.829  11.721  66.581  1.00  0.00    -0.181 SA 
BRANCH  13  14
HETATM   14  C   UNL     1      -8.816  10.655  65.097  1.00  0.00    -0.193 C  
HETATM   15  N   UNL     1      -9.514  11.996  63.248  1.00  0.00    -0.667 NA 
HETATM   16  C   UNL     1      -8.349  11.299  63.791  1.00  0.00     0.555 C  
HETATM   17  C   UNL     1     -10.264  10.271  64.773  1.00  0.00    -0.238 C  
HETATM   18  C   UNL     1     -10.682  11.155  63.593  1.00  0.00    -0.308 C  
HETATM   19  H   UNL     1      -9.438  12.204  62.252  1.00  0.00     0.000 HD 
BRANCH  18  20
HETATM   20  C   UNL     1     -11.917  12.043  63.856  1.00  0.00    -0.443 C  
BRANCH  20  21
HETATM   21  N   UNL     1     -11.661  13.446  63.378  1.00  0.00    -0.713 N  
HETATM   22  H   UNL     1     -11.329  13.648  62.435  1.00  0.00     0.000 HD 
BRANCH  21  23
HETATM   23  S   UNL     1     -11.959  14.651  64.495  1.00  0.00    -0.422 S  
HETATM   24  O   UNL     1     -10.799  14.776  65.344  1.00  0.00    -0.318 OA 
HETATM   25  N   UNL     1     -13.101  13.848  65.373  1.00  0.00    -0.740 N  
HETATM   26  O   UNL     1     -12.587  15.761  63.831  1.00  0.00    -0.705 OA 
HETATM   27  H2  UNL     1     -13.498  12.915  65.268  1.00  0.00     0.000 HD 
HETATM   28  H1  UNL     1     -13.282  14.584  66.055  1.00  0.00     0.000 HD 
ENDBRANCH  21  23
ENDBRANCH  20  21
ENDBRANCH  18  20
ENDBRANCH  13  14
ENDBRANCH   3  13
BRANCH  10  29
HETATM   29  C   UNL     1     -13.141  10.719  71.257  1.00  0.00    -0.330 C  
HETATM   30  H   UNL     1     -14.169  11.805  72.474  1.00  0.00     0.000 HD 
HETATM   31  O   UNL     1     -13.333  11.903  72.033  1.00  0.00    -0.487 OA 
HETATM   32  C   UNL     1     -13.150   9.507  72.175  1.00  0.00    -0.522 C  
ENDBRANCH  10  29
TORSDOF 6
ENDMDL
MODEL       27
REMARK 921   NORMALIZED FREE ENERGY PREDICTED BY IDOCK:   -6.30 KCAL/MOL
REMARK 922        TOTAL FREE ENERGY PREDICTED BY IDOCK:   -9.39 KCAL/MOL
REMARK 923 INTER-LIGAND FREE ENERGY PREDICTED BY IDOCK:   -8.56 KCAL/MOL
REMARK 924 INTRA-LIGAND FREE ENERGY PREDICTED BY IDOCK:   -0.83 KCAL/MOL
REMARK 927      BINDING AFFINITY PREDICTED BY RF-SCORE:    0.00 PKD
ROOT
HETATM    1  C   UNL     1      -9.390   7.921  71.536  1.00  0.00    -0.143 C  
HETATM    2  C   UNL     1      -8.575   8.619  70.438  1.00  0.00    -0.160 C  
HETATM    3  C   UNL     1      -9.459   9.794  70.079  1.00  0.00    -0.238 C  
HETATM    4  C   UNL     1      -8.238   7.641  69.317  1.00  0.00    -0.133 C  
HETATM    5  O   UNL     1     -12.899  10.345  71.210  1.00  0.00    -0.365 OA 
HETATM    6  C   UNL     1     -10.588   9.793  70.820  1.00  0.00    -0.301 C  
HETATM    7  N   UNL     1     -10.601   8.761  71.749  1.00  0.00    -0.320 N  
HETATM    8  O   UNL     1     -12.686   7.732  71.658  1.00  0.00    -0.318 OA 
HETATM    9  C   UNL     1     -11.716  10.780  70.722  1.00  0.00    -0.298 C  
HETATM   10  C   UNL     1     -10.364   6.722  71.305  1.00  0.00    -0.225 C  
HETATM   11  O   UNL     1     -11.605  11.911  70.274  1.00  0.00    -0.249 OA 
HETATM   12  C   UNL     1     -11.476   7.714  71.660  1.00  0.00    -0.260 C  
ENDROOT
BRANCH   3  13
HETATM   13  S   UNL     1      -9.087  10.915  68.824  1.00  0.00    -0.149 SA 
BRANCH  13  14
HETATM   14  C   UNL     1      -9.870  10.256  67.311  1.00  0.00    -0.182 C  
HETATM   15  N   UNL     1      -8.900  11.395  65.449  1.00  0.00    -0.385 NA 
HETATM   16  C   UNL     1      -8.969  10.082  66.087  1.00  0.00    -0.149 C  
HETATM   17  C   UNL     1     -10.895  11.284  66.818  1.00  0.00    -0.334 C  
HETATM   18  C   UNL     1     -10.238  12.001  65.634  1.00  0.00    -0.252 C  
HETATM   19  H   UNL     1      -8.597  11.361  64.476  1.00  0.00     0.000 HD 
BRANCH  18  20
HETATM   20  C   UNL     1     -10.110  13.531  65.796  1.00  0.00    -0.287 C  
BRANCH  20  21
HETATM   21  N   UNL     1     -10.469  14.224  64.510  1.00  0.00    -0.568 N  
HETATM   22  H   UNL     1      -9.767  14.493  63.821  1.00  0.00     0.000 HD 
BRANCH  21  23
HETATM   23  S   UNL     1     -12.096  14.524  64.286  1.00  0.00    -0.332 S  
HETATM   24  O   UNL     1     -12.810  14.022  65.435  1.00  0.00    -0.658 OA 
HETATM   25  N   UNL     1     -12.345  13.441  63.067  1.00  0.00    -0.945 N  
HETATM   26  O   UNL     1     -12.260  15.852  63.759  1.00  0.00    -0.817 OA 
HETATM   27  H2  UNL     1     -11.709  12.794  62.600  1.00  0.00     0.000 HD 
HETATM   28  H1  UNL     1     -13.338  13.624  62.931  1.00  0.00     0.000 HD 
ENDBRANCH  21  23
ENDBRANCH  20  21
ENDBRANCH  18  20
ENDBRANCH  13  14
ENDBRANCH   3  13
BRANCH  10  29
HETATM   29  C   UNL     1     -10.110   5.539  72.217  1.00  0.00    -0.183 C  
HETATM   30  H   UNL     1      -8.691   5.032  73.419  1.00  0.00     0.000 HD 
HETATM   31  O   UNL     1      -8.850   5.774  72.847  1.00  0.00    -0.125 OA 
HETATM   32  C   UNL     1     -10.051   4.235  71.438  1.00  0.00    -0.187 C  
ENDBRANCH  10  29
TORSDOF 6
ENDMDL
MODEL       28
REMARK 921   NORMALIZED FREE ENERGY PREDICTED BY IDOCK:   -6.30 KCAL/MOL
REMARK 922        TOTAL FREE ENERGY PREDICTED BY IDOCK:   -9.39 KCAL/MOL
REMARK 923 INTER-LIGAND FREE ENERGY PREDICTED BY IDOCK:   -8.63 KCAL/MOL
REMARK 924 INTRA-LIGAND FREE ENERGY PREDICTED BY IDOCK:   -0.76 KCAL/MOL
REMARK 927      BINDING AFFINITY PREDICTED BY RF-SCORE:    0.00 PKD
ROOT
HETATM    1  C   UNL     1      -9.164  15.392  66.422  1.00  0.00    -0.305 C  
HETATM    2  C   UNL     1      -9.543  14.357  67.491  1.00  0.00    -0.215 C  
HETATM    3  C   UNL     1     -10.761  13.697  66.882  1.00  0.00    -0.275 C  
HETATM    4  C   UNL     1      -9.728  15.030  68.846  1.00  0.00    -0.224 C  
HETATM    5  O   UNL     1     -12.567  14.810  63.896  1.00  0.00    -0.834 OA 
HETATM    6  C   UNL     1     -11.054  14.239  65.680  1.00  0.00    -0.316 C  
HETATM    7  N   UNL     1     -10.127  15.201  65.302  1.00  0.00    -0.347 N  
HETATM    8  O   UNL     1     -11.291  17.059  64.521  1.00  0.00    -1.035 OA 
HETATM    9  C   UNL     1     -12.210  13.868  64.796  1.00  0.00    -0.415 C  
HETATM   10  C   UNL     1      -9.600  16.892  66.432  1.00  0.00    -0.305 C  
HETATM   11  O   UNL     1     -12.788  12.792  64.834  1.00  0.00    -0.722 OA 
HETATM   12  C   UNL     1     -10.452  16.527  65.212  1.00  0.00    -0.213 C  
ENDROOT
BRANCH   3  13
HETATM   13  S   UNL     1     -11.682  12.479  67.682  1.00  0.00    -0.325 SA 
BRANCH  13  14
HETATM   14  C   UNL     1     -11.028  10.881  67.086  1.00  0.00    -0.272 C  
HETATM   15  N   UNL     1      -9.256  10.241  68.555  1.00  0.00    -0.139 NA 
HETATM   16  C   UNL     1     -10.611   9.866  68.152  1.00  0.00    -0.227 C  
HETATM   17  C   UNL     1      -9.707  11.148  66.355  1.00  0.00    -0.235 C  
HETATM   18  C   UNL     1      -8.596  10.737  67.327  1.00  0.00    -0.130 C  
HETATM   19  H   UNL     1      -8.746   9.490  69.019  1.00  0.00     0.000 HD 
BRANCH  18  20
HETATM   20  C   UNL     1      -7.598  11.861  67.678  1.00  0.00    -0.136 C  
BRANCH  20  21
HETATM   21  N   UNL     1      -7.581  12.098  69.164  1.00  0.00    -0.336 N  
HETATM   22  H   UNL     1      -8.387  11.899  69.756  1.00  0.00     0.000 HD 
BRANCH  21  23
HETATM   23  S   UNL     1      -6.154  12.710  69.778  1.00  0.00    -0.117 S  
HETATM   24  O   UNL     1      -5.771  11.906  70.913  1.00  0.00    -0.312 OA 
HETATM   25  N   UNL     1      -6.770  14.115  70.383  1.00  0.00    -0.409 N  
HETATM   26  O   UNL     1      -5.273  13.027  68.687  1.00  0.00    -0.063 OA 
HETATM   27  H2  UNL     1      -7.718  14.491  70.383  1.00  0.00     0.000 HD 
HETATM   28  H1  UNL     1      -5.898  14.488  70.758  1.00  0.00     0.000 HD 
ENDBRANCH  21  23
ENDBRANCH  20  21
ENDBRANCH  18  20
ENDBRANCH  13  14
ENDBRANCH   3  13
BRANCH  10  29
HETATM   29  C   UNL     1      -8.452  17.867  66.267  1.00  0.00    -0.185 C  
HETATM   30  H   UNL     1      -6.612  17.717  65.712  1.00  0.00     0.000 HD 
HETATM   31  O   UNL     1      -7.332  17.105  65.815  1.00  0.00    -0.280 OA 
HETATM   32  C   UNL     1      -8.104  18.548  67.580  1.00  0.00    -0.262 C  
ENDBRANCH  10  29
TORSDOF 6
ENDMDL
MODEL       29
REMARK 921   NORMALIZED FREE ENERGY PREDICTED BY IDOCK:   -6.26 KCAL/MOL
REMARK 922        TOTAL FREE ENERGY PREDICTED BY IDOCK:   -9.35 KCAL/MOL
REMARK 923 INTER-LIGAND FREE ENERGY PREDICTED BY IDOCK:   -8.65 KCAL/MOL
REMARK 924 INTRA-LIGAND FREE ENERGY PREDICTED BY IDOCK:   -0.70 KCAL/MOL
REMARK 927      BINDING AFFINITY PREDICTED BY RF-SCORE:    0.00 PKD
ROOT
HETATM    1  C   UNL     1      -9.617  15.247  65.952  1.00  0.00    -0.342 C  
HETATM    2  C   UNL     1      -9.566  13.974  66.809  1.00  0.00    -0.293 C  
HETATM    3  C   UNL     1     -10.353  12.989  65.971  1.00  0.00    -0.285 C  
HETATM    4  C   UNL     1     -10.086  14.254  68.214  1.00  0.00    -0.238 C  
HETATM    5  O   UNL     1     -12.316  13.770  62.979  1.00  0.00    -0.661 OA 
HETATM    6  C   UNL     1     -10.792  13.567  64.832  1.00  0.00    -0.362 C  
HETATM    7  N   UNL     1     -10.351  14.878  64.709  1.00  0.00    -0.304 N  
HETATM    8  O   UNL     1     -12.160  16.193  64.066  1.00  0.00    -0.889 OA 
HETATM    9  C   UNL     1     -11.633  12.915  63.772  1.00  0.00    -0.475 C  
HETATM   10  C   UNL     1     -10.655  16.402  66.122  1.00  0.00    -0.259 C  
HETATM   11  O   UNL     1     -11.695  11.710  63.587  1.00  0.00    -0.420 OA 
HETATM   12  C   UNL     1     -11.208  15.942  64.769  1.00  0.00    -0.355 C  
ENDROOT
BRANCH   3  13
HETATM   13  S   UNL     1     -10.699  11.378  66.473  1.00  0.00    -0.276 SA 
BRANCH  13  14
HETATM   14  C   UNL     1      -9.325  10.885  67.572  1.00  0.00    -0.154 C  
HETATM   15  N   UNL     1      -7.874   9.467  66.311  1.00  0.00    -0.100 NA 
HETATM   16  C   UNL     1      -7.937  10.786  66.938  1.00  0.00    -0.133 C  
HETATM   17  C   UNL     1      -9.576   9.445  68.035  1.00  0.00    -0.156 C  
HETATM   18  C   UNL     1      -8.640   8.564  67.201  1.00  0.00    -0.122 C  
HETATM   19  H   UNL     1      -6.924   9.148  66.124  1.00  0.00     0.000 HD 
BRANCH  18  20
HETATM   20  C   UNL     1      -9.349   7.475  66.368  1.00  0.00    -0.157 C  
BRANCH  20  21
HETATM   21  N   UNL     1      -8.944   6.107  66.845  1.00  0.00    -0.116 N  
HETATM   22  H   UNL     1      -7.976   5.786  66.819  1.00  0.00     0.000 HD 
BRANCH  21  23
HETATM   23  S   UNL     1     -10.186   5.149  67.418  1.00  0.00    -0.145 S  
HETATM   24  O   UNL     1      -9.707   3.790  67.497  1.00  0.00    -0.186 OA 
HETATM   25  N   UNL     1     -11.150   5.232  66.083  1.00  0.00    -0.761 N  
HETATM   26  O   UNL     1     -10.841   5.831  68.501  1.00  0.00    -0.247 OA 
HETATM   27  H2  UNL     1     -11.028   5.714  65.192  1.00  0.00     0.000 HD 
HETATM   28  H1  UNL     1     -11.908   4.647  66.433  1.00  0.00     0.000 HD 
ENDBRANCH  21  23
ENDBRANCH  20  21
ENDBRANCH  18  20
ENDBRANCH  13  14
ENDBRANCH   3  13
BRANCH  10  29
HETATM   29  C   UNL     1     -10.030  17.777  66.236  1.00  0.00    -0.318 C  
HETATM   30  H   UNL     1      -8.264  18.494  65.948  1.00  0.00     0.000 HD 
HETATM   31  O   UNL     1      -8.655  17.631  65.876  1.00  0.00    -0.526 OA 
HETATM   32  C   UNL     1     -10.126  18.319  67.653  1.00  0.00    -0.368 C  
ENDBRANCH  10  29
TORSDOF 6
ENDMDL
MODEL       30
REMARK 921   NORMALIZED FREE ENERGY PREDICTED BY IDOCK:   -6.26 KCAL/MOL
REMARK 922        TOTAL FREE ENERGY PREDICTED BY IDOCK:   -9.34 KCAL/MOL
REMARK 923 INTER-LIGAND FREE ENERGY PREDICTED BY IDOCK:   -8.16 KCAL/MOL
REMARK 924 INTRA-LIGAND FREE ENERGY PREDICTED BY IDOCK:   -1.18 KCAL/MOL
REMARK 927      BINDING AFFINITY PREDICTED BY RF-SCORE:    0.00 PKD
ROOT
HETATM    1  C   UNL     1     -10.156   7.729  69.585  1.00  0.00    -0.196 C  
HETATM    2  C   UNL     1     -10.142   8.675  68.376  1.00  0.00    -0.217 C  
HETATM    3  C   UNL     1     -10.954   9.850  68.876  1.00  0.00    -0.179 C  
HETATM    4  C   UNL     1     -10.657   7.961  67.131  1.00  0.00    -0.383 C  
HETATM    5  O   UNL     1     -12.890   9.982  71.983  1.00  0.00    -0.408 OA 
HETATM    6  C   UNL     1     -11.376   9.641  70.143  1.00  0.00    -0.227 C  
HETATM    7  N   UNL     1     -10.898   8.445  70.661  1.00  0.00    -0.227 N  
HETATM    8  O   UNL     1     -12.668   7.347  71.697  1.00  0.00    -0.338 OA 
HETATM    9  C   UNL     1     -12.233  10.567  70.958  1.00  0.00    -0.400 C  
HETATM   10  C   UNL     1     -11.162   6.551  69.791  1.00  0.00    -0.456 C  
HETATM   11  O   UNL     1     -12.328  11.769  70.762  1.00  0.00    -0.374 OA 
HETATM   12  C   UNL     1     -11.725   7.393  70.941  1.00  0.00    -0.296 C  
ENDROOT
BRANCH   3  13
HETATM   13  S   UNL     1     -11.346  11.217  67.904  1.00  0.00    -0.294 SA 
BRANCH  13  14
HETATM   14  C   UNL     1     -10.251  11.129  66.445  1.00  0.00    -0.233 C  
HETATM   15  N   UNL     1      -8.907  13.104  66.438  1.00  0.00    -0.440 NA 
HETATM   16  C   UNL     1      -8.825  11.655  66.620  1.00  0.00    -0.187 C  
HETATM   17  C   UNL     1     -10.814  12.064  65.367  1.00  0.00    -0.336 C  
HETATM   18  C   UNL     1      -9.938  13.320  65.398  1.00  0.00    -0.189 C  
HETATM   19  H   UNL     1      -8.011  13.540  66.223  1.00  0.00     0.000 HD 
BRANCH  18  20
HETATM   20  C   UNL     1     -10.702  14.633  65.673  1.00  0.00    -0.332 C  
BRANCH  20  21
HETATM   21  N   UNL     1     -11.638  14.458  66.838  1.00  0.00    -0.373 N  
HETATM   22  H   UNL     1     -12.517  13.948  66.758  1.00  0.00     0.000 HD 
BRANCH  21  23
HETATM   23  S   UNL     1     -11.141  15.157  68.270  1.00  0.00    -0.305 S  
HETATM   24  O   UNL     1      -9.931  14.497  68.698  1.00  0.00    -0.227 OA 
HETATM   25  N   UNL     1     -12.356  14.575  69.222  1.00  0.00    -0.561 N  
HETATM   26  O   UNL     1     -11.281  16.584  68.169  1.00  0.00    -0.341 OA 
HETATM   27  H2  UNL     1     -13.154  13.979  69.005  1.00  0.00     0.000 HD 
HETATM   28  H1  UNL     1     -12.052  15.002  70.097  1.00  0.00     0.000 HD 
ENDBRANCH  21  23
ENDBRANCH  20  21
ENDBRANCH  18  20
ENDBRANCH  13  14
ENDBRANCH   3  13
BRANCH  10  29
HETATM   29  C   UNL     1     -10.499   5.225  70.102  1.00  0.00    -0.268 C  
HETATM   30  H   UNL     1      -9.630   4.470  71.648  1.00  0.00     0.000 HD 
HETATM   31  O   UNL     1     -10.046   5.302  71.454  1.00  0.00    -0.187 OA 
HETATM   32  C   UNL     1      -9.314   4.964  69.186  1.00  0.00    -0.184 C  
ENDBRANCH  10  29
TORSDOF 6
ENDMDL
MODEL       31
REMARK 921   NORMALIZED FREE ENERGY PREDICTED BY IDOCK:   -6.26 KCAL/MOL
REMARK 922        TOTAL FREE ENERGY PREDICTED BY IDOCK:   -9.33 KCAL/MOL
REMARK 923 INTER-LIGAND FREE ENERGY PREDICTED BY IDOCK:   -7.89 KCAL/MOL
REMARK 924 INTRA-LIGAND FREE ENERGY PREDICTED BY IDOCK:   -1.44 KCAL/MOL
REMARK 927      BINDING AFFINITY PREDICTED BY RF-SCORE:    0.00 PKD
ROOT
HETATM    1  C   UNL     1      -9.679   9.792  69.975  1.00  0.00    -0.250 C  
HETATM    2  C   UNL     1      -8.559   9.496  68.967  1.00  0.00    -0.133 C  
HETATM    3  C   UNL     1      -8.668  10.665  68.012  1.00  0.00    -0.126 C  
HETATM    4  C   UNL     1      -8.727   8.102  68.374  1.00  0.00    -0.134 C  
HETATM    5  O   UNL     1     -11.356  13.152  67.926  1.00  0.00    -0.255 OA 
HETATM    6  C   UNL     1      -9.667  11.497  68.379  1.00  0.00    -0.202 C  
HETATM    7  N   UNL     1     -10.274  11.094  69.561  1.00  0.00    -0.016 N  
HETATM    8  O   UNL     1     -12.579  11.206  69.264  1.00  0.00    -0.336 OA 
HETATM    9  C   UNL     1     -10.097  12.742  67.656  1.00  0.00    -0.220 C  
HETATM   10  C   UNL     1     -11.125   9.205  69.907  1.00  0.00    -0.175 C  
HETATM   11  O   UNL     1      -9.381  13.382  66.902  1.00  0.00    -0.237 OA 
HETATM   12  C   UNL     1     -11.564  10.640  69.596  1.00  0.00    -0.296 C  
ENDROOT
BRANCH   3  13
HETATM   13  S   UNL     1      -7.691  10.835  66.602  1.00  0.00    -0.147 SA 
BRANCH  13  14
HETATM   14  C   UNL     1      -8.406   9.707  65.355  1.00  0.00    -0.141 C  
HETATM   15  N   UNL     1      -8.329  10.831  63.249  1.00  0.00    -0.345 NA 
HETATM   16  C   UNL     1      -7.749   9.702  63.974  1.00  0.00    -0.128 C  
HETATM   17  C   UNL     1      -9.828  10.186  65.038  1.00  0.00    -0.392 C  
HETATM   18  C   UNL     1      -9.740  10.909  63.690  1.00  0.00    -0.329 C  
HETATM   19  H   UNL     1      -8.220  10.765  62.237  1.00  0.00     0.000 HD 
BRANCH  18  20
HETATM   20  C   UNL     1     -10.208  12.380  63.714  1.00  0.00    -0.377 C  
BRANCH  20  21
HETATM   21  N   UNL     1     -11.407  12.531  64.610  1.00  0.00    -0.306 N  
HETATM   22  H   UNL     1     -11.737  11.777  65.211  1.00  0.00     0.000 HD 
BRANCH  21  23
HETATM   23  S   UNL     1     -12.163  14.019  64.552  1.00  0.00    -0.411 S  
HETATM   24  O   UNL     1     -13.370  13.942  65.339  1.00  0.00    -0.710 OA 
HETATM   25  N   UNL     1     -12.627  13.960  62.971  1.00  0.00    -0.908 N  
HETATM   26  O   UNL     1     -11.175  15.052  64.702  1.00  0.00    -0.374 OA 
HETATM   27  H2  UNL     1     -12.495  13.244  62.257  1.00  0.00     0.000 HD 
HETATM   28  H1  UNL     1     -13.088  14.869  62.936  1.00  0.00     0.000 HD 
ENDBRANCH  21  23
ENDBRANCH  20  21
ENDBRANCH  18  20
ENDBRANCH  13  14
ENDBRANCH   3  13
BRANCH  10  29
HETATM   29  C   UNL     1     -11.585   8.554  71.196  1.00  0.00    -0.281 C  
HETATM   30  H   UNL     1     -12.520   9.165  72.767  1.00  0.00     0.000 HD 
HETATM   31  O   UNL     1     -12.232   9.574  71.959  1.00  0.00    -0.358 OA 
HETATM   32  C   UNL     1     -10.414   7.996  71.989  1.00  0.00    -0.308 C  
ENDBRANCH  10  29
TORSDOF 6
ENDMDL
MODEL       32
REMARK 921   NORMALIZED FREE ENERGY PREDICTED BY IDOCK:   -6.24 KCAL/MOL
REMARK 922        TOTAL FREE ENERGY PREDICTED BY IDOCK:   -9.31 KCAL/MOL
REMARK 923 INTER-LIGAND FREE ENERGY PREDICTED BY IDOCK:   -8.29 KCAL/MOL
REMARK 924 INTRA-LIGAND FREE ENERGY PREDICTED BY IDOCK:   -1.02 KCAL/MOL
REMARK 927      BINDING AFFINITY PREDICTED BY RF-SCORE:    0.00 PKD
ROOT
HETATM    1  C   UNL     1      -7.655  18.994  67.311  1.00  0.00    -0.229 C  
HETATM    2  C   UNL     1      -8.989  18.520  67.905  1.00  0.00    -0.300 C  
HETATM    3  C   UNL     1      -8.600  17.219  68.573  1.00  0.00    -0.270 C  
HETATM    4  C   UNL     1     -10.062  18.448  66.824  1.00  0.00    -0.391 C  
HETATM    5  O   UNL     1      -5.388  15.489  68.245  1.00  0.00    -0.096 OA 
HETATM    6  C   UNL     1      -7.284  16.965  68.404  1.00  0.00    -0.195 C  
HETATM    7  N   UNL     1      -6.637  17.990  67.727  1.00  0.00    -0.185 N  
HETATM    8  O   UNL     1      -5.294  17.036  66.083  1.00  0.00    -0.350 OA 
HETATM    9  C   UNL     1      -6.544  15.752  68.893  1.00  0.00    -0.119 C  
HETATM   10  C   UNL     1      -7.186  18.738  65.843  1.00  0.00    -0.270 C  
HETATM   11  O   UNL     1      -6.909  15.052  69.826  1.00  0.00    -0.167 OA 
HETATM   12  C   UNL     1      -6.130  17.821  66.468  1.00  0.00    -0.187 C  
ENDROOT
BRANCH   3  13
HETATM   13  S   UNL     1      -9.727  16.179  69.359  1.00  0.00    -0.176 SA 
BRANCH  13  14
HETATM   14  C   UNL     1     -10.249  14.960  68.102  1.00  0.00    -0.226 C  
HETATM   15  N   UNL     1     -12.523  14.390  68.559  1.00  0.00    -0.545 NA 
HETATM   16  C   UNL     1     -11.681  15.077  67.580  1.00  0.00    -0.262 C  
HETATM   17  C   UNL     1     -10.252  13.573  68.756  1.00  0.00    -0.139 C  
HETATM   18  C   UNL     1     -11.721  13.245  69.044  1.00  0.00    -0.322 C  
HETATM   19  H   UNL     1     -13.438  14.124  68.196  1.00  0.00     0.000 HD 
BRANCH  18  20
HETATM   20  C   UNL     1     -12.041  12.964  70.528  1.00  0.00    -0.282 C  
BRANCH  20  21
HETATM   21  N   UNL     1     -12.010  14.242  71.320  1.00  0.00    -0.442 N  
HETATM   22  H   UNL     1     -11.173  14.820  71.388  1.00  0.00     0.000 HD 
BRANCH  21  23
HETATM   23  S   UNL     1     -13.440  14.652  72.078  1.00  0.00    -0.425 S  
HETATM   24  O   UNL     1     -14.138  15.599  71.244  1.00  0.00    -0.560 OA 
HETATM   25  N   UNL     1     -12.781  15.515  73.320  1.00  0.00    -0.451 N  
HETATM   26  O   UNL     1     -14.042  13.463  72.616  1.00  0.00    -0.767 OA 
HETATM   27  H2  UNL     1     -11.811  15.730  73.550  1.00  0.00     0.000 HD 
HETATM   28  H1  UNL     1     -13.654  15.765  73.783  1.00  0.00     0.000 HD 
ENDBRANCH  21  23
ENDBRANCH  20  21
ENDBRANCH  18  20
ENDBRANCH  13  14
ENDBRANCH   3  13
BRANCH  10  29
HETATM   29  C   UNL     1      -6.741  19.989  65.113  1.00  0.00    -0.286 C  
HETATM   30  H   UNL     1      -5.759  20.338  63.491  1.00  0.00     0.000 HD 
HETATM   31  O   UNL     1      -6.038  19.553  63.948  1.00  0.00    -0.388 OA 
HETATM   32  C   UNL     1      -5.818  20.839  65.972  1.00  0.00    -0.261 C  
ENDBRANCH  10  29
TORSDOF 6
ENDMDL
MODEL       33
REMARK 921   NORMALIZED FREE ENERGY PREDICTED BY IDOCK:   -6.22 KCAL/MOL
REMARK 922        TOTAL FREE ENERGY PREDICTED BY IDOCK:   -9.29 KCAL/MOL
REMARK 923 INTER-LIGAND FREE ENERGY PREDICTED BY IDOCK:   -8.11 KCAL/MOL
REMARK 924 INTRA-LIGAND FREE ENERGY PREDICTED BY IDOCK:   -1.18 KCAL/MOL
REMARK 927      BINDING AFFINITY PREDICTED BY RF-SCORE:    0.00 PKD
ROOT
HETATM    1  C   UNL     1      -9.396  16.648  67.031  1.00  0.00    -0.224 C  
HETATM    2  C   UNL     1      -9.519  15.672  68.211  1.00  0.00    -0.200 C  
HETATM    3  C   UNL     1     -10.051  14.423  67.541  1.00  0.00    -0.232 C  
HETATM    4  C   UNL     1     -10.373  16.277  69.319  1.00  0.00    -0.277 C  
HETATM    5  O   UNL     1     -11.250  14.156  64.090  1.00  0.00    -0.241 OA 
HETATM    6  C   UNL     1     -10.217  14.620  66.215  1.00  0.00    -0.292 C  
HETATM    7  N   UNL     1      -9.795  15.882  65.818  1.00  0.00    -0.340 N  
HETATM    8  O   UNL     1     -11.430  16.787  64.432  1.00  0.00    -1.024 OA 
HETATM    9  C   UNL     1     -10.757  13.623  65.229  1.00  0.00    -0.336 C  
HETATM   10  C   UNL     1     -10.476  17.699  66.621  1.00  0.00    -0.286 C  
HETATM   11  O   UNL     1     -10.738  12.412  65.394  1.00  0.00    -0.268 OA 
HETATM   12  C   UNL     1     -10.671  16.833  65.372  1.00  0.00    -0.189 C  
ENDROOT
BRANCH   3  13
HETATM   13  S   UNL     1     -10.464  12.987  68.399  1.00  0.00    -0.249 SA 
BRANCH  13  14
HETATM   14  C   UNL     1      -8.891  12.104  68.690  1.00  0.00    -0.002 C  
HETATM   15  N   UNL     1      -8.206  11.158  66.606  1.00  0.00    -0.153 NA 
HETATM   16  C   UNL     1      -7.840  12.184  67.581  1.00  0.00    -0.153 C  
HETATM   17  C   UNL     1      -9.191  10.601  68.748  1.00  0.00    -0.182 C  
HETATM   18  C   UNL     1      -8.750  10.030  67.396  1.00  0.00    -0.125 C  
HETATM   19  H   UNL     1      -7.441  10.892  65.987  1.00  0.00     0.000 HD 
BRANCH  18  20
HETATM   20  C   UNL     1      -9.865   9.316  66.603  1.00  0.00    -0.245 C  
BRANCH  20  21
HETATM   21  N   UNL     1     -10.855   8.686  67.545  1.00  0.00    -0.486 N  
HETATM   22  H   UNL     1     -11.671   9.189  67.893  1.00  0.00     0.000 HD 
BRANCH  21  23
HETATM   23  S   UNL     1     -10.527   7.108  67.981  1.00  0.00    -0.197 S  
HETATM   24  O   UNL     1     -11.130   6.235  67.003  1.00  0.00    -0.362 OA 
HETATM   25  N   UNL     1     -11.492   7.054  69.318  1.00  0.00    -0.532 N  
HETATM   26  O   UNL     1      -9.156   7.014  68.402  1.00  0.00    -0.129 OA 
HETATM   27  H2  UNL     1     -12.096   7.758  69.742  1.00  0.00     0.000 HD 
HETATM   28  H1  UNL     1     -11.292   6.090  69.584  1.00  0.00     0.000 HD 
ENDBRANCH  21  23
ENDBRANCH  20  21
ENDBRANCH  18  20
ENDBRANCH  13  14
ENDBRANCH   3  13
BRANCH  10  29
HETATM   29  C   UNL     1      -9.936  19.107  66.468  1.00  0.00    -0.383 C  
HETATM   30  H   UNL     1      -8.244  19.861  65.935  1.00  0.00     0.000 HD 
HETATM   31  O   UNL     1      -8.582  18.978  66.031  1.00  0.00    -0.457 OA 
HETATM   32  C   UNL     1      -9.973  19.866  67.784  1.00  0.00    -0.552 C  
ENDBRANCH  10  29
TORSDOF 6
ENDMDL
MODEL       34
REMARK 921   NORMALIZED FREE ENERGY PREDICTED BY IDOCK:   -6.20 KCAL/MOL
REMARK 922        TOTAL FREE ENERGY PREDICTED BY IDOCK:   -9.26 KCAL/MOL
REMARK 923 INTER-LIGAND FREE ENERGY PREDICTED BY IDOCK:   -8.49 KCAL/MOL
REMARK 924 INTRA-LIGAND FREE ENERGY PREDICTED BY IDOCK:   -0.76 KCAL/MOL
REMARK 927      BINDING AFFINITY PREDICTED BY RF-SCORE:    0.00 PKD
ROOT
HETATM    1  C   UNL     1      -9.680  10.773  66.313  1.00  0.00    -0.205 C  
HETATM    2  C   UNL     1      -9.595  12.008  67.221  1.00  0.00    -0.185 C  
HETATM    3  C   UNL     1     -10.663  12.909  66.639  1.00  0.00    -0.265 C  
HETATM    4  C   UNL     1      -8.172  12.555  67.250  1.00  0.00    -0.184 C  
HETATM    5  O   UNL     1     -12.478  12.375  63.502  1.00  0.00    -0.612 OA 
HETATM    6  C   UNL     1     -11.266  12.322  65.582  1.00  0.00    -0.333 C  
HETATM    7  N   UNL     1     -10.794  11.036  65.360  1.00  0.00    -0.158 N  
HETATM    8  O   UNL     1     -10.373  10.803  63.083  1.00  0.00    -0.255 OA 
HETATM    9  C   UNL     1     -12.348  12.923  64.730  1.00  0.00    -0.459 C  
HETATM   10  C   UNL     1      -8.781  10.515  65.062  1.00  0.00    -0.193 C  
HETATM   11  O   UNL     1     -13.096  13.817  65.095  1.00  0.00    -0.762 OA 
HETATM   12  C   UNL     1     -10.064  10.712  64.249  1.00  0.00    -0.343 C  
ENDROOT
BRANCH   3  13
HETATM   13  S   UNL     1     -10.981  14.502  67.214  1.00  0.00    -0.315 SA 
BRANCH  13  14
HETATM   14  C   UNL     1     -10.179  14.615  68.852  1.00  0.00    -0.241 C  
HETATM   15  N   UNL     1     -11.124  16.495  69.982  1.00  0.00    -0.426 NA 
HETATM   16  C   UNL     1     -11.065  15.035  70.026  1.00  0.00    -0.263 C  
HETATM   17  C   UNL     1      -9.146  15.747  68.801  1.00  0.00    -0.213 C  
HETATM   18  C   UNL     1      -9.787  16.937  69.523  1.00  0.00     0.049 C  
HETATM   19  H   UNL     1     -11.414  16.919  70.863  1.00  0.00     0.000 HD 
BRANCH  18  20
HETATM   20  C   UNL     1      -9.915  18.217  68.671  1.00  0.00    -0.389 C  
BRANCH  20  21
HETATM   21  N   UNL     1     -10.824  17.974  67.497  1.00  0.00    -0.325 N  
HETATM   22  H   UNL     1     -11.780  17.639  67.609  1.00  0.00     0.000 HD 
BRANCH  21  23
HETATM   23  S   UNL     1     -10.161  18.290  65.998  1.00  0.00    -0.190 S  
HETATM   24  O   UNL     1      -8.726  18.184  66.108  1.00  0.00    -0.460 OA 
HETATM   25  N   UNL     1     -10.511  19.901  65.947  1.00  0.00    -0.505 N  
HETATM   26  O   UNL     1     -10.938  17.620  64.991  1.00  0.00    -0.780 OA 
HETATM   27  H2  UNL     1     -10.981  20.509  66.617  1.00  0.00     0.000 HD 
HETATM   28  H1  UNL     1     -10.106  20.094  65.031  1.00  0.00     0.000 HD 
ENDBRANCH  21  23
ENDBRANCH  20  21
ENDBRANCH  18  20
ENDBRANCH  13  14
ENDBRANCH   3  13
BRANCH  10  29
HETATM   29  C   UNL     1      -8.105   9.158  65.060  1.00  0.00    -0.130 C  
HETATM   30  H   UNL     1      -7.646   7.873  63.699  1.00  0.00     0.000 HD 
HETATM   31  O   UNL     1      -8.069   8.724  63.700  1.00  0.00    -0.155 OA 
HETATM   32  C   UNL     1      -8.877   8.148  65.893  1.00  0.00    -0.194 C  
ENDBRANCH  10  29
TORSDOF 6
ENDMDL
MODEL       35
REMARK 921   NORMALIZED FREE ENERGY PREDICTED BY IDOCK:   -6.19 KCAL/MOL
REMARK 922        TOTAL FREE ENERGY PREDICTED BY IDOCK:   -9.25 KCAL/MOL
REMARK 923 INTER-LIGAND FREE ENERGY PREDICTED BY IDOCK:   -7.29 KCAL/MOL
REMARK 924 INTRA-LIGAND FREE ENERGY PREDICTED BY IDOCK:   -1.96 KCAL/MOL
REMARK 927      BINDING AFFINITY PREDICTED BY RF-SCORE:    0.00 PKD
ROOT
HETATM    1  C   UNL     1     -11.458  11.530  67.386  1.00  0.00    -0.274 C  
HETATM    2  C   UNL     1     -10.345  10.504  67.127  1.00  0.00    -0.285 C  
HETATM    3  C   UNL     1     -10.296   9.745  68.436  1.00  0.00    -0.201 C  
HETATM    4  C   UNL     1      -9.064  11.202  66.687  1.00  0.00    -0.180 C  
HETATM    5  O   UNL     1     -12.036  10.645  71.531  1.00  0.00    -0.300 OA 
HETATM    6  C   UNL     1     -11.205  10.230  69.310  1.00  0.00    -0.228 C  
HETATM    7  N   UNL     1     -11.976  11.241  68.752  1.00  0.00    -0.327 N  
HETATM    8  O   UNL     1     -12.088  12.992  70.281  1.00  0.00    -0.348 OA 
HETATM    9  C   UNL     1     -11.426   9.756  70.718  1.00  0.00    -0.342 C  
HETATM   10  C   UNL     1     -11.229  12.997  67.873  1.00  0.00    -0.304 C  
HETATM   11  O   UNL     1     -11.121   8.645  71.126  1.00  0.00    -0.242 OA 
HETATM   12  C   UNL     1     -11.891  12.538  69.177  1.00  0.00    -0.296 C  
ENDROOT
BRANCH   3  13
HETATM   13  S   UNL     1      -9.160   8.492  68.767  1.00  0.00    -0.142 SA 
BRANCH  13  14
HETATM   14  C   UNL     1      -9.845   6.978  68.008  1.00  0.00    -0.138 C  
HETATM   15  N   UNL     1     -11.184   5.893  69.662  1.00  0.00    -0.360 NA 
HETATM   16  C   UNL     1     -11.278   6.604  68.388  1.00  0.00    -0.125 C  
HETATM   17  C   UNL     1      -9.045   5.779  68.532  1.00  0.00    -0.116 C  
HETATM   18  C   UNL     1      -9.927   5.114  69.595  1.00  0.00    -0.243 C  
HETATM   19  H   UNL     1     -12.005   5.327  69.875  1.00  0.00     0.000 HD 
BRANCH  18  20
HETATM   20  C   UNL     1      -9.287   5.017  70.996  1.00  0.00    -0.152 C  
BRANCH  20  21
HETATM   21  N   UNL     1      -9.692   6.197  71.837  1.00  0.00    -0.154 N  
HETATM   22  H   UNL     1      -9.405   7.150  71.612  1.00  0.00     0.000 HD 
BRANCH  21  23
HETATM   23  S   UNL     1     -10.641   5.842  73.163  1.00  0.00    -0.260 S  
HETATM   24  O   UNL     1     -10.568   4.422  73.403  1.00  0.00    -0.173 OA 
HETATM   25  N   UNL     1     -12.105   6.125  72.457  1.00  0.00    -0.537 N  
HETATM   26  O   UNL     1     -10.421   6.838  74.177  1.00  0.00    -0.365 OA 
HETATM   27  H2  UNL     1     -12.351   6.422  71.513  1.00  0.00     0.000 HD 
HETATM   28  H1  UNL     1     -12.684   5.908  73.267  1.00  0.00     0.000 HD 
ENDBRANCH  21  23
ENDBRANCH  20  21
ENDBRANCH  18  20
ENDBRANCH  13  14
ENDBRANCH   3  13
BRANCH  10  29
HETATM   29  C   UNL     1     -11.921  14.042  67.021  1.00  0.00    -0.438 C  
HETATM   30  H   UNL     1     -12.903  14.008  65.363  1.00  0.00     0.000 HD 
HETATM   31  O   UNL     1     -12.470  13.352  65.897  1.00  0.00    -0.439 OA 
HETATM   32  C   UNL     1     -10.945  15.102  66.536  1.00  0.00    -0.318 C  
ENDBRANCH  10  29
TORSDOF 6
ENDMDL
MODEL       36
REMARK 921   NORMALIZED FREE ENERGY PREDICTED BY IDOCK:   -6.18 KCAL/MOL
REMARK 922        TOTAL FREE ENERGY PREDICTED BY IDOCK:   -9.24 KCAL/MOL
REMARK 923 INTER-LIGAND FREE ENERGY PREDICTED BY IDOCK:   -8.43 KCAL/MOL
REMARK 924 INTRA-LIGAND FREE ENERGY PREDICTED BY IDOCK:   -0.81 KCAL/MOL
REMARK 927      BINDING AFFINITY PREDICTED BY RF-SCORE:    0.00 PKD
ROOT
HETATM    1  C   UNL     1      -8.834  16.900  68.377  1.00  0.00    -0.244 C  
HETATM    2  C   UNL     1      -9.307  15.684  67.568  1.00  0.00    -0.206 C  
HETATM    3  C   UNL     1      -8.327  14.612  67.994  1.00  0.00    -0.146 C  
HETATM    4  C   UNL     1      -9.360  16.018  66.081  1.00  0.00    -0.377 C  
HETATM    5  O   UNL     1      -5.299  15.113  69.993  1.00  0.00    -0.105 OA 
HETATM    6  C   UNL     1      -7.437  15.099  68.886  1.00  0.00    -0.143 C  
HETATM    7  N   UNL     1      -7.700  16.421  69.217  1.00  0.00    -0.223 N  
HETATM    8  O   UNL     1      -5.696  17.600  69.137  1.00  0.00    -0.181 OA 
HETATM    9  C   UNL     1      -6.296  14.343  69.506  1.00  0.00    -0.128 C  
HETATM   10  C   UNL     1      -7.866  18.007  67.850  1.00  0.00    -0.235 C  
HETATM   11  O   UNL     1      -6.253  13.127  69.612  1.00  0.00    -0.112 OA 
HETATM   12  C   UNL     1      -6.862  17.440  68.858  1.00  0.00    -0.241 C  
ENDROOT
BRANCH   3  13
HETATM   13  S   UNL     1      -8.321  13.017  67.343  1.00  0.00    -0.194 SA 
BRANCH  13  14
HETATM   14  C   UNL     1      -9.593  12.089  68.270  1.00  0.00    -0.204 C  
HETATM   15  N   UNL     1     -11.307  11.483  66.722  1.00  0.00    -0.416 NA 
HETATM   16  C   UNL     1     -10.248  10.909  67.550  1.00  0.00    -0.190 C  
HETATM   17  C   UNL     1     -10.783  13.024  68.515  1.00  0.00    -0.275 C  
HETATM   18  C   UNL     1     -11.856  12.616  67.501  1.00  0.00    -0.334 C  
HETATM   19  H   UNL     1     -12.012  10.805  66.433  1.00  0.00     0.000 HD 
BRANCH  18  20
HETATM   20  C   UNL     1     -12.309  13.744  66.550  1.00  0.00    -0.386 C  
BRANCH  20  21
HETATM   21  N   UNL     1     -12.902  13.163  65.296  1.00  0.00    -0.629 N  
HETATM   22  H   UNL     1     -13.892  12.931  65.219  1.00  0.00     0.000 HD 
BRANCH  21  23
HETATM   23  S   UNL     1     -11.831  12.923  64.038  1.00  0.00    -0.482 S  
HETATM   24  O   UNL     1     -10.554  13.474  64.422  1.00  0.00    -0.419 OA 
HETATM   25  N   UNL     1     -12.506  13.992  62.979  1.00  0.00    -0.988 N  
HETATM   26  O   UNL     1     -12.006  11.593  63.521  1.00  0.00    -0.437 OA 
HETATM   27  H2  UNL     1     -13.317  14.604  63.064  1.00  0.00     0.000 HD 
HETATM   28  H1  UNL     1     -11.851  13.845  62.211  1.00  0.00     0.000 HD 
ENDBRANCH  21  23
ENDBRANCH  20  21
ENDBRANCH  18  20
ENDBRANCH  13  14
ENDBRANCH   3  13
BRANCH  10  29
HETATM   29  C   UNL     1      -8.386  19.418  68.037  1.00  0.00    -0.319 C  
HETATM   30  H   UNL     1      -9.737  20.230  69.147  1.00  0.00     0.000 HD 
HETATM   31  O   UNL     1      -9.411  19.345  69.030  1.00  0.00    -0.373 OA 
HETATM   32  C   UNL     1      -8.970  19.974  66.748  1.00  0.00    -0.445 C  
ENDBRANCH  10  29
TORSDOF 6
ENDMDL
MODEL       37
REMARK 921   NORMALIZED FREE ENERGY PREDICTED BY IDOCK:   -6.17 KCAL/MOL
REMARK 922        TOTAL FREE ENERGY PREDICTED BY IDOCK:   -9.22 KCAL/MOL
REMARK 923 INTER-LIGAND FREE ENERGY PREDICTED BY IDOCK:   -8.16 KCAL/MOL
REMARK 924 INTRA-LIGAND FREE ENERGY PREDICTED BY IDOCK:   -1.06 KCAL/MOL
REMARK 927      BINDING AFFINITY PREDICTED BY RF-SCORE:    0.00 PKD
ROOT
HETATM    1  C   UNL     1      -8.638  19.380  68.054  1.00  0.00    -0.324 C  
HETATM    2  C   UNL     1      -9.979  18.933  67.455  1.00  0.00    -0.399 C  
HETATM    3  C   UNL     1      -9.906  17.428  67.589  1.00  0.00    -0.282 C  
HETATM    4  C   UNL     1     -10.151  19.493  66.048  1.00  0.00    -0.521 C  
HETATM    5  O   UNL     1      -6.962  15.477  68.561  1.00  0.00    -0.109 OA 
HETATM    6  C   UNL     1      -8.740  17.049  68.157  1.00  0.00    -0.233 C  
HETATM    7  N   UNL     1      -7.960  18.138  68.521  1.00  0.00    -0.297 N  
HETATM    8  O   UNL     1      -5.781  17.738  67.808  1.00  0.00    -0.139 OA 
HETATM    9  C   UNL     1      -8.296  15.638  68.418  1.00  0.00    -0.162 C  
HETATM   10  C   UNL     1      -7.343  19.678  67.232  1.00  0.00    -0.259 C  
HETATM   11  O   UNL     1      -9.054  14.688  68.534  1.00  0.00    -0.179 OA 
HETATM   12  C   UNL     1      -6.775  18.422  67.901  1.00  0.00    -0.216 C  
ENDROOT
BRANCH   3  13
HETATM   13  S   UNL     1     -11.126  16.361  67.004  1.00  0.00     0.181 SA 
BRANCH  13  14
HETATM   14  C   UNL     1     -10.600  15.865  65.326  1.00  0.00    -0.419 C  
HETATM   15  N   UNL     1     -12.470  14.819  64.270  1.00  0.00    -0.766 NA 
HETATM   16  C   UNL     1     -11.632  16.016  64.207  1.00  0.00    -0.138 C  
HETATM   17  C   UNL     1     -10.344  14.354  65.333  1.00  0.00    -0.400 C  
HETATM   18  C   UNL     1     -11.563  13.715  64.660  1.00  0.00    -0.371 C  
HETATM   19  H   UNL     1     -12.989  14.638  63.411  1.00  0.00     0.000 HD 
BRANCH  18  20
HETATM   20  C   UNL     1     -12.320  12.690  65.532  1.00  0.00    -0.391 C  
BRANCH  20  21
HETATM   21  N   UNL     1     -12.195  13.051  66.987  1.00  0.00    -0.255 N  
HETATM   22  H   UNL     1     -12.606  13.901  67.375  1.00  0.00     0.000 HD 
BRANCH  21  23
HETATM   23  S   UNL     1     -11.340  11.967  67.926  1.00  0.00    -0.330 S  
HETATM   24  O   UNL     1     -12.235  10.906  68.317  1.00  0.00    -0.526 OA 
HETATM   25  N   UNL     1     -11.151  12.936  69.248  1.00  0.00    -0.424 N  
HETATM   26  O   UNL     1     -10.050  11.749  67.330  1.00  0.00    -0.193 OA 
HETATM   27  H2  UNL     1     -11.459  13.890  69.433  1.00  0.00     0.000 HD 
HETATM   28  H1  UNL     1     -10.629  12.273  69.821  1.00  0.00     0.000 HD 
ENDBRANCH  21  23
ENDBRANCH  20  21
ENDBRANCH  18  20
ENDBRANCH  13  14
ENDBRANCH   3  13
BRANCH  10  29
HETATM   29  C   UNL     1      -6.719  21.025  67.536  1.00  0.00    -0.368 C  
HETATM   30  H   UNL     1      -5.546  22.223  66.585  1.00  0.00     0.000 HD 
HETATM   31  O   UNL     1      -5.938  21.378  66.394  1.00  0.00    -0.281 OA 
HETATM   32  C   UNL     1      -5.823  20.962  68.762  1.00  0.00    -0.358 C  
ENDBRANCH  10  29
TORSDOF 6
ENDMDL
MODEL       38
REMARK 921   NORMALIZED FREE ENERGY PREDICTED BY IDOCK:   -6.16 KCAL/MOL
REMARK 922        TOTAL FREE ENERGY PREDICTED BY IDOCK:   -9.20 KCAL/MOL
REMARK 923 INTER-LIGAND FREE ENERGY PREDICTED BY IDOCK:   -8.21 KCAL/MOL
REMARK 924 INTRA-LIGAND FREE ENERGY PREDICTED BY IDOCK:   -0.99 KCAL/MOL
REMARK 927      BINDING AFFINITY PREDICTED BY RF-SCORE:    0.00 PKD
ROOT
HETATM    1  C   UNL     1     -11.039  11.765  65.167  1.00  0.00    -0.282 C  
HETATM    2  C   UNL     1     -10.153  10.527  65.368  1.00  0.00    -0.358 C  
HETATM    3  C   UNL     1      -9.206  10.983  66.457  1.00  0.00    -0.171 C  
HETATM    4  C   UNL     1      -9.529  10.093  64.047  1.00  0.00    -0.341 C  
HETATM    5  O   UNL     1      -8.861  14.395  67.744  1.00  0.00    -0.171 OA 
HETATM    6  C   UNL     1      -9.473  12.253  66.829  1.00  0.00    -0.222 C  
HETATM    7  N   UNL     1     -10.578  12.770  66.166  1.00  0.00    -0.263 N  
HETATM    8  O   UNL     1     -10.038  14.904  65.414  1.00  0.00    -0.346 OA 
HETATM    9  C   UNL     1      -8.724  13.055  67.855  1.00  0.00    -0.189 C  
HETATM   10  C   UNL     1     -10.810  12.864  64.080  1.00  0.00    -0.445 C  
HETATM   11  O   UNL     1      -8.058  12.570  68.756  1.00  0.00    -0.050 OA 
HETATM   12  C   UNL     1     -10.470  13.785  65.257  1.00  0.00    -0.363 C  
ENDROOT
BRANCH   3  13
HETATM   13  S   UNL     1      -7.911  10.016  67.056  1.00  0.00    -0.106 SA 
BRANCH  13  14
HETATM   14  C   UNL     1      -8.605   8.345  67.307  1.00  0.00    -0.123 C  
HETATM   15  N   UNL     1     -10.793   8.609  68.227  1.00  0.00    -0.455 NA 
HETATM   16  C   UNL     1     -10.096   8.167  67.020  1.00  0.00    -0.280 C  
HETATM   17  C   UNL     1      -8.518   8.012  68.802  1.00  0.00    -0.127 C  
HETATM   18  C   UNL     1      -9.932   8.201  69.360  1.00  0.00    -0.188 C  
HETATM   19  H   UNL     1     -11.751   8.264  68.295  1.00  0.00     0.000 HD 
BRANCH  18  20
HETATM   20  C   UNL     1     -10.042   9.229  70.506  1.00  0.00    -0.255 C  
BRANCH  20  21
HETATM   21  N   UNL     1     -10.245  10.612  69.950  1.00  0.00    -0.437 N  
HETATM   22  H   UNL     1      -9.484  11.150  69.536  1.00  0.00     0.000 HD 
BRANCH  21  23
HETATM   23  S   UNL     1     -11.802  11.206  70.055  1.00  0.00    -0.389 S  
HETATM   24  O   UNL     1     -12.433  11.048  68.767  1.00  0.00    -0.468 OA 
HETATM   25  N   UNL     1     -11.410  12.802  70.194  1.00  0.00    -0.476 N  
HETATM   26  O   UNL     1     -12.388  10.768  71.292  1.00  0.00    -0.361 OA 
HETATM   27  H2  UNL     1     -10.506  13.275  70.211  1.00  0.00     0.000 HD 
HETATM   28  H1  UNL     1     -12.361  13.165  70.258  1.00  0.00     0.000 HD 
ENDBRANCH  21  23
ENDBRANCH  20  21
ENDBRANCH  18  20
ENDBRANCH  13  14
ENDBRANCH   3  13
BRANCH  10  29
HETATM   29  C   UNL     1     -12.034  13.160  63.238  1.00  0.00    -0.376 C  
HETATM   30  H   UNL     1     -13.438  14.480  63.301  1.00  0.00     0.000 HD 
HETATM   31  O   UNL     1     -12.670  14.295  63.829  1.00  0.00    -0.779 OA 
HETATM   32  C   UNL     1     -13.001  11.988  63.226  1.00  0.00    -0.188 C  
ENDBRANCH  10  29
TORSDOF 6
ENDMDL
MODEL       39
REMARK 921   NORMALIZED FREE ENERGY PREDICTED BY IDOCK:   -6.14 KCAL/MOL
REMARK 922        TOTAL FREE ENERGY PREDICTED BY IDOCK:   -9.18 KCAL/MOL
REMARK 923 INTER-LIGAND FREE ENERGY PREDICTED BY IDOCK:   -8.47 KCAL/MOL
REMARK 924 INTRA-LIGAND FREE ENERGY PREDICTED BY IDOCK:   -0.70 KCAL/MOL
REMARK 927      BINDING AFFINITY PREDICTED BY RF-SCORE:    0.00 PKD
ROOT
HETATM    1  C   UNL     1     -11.941  15.137  69.772  1.00  0.00    -0.334 C  
HETATM    2  C   UNL     1     -10.741  15.252  68.820  1.00  0.00    -0.241 C  
HETATM    3  C   UNL     1     -10.688  13.872  68.201  1.00  0.00    -0.250 C  
HETATM    4  C   UNL     1      -9.501  15.718  69.574  1.00  0.00    -0.248 C  
HETATM    5  O   UNL     1     -12.621  10.945  69.257  1.00  0.00    -0.356 OA 
HETATM    6  C   UNL     1     -11.667  13.083  68.694  1.00  0.00    -0.323 C  
HETATM    7  N   UNL     1     -12.492  13.767  69.578  1.00  0.00    -0.196 N  
HETATM    8  O   UNL     1     -12.804  12.430  71.456  1.00  0.00    -0.366 OA 
HETATM    9  C   UNL     1     -11.909  11.642  68.344  1.00  0.00    -0.278 C  
HETATM   10  C   UNL     1     -11.849  14.795  71.293  1.00  0.00    -0.390 C  
HETATM   11  O   UNL     1     -11.535  11.113  67.309  1.00  0.00    -0.473 OA 
HETATM   12  C   UNL     1     -12.526  13.474  70.913  1.00  0.00    -0.369 C  
ENDROOT
BRANCH   3  13
HETATM   13  S   UNL     1      -9.471  13.377  67.085  1.00  0.00    -0.252 SA 
BRANCH  13  14
HETATM   14  C   UNL     1      -8.130  12.652  68.091  1.00  0.00    -0.164 C  
HETATM   15  N   UNL     1      -6.389  11.994  66.593  1.00  0.00    -0.446 NA 
HETATM   16  C   UNL     1      -6.697  12.955  67.651  1.00  0.00    -0.153 C  
HETATM   17  C   UNL     1      -8.198  11.126  67.949  1.00  0.00    -0.121 C  
HETATM   18  C   UNL     1      -7.079  10.741  66.977  1.00  0.00    -0.104 C  
HETATM   19  H   UNL     1      -5.390  11.876  66.426  1.00  0.00     0.000 HD 
BRANCH  18  20
HETATM   20  C   UNL     1      -7.550   9.987  65.715  1.00  0.00    -0.120 C  
BRANCH  20  21
HETATM   21  N   UNL     1      -8.039  10.960  64.678  1.00  0.00    -0.361 N  
HETATM   22  H   UNL     1      -7.457  11.720  64.327  1.00  0.00     0.000 HD 
BRANCH  21  23
HETATM   23  S   UNL     1      -9.600  10.712  64.140  1.00  0.00    -0.325 S  
HETATM   24  O   UNL     1     -10.325  10.008  65.170  1.00  0.00    -0.215 OA 
HETATM   25  N   UNL     1      -9.247   9.603  62.971  1.00  0.00    -0.446 N  
HETATM   26  O   UNL     1     -10.074  11.912  63.506  1.00  0.00    -0.386 OA 
HETATM   27  H2  UNL     1      -8.360   9.199  62.673  1.00  0.00     0.000 HD 
HETATM   28  H1  UNL     1     -10.201   9.452  62.643  1.00  0.00     0.000 HD 
ENDBRANCH  21  23
ENDBRANCH  20  21
ENDBRANCH  18  20
ENDBRANCH  13  14
ENDBRANCH   3  13
BRANCH  10  29
HETATM   29  C   UNL     1     -12.583  15.772  72.188  1.00  0.00    -0.453 C  
HETATM   30  H   UNL     1     -12.472  16.254  74.051  1.00  0.00     0.000 HD 
HETATM   31  O   UNL     1     -12.010  15.641  73.490  1.00  0.00    -0.443 OA 
HETATM   32  C   UNL     1     -14.069  15.459  72.256  1.00  0.00    -0.660 C  
ENDBRANCH  10  29
TORSDOF 6
ENDMDL
MODEL       40
REMARK 921   NORMALIZED FREE ENERGY PREDICTED BY IDOCK:   -6.14 KCAL/MOL
REMARK 922        TOTAL FREE ENERGY PREDICTED BY IDOCK:   -9.17 KCAL/MOL
REMARK 923 INTER-LIGAND FREE ENERGY PREDICTED BY IDOCK:   -8.33 KCAL/MOL
REMARK 924 INTRA-LIGAND FREE ENERGY PREDICTED BY IDOCK:   -0.84 KCAL/MOL
REMARK 927      BINDING AFFINITY PREDICTED BY RF-SCORE:    0.00 PKD
ROOT
HETATM    1  C   UNL     1     -10.266   9.671  66.804  1.00  0.00    -0.239 C  
HETATM    2  C   UNL     1     -11.028  10.649  67.710  1.00  0.00    -0.364 C  
HETATM    3  C   UNL     1     -11.282  11.817  66.781  1.00  0.00    -0.328 C  
HETATM    4  C   UNL     1     -10.232  10.936  68.978  1.00  0.00    -0.219 C  
HETATM    5  O   UNL     1      -9.853  12.281  63.440  1.00  0.00    -0.374 OA 
HETATM    6  C   UNL     1     -10.765  11.580  65.556  1.00  0.00    -0.272 C  
HETATM    7  N   UNL     1     -10.205  10.313  65.462  1.00  0.00    -0.270 N  
HETATM    8  O   UNL     1      -8.128  10.516  64.432  1.00  0.00    -0.138 OA 
HETATM    9  C   UNL     1     -10.790  12.520  64.384  1.00  0.00    -0.342 C  
HETATM   10  C   UNL     1      -8.711   9.548  66.725  1.00  0.00    -0.138 C  
HETATM   11  O   UNL     1     -11.600  13.423  64.243  1.00  0.00    -0.372 OA 
HETATM   12  C   UNL     1      -8.858  10.124  65.313  1.00  0.00    -0.178 C  
ENDROOT
BRANCH   3  13
HETATM   13  S   UNL     1     -12.052  13.276  67.278  1.00  0.00    -0.221 SA 
BRANCH  13  14
HETATM   14  C   UNL     1     -10.725  14.526  67.411  1.00  0.00    -0.282 C  
HETATM   15  N   UNL     1      -9.962  14.520  69.674  1.00  0.00    -0.417 NA 
HETATM   16  C   UNL     1      -9.541  14.181  68.315  1.00  0.00    -0.226 C  
HETATM   17  C   UNL     1     -11.307  15.769  68.094  1.00  0.00    -0.337 C  
HETATM   18  C   UNL     1     -10.808  15.728  69.542  1.00  0.00    -0.287 C  
HETATM   19  H   UNL     1      -9.185  14.633  70.325  1.00  0.00     0.000 HD 
BRANCH  18  20
HETATM   20  C   UNL     1     -11.923  15.714  70.609  1.00  0.00    -0.402 C  
BRANCH  20  21
HETATM   21  N   UNL     1     -11.946  14.390  71.322  1.00  0.00    -0.417 N  
HETATM   22  H   UNL     1     -11.249  13.666  71.149  1.00  0.00     0.000 HD 
BRANCH  21  23
HETATM   23  S   UNL     1     -13.189  14.185  72.418  1.00  0.00    -0.498 S  
HETATM   24  O   UNL     1     -13.540  12.786  72.445  1.00  0.00    -0.565 OA 
HETATM   25  N   UNL     1     -14.364  14.948  71.548  1.00  0.00    -0.531 N  
HETATM   26  O   UNL     1     -12.910  14.963  73.594  1.00  0.00    -0.512 OA 
HETATM   27  H2  UNL     1     -14.340  15.400  70.634  1.00  0.00     0.000 HD 
HETATM   28  H1  UNL     1     -15.123  14.823  72.217  1.00  0.00     0.000 HD 
ENDBRANCH  21  23
ENDBRANCH  20  21
ENDBRANCH  18  20
ENDBRANCH  13  14
ENDBRANCH   3  13
BRANCH  10  29
HETATM   29  C   UNL     1      -8.197   8.132  66.896  1.00  0.00    -0.111 C  
HETATM   30  H   UNL     1      -8.890   6.379  66.495  1.00  0.00     0.000 HD 
HETATM   31  O   UNL     1      -9.213   7.266  66.387  1.00  0.00    -0.165 OA 
HETATM   32  C   UNL     1      -7.938   7.805  68.357  1.00  0.00    -0.122 C  
ENDBRANCH  10  29
TORSDOF 6
ENDMDL
MODEL       41
REMARK 921   NORMALIZED FREE ENERGY PREDICTED BY IDOCK:   -6.11 KCAL/MOL
REMARK 922        TOTAL FREE ENERGY PREDICTED BY IDOCK:   -9.14 KCAL/MOL
REMARK 923 INTER-LIGAND FREE ENERGY PREDICTED BY IDOCK:   -8.15 KCAL/MOL
REMARK 924 INTRA-LIGAND FREE ENERGY PREDICTED BY IDOCK:   -0.99 KCAL/MOL
REMARK 927      BINDING AFFINITY PREDICTED BY RF-SCORE:    0.00 PKD
ROOT
HETATM    1  C   UNL     1     -10.483  13.525  67.418  1.00  0.00    -0.247 C  
HETATM    2  C   UNL     1      -9.982  12.084  67.596  1.00  0.00    -0.196 C  
HETATM    3  C   UNL     1     -10.317  11.460  66.258  1.00  0.00    -0.243 C  
HETATM    4  C   UNL     1     -10.608  11.448  68.831  1.00  0.00    -0.234 C  
HETATM    5  O   UNL     1     -12.344  12.968  63.607  1.00  0.00    -0.621 OA 
HETATM    6  C   UNL     1     -10.909  12.357  65.441  1.00  0.00    -0.285 C  
HETATM    7  N   UNL     1     -10.988  13.617  66.020  1.00  0.00    -0.286 N  
HETATM    8  O   UNL     1     -13.140  14.435  65.678  1.00  0.00    -0.475 OA 
HETATM    9  C   UNL     1     -11.413  12.095  64.050  1.00  0.00    -0.411 C  
HETATM   10  C   UNL     1     -11.883  14.050  67.870  1.00  0.00    -0.411 C  
HETATM   11  O   UNL     1     -11.012  11.193  63.331  1.00  0.00    -0.303 OA 
HETATM   12  C   UNL     1     -12.184  14.179  66.373  1.00  0.00    -0.446 C  
ENDROOT
BRANCH   3  13
HETATM   13  S   UNL     1     -10.047   9.798  65.891  1.00  0.00    -0.187 SA 
BRANCH  13  14
HETATM   14  C   UNL     1      -8.369   9.706  65.174  1.00  0.00    -0.137 C  
HETATM   15  N   UNL     1      -8.148   7.562  64.144  1.00  0.00    -0.303 NA 
HETATM   16  C   UNL     1      -8.232   8.988  63.830  1.00  0.00    -0.172 C  
HETATM   17  C   UNL     1      -7.502   8.841  66.096  1.00  0.00    -0.090 C  
HETATM   18  C   UNL     1      -7.390   7.474  65.412  1.00  0.00    -0.071 C  
HETATM   19  H   UNL     1      -7.751   7.001  63.390  1.00  0.00     0.000 HD 
BRANCH  18  20
HETATM   20  C   UNL     1      -7.901   6.287  66.255  1.00  0.00    -0.104 C  
BRANCH  20  21
HETATM   21  N   UNL     1      -8.950   5.521  65.495  1.00  0.00    -0.227 N  
HETATM   22  H   UNL     1      -8.827   5.251  64.519  1.00  0.00     0.000 HD 
BRANCH  21  23
HETATM   23  S   UNL     1     -10.329   5.143  66.356  1.00  0.00    -0.283 S  
HETATM   24  O   UNL     1     -10.022   4.045  67.240  1.00  0.00    -0.149 OA 
HETATM   25  N   UNL     1     -11.194   4.511  65.103  1.00  0.00    -0.978 N  
HETATM   26  O   UNL     1     -10.963   6.361  66.783  1.00  0.00    -0.353 OA 
HETATM   27  H2  UNL     1     -10.962   4.389  64.117  1.00  0.00     0.000 HD 
HETATM   28  H1  UNL     1     -12.037   4.280  65.629  1.00  0.00     0.000 HD 
ENDBRANCH  21  23
ENDBRANCH  20  21
ENDBRANCH  18  20
ENDBRANCH  13  14
ENDBRANCH   3  13
BRANCH  10  29
HETATM   29  C   UNL     1     -11.823  15.301  68.723  1.00  0.00    -0.307 C  
HETATM   30  H   UNL     1     -11.057  17.056  68.506  1.00  0.00     0.000 HD 
HETATM   31  O   UNL     1     -11.094  16.272  67.971  1.00  0.00    -0.340 OA 
HETATM   32  C   UNL     1     -11.112  15.045  70.042  1.00  0.00    -0.290 C  
ENDBRANCH  10  29
TORSDOF 6
ENDMDL
MODEL       42
REMARK 921   NORMALIZED FREE ENERGY PREDICTED BY IDOCK:   -6.09 KCAL/MOL
REMARK 922        TOTAL FREE ENERGY PREDICTED BY IDOCK:   -9.11 KCAL/MOL
REMARK 923 INTER-LIGAND FREE ENERGY PREDICTED BY IDOCK:   -8.01 KCAL/MOL
REMARK 924 INTRA-LIGAND FREE ENERGY PREDICTED BY IDOCK:   -1.10 KCAL/MOL
REMARK 927      BINDING AFFINITY PREDICTED BY RF-SCORE:    0.00 PKD
ROOT
HETATM    1  C   UNL     1     -10.716  13.085  68.431  1.00  0.00    -0.256 C  
HETATM    2  C   UNL     1     -10.532  11.609  68.813  1.00  0.00    -0.226 C  
HETATM    3  C   UNL     1     -10.507  10.928  67.462  1.00  0.00    -0.215 C  
HETATM    4  C   UNL     1     -11.618  11.168  69.788  1.00  0.00    -0.409 C  
HETATM    5  O   UNL     1     -11.299  12.475  64.237  1.00  0.00    -0.319 OA 
HETATM    6  C   UNL     1     -10.652  11.828  66.465  1.00  0.00    -0.253 C  
HETATM    7  N   UNL     1     -10.718  13.130  66.942  1.00  0.00    -0.262 N  
HETATM    8  O   UNL     1     -12.486  14.203  65.875  1.00  0.00    -0.471 OA 
HETATM    9  C   UNL     1     -10.711  11.523  64.995  1.00  0.00    -0.290 C  
HETATM   10  C   UNL     1     -12.087  13.832  68.372  1.00  0.00    -0.324 C  
HETATM   11  O   UNL     1     -10.244  10.518  64.480  1.00  0.00    -0.348 OA 
HETATM   12  C   UNL     1     -11.861  13.877  66.858  1.00  0.00    -0.423 C  
ENDROOT
BRANCH   3  13
HETATM   13  S   UNL     1     -10.395   9.220  67.260  1.00  0.00    -0.265 SA 
BRANCH  13  14
HETATM   14  C   UNL     1      -8.961   8.687  68.260  1.00  0.00    -0.142 C  
HETATM   15  N   UNL     1      -8.947   6.299  68.273  1.00  0.00    -0.116 NA 
HETATM   16  C   UNL     1      -8.202   7.452  67.772  1.00  0.00    -0.119 C  
HETATM   17  C   UNL     1      -9.478   8.234  69.630  1.00  0.00    -0.163 C  
HETATM   18  C   UNL     1      -9.465   6.702  69.601  1.00  0.00    -0.142 C  
HETATM   19  H   UNL     1      -8.403   5.437  68.291  1.00  0.00     0.000 HD 
BRANCH  18  20
HETATM   20  C   UNL     1     -10.836   6.040  69.858  1.00  0.00    -0.363 C  
BRANCH  20  21
HETATM   21  N   UNL     1     -11.886   7.090  70.096  1.00  0.00    -0.592 N  
HETATM   22  H   UNL     1     -12.120   7.795  69.397  1.00  0.00     0.000 HD 
BRANCH  21  23
HETATM   23  S   UNL     1     -12.644   7.025  71.582  1.00  0.00    -0.360 S  
HETATM   24  O   UNL     1     -14.052   7.270  71.382  1.00  0.00    -0.413 OA 
HETATM   25  N   UNL     1     -12.009   8.414  72.205  1.00  0.00    -0.350 N  
HETATM   26  O   UNL     1     -12.124   5.909  72.325  1.00  0.00    -0.275 OA 
HETATM   27  H2  UNL     1     -11.361   9.095  71.809  1.00  0.00     0.000 HD 
HETATM   28  H1  UNL     1     -12.472   8.373  73.112  1.00  0.00     0.000 HD 
ENDBRANCH  21  23
ENDBRANCH  20  21
ENDBRANCH  18  20
ENDBRANCH  13  14
ENDBRANCH   3  13
BRANCH  10  29
HETATM   29  C   UNL     1     -12.114  15.129  69.155  1.00  0.00    -0.224 C  
HETATM   30  H   UNL     1     -11.329  16.874  68.918  1.00  0.00     0.000 HD 
HETATM   31  O   UNL     1     -11.312  16.061  68.427  1.00  0.00    -0.355 OA 
HETATM   32  C   UNL     1     -11.539  14.952  70.551  1.00  0.00    -0.336 C  
ENDBRANCH  10  29
TORSDOF 6
ENDMDL
MODEL       43
REMARK 921   NORMALIZED FREE ENERGY PREDICTED BY IDOCK:   -6.07 KCAL/MOL
REMARK 922        TOTAL FREE ENERGY PREDICTED BY IDOCK:   -9.09 KCAL/MOL
REMARK 923 INTER-LIGAND FREE ENERGY PREDICTED BY IDOCK:   -7.62 KCAL/MOL
REMARK 924 INTRA-LIGAND FREE ENERGY PREDICTED BY IDOCK:   -1.46 KCAL/MOL
REMARK 927      BINDING AFFINITY PREDICTED BY RF-SCORE:    0.00 PKD
ROOT
HETATM    1  C   UNL     1      -9.007   9.726  67.061  1.00  0.00    -0.138 C  
HETATM    2  C   UNL     1      -9.585  10.921  66.289  1.00  0.00    -0.234 C  
HETATM    3  C   UNL     1     -10.610  11.466  67.261  1.00  0.00    -0.227 C  
HETATM    4  C   UNL     1     -10.096  10.481  64.923  1.00  0.00    -0.403 C  
HETATM    5  O   UNL     1     -11.723   9.867  70.362  1.00  0.00    -0.262 OA 
HETATM    6  C   UNL     1     -10.639  10.732  68.394  1.00  0.00    -0.197 C  
HETATM    7  N   UNL     1      -9.683   9.725  68.388  1.00  0.00    -0.147 N  
HETATM    8  O   UNL     1     -10.698   7.759  69.105  1.00  0.00    -0.208 OA 
HETATM    9  C   UNL     1     -11.550  10.947  69.569  1.00  0.00    -0.313 C  
HETATM   10  C   UNL     1      -9.484   8.246  66.910  1.00  0.00    -0.240 C  
HETATM   11  O   UNL     1     -12.085  12.011  69.840  1.00  0.00    -0.301 OA 
HETATM   12  C   UNL     1     -10.022   8.402  68.336  1.00  0.00    -0.187 C  
ENDROOT
BRANCH   3  13
HETATM   13  S   UNL     1     -11.648  12.794  66.902  1.00  0.00    -0.383 SA 
BRANCH  13  14
HETATM   14  C   UNL     1     -10.628  14.298  67.098  1.00  0.00    -0.279 C  
HETATM   15  N   UNL     1     -10.163  14.548  69.427  1.00  0.00    -0.414 NA 
HETATM   16  C   UNL     1      -9.519  14.247  68.150  1.00  0.00    -0.204 C  
HETATM   17  C   UNL     1     -11.529  15.420  67.628  1.00  0.00    -0.255 C  
HETATM   18  C   UNL     1     -11.213  15.546  69.122  1.00  0.00    -0.299 C  
HETATM   19  H   UNL     1      -9.512  14.848  70.152  1.00  0.00     0.000 HD 
BRANCH  18  20
HETATM   20  C   UNL     1     -12.425  15.344  70.057  1.00  0.00    -0.283 C  
BRANCH  20  21
HETATM   21  N   UNL     1     -12.171  15.999  71.388  1.00  0.00    -0.563 N  
HETATM   22  H   UNL     1     -11.527  16.783  71.495  1.00  0.00     0.000 HD 
BRANCH  21  23
HETATM   23  S   UNL     1     -13.014  15.356  72.677  1.00  0.00    -0.474 S  
HETATM   24  O   UNL     1     -12.176  15.436  73.849  1.00  0.00    -0.527 OA 
HETATM   25  N   UNL     1     -12.985  13.782  72.185  1.00  0.00    -0.351 N  
HETATM   26  O   UNL     1     -14.371  15.826  72.631  1.00  0.00    -0.507 OA 
HETATM   27  H2  UNL     1     -12.582  13.343  71.358  1.00  0.00     0.000 HD 
HETATM   28  H1  UNL     1     -13.500  13.390  72.972  1.00  0.00     0.000 HD 
ENDBRANCH  21  23
ENDBRANCH  20  21
ENDBRANCH  18  20
ENDBRANCH  13  14
ENDBRANCH   3  13
BRANCH  10  29
HETATM   29  C   UNL     1      -8.361   7.263  66.646  1.00  0.00    -0.121 C  
HETATM   30  H   UNL     1      -6.491   7.424  66.205  1.00  0.00     0.000 HD 
HETATM   31  O   UNL     1      -7.195   8.041  66.371  1.00  0.00    -0.076 OA 
HETATM   32  C   UNL     1      -8.668   6.372  65.454  1.00  0.00    -0.033 C  
ENDBRANCH  10  29
TORSDOF 6
ENDMDL
MODEL       44
REMARK 921   NORMALIZED FREE ENERGY PREDICTED BY IDOCK:   -6.07 KCAL/MOL
REMARK 922        TOTAL FREE ENERGY PREDICTED BY IDOCK:   -9.09 KCAL/MOL
REMARK 923 INTER-LIGAND FREE ENERGY PREDICTED BY IDOCK:   -7.75 KCAL/MOL
REMARK 924 INTRA-LIGAND FREE ENERGY PREDICTED BY IDOCK:   -1.34 KCAL/MOL
REMARK 927      BINDING AFFINITY PREDICTED BY RF-SCORE:    0.00 PKD
ROOT
HETATM    1  C   UNL     1     -10.287  14.155  66.855  1.00  0.00    -0.269 C  
HETATM    2  C   UNL     1     -10.765  13.410  68.110  1.00  0.00    -0.267 C  
HETATM    3  C   UNL     1     -10.805  11.973  67.637  1.00  0.00    -0.231 C  
HETATM    4  C   UNL     1     -12.073  14.005  68.620  1.00  0.00    -0.332 C  
HETATM    5  O   UNL     1     -10.410  10.816  64.184  1.00  0.00    -0.357 OA 
HETATM    6  C   UNL     1     -10.426  11.881  66.344  1.00  0.00    -0.223 C  
HETATM    7  N   UNL     1     -10.042  13.109  65.823  1.00  0.00    -0.289 N  
HETATM    8  O   UNL     1     -11.051  13.360  63.741  1.00  0.00    -0.256 OA 
HETATM    9  C   UNL     1     -10.374  10.625  65.521  1.00  0.00    -0.227 C  
HETATM   10  C   UNL     1     -11.222  14.847  65.813  1.00  0.00    -0.334 C  
HETATM   11  O   UNL     1     -10.271   9.500  65.986  1.00  0.00    -0.272 OA 
HETATM   12  C   UNL     1     -10.766  13.744  64.852  1.00  0.00    -0.399 C  
ENDROOT
BRANCH   3  13
HETATM   13  S   UNL     1     -11.351  10.665  68.616  1.00  0.00    -0.267 SA 
BRANCH  13  14
HETATM   14  C   UNL     1      -9.922  10.173  69.643  1.00  0.00    -0.232 C  
HETATM   15  N   UNL     1      -8.879   8.310  68.573  1.00  0.00    -0.137 NA 
HETATM   16  C   UNL     1      -8.664   9.718  68.902  1.00  0.00    -0.136 C  
HETATM   17  C   UNL     1     -10.310   8.916  70.430  1.00  0.00    -0.240 C  
HETATM   18  C   UNL     1      -9.635   7.743  69.713  1.00  0.00    -0.167 C  
HETATM   19  H   UNL     1      -8.019   7.804  68.360  1.00  0.00     0.000 HD 
BRANCH  18  20
HETATM   20  C   UNL     1     -10.602   6.647  69.216  1.00  0.00    -0.238 C  
BRANCH  20  21
HETATM   21  N   UNL     1     -10.679   6.662  67.713  1.00  0.00    -0.252 N  
HETATM   22  H   UNL     1     -11.218   7.362  67.203  1.00  0.00     0.000 HD 
BRANCH  21  23
HETATM   23  S   UNL     1      -9.824   5.457  66.938  1.00  0.00    -0.187 S  
HETATM   24  O   UNL     1      -8.713   6.066  66.246  1.00  0.00    -0.128 OA 
HETATM   25  N   UNL     1     -10.954   5.100  65.791  1.00  0.00    -0.768 N  
HETATM   26  O   UNL     1      -9.696   4.330  67.821  1.00  0.00    -0.165 OA 
HETATM   27  H2  UNL     1     -11.879   5.491  65.612  1.00  0.00     0.000 HD 
HETATM   28  H1  UNL     1     -10.431   4.364  65.317  1.00  0.00     0.000 HD 
ENDBRANCH  21  23
ENDBRANCH  20  21
ENDBRANCH  18  20
ENDBRANCH  13  14
ENDBRANCH   3  13
BRANCH  10  29
HETATM   29  C   UNL     1     -10.852  16.286  65.516  1.00  0.00    -0.245 C  
HETATM   30  H   UNL     1     -10.826  17.382  63.930  1.00  0.00     0.000 HD 
HETATM   31  O   UNL     1     -11.058  16.480  64.116  1.00  0.00    -0.903 OA 
HETATM   32  C   UNL     1      -9.398  16.571  65.856  1.00  0.00    -0.226 C  
ENDBRANCH  10  29
TORSDOF 6
ENDMDL
MODEL       45
REMARK 921   NORMALIZED FREE ENERGY PREDICTED BY IDOCK:   -6.03 KCAL/MOL
REMARK 922        TOTAL FREE ENERGY PREDICTED BY IDOCK:   -9.03 KCAL/MOL
REMARK 923 INTER-LIGAND FREE ENERGY PREDICTED BY IDOCK:   -8.11 KCAL/MOL
REMARK 924 INTRA-LIGAND FREE ENERGY PREDICTED BY IDOCK:   -0.92 KCAL/MOL
REMARK 927      BINDING AFFINITY PREDICTED BY RF-SCORE:    0.00 PKD
ROOT
HETATM    1  C   UNL     1     -10.523  12.828  66.302  1.00  0.00    -0.257 C  
HETATM    2  C   UNL     1     -10.595  11.857  67.489  1.00  0.00    -0.250 C  
HETATM    3  C   UNL     1     -10.089  10.567  66.881  1.00  0.00    -0.216 C  
HETATM    4  C   UNL     1     -11.999  11.837  68.081  1.00  0.00    -0.214 C  
HETATM    5  O   UNL     1      -9.467   9.943  63.326  1.00  0.00    -0.268 OA 
HETATM    6  C   UNL     1      -9.779  10.737  65.577  1.00  0.00    -0.239 C  
HETATM    7  N   UNL     1      -9.944  12.053  65.169  1.00  0.00    -0.253 N  
HETATM    8  O   UNL     1     -11.086  12.045  63.142  1.00  0.00    -0.329 OA 
HETATM    9  C   UNL     1      -9.281   9.676  64.637  1.00  0.00    -0.234 C  
HETATM   10  C   UNL     1     -11.714  13.170  65.350  1.00  0.00    -0.383 C  
HETATM   11  O   UNL     1      -8.714   8.653  64.991  1.00  0.00    -0.179 OA 
HETATM   12  C   UNL     1     -10.914  12.421  64.279  1.00  0.00    -0.351 C  
ENDROOT
BRANCH   3  13
HETATM   13  S   UNL     1     -10.015   9.076  67.741  1.00  0.00    -0.200 SA 
BRANCH  13  14
HETATM   14  C   UNL     1      -8.918   9.373  69.172  1.00  0.00    -0.147 C  
HETATM   15  N   UNL     1      -8.547   7.268  70.238  1.00  0.00    -0.141 NA 
HETATM   16  C   UNL     1      -7.864   8.304  69.466  1.00  0.00    -0.103 C  
HETATM   17  C   UNL     1      -9.774   9.345  70.443  1.00  0.00    -0.315 C  
HETATM   18  C   UNL     1      -9.521   7.981  71.094  1.00  0.00    -0.153 C  
HETATM   19  H   UNL     1      -7.913   6.660  70.757  1.00  0.00     0.000 HD 
BRANCH  18  20
HETATM   20  C   UNL     1     -10.784   7.117  71.295  1.00  0.00    -0.226 C  
BRANCH  20  21
HETATM   21  N   UNL     1     -11.943   7.702  70.536  1.00  0.00    -0.502 N  
HETATM   22  H   UNL     1     -11.970   7.724  69.517  1.00  0.00     0.000 HD 
BRANCH  21  23
HETATM   23  S   UNL     1     -13.182   8.312  71.474  1.00  0.00    -0.245 S  
HETATM   24  O   UNL     1     -13.198   9.747  71.321  1.00  0.00    -0.372 OA 
HETATM   25  N   UNL     1     -12.504   8.004  72.945  1.00  0.00    -0.543 N  
HETATM   26  O   UNL     1     -14.342   7.478  71.319  1.00  0.00    -0.413 OA 
HETATM   27  H2  UNL     1     -11.614   7.577  73.201  1.00  0.00     0.000 HD 
HETATM   28  H1  UNL     1     -13.261   8.377  73.518  1.00  0.00     0.000 HD 
ENDBRANCH  21  23
ENDBRANCH  20  21
ENDBRANCH  18  20
ENDBRANCH  13  14
ENDBRANCH   3  13
BRANCH  10  29
HETATM   29  C   UNL     1     -11.961  14.656  65.185  1.00  0.00    -0.334 C  
HETATM   30  H   UNL     1     -12.836  15.747  63.858  1.00  0.00     0.000 HD 
HETATM   31  O   UNL     1     -12.681  14.815  63.961  1.00  0.00    -0.786 OA 
HETATM   32  C   UNL     1     -10.658  15.434  65.110  1.00  0.00    -0.458 C  
ENDBRANCH  10  29
TORSDOF 6
ENDMDL
MODEL       46
REMARK 921   NORMALIZED FREE ENERGY PREDICTED BY IDOCK:   -6.03 KCAL/MOL
REMARK 922        TOTAL FREE ENERGY PREDICTED BY IDOCK:   -9.03 KCAL/MOL
REMARK 923 INTER-LIGAND FREE ENERGY PREDICTED BY IDOCK:   -8.30 KCAL/MOL
REMARK 924 INTRA-LIGAND FREE ENERGY PREDICTED BY IDOCK:   -0.72 KCAL/MOL
REMARK 927      BINDING AFFINITY PREDICTED BY RF-SCORE:    0.00 PKD
ROOT
HETATM    1  C   UNL     1      -9.659  17.537  67.469  1.00  0.00    -0.265 C  
HETATM    2  C   UNL     1     -10.272  16.163  67.164  1.00  0.00    -0.281 C  
HETATM    3  C   UNL     1      -9.276  15.218  67.800  1.00  0.00    -0.187 C  
HETATM    4  C   UNL     1     -10.515  16.004  65.668  1.00  0.00    -0.416 C  
HETATM    5  O   UNL     1      -5.993  16.117  69.154  1.00  0.00    -0.123 OA 
HETATM    6  C   UNL     1      -8.260  15.900  68.372  1.00  0.00    -0.161 C  
HETATM    7  N   UNL     1      -8.438  17.274  68.280  1.00  0.00    -0.235 N  
HETATM    8  O   UNL     1      -6.429  18.218  67.582  1.00  0.00    -0.186 OA 
HETATM    9  C   UNL     1      -7.069  15.304  69.067  1.00  0.00    -0.141 C  
HETATM   10  C   UNL     1      -8.740  18.344  66.498  1.00  0.00    -0.291 C  
HETATM   11  O   UNL     1      -7.047  14.187  69.559  1.00  0.00    -0.095 OA 
HETATM   12  C   UNL     1      -7.626  18.061  67.511  1.00  0.00    -0.208 C  
ENDROOT
BRANCH   3  13
HETATM   13  S   UNL     1      -9.403  13.501  67.712  1.00  0.00    -0.222 SA 
BRANCH  13  14
HETATM   14  C   UNL     1     -11.188  13.135  67.575  1.00  0.00    -0.282 C  
HETATM   15  N   UNL     1     -11.973  12.575  69.760  1.00  0.00    -0.311 NA 
HETATM   16  C   UNL     1     -12.078  13.604  68.727  1.00  0.00    -0.297 C  
HETATM   17  C   UNL     1     -11.367  11.613  67.622  1.00  0.00    -0.362 C  
HETATM   18  C   UNL     1     -11.860  11.289  69.036  1.00  0.00    -0.352 C  
HETATM   19  H   UNL     1     -12.734  12.598  70.438  1.00  0.00     0.000 HD 
BRANCH  18  20
HETATM   20  C   UNL     1     -10.962  10.313  69.826  1.00  0.00    -0.289 C  
BRANCH  20  21
HETATM   21  N   UNL     1     -11.735   9.078  70.199  1.00  0.00    -0.463 N  
HETATM   22  H   UNL     1     -11.754   8.248  69.607  1.00  0.00     0.000 HD 
BRANCH  21  23
HETATM   23  S   UNL     1     -12.560   9.157  71.648  1.00  0.00    -0.383 S  
HETATM   24  O   UNL     1     -11.892   8.297  72.595  1.00  0.00    -0.401 OA 
HETATM   25  N   UNL     1     -13.918   8.357  71.162  1.00  0.00    -0.607 N  
HETATM   26  O   UNL     1     -12.906  10.526  71.916  1.00  0.00    -0.444 OA 
HETATM   27  H2  UNL     1     -14.172   7.945  70.264  1.00  0.00     0.000 HD 
HETATM   28  H1  UNL     1     -14.421   8.405  72.047  1.00  0.00     0.000 HD 
ENDBRANCH  21  23
ENDBRANCH  20  21
ENDBRANCH  18  20
ENDBRANCH  13  14
ENDBRANCH   3  13
BRANCH  10  29
HETATM   29  C   UNL     1      -9.189  19.774  66.272  1.00  0.00    -0.388 C  
HETATM   30  H   UNL     1      -9.324  21.345  67.380  1.00  0.00     0.000 HD 
HETATM   31  O   UNL     1      -9.042  20.449  67.522  1.00  0.00    -0.353 OA 
HETATM   32  C   UNL     1     -10.642  19.840  65.830  1.00  0.00    -0.557 C  
ENDBRANCH  10  29
TORSDOF 6
ENDMDL
MODEL       47
REMARK 921   NORMALIZED FREE ENERGY PREDICTED BY IDOCK:   -6.03 KCAL/MOL
REMARK 922        TOTAL FREE ENERGY PREDICTED BY IDOCK:   -9.03 KCAL/MOL
REMARK 923 INTER-LIGAND FREE ENERGY PREDICTED BY IDOCK:   -8.18 KCAL/MOL
REMARK 924 INTRA-LIGAND FREE ENERGY PREDICTED BY IDOCK:   -0.85 KCAL/MOL
REMARK 927      BINDING AFFINITY PREDICTED BY RF-SCORE:    0.00 PKD
ROOT
HETATM    1  C   UNL     1     -10.181  11.361  67.400  1.00  0.00    -0.193 C  
HETATM    2  C   UNL     1     -10.096  12.722  68.107  1.00  0.00    -0.239 C  
HETATM    3  C   UNL     1     -11.048  13.569  67.291  1.00  0.00    -0.286 C  
HETATM    4  C   UNL     1      -8.649  13.194  68.188  1.00  0.00    -0.181 C  
HETATM    5  O   UNL     1     -12.612  12.625  64.115  1.00  0.00    -0.605 OA 
HETATM    6  C   UNL     1     -11.593  12.849  66.286  1.00  0.00    -0.372 C  
HETATM    7  N   UNL     1     -11.187  11.522  66.314  1.00  0.00    -0.271 N  
HETATM    8  O   UNL     1     -10.585  10.904  64.154  1.00  0.00    -0.375 OA 
HETATM    9  C   UNL     1     -12.555  13.358  65.249  1.00  0.00    -0.464 C  
HETATM   10  C   UNL     1      -9.194  10.860  66.298  1.00  0.00    -0.197 C  
HETATM   11  O   UNL     1     -13.273  14.335  65.396  1.00  0.00    -0.688 OA 
HETATM   12  C   UNL     1     -10.386  10.987  65.344  1.00  0.00    -0.268 C  
ENDROOT
BRANCH   3  13
HETATM   13  S   UNL     1     -11.311  15.248  67.577  1.00  0.00    -0.251 SA 
BRANCH  13  14
HETATM   14  C   UNL     1     -10.408  16.131  66.257  1.00  0.00    -0.328 C  
HETATM   15  N   UNL     1      -8.237  16.657  67.103  1.00  0.00    -0.170 NA 
HETATM   16  C   UNL     1      -8.917  15.821  66.115  1.00  0.00    -0.337 C  
HETATM   17  C   UNL     1     -10.400  17.625  66.602  1.00  0.00    -0.333 C  
HETATM   18  C   UNL     1      -9.001  17.925  67.150  1.00  0.00    -0.251 C  
HETATM   19  H   UNL     1      -7.243  16.784  66.916  1.00  0.00     0.000 HD 
BRANCH  18  20
HETATM   20  C   UNL     1      -8.978  18.505  68.580  1.00  0.00    -0.323 C  
BRANCH  20  21
HETATM   21  N   UNL     1      -8.000  19.646  68.664  1.00  0.00    -0.331 N  
HETATM   22  H   UNL     1      -8.268  20.609  68.463  1.00  0.00     0.000 HD 
BRANCH  21  23
HETATM   23  S   UNL     1      -6.446  19.228  69.110  1.00  0.00    -0.310 S  
HETATM   24  O   UNL     1      -6.455  17.850  69.537  1.00  0.00    -0.251 OA 
HETATM   25  N   UNL     1      -6.365  20.145  70.478  1.00  0.00    -0.403 N  
HETATM   26  O   UNL     1      -5.523  19.761  68.145  1.00  0.00    -0.194 OA 
HETATM   27  H2  UNL     1      -7.046  20.767  70.914  1.00  0.00     0.000 HD 
HETATM   28  H1  UNL     1      -5.416  19.889  70.750  1.00  0.00     0.000 HD 
ENDBRANCH  21  23
ENDBRANCH  20  21
ENDBRANCH  18  20
ENDBRANCH  13  14
ENDBRANCH   3  13
BRANCH  10  29
HETATM   29  C   UNL     1      -8.610   9.489  66.574  1.00  0.00    -0.134 C  
HETATM   30  H   UNL     1      -7.264   8.393  65.735  1.00  0.00     0.000 HD 
HETATM   31  O   UNL     1      -7.630   9.253  65.562  1.00  0.00    -0.089 OA 
HETATM   32  C   UNL     1      -9.674   8.405  66.509  1.00  0.00    -0.330 C  
ENDBRANCH  10  29
TORSDOF 6
ENDMDL
MODEL       48
REMARK 921   NORMALIZED FREE ENERGY PREDICTED BY IDOCK:   -6.03 KCAL/MOL
REMARK 922        TOTAL FREE ENERGY PREDICTED BY IDOCK:   -9.02 KCAL/MOL
REMARK 923 INTER-LIGAND FREE ENERGY PREDICTED BY IDOCK:   -7.97 KCAL/MOL
REMARK 924 INTRA-LIGAND FREE ENERGY PREDICTED BY IDOCK:   -1.06 KCAL/MOL
REMARK 927      BINDING AFFINITY PREDICTED BY RF-SCORE:    0.00 PKD
ROOT
HETATM    1  C   UNL     1     -11.886   9.999  70.030  1.00  0.00    -0.126 C  
HETATM    2  C   UNL     1     -12.103  11.412  69.470  1.00  0.00    -0.370 C  
HETATM    3  C   UNL     1     -10.928  11.569  68.529  1.00  0.00    -0.223 C  
HETATM    4  C   UNL     1     -12.221  12.425  70.602  1.00  0.00    -0.368 C  
HETATM    5  O   UNL     1      -8.064   9.304  68.237  1.00  0.00    -0.105 OA 
HETATM    6  C   UNL     1     -10.155  10.462  68.532  1.00  0.00    -0.171 C  
HETATM    7  N   UNL     1     -10.680   9.461  69.340  1.00  0.00    -0.226 N  
HETATM    8  O   UNL     1      -8.954   8.605  70.644  1.00  0.00    -0.146 OA 
HETATM    9  C   UNL     1      -8.886  10.262  67.754  1.00  0.00    -0.125 C  
HETATM   10  C   UNL     1     -11.161   9.668  71.374  1.00  0.00    -0.397 C  
HETATM   11  O   UNL     1      -8.598  10.874  66.737  1.00  0.00    -0.130 OA 
HETATM   12  C   UNL     1     -10.064   9.062  70.493  1.00  0.00    -0.215 C  
ENDROOT
BRANCH   3  13
HETATM   13  S   UNL     1     -10.599  13.016  67.653  1.00  0.00    -0.226 SA 
BRANCH  13  14
HETATM   14  C   UNL     1     -11.481  12.854  66.062  1.00  0.00    -0.340 C  
HETATM   15  N   UNL     1     -10.247  14.086  64.430  1.00  0.00    -0.711 NA 
HETATM   16  C   UNL     1     -10.619  12.723  64.805  1.00  0.00    -0.327 C  
HETATM   17  C   UNL     1     -12.241  14.160  65.802  1.00  0.00    -0.458 C  
HETATM   18  C   UNL     1     -11.419  14.928  64.762  1.00  0.00    -0.410 C  
HETATM   19  H   UNL     1      -9.941  14.174  63.461  1.00  0.00     0.000 HD 
BRANCH  18  20
HETATM   20  C   UNL     1     -10.955  16.330  65.212  1.00  0.00    -0.236 C  
BRANCH  20  21
HETATM   21  N   UNL     1      -9.740  16.219  66.093  1.00  0.00    -0.308 N  
HETATM   22  H   UNL     1      -8.946  15.626  65.854  1.00  0.00     0.000 HD 
BRANCH  21  23
HETATM   23  S   UNL     1      -9.779  17.134  67.489  1.00  0.00    -0.262 S  
HETATM   24  O   UNL     1     -10.933  16.734  68.258  1.00  0.00    -0.361 OA 
HETATM   25  N   UNL     1     -10.159  18.576  66.786  1.00  0.00    -0.357 N  
HETATM   26  O   UNL     1      -8.450  17.222  68.029  1.00  0.00    -0.217 OA 
HETATM   27  H2  UNL     1     -10.318  18.829  65.811  1.00  0.00     0.000 HD 
HETATM   28  H1  UNL     1     -10.183  19.135  67.639  1.00  0.00     0.000 HD 
ENDBRANCH  21  23
ENDBRANCH  20  21
ENDBRANCH  18  20
ENDBRANCH  13  14
ENDBRANCH   3  13
BRANCH  10  29
HETATM   29  C   UNL     1     -11.955   8.764  72.294  1.00  0.00    -0.345 C  
HETATM   30  H   UNL     1     -12.369   6.882  72.322  1.00  0.00     0.000 HD 
HETATM   31  O   UNL     1     -11.871   7.448  71.745  1.00  0.00    -0.273 OA 
HETATM   32  C   UNL     1     -13.413   9.187  72.371  1.00  0.00    -0.535 C  
ENDBRANCH  10  29
TORSDOF 6
ENDMDL
MODEL       49
REMARK 921   NORMALIZED FREE ENERGY PREDICTED BY IDOCK:   -6.01 KCAL/MOL
REMARK 922        TOTAL FREE ENERGY PREDICTED BY IDOCK:   -9.00 KCAL/MOL
REMARK 923 INTER-LIGAND FREE ENERGY PREDICTED BY IDOCK:   -7.58 KCAL/MOL
REMARK 924 INTRA-LIGAND FREE ENERGY PREDICTED BY IDOCK:   -1.42 KCAL/MOL
REMARK 927      BINDING AFFINITY PREDICTED BY RF-SCORE:    0.00 PKD
ROOT
HETATM    1  C   UNL     1      -8.213  18.139  68.567  1.00  0.00    -0.307 C  
HETATM    2  C   UNL     1      -9.733  17.947  68.672  1.00  0.00    -0.355 C  
HETATM    3  C   UNL     1      -9.877  16.446  68.549  1.00  0.00    -0.231 C  
HETATM    4  C   UNL     1     -10.453  18.797  67.632  1.00  0.00    -0.495 C  
HETATM    5  O   UNL     1      -7.232  14.081  67.636  1.00  0.00    -0.152 OA 
HETATM    6  C   UNL     1      -8.671  15.856  68.396  1.00  0.00    -0.183 C  
HETATM    7  N   UNL     1      -7.630  16.773  68.459  1.00  0.00    -0.205 N  
HETATM    8  O   UNL     1      -6.171  16.333  66.701  1.00  0.00    -0.286 OA 
HETATM    9  C   UNL     1      -8.418  14.387  68.207  1.00  0.00    -0.165 C  
HETATM   10  C   UNL     1      -7.440  18.482  67.254  1.00  0.00    -0.224 C  
HETATM   11  O   UNL     1      -9.185  13.505  68.561  1.00  0.00    -0.180 OA 
HETATM   12  C   UNL     1      -6.857  17.070  67.371  1.00  0.00    -0.147 C  
ENDROOT
BRANCH   3  13
HETATM   13  S   UNL     1     -11.397  15.636  68.521  1.00  0.00    -0.371 SA 
BRANCH  13  14
HETATM   14  C   UNL     1     -12.261  16.134  70.052  1.00  0.00     0.134 C  
HETATM   15  N   UNL     1     -11.428  14.764  71.822  1.00  0.00    -0.488 NA 
HETATM   16  C   UNL     1     -11.434  16.144  71.339  1.00  0.00    -0.363 C  
HETATM   17  C   UNL     1     -13.332  15.081  70.360  1.00  0.00    -0.056 C  
HETATM   18  C   UNL     1     -12.762  14.216  71.489  1.00  0.00    -0.358 C  
HETATM   19  H   UNL     1     -11.185  14.678  72.809  1.00  0.00     0.000 HD 
BRANCH  18  20
HETATM   20  C   UNL     1     -12.650  12.712  71.157  1.00  0.00    -0.258 C  
BRANCH  20  21
HETATM   21  N   UNL     1     -11.568  12.483  70.138  1.00  0.00    -0.543 N  
HETATM   22  H   UNL     1     -10.875  13.195  69.909  1.00  0.00     0.000 HD 
BRANCH  21  23
HETATM   23  S   UNL     1     -11.577  10.982  69.406  1.00  0.00    -0.342 S  
HETATM   24  O   UNL     1     -12.130  10.029  70.338  1.00  0.00    -0.258 OA 
HETATM   25  N   UNL     1      -9.946  10.740  69.399  1.00  0.00    -0.396 N  
HETATM   26  O   UNL     1     -12.025  11.125  68.048  1.00  0.00    -0.625 OA 
HETATM   27  H2  UNL     1      -9.177  11.321  69.734  1.00  0.00     0.000 HD 
HETATM   28  H1  UNL     1      -9.951   9.824  68.952  1.00  0.00     0.000 HD 
ENDBRANCH  21  23
ENDBRANCH  20  21
ENDBRANCH  18  20
ENDBRANCH  13  14
ENDBRANCH   3  13
BRANCH  10  29
HETATM   29  C   UNL     1      -6.516  19.677  67.378  1.00  0.00    -0.195 C  
HETATM   30  H   UNL     1      -5.944  20.804  68.833  1.00  0.00     0.000 HD 
HETATM   31  O   UNL     1      -6.523  20.055  68.756  1.00  0.00    -0.288 OA 
HETATM   32  C   UNL     1      -6.995  20.844  66.531  1.00  0.00    -0.242 C  
ENDBRANCH  10  29
TORSDOF 6
ENDMDL
MODEL       50
REMARK 921   NORMALIZED FREE ENERGY PREDICTED BY IDOCK:   -5.98 KCAL/MOL
REMARK 922        TOTAL FREE ENERGY PREDICTED BY IDOCK:   -8.96 KCAL/MOL
REMARK 923 INTER-LIGAND FREE ENERGY PREDICTED BY IDOCK:   -7.84 KCAL/MOL
REMARK 924 INTRA-LIGAND FREE ENERGY PREDICTED BY IDOCK:   -1.12 KCAL/MOL
REMARK 927      BINDING AFFINITY PREDICTED BY RF-SCORE:    0.00 PKD
ROOT
HETATM    1  C   UNL     1     -11.733  10.631  69.696  1.00  0.00    -0.296 C  
HETATM    2  C   UNL     1     -11.838  12.130  69.381  1.00  0.00    -0.370 C  
HETATM    3  C   UNL     1     -10.495  12.420  68.747  1.00  0.00    -0.154 C  
HETATM    4  C   UNL     1     -12.194  12.918  70.636  1.00  0.00    -0.386 C  
HETATM    5  O   UNL     1      -7.620  10.153  68.622  1.00  0.00    -0.081 OA 
HETATM    6  C   UNL     1      -9.733  11.306  68.698  1.00  0.00    -0.195 C  
HETATM    7  N   UNL     1     -10.407  10.191  69.178  1.00  0.00    -0.205 N  
HETATM    8  O   UNL     1      -8.984   9.049  70.621  1.00  0.00    -0.179 OA 
HETATM    9  C   UNL     1      -8.329  11.212  68.172  1.00  0.00    -0.136 C  
HETATM   10  C   UNL     1     -11.300  10.032  71.072  1.00  0.00    -0.434 C  
HETATM   11  O   UNL     1      -7.840  11.993  67.369  1.00  0.00    -0.144 OA 
HETATM   12  C   UNL     1     -10.041   9.563  70.336  1.00  0.00    -0.271 C  
ENDROOT
BRANCH   3  13
HETATM   13  S   UNL     1     -10.000  13.993  68.247  1.00  0.00    -0.239 SA 
BRANCH  13  14
HETATM   14  C   UNL     1     -11.381  14.665  67.257  1.00  0.00    -0.353 C  
HETATM   15  N   UNL     1     -12.112  12.934  65.782  1.00  0.00    -0.444 NA 
HETATM   16  C   UNL     1     -12.535  13.710  66.947  1.00  0.00    -0.141 C  
HETATM   17  C   UNL     1     -10.848  14.999  65.859  1.00  0.00    -0.339 C  
HETATM   18  C   UNL     1     -11.325  13.866  64.943  1.00  0.00    -0.347 C  
HETATM   19  H   UNL     1     -12.883  12.489  65.286  1.00  0.00     0.000 HD 
BRANCH  18  20
HETATM   20  C   UNL     1     -10.196  13.103  64.218  1.00  0.00    -0.261 C  
BRANCH  20  21
HETATM   21  N   UNL     1      -9.608  12.056  65.125  1.00  0.00    -0.420 N  
HETATM   22  H   UNL     1      -9.341  12.258  66.088  1.00  0.00     0.000 HD 
BRANCH  21  23
HETATM   23  S   UNL     1      -9.421  10.542  64.447  1.00  0.00    -0.307 S  
HETATM   24  O   UNL     1      -9.952   9.567  65.369  1.00  0.00    -0.284 OA 
HETATM   25  N   UNL     1      -7.778  10.458  64.568  1.00  0.00    -0.299 N  
HETATM   26  O   UNL     1      -9.776  10.604  63.056  1.00  0.00    -0.314 OA 
HETATM   27  H2  UNL     1      -7.095  11.119  64.938  1.00  0.00     0.000 HD 
HETATM   28  H1  UNL     1      -7.665   9.533  64.154  1.00  0.00     0.000 HD 
ENDBRANCH  21  23
ENDBRANCH  20  21
ENDBRANCH  18  20
ENDBRANCH  13  14
ENDBRANCH   3  13
BRANCH  10  29
HETATM   29  C   UNL     1     -12.263   8.999  71.623  1.00  0.00    -0.348 C  
HETATM   30  H   UNL     1     -13.909   9.075  72.623  1.00  0.00     0.000 HD 
HETATM   31  O   UNL     1     -13.306   9.723  72.278  1.00  0.00    -0.443 OA 
HETATM   32  C   UNL     1     -11.582   8.078  72.622  1.00  0.00    -0.448 C  
ENDBRANCH  10  29
TORSDOF 6
ENDMDL
MODEL       51
REMARK 921   NORMALIZED FREE ENERGY PREDICTED BY IDOCK:   -5.97 KCAL/MOL
REMARK 922        TOTAL FREE ENERGY PREDICTED BY IDOCK:   -8.95 KCAL/MOL
REMARK 923 INTER-LIGAND FREE ENERGY PREDICTED BY IDOCK:   -8.19 KCAL/MOL
REMARK 924 INTRA-LIGAND FREE ENERGY PREDICTED BY IDOCK:   -0.76 KCAL/MOL
REMARK 927      BINDING AFFINITY PREDICTED BY RF-SCORE:    0.00 PKD
ROOT
HETATM    1  C   UNL     1     -12.008  11.200  69.057  1.00  0.00    -0.320 C  
HETATM    2  C   UNL     1     -12.094  12.681  68.664  1.00  0.00    -0.144 C  
HETATM    3  C   UNL     1     -11.459  12.687  67.290  1.00  0.00    -0.342 C  
HETATM    4  C   UNL     1     -11.444  13.557  69.728  1.00  0.00    -0.246 C  
HETATM    5  O   UNL     1      -9.681   9.901  65.711  1.00  0.00    -0.226 OA 
HETATM    6  C   UNL     1     -11.065  11.445  66.935  1.00  0.00    -0.295 C  
HETATM    7  N   UNL     1     -11.408  10.496  67.889  1.00  0.00    -0.293 N  
HETATM    8  O   UNL     1      -9.555   9.137  68.255  1.00  0.00    -0.145 OA 
HETATM    9  C   UNL     1     -10.366  11.064  65.661  1.00  0.00    -0.251 C  
HETATM   10  C   UNL     1     -10.870  10.565  69.919  1.00  0.00    -0.334 C  
HETATM   11  O   UNL     1     -10.417  11.714  64.627  1.00  0.00    -0.269 OA 
HETATM   12  C   UNL     1     -10.465   9.840  68.631  1.00  0.00    -0.208 C  
ENDROOT
BRANCH   3  13
HETATM   13  S   UNL     1     -11.205  14.120  66.366  1.00  0.00    -0.337 SA 
BRANCH  13  14
HETATM   14  C   UNL     1      -9.399  14.398  66.353  1.00  0.00    -0.258 C  
HETATM   15  N   UNL     1      -8.786  15.210  68.514  1.00  0.00    -0.164 NA 
HETATM   16  C   UNL     1      -8.639  14.051  67.635  1.00  0.00    -0.188 C  
HETATM   17  C   UNL     1      -9.150  15.905  66.223  1.00  0.00    -0.379 C  
HETATM   18  C   UNL     1      -8.770  16.393  67.625  1.00  0.00    -0.182 C  
HETATM   19  H   UNL     1      -8.090  15.248  69.259  1.00  0.00     0.000 HD 
BRANCH  18  20
HETATM   20  C   UNL     1      -9.686  17.498  68.194  1.00  0.00    -0.302 C  
BRANCH  20  21
HETATM   21  N   UNL     1      -9.063  18.851  67.987  1.00  0.00    -0.296 N  
HETATM   22  H   UNL     1      -8.460  19.286  68.685  1.00  0.00     0.000 HD 
BRANCH  21  23
HETATM   23  S   UNL     1      -9.424  19.594  66.536  1.00  0.00    -0.406 S  
HETATM   24  O   UNL     1      -8.225  19.627  65.735  1.00  0.00    -0.408 OA 
HETATM   25  N   UNL     1      -9.637  21.119  67.127  1.00  0.00    -0.592 N  
HETATM   26  O   UNL     1     -10.690  19.105  66.062  1.00  0.00    -0.439 OA 
HETATM   27  H2  UNL     1      -9.570  21.490  68.075  1.00  0.00     0.000 HD 
HETATM   28  H1  UNL     1      -9.858  21.572  66.241  1.00  0.00     0.000 HD 
ENDBRANCH  21  23
ENDBRANCH  20  21
ENDBRANCH  18  20
ENDBRANCH  13  14
ENDBRANCH   3  13
BRANCH  10  29
HETATM   29  C   UNL     1     -11.371   9.755  71.097  1.00  0.00    -0.389 C  
HETATM   30  H   UNL     1     -11.582   7.873  71.460  1.00  0.00     0.000 HD 
HETATM   31  O   UNL     1     -11.268   8.381  70.720  1.00  0.00    -0.258 OA 
HETATM   32  C   UNL     1     -12.819  10.082  71.425  1.00  0.00    -0.519 C  
ENDBRANCH  10  29
TORSDOF 6
ENDMDL
MODEL       52
REMARK 921   NORMALIZED FREE ENERGY PREDICTED BY IDOCK:   -5.97 KCAL/MOL
REMARK 922        TOTAL FREE ENERGY PREDICTED BY IDOCK:   -8.95 KCAL/MOL
REMARK 923 INTER-LIGAND FREE ENERGY PREDICTED BY IDOCK:   -8.33 KCAL/MOL
REMARK 924 INTRA-LIGAND FREE ENERGY PREDICTED BY IDOCK:   -0.62 KCAL/MOL
REMARK 927      BINDING AFFINITY PREDICTED BY RF-SCORE:    0.00 PKD
ROOT
HETATM    1  C   UNL     1     -11.685   9.334  70.564  1.00  0.00    -0.176 C  
HETATM    2  C   UNL     1     -12.449  10.623  70.228  1.00  0.00    -0.381 C  
HETATM    3  C   UNL     1     -11.451  11.376  69.376  1.00  0.00    -0.310 C  
HETATM    4  C   UNL     1     -12.927  11.310  71.502  1.00  0.00    -0.520 C  
HETATM    5  O   UNL     1      -7.938  10.481  68.848  1.00  0.00    -0.109 OA 
HETATM    6  C   UNL     1     -10.307  10.671  69.235  1.00  0.00    -0.218 C  
HETATM    7  N   UNL     1     -10.382   9.428  69.849  1.00  0.00    -0.212 N  
HETATM    8  O   UNL     1      -8.429   9.107  71.073  1.00  0.00    -0.194 OA 
HETATM    9  C   UNL     1      -9.079  11.110  68.490  1.00  0.00    -0.175 C  
HETATM   10  C   UNL     1     -10.858   9.095  71.868  1.00  0.00    -0.353 C  
HETATM   11  O   UNL     1      -9.076  11.944  67.597  1.00  0.00    -0.169 OA 
HETATM   12  C   UNL     1      -9.632   9.115  70.949  1.00  0.00    -0.279 C  
ENDROOT
BRANCH   3  13
HETATM   13  S   UNL     1     -11.732  12.960  68.758  1.00  0.00    -0.325 SA 
BRANCH  13  14
HETATM   14  C   UNL     1     -11.427  14.105  70.148  1.00  0.00    -0.163 C  
HETATM   15  N   UNL     1     -12.471  16.183  69.605  1.00  0.00    -0.450 NA 
HETATM   16  C   UNL     1     -12.567  15.051  70.525  1.00  0.00    -0.369 C  
HETATM   17  C   UNL     1     -10.319  15.080  69.729  1.00  0.00    -0.172 C  
HETATM   18  C   UNL     1     -11.024  16.394  69.378  1.00  0.00    -0.325 C  
HETATM   19  H   UNL     1     -12.961  17.017  69.930  1.00  0.00     0.000 HD 
BRANCH  18  20
HETATM   20  C   UNL     1     -10.779  16.894  67.939  1.00  0.00    -0.344 C  
BRANCH  20  21
HETATM   21  N   UNL     1      -9.750  17.992  67.935  1.00  0.00    -0.287 N  
HETATM   22  H   UNL     1      -9.211  18.236  68.765  1.00  0.00     0.000 HD 
BRANCH  21  23
HETATM   23  S   UNL     1      -9.550  18.784  66.479  1.00  0.00    -0.353 S  
HETATM   24  O   UNL     1      -8.195  18.570  66.032  1.00  0.00    -0.466 OA 
HETATM   25  N   UNL     1      -9.615  20.324  67.066  1.00  0.00    -0.417 N  
HETATM   26  O   UNL     1     -10.709  18.557  65.659  1.00  0.00    -0.549 OA 
HETATM   27  H2  UNL     1      -9.737  20.679  68.014  1.00  0.00     0.000 HD 
HETATM   28  H1  UNL     1      -9.493  20.808  66.176  1.00  0.00     0.000 HD 
ENDBRANCH  21  23
ENDBRANCH  20  21
ENDBRANCH  18  20
ENDBRANCH  13  14
ENDBRANCH   3  13
BRANCH  10  29
HETATM   29  C   UNL     1     -11.215   7.816  72.597  1.00  0.00    -0.381 C  
HETATM   30  H   UNL     1     -10.357   6.735  73.942  1.00  0.00     0.000 HD 
HETATM   31  O   UNL     1     -10.132   7.538  73.485  1.00  0.00    -0.315 OA 
HETATM   32  C   UNL     1     -11.390   6.654  71.633  1.00  0.00    -0.319 C  
ENDBRANCH  10  29
TORSDOF 6
ENDMDL
MODEL       53
REMARK 921   NORMALIZED FREE ENERGY PREDICTED BY IDOCK:   -5.97 KCAL/MOL
REMARK 922        TOTAL FREE ENERGY PREDICTED BY IDOCK:   -8.95 KCAL/MOL
REMARK 923 INTER-LIGAND FREE ENERGY PREDICTED BY IDOCK:   -7.29 KCAL/MOL
REMARK 924 INTRA-LIGAND FREE ENERGY PREDICTED BY IDOCK:   -1.65 KCAL/MOL
REMARK 927      BINDING AFFINITY PREDICTED BY RF-SCORE:    0.00 PKD
ROOT
HETATM    1  C   UNL     1     -11.997  15.108  69.908  1.00  0.00    -0.337 C  
HETATM    2  C   UNL     1     -10.874  15.227  68.867  1.00  0.00    -0.247 C  
HETATM    3  C   UNL     1     -10.822  13.829  68.290  1.00  0.00    -0.250 C  
HETATM    4  C   UNL     1      -9.599  15.755  69.513  1.00  0.00    -0.262 C  
HETATM    5  O   UNL     1     -12.578  10.883  69.577  1.00  0.00    -0.304 OA 
HETATM    6  C   UNL     1     -11.737  13.029  68.878  1.00  0.00    -0.328 C  
HETATM    7  N   UNL     1     -12.517  13.717  69.799  1.00  0.00    -0.213 N  
HETATM    8  O   UNL     1     -12.648  12.435  71.736  1.00  0.00    -0.166 OA 
HETATM    9  C   UNL     1     -11.957  11.570  68.593  1.00  0.00    -0.246 C  
HETATM   10  C   UNL     1     -11.783  14.821  71.429  1.00  0.00    -0.352 C  
HETATM   11  O   UNL     1     -11.644  11.018  67.550  1.00  0.00    -0.529 OA 
HETATM   12  C   UNL     1     -12.443  13.468  71.142  1.00  0.00    -0.339 C  
ENDROOT
BRANCH   3  13
HETATM   13  S   UNL     1      -9.675  13.333  67.103  1.00  0.00    -0.243 SA 
BRANCH  13  14
HETATM   14  C   UNL     1      -8.173  12.852  68.024  1.00  0.00    -0.168 C  
HETATM   15  N   UNL     1      -6.768  11.641  66.519  1.00  0.00    -0.360 NA 
HETATM   16  C   UNL     1      -6.850  12.900  67.258  1.00  0.00    -0.057 C  
HETATM   17  C   UNL     1      -8.288  11.366  68.384  1.00  0.00    -0.153 C  
HETATM   18  C   UNL     1      -7.386  10.620  67.396  1.00  0.00    -0.093 C  
HETATM   19  H   UNL     1      -5.822  11.405  66.219  1.00  0.00     0.000 HD 
BRANCH  18  20
HETATM   20  C   UNL     1      -8.105   9.554  66.542  1.00  0.00    -0.112 C  
BRANCH  20  21
HETATM   21  N   UNL     1      -9.474   9.276  67.100  1.00  0.00    -0.144 N  
HETATM   22  H   UNL     1     -10.251   9.926  66.985  1.00  0.00     0.000 HD 
BRANCH  21  23
HETATM   23  S   UNL     1      -9.636   7.831  67.921  1.00  0.00    -0.149 S  
HETATM   24  O   UNL     1     -10.107   6.834  66.991  1.00  0.00    -0.167 OA 
HETATM   25  N   UNL     1     -10.931   8.259  68.849  1.00  0.00    -0.427 N  
HETATM   26  O   UNL     1      -8.497   7.651  68.780  1.00  0.00    -0.128 OA 
HETATM   27  H2  UNL     1     -11.463   9.127  68.903  1.00  0.00     0.000 HD 
HETATM   28  H1  UNL     1     -11.029   7.377  69.350  1.00  0.00     0.000 HD 
ENDBRANCH  21  23
ENDBRANCH  20  21
ENDBRANCH  18  20
ENDBRANCH  13  14
ENDBRANCH   3  13
BRANCH  10  29
HETATM   29  C   UNL     1     -12.482  15.805  72.345  1.00  0.00    -0.453 C  
HETATM   30  H   UNL     1     -12.412  16.187  74.233  1.00  0.00     0.000 HD 
HETATM   31  O   UNL     1     -11.974  15.569  73.659  1.00  0.00    -0.461 OA 
HETATM   32  C   UNL     1     -13.988  15.600  72.341  1.00  0.00    -0.602 C  
ENDBRANCH  10  29
TORSDOF 6
ENDMDL
MODEL       54
REMARK 921   NORMALIZED FREE ENERGY PREDICTED BY IDOCK:   -5.96 KCAL/MOL
REMARK 922        TOTAL FREE ENERGY PREDICTED BY IDOCK:   -8.94 KCAL/MOL
REMARK 923 INTER-LIGAND FREE ENERGY PREDICTED BY IDOCK:   -7.97 KCAL/MOL
REMARK 924 INTRA-LIGAND FREE ENERGY PREDICTED BY IDOCK:   -0.97 KCAL/MOL
REMARK 927      BINDING AFFINITY PREDICTED BY RF-SCORE:    0.00 PKD
ROOT
HETATM    1  C   UNL     1     -10.570   9.596  70.020  1.00  0.00    -0.260 C  
HETATM    2  C   UNL     1     -10.420  10.394  68.717  1.00  0.00    -0.219 C  
HETATM    3  C   UNL     1     -11.225  11.642  69.009  1.00  0.00    -0.262 C  
HETATM    4  C   UNL     1     -10.857   9.555  67.522  1.00  0.00    -0.239 C  
HETATM    5  O   UNL     1     -13.405  12.188  71.903  1.00  0.00    -0.463 OA 
HETATM    6  C   UNL     1     -11.757  11.593  70.250  1.00  0.00    -0.266 C  
HETATM    7  N   UNL     1     -11.370  10.453  70.940  1.00  0.00    -0.305 N  
HETATM    8  O   UNL     1     -13.260   9.532  71.937  1.00  0.00    -0.379 OA 
HETATM    9  C   UNL     1     -12.643  12.632  70.878  1.00  0.00    -0.249 C  
HETATM   10  C   UNL     1     -11.632   8.479  70.271  1.00  0.00     0.004 C  
HETATM   11  O   UNL     1     -12.676  13.805  70.540  1.00  0.00    -0.298 OA 
HETATM   12  C   UNL     1     -12.257   9.464  71.265  1.00  0.00    -0.345 C  
ENDROOT
BRANCH   3  13
HETATM   13  S   UNL     1     -11.484  12.898  67.858  1.00  0.00    -0.339 SA 
BRANCH  13  14
HETATM   14  C   UNL     1     -10.010  12.904  66.779  1.00  0.00    -0.243 C  
HETATM   15  N   UNL     1      -8.872  14.974  67.135  1.00  0.00    -0.200 NA 
HETATM   16  C   UNL     1      -8.739  13.534  67.351  1.00  0.00    -0.220 C  
HETATM   17  C   UNL     1     -10.305  13.803  65.573  1.00  0.00    -0.333 C  
HETATM   18  C   UNL     1      -9.571  15.121  65.838  1.00  0.00    -0.338 C  
HETATM   19  H   UNL     1      -7.986  15.477  67.182  1.00  0.00     0.000 HD 
BRANCH  18  20
HETATM   20  C   UNL     1     -10.477  16.371  65.862  1.00  0.00    -0.337 C  
BRANCH  20  21
HETATM   21  N   UNL     1      -9.672  17.592  66.216  1.00  0.00    -0.277 N  
HETATM   22  H   UNL     1      -8.927  17.946  65.616  1.00  0.00     0.000 HD 
BRANCH  21  23
HETATM   23  S   UNL     1     -10.079  18.328  67.658  1.00  0.00    -0.375 S  
HETATM   24  O   UNL     1      -8.902  18.366  68.492  1.00  0.00    -0.313 OA 
HETATM   25  N   UNL     1     -11.035  17.121  68.249  1.00  0.00    -0.309 N  
HETATM   26  O   UNL     1     -10.903  19.473  67.383  1.00  0.00    -0.486 OA 
HETATM   27  H2  UNL     1     -11.294  16.215  67.859  1.00  0.00     0.000 HD 
HETATM   28  H1  UNL     1     -11.283  17.570  69.130  1.00  0.00     0.000 HD 
ENDBRANCH  21  23
ENDBRANCH  20  21
ENDBRANCH  18  20
ENDBRANCH  13  14
ENDBRANCH   3  13
BRANCH  10  29
HETATM   29  C   UNL     1     -11.048   7.179  70.785  1.00  0.00    -0.269 C  
HETATM   30  H   UNL     1      -9.333   6.645  71.484  1.00  0.00     0.000 HD 
HETATM   31  O   UNL     1      -9.699   7.460  71.161  1.00  0.00    -0.164 OA 
HETATM   32  C   UNL     1     -11.060   6.099  69.716  1.00  0.00    -0.486 C  
ENDBRANCH  10  29
TORSDOF 6
ENDMDL
MODEL       55
REMARK 921   NORMALIZED FREE ENERGY PREDICTED BY IDOCK:   -5.96 KCAL/MOL
REMARK 922        TOTAL FREE ENERGY PREDICTED BY IDOCK:   -8.93 KCAL/MOL
REMARK 923 INTER-LIGAND FREE ENERGY PREDICTED BY IDOCK:   -7.80 KCAL/MOL
REMARK 924 INTRA-LIGAND FREE ENERGY PREDICTED BY IDOCK:   -1.13 KCAL/MOL
REMARK 927      BINDING AFFINITY PREDICTED BY RF-SCORE:    0.00 PKD
ROOT
HETATM    1  C   UNL     1     -11.165  11.913  68.169  1.00  0.00    -0.258 C  
HETATM    2  C   UNL     1     -10.446  10.640  68.638  1.00  0.00    -0.211 C  
HETATM    3  C   UNL     1     -11.078  10.393  69.991  1.00  0.00    -0.314 C  
HETATM    4  C   UNL     1      -8.935  10.835  68.608  1.00  0.00    -0.162 C  
HETATM    5  O   UNL     1     -13.299  12.680  71.796  1.00  0.00    -0.418 OA 
HETATM    6  C   UNL     1     -11.995  11.343  70.276  1.00  0.00    -0.373 C  
HETATM    7  N   UNL     1     -12.157  12.242  69.230  1.00  0.00    -0.221 N  
HETATM    8  O   UNL     1     -12.149  14.393  70.117  1.00  0.00    -0.294 OA 
HETATM    9  C   UNL     1     -12.801  11.450  71.539  1.00  0.00    -0.403 C  
HETATM   10  C   UNL     1     -10.620  13.366  68.344  1.00  0.00    -0.259 C  
HETATM   11  O   UNL     1     -13.038  10.513  72.286  1.00  0.00    -0.394 OA 
HETATM   12  C   UNL     1     -11.776  13.551  69.332  1.00  0.00    -0.325 C  
ENDROOT
BRANCH   3  13
HETATM   13  S   UNL     1     -10.603   9.114  71.044  1.00  0.00    -0.320 SA 
BRANCH  13  14
HETATM   14  C   UNL     1     -11.599   7.663  70.554  1.00  0.00    -0.175 C  
HETATM   15  N   UNL     1     -11.787   6.246  72.467  1.00  0.00    -0.502 NA 
HETATM   16  C   UNL     1     -12.576   7.114  71.595  1.00  0.00    -0.375 C  
HETATM   17  C   UNL     1     -10.647   6.479  70.344  1.00  0.00    -0.282 C  
HETATM   18  C   UNL     1     -10.785   5.599  71.590  1.00  0.00    -0.251 C  
HETATM   19  H   UNL     1     -12.350   5.585  73.003  1.00  0.00     0.000 HD 
BRANCH  18  20
HETATM   20  C   UNL     1      -9.471   5.369  72.367  1.00  0.00    -0.143 C  
BRANCH  20  21
HETATM   21  N   UNL     1      -8.541   6.536  72.177  1.00  0.00    -0.124 N  
HETATM   22  H   UNL     1      -8.183   6.804  71.261  1.00  0.00     0.000 HD 
BRANCH  21  23
HETATM   23  S   UNL     1      -8.134   7.364  73.569  1.00  0.00    -0.134 S  
HETATM   24  O   UNL     1      -7.390   6.470  74.423  1.00  0.00    -0.098 OA 
HETATM   25  N   UNL     1      -9.652   7.466  74.205  1.00  0.00    -0.416 N  
HETATM   26  O   UNL     1      -7.694   8.686  73.216  1.00  0.00    -0.377 OA 
HETATM   27  H2  UNL     1     -10.552   7.132  73.860  1.00  0.00     0.000 HD 
HETATM   28  H1  UNL     1      -9.404   7.972  75.055  1.00  0.00     0.000 HD 
ENDBRANCH  21  23
ENDBRANCH  20  21
ENDBRANCH  18  20
ENDBRANCH  13  14
ENDBRANCH   3  13
BRANCH  10  29
HETATM   29  C   UNL     1     -10.605  14.176  67.063  1.00  0.00    -0.276 C  
HETATM   30  H   UNL     1     -10.837  16.040  66.633  1.00  0.00     0.000 HD 
HETATM   31  O   UNL     1     -10.847  15.533  67.437  1.00  0.00    -0.304 OA 
HETATM   32  C   UNL     1     -11.687  13.716  66.100  1.00  0.00    -0.391 C  
ENDBRANCH  10  29
TORSDOF 6
ENDMDL
MODEL       56
REMARK 921   NORMALIZED FREE ENERGY PREDICTED BY IDOCK:   -5.96 KCAL/MOL
REMARK 922        TOTAL FREE ENERGY PREDICTED BY IDOCK:   -8.93 KCAL/MOL
REMARK 923 INTER-LIGAND FREE ENERGY PREDICTED BY IDOCK:   -7.94 KCAL/MOL
REMARK 924 INTRA-LIGAND FREE ENERGY PREDICTED BY IDOCK:   -0.99 KCAL/MOL
REMARK 927      BINDING AFFINITY PREDICTED BY RF-SCORE:    0.00 PKD
ROOT
HETATM    1  C   UNL     1     -11.728  12.225  66.824  1.00  0.00    -0.342 C  
HETATM    2  C   UNL     1     -11.658  11.133  67.901  1.00  0.00    -0.328 C  
HETATM    3  C   UNL     1     -11.858  11.924  69.176  1.00  0.00    -0.311 C  
HETATM    4  C   UNL     1     -10.361  10.341  67.777  1.00  0.00    -0.246 C  
HETATM    5  O   UNL     1     -11.885  15.575  69.480  1.00  0.00    -0.334 OA 
HETATM    6  C   UNL     1     -12.013  13.239  68.908  1.00  0.00    -0.297 C  
HETATM    7  N   UNL     1     -12.014  13.498  67.544  1.00  0.00    -0.362 N  
HETATM    8  O   UNL     1     -10.624  15.322  67.152  1.00  0.00    -0.288 OA 
HETATM    9  C   UNL     1     -12.199  14.336  69.918  1.00  0.00    -0.352 C  
HETATM   10  C   UNL     1     -10.493  12.952  66.202  1.00  0.00    -0.283 C  
HETATM   11  O   UNL     1     -12.631  14.165  71.048  1.00  0.00    -0.325 OA 
HETATM   12  C   UNL     1     -11.007  14.195  66.936  1.00  0.00    -0.300 C  
ENDROOT
BRANCH   3  13
HETATM   13  S   UNL     1     -11.799  11.223  70.749  1.00  0.00    -0.037 SA 
BRANCH  13  14
HETATM   14  C   UNL     1     -12.953   9.807  70.712  1.00  0.00    -0.149 C  
HETATM   15  N   UNL     1     -13.047   8.905  72.922  1.00  0.00    -0.749 NA 
HETATM   16  C   UNL     1     -13.854   9.620  71.934  1.00  0.00    -0.213 C  
HETATM   17  C   UNL     1     -12.125   8.517  70.717  1.00  0.00    -0.075 C  
HETATM   18  C   UNL     1     -12.198   7.972  72.147  1.00  0.00    -0.331 C  
HETATM   19  H   UNL     1     -13.600   8.448  73.647  1.00  0.00     0.000 HD 
BRANCH  18  20
HETATM   20  C   UNL     1     -10.831   7.797  72.842  1.00  0.00    -0.392 C  
BRANCH  20  21
HETATM   21  N   UNL     1      -9.765   8.551  72.095  1.00  0.00    -0.296 N  
HETATM   22  H   UNL     1      -9.985   9.318  71.460  1.00  0.00     0.000 HD 
BRANCH  21  23
HETATM   23  S   UNL     1      -8.198   8.048  72.375  1.00  0.00    -0.159 S  
HETATM   24  O   UNL     1      -7.736   8.671  73.592  1.00  0.00    -0.394 OA 
HETATM   25  N   UNL     1      -7.489   8.863  71.129  1.00  0.00    -0.105 N  
HETATM   26  O   UNL     1      -8.106   6.637  72.113  1.00  0.00    -0.105 OA 
HETATM   27  H2  UNL     1      -7.881   9.477  70.416  1.00  0.00     0.000 HD 
HETATM   28  H1  UNL     1      -6.532   8.555  71.301  1.00  0.00     0.000 HD 
ENDBRANCH  21  23
ENDBRANCH  20  21
ENDBRANCH  18  20
ENDBRANCH  13  14
ENDBRANCH   3  13
BRANCH  10  29
HETATM   29  C   UNL     1     -10.474  12.943  64.687  1.00  0.00    -0.363 C  
HETATM   30  H   UNL     1     -11.436  13.892  63.312  1.00  0.00     0.000 HD 
HETATM   31  O   UNL     1     -11.448  13.898  64.262  1.00  0.00    -0.371 OA 
HETATM   32  C   UNL     1     -10.831  11.574  64.132  1.00  0.00    -0.435 C  
ENDBRANCH  10  29
TORSDOF 6
ENDMDL
MODEL       57
REMARK 921   NORMALIZED FREE ENERGY PREDICTED BY IDOCK:   -5.92 KCAL/MOL
REMARK 922        TOTAL FREE ENERGY PREDICTED BY IDOCK:   -8.88 KCAL/MOL
REMARK 923 INTER-LIGAND FREE ENERGY PREDICTED BY IDOCK:   -8.28 KCAL/MOL
REMARK 924 INTRA-LIGAND FREE ENERGY PREDICTED BY IDOCK:   -0.61 KCAL/MOL
REMARK 927      BINDING AFFINITY PREDICTED BY RF-SCORE:    0.00 PKD
ROOT
HETATM    1  C   UNL     1     -10.936  11.090  68.518  1.00  0.00    -0.228 C  
HETATM    2  C   UNL     1     -10.074   9.988  69.152  1.00  0.00    -0.219 C  
HETATM    3  C   UNL     1     -10.795   9.725  70.456  1.00  0.00    -0.323 C  
HETATM    4  C   UNL     1      -8.619  10.434  69.245  1.00  0.00    -0.159 C  
HETATM    5  O   UNL     1     -13.533  11.712  71.860  1.00  0.00    -0.361 OA 
HETATM    6  C   UNL     1     -11.879  10.522  70.578  1.00  0.00    -0.347 C  
HETATM    7  N   UNL     1     -12.074  11.312  69.453  1.00  0.00    -0.331 N  
HETATM    8  O   UNL     1     -12.507  13.485  70.164  1.00  0.00    -0.290 OA 
HETATM    9  C   UNL     1     -12.818  10.571  71.749  1.00  0.00    -0.454 C  
HETATM   10  C   UNL     1     -10.655  12.623  68.627  1.00  0.00    -0.245 C  
HETATM   11  O   UNL     1     -12.977   9.656  72.543  1.00  0.00    -0.331 OA 
HETATM   12  C   UNL     1     -11.923  12.671  69.486  1.00  0.00    -0.270 C  
ENDROOT
BRANCH   3  13
HETATM   13  S   UNL     1     -10.231   8.613  71.646  1.00  0.00    -0.324 SA 
BRANCH  13  14
HETATM   14  C   UNL     1     -11.339   7.164  71.547  1.00  0.00    -0.255 C  
HETATM   15  N   UNL     1     -10.156   5.436  70.399  1.00  0.00    -0.224 NA 
HETATM   16  C   UNL     1     -10.692   5.789  71.713  1.00  0.00    -0.249 C  
HETATM   17  C   UNL     1     -11.902   7.091  70.123  1.00  0.00    -0.190 C  
HETATM   18  C   UNL     1     -11.116   5.983  69.414  1.00  0.00    -0.375 C  
HETATM   19  H   UNL     1      -9.976   4.438  70.286  1.00  0.00     0.000 HD 
BRANCH  18  20
HETATM   20  C   UNL     1     -10.370   6.434  68.140  1.00  0.00    -0.192 C  
BRANCH  20  21
HETATM   21  N   UNL     1     -11.024   5.849  66.918  1.00  0.00    -0.540 N  
HETATM   22  H   UNL     1     -11.975   6.092  66.641  1.00  0.00     0.000 HD 
BRANCH  21  23
HETATM   23  S   UNL     1     -10.089   4.776  66.046  1.00  0.00    -0.264 S  
HETATM   24  O   UNL     1      -9.045   5.522  65.386  1.00  0.00    -0.141 OA 
HETATM   25  N   UNL     1     -11.208   4.411  64.891  1.00  0.00    -0.885 N  
HETATM   26  O   UNL     1      -9.854   3.604  66.844  1.00  0.00    -0.148 OA 
HETATM   27  H2  UNL     1     -12.165   4.736  64.753  1.00  0.00     0.000 HD 
HETATM   28  H1  UNL     1     -10.636   3.756  64.358  1.00  0.00     0.000 HD 
ENDBRANCH  21  23
ENDBRANCH  20  21
ENDBRANCH  18  20
ENDBRANCH  13  14
ENDBRANCH   3  13
BRANCH  10  29
HETATM   29  C   UNL     1     -10.638  13.340  67.293  1.00  0.00    -0.247 C  
HETATM   30  H   UNL     1      -9.675  14.848  66.574  1.00  0.00     0.000 HD 
HETATM   31  O   UNL     1      -9.685  14.398  67.411  1.00  0.00    -0.215 OA 
HETATM   32  C   UNL     1     -12.001  13.923  66.954  1.00  0.00    -0.467 C  
ENDBRANCH  10  29
TORSDOF 6
ENDMDL
MODEL       58
REMARK 921   NORMALIZED FREE ENERGY PREDICTED BY IDOCK:   -5.92 KCAL/MOL
REMARK 922        TOTAL FREE ENERGY PREDICTED BY IDOCK:   -8.88 KCAL/MOL
REMARK 923 INTER-LIGAND FREE ENERGY PREDICTED BY IDOCK:   -8.33 KCAL/MOL
REMARK 924 INTRA-LIGAND FREE ENERGY PREDICTED BY IDOCK:   -0.55 KCAL/MOL
REMARK 927      BINDING AFFINITY PREDICTED BY RF-SCORE:    0.00 PKD
ROOT
HETATM    1  C   UNL     1     -11.909  10.847  69.033  1.00  0.00    -0.299 C  
HETATM    2  C   UNL     1     -11.701  12.300  68.582  1.00  0.00    -0.377 C  
HETATM    3  C   UNL     1     -10.434  12.203  67.759  1.00  0.00    -0.205 C  
HETATM    4  C   UNL     1     -11.673  13.235  69.785  1.00  0.00    -0.354 C  
HETATM    5  O   UNL     1      -8.228   9.290  67.509  1.00  0.00    -0.113 OA 
HETATM    6  C   UNL     1      -9.973  10.934  67.730  1.00  0.00    -0.176 C  
HETATM    7  N   UNL     1     -10.815  10.057  68.401  1.00  0.00    -0.237 N  
HETATM    8  O   UNL     1      -9.508   8.699  69.765  1.00  0.00    -0.163 OA 
HETATM    9  C   UNL     1      -8.724  10.457  67.045  1.00  0.00    -0.130 C  
HETATM   10  C   UNL     1     -11.434  10.255  70.399  1.00  0.00    -0.415 C  
HETATM   11  O   UNL     1      -8.187  11.036  66.112  1.00  0.00    -0.167 OA 
HETATM   12  C   UNL     1     -10.443   9.439  69.563  1.00  0.00    -0.218 C  
ENDROOT
BRANCH   3  13
HETATM   13  S   UNL     1      -9.660  13.565  67.043  1.00  0.00    -0.255 SA 
BRANCH  13  14
HETATM   14  C   UNL     1     -10.999  14.718  66.576  1.00  0.00    -0.325 C  
HETATM   15  N   UNL     1      -9.971  16.711  65.752  1.00  0.00    -0.527 NA 
HETATM   16  C   UNL     1     -10.772  15.566  65.323  1.00  0.00    -0.422 C  
HETATM   17  C   UNL     1     -11.117  15.782  67.673  1.00  0.00    -0.283 C  
HETATM   18  C   UNL     1     -10.440  17.040  67.118  1.00  0.00    -0.291 C  
HETATM   19  H   UNL     1     -10.007  17.499  65.107  1.00  0.00     0.000 HD 
BRANCH  18  20
HETATM   20  C   UNL     1      -9.267  17.572  67.968  1.00  0.00    -0.275 C  
BRANCH  20  21
HETATM   21  N   UNL     1      -8.434  18.532  67.164  1.00  0.00    -0.260 N  
HETATM   22  H   UNL     1      -7.643  18.225  66.599  1.00  0.00     0.000 HD 
BRANCH  21  23
HETATM   23  S   UNL     1      -8.890  20.135  67.261  1.00  0.00    -0.359 S  
HETATM   24  O   UNL     1      -9.972  20.239  68.211  1.00  0.00    -0.354 OA 
HETATM   25  N   UNL     1      -9.568  20.253  65.762  1.00  0.00    -0.571 N  
HETATM   26  O   UNL     1      -7.711  20.956  67.298  1.00  0.00    -0.344 OA 
HETATM   27  H2  UNL     1      -9.674  19.566  65.015  1.00  0.00     0.000 HD 
HETATM   28  H1  UNL     1      -9.846  21.232  65.822  1.00  0.00     0.000 HD 
ENDBRANCH  21  23
ENDBRANCH  20  21
ENDBRANCH  18  20
ENDBRANCH  13  14
ENDBRANCH   3  13
BRANCH  10  29
HETATM   29  C   UNL     1     -12.522   9.534  71.168  1.00  0.00    -0.315 C  
HETATM   30  H   UNL     1     -13.909  10.080  72.391  1.00  0.00     0.000 HD 
HETATM   31  O   UNL     1     -13.227  10.533  71.908  1.00  0.00    -0.446 OA 
HETATM   32  C   UNL     1     -11.942   8.509  72.129  1.00  0.00    -0.451 C  
ENDBRANCH  10  29
TORSDOF 6
ENDMDL
MODEL       59
REMARK 921   NORMALIZED FREE ENERGY PREDICTED BY IDOCK:   -5.89 KCAL/MOL
REMARK 922        TOTAL FREE ENERGY PREDICTED BY IDOCK:   -8.84 KCAL/MOL
REMARK 923 INTER-LIGAND FREE ENERGY PREDICTED BY IDOCK:   -7.91 KCAL/MOL
REMARK 924 INTRA-LIGAND FREE ENERGY PREDICTED BY IDOCK:   -0.93 KCAL/MOL
REMARK 927      BINDING AFFINITY PREDICTED BY RF-SCORE:    0.00 PKD
ROOT
HETATM    1  C   UNL     1     -10.497   8.600  67.777  1.00  0.00    -0.224 C  
HETATM    2  C   UNL     1     -10.946  10.048  67.536  1.00  0.00    -0.276 C  
HETATM    3  C   UNL     1     -10.290  10.372  66.211  1.00  0.00    -0.203 C  
HETATM    4  C   UNL     1     -10.574  10.929  68.723  1.00  0.00    -0.231 C  
HETATM    5  O   UNL     1      -7.812   8.321  64.459  1.00  0.00    -0.115 OA 
HETATM    6  C   UNL     1      -9.582   9.317  65.752  1.00  0.00    -0.271 C  
HETATM    7  N   UNL     1      -9.700   8.209  66.581  1.00  0.00    -0.230 N  
HETATM    8  O   UNL     1      -7.575   7.324  66.913  1.00  0.00    -0.100 OA 
HETATM    9  C   UNL     1      -8.769   9.274  64.489  1.00  0.00    -0.187 C  
HETATM   10  C   UNL     1      -9.262   8.174  68.635  1.00  0.00    -0.143 C  
HETATM   11  O   UNL     1      -8.951  10.005  63.528  1.00  0.00    -0.215 OA 
HETATM   12  C   UNL     1      -8.645   7.728  67.305  1.00  0.00    -0.128 C  
ENDROOT
BRANCH   3  13
HETATM   13  S   UNL     1     -10.381  11.919  65.458  1.00  0.00    -0.275 SA 
BRANCH  13  14
HETATM   14  C   UNL     1     -12.125  12.134  64.956  1.00  0.00    -0.243 C  
HETATM   15  N   UNL     1     -12.169  13.744  63.193  1.00  0.00    -1.066 NA 
HETATM   16  C   UNL     1     -12.394  12.325  63.463  1.00  0.00    -0.565 C  
HETATM   17  C   UNL     1     -12.634  13.452  65.551  1.00  0.00    -0.520 C  
HETATM   18  C   UNL     1     -12.640  14.462  64.399  1.00  0.00    -0.168 C  
HETATM   19  H   UNL     1     -12.602  14.069  62.328  1.00  0.00     0.000 HD 
BRANCH  18  20
HETATM   20  C   UNL     1     -11.778  15.720  64.639  1.00  0.00    -0.147 C  
BRANCH  20  21
HETATM   21  N   UNL     1     -10.350  15.330  64.908  1.00  0.00    -0.434 N  
HETATM   22  H   UNL     1      -9.852  14.654  64.329  1.00  0.00     0.000 HD 
BRANCH  21  23
HETATM   23  S   UNL     1      -9.635  16.078  66.218  1.00  0.00    -0.334 S  
HETATM   24  O   UNL     1      -8.889  17.215  65.736  1.00  0.00    -0.526 OA 
HETATM   25  N   UNL     1      -8.532  14.900  66.558  1.00  0.00    -0.431 N  
HETATM   26  O   UNL     1     -10.585  16.142  67.296  1.00  0.00    -0.307 OA 
HETATM   27  H2  UNL     1      -8.345  14.003  66.112  1.00  0.00     0.000 HD 
HETATM   28  H1  UNL     1      -8.096  15.358  67.359  1.00  0.00     0.000 HD 
ENDBRANCH  21  23
ENDBRANCH  20  21
ENDBRANCH  18  20
ENDBRANCH  13  14
ENDBRANCH   3  13
BRANCH  10  29
HETATM   29  C   UNL     1      -9.577   7.134  69.690  1.00  0.00    -0.154 C  
HETATM   30  H   UNL     1     -11.156   6.155  70.203  1.00  0.00     0.000 HD 
HETATM   31  O   UNL     1     -10.959   6.807  69.541  1.00  0.00    -0.251 OA 
HETATM   32  C   UNL     1      -9.332   7.669  71.092  1.00  0.00    -0.161 C  
ENDBRANCH  10  29
TORSDOF 6
ENDMDL
MODEL       60
REMARK 921   NORMALIZED FREE ENERGY PREDICTED BY IDOCK:   -5.87 KCAL/MOL
REMARK 922        TOTAL FREE ENERGY PREDICTED BY IDOCK:   -8.81 KCAL/MOL
REMARK 923 INTER-LIGAND FREE ENERGY PREDICTED BY IDOCK:   -8.00 KCAL/MOL
REMARK 924 INTRA-LIGAND FREE ENERGY PREDICTED BY IDOCK:   -0.82 KCAL/MOL
REMARK 927      BINDING AFFINITY PREDICTED BY RF-SCORE:    0.00 PKD
ROOT
HETATM    1  C   UNL     1      -9.947  17.612  67.584  1.00  0.00    -0.323 C  
HETATM    2  C   UNL     1     -10.461  16.204  67.252  1.00  0.00    -0.309 C  
HETATM    3  C   UNL     1      -9.482  15.321  67.995  1.00  0.00    -0.198 C  
HETATM    4  C   UNL     1     -10.559  16.010  65.744  1.00  0.00    -0.366 C  
HETATM    5  O   UNL     1      -6.384  16.406  69.621  1.00  0.00    -0.204 OA 
HETATM    6  C   UNL     1      -8.557  16.063  68.642  1.00  0.00    -0.206 C  
HETATM    7  N   UNL     1      -8.793  17.424  68.507  1.00  0.00    -0.273 N  
HETATM    8  O   UNL     1      -6.778  18.458  67.975  1.00  0.00    -0.209 OA 
HETATM    9  C   UNL     1      -7.407  15.539  69.454  1.00  0.00    -0.215 C  
HETATM   10  C   UNL     1      -8.984  18.450  66.683  1.00  0.00    -0.295 C  
HETATM   11  O   UNL     1      -7.375  14.432  69.969  1.00  0.00     0.066 OA 
HETATM   12  C   UNL     1      -7.954  18.240  67.799  1.00  0.00    -0.245 C  
ENDROOT
BRANCH   3  13
HETATM   13  S   UNL     1      -9.516  13.599  67.930  1.00  0.00    -0.220 SA 
BRANCH  13  14
HETATM   14  C   UNL     1     -11.262  13.120  68.176  1.00  0.00    -0.271 C  
HETATM   15  N   UNL     1     -11.369  11.802  70.165  1.00  0.00    -0.497 NA 
HETATM   16  C   UNL     1     -11.774  13.096  69.617  1.00  0.00    -0.303 C  
HETATM   17  C   UNL     1     -11.420  11.656  67.749  1.00  0.00    -0.373 C  
HETATM   18  C   UNL     1     -11.474  10.841  69.045  1.00  0.00    -0.298 C  
HETATM   19  H   UNL     1     -11.897  11.526  70.993  1.00  0.00     0.000 HD 
BRANCH  18  20
HETATM   20  C   UNL     1     -10.383   9.756  69.172  1.00  0.00    -0.211 C  
BRANCH  20  21
HETATM   21  N   UNL     1     -10.935   8.413  68.778  1.00  0.00    -0.428 N  
HETATM   22  H   UNL     1     -11.739   7.996  69.246  1.00  0.00     0.000 HD 
BRANCH  21  23
HETATM   23  S   UNL     1     -10.140   7.651  67.522  1.00  0.00    -0.224 S  
HETATM   24  O   UNL     1      -9.901   8.623  66.484  1.00  0.00    -0.237 OA 
HETATM   25  N   UNL     1     -11.400   6.717  67.012  1.00  0.00    -0.795 N  
HETATM   26  O   UNL     1      -9.123   6.792  68.065  1.00  0.00    -0.122 OA 
HETATM   27  H2  UNL     1     -12.358   6.632  67.353  1.00  0.00     0.000 HD 
HETATM   28  H1  UNL     1     -10.915   6.251  66.245  1.00  0.00     0.000 HD 
ENDBRANCH  21  23
ENDBRANCH  20  21
ENDBRANCH  18  20
ENDBRANCH  13  14
ENDBRANCH   3  13
BRANCH  10  29
HETATM   29  C   UNL     1      -9.480  19.851  66.389  1.00  0.00    -0.412 C  
HETATM   30  H   UNL     1     -10.031  21.350  67.469  1.00  0.00     0.000 HD 
HETATM   31  O   UNL     1      -9.720  20.472  67.654  1.00  0.00    -0.411 OA 
HETATM   32  C   UNL     1     -10.769  19.829  65.584  1.00  0.00    -0.418 C  
ENDBRANCH  10  29
TORSDOF 6
ENDMDL
MODEL       61
REMARK 921   NORMALIZED FREE ENERGY PREDICTED BY IDOCK:   -5.85 KCAL/MOL
REMARK 922        TOTAL FREE ENERGY PREDICTED BY IDOCK:   -8.79 KCAL/MOL
REMARK 923 INTER-LIGAND FREE ENERGY PREDICTED BY IDOCK:   -7.74 KCAL/MOL
REMARK 924 INTRA-LIGAND FREE ENERGY PREDICTED BY IDOCK:   -1.05 KCAL/MOL
REMARK 927      BINDING AFFINITY PREDICTED BY RF-SCORE:    0.00 PKD
ROOT
HETATM    1  C   UNL     1      -8.661   8.801  67.564  1.00  0.00    -0.134 C  
HETATM    2  C   UNL     1      -9.532  10.006  67.179  1.00  0.00    -0.184 C  
HETATM    3  C   UNL     1     -10.495  10.092  68.343  1.00  0.00    -0.205 C  
HETATM    4  C   UNL     1     -10.138   9.808  65.795  1.00  0.00    -0.308 C  
HETATM    5  O   UNL     1     -10.896   7.618  71.015  1.00  0.00    -0.236 OA 
HETATM    6  C   UNL     1     -10.248   9.120  69.248  1.00  0.00    -0.210 C  
HETATM    7  N   UNL     1      -9.144   8.353  68.901  1.00  0.00    -0.146 N  
HETATM    8  O   UNL     1      -9.705   6.112  69.174  1.00  0.00    -0.136 OA 
HETATM    9  C   UNL     1     -11.017   8.867  70.513  1.00  0.00    -0.241 C  
HETATM   10  C   UNL     1      -8.895   7.334  67.081  1.00  0.00    -0.125 C  
HETATM   11  O   UNL     1     -11.685   9.709  71.093  1.00  0.00    -0.312 OA 
HETATM   12  C   UNL     1      -9.257   7.039  68.540  1.00  0.00    -0.137 C  
ENDROOT
BRANCH   3  13
HETATM   13  S   UNL     1     -11.783  11.234  68.429  1.00  0.00    -0.260 SA 
BRANCH  13  14
HETATM   14  C   UNL     1     -11.041  12.784  69.051  1.00  0.00    -0.233 C  
HETATM   15  N   UNL     1     -12.461  14.580  68.371  1.00  0.00    -0.531 NA 
HETATM   16  C   UNL     1     -12.006  13.856  69.557  1.00  0.00    -0.343 C  
HETATM   17  C   UNL     1     -10.356  13.490  67.875  1.00  0.00    -0.249 C  
HETATM   18  C   UNL     1     -11.296  14.627  67.459  1.00  0.00    -0.348 C  
HETATM   19  H   UNL     1     -12.855  15.497  68.578  1.00  0.00     0.000 HD 
BRANCH  18  20
HETATM   20  C   UNL     1     -11.770  14.568  65.990  1.00  0.00    -0.345 C  
BRANCH  20  21
HETATM   21  N   UNL     1     -11.643  13.167  65.457  1.00  0.00    -0.323 N  
HETATM   22  H   UNL     1     -11.167  12.429  65.974  1.00  0.00     0.000 HD 
BRANCH  21  23
HETATM   23  S   UNL     1     -12.335  12.903  63.960  1.00  0.00    -0.365 S  
HETATM   24  O   UNL     1     -13.350  11.888  64.106  1.00  0.00    -0.652 OA 
HETATM   25  N   UNL     1     -11.037  12.173  63.253  1.00  0.00    -0.687 N  
HETATM   26  O   UNL     1     -12.556  14.170  63.317  1.00  0.00    -0.766 OA 
HETATM   27  H2  UNL     1     -10.109  11.952  63.614  1.00  0.00     0.000 HD 
HETATM   28  H1  UNL     1     -11.460  12.012  62.339  1.00  0.00     0.000 HD 
ENDBRANCH  21  23
ENDBRANCH  20  21
ENDBRANCH  18  20
ENDBRANCH  13  14
ENDBRANCH   3  13
BRANCH  10  29
HETATM   29  C   UNL     1      -7.667   6.683  66.477  1.00  0.00    -0.102 C  
HETATM   30  H   UNL     1      -5.787   7.110  66.434  1.00  0.00     0.000 HD 
HETATM   31  O   UNL     1      -6.557   7.518  66.813  1.00  0.00    -0.054 OA 
HETATM   32  C   UNL     1      -7.779   6.575  64.965  1.00  0.00    -0.103 C  
ENDBRANCH  10  29
TORSDOF 6
ENDMDL
MODEL       62
REMARK 921   NORMALIZED FREE ENERGY PREDICTED BY IDOCK:   -5.85 KCAL/MOL
REMARK 922        TOTAL FREE ENERGY PREDICTED BY IDOCK:   -8.79 KCAL/MOL
REMARK 923 INTER-LIGAND FREE ENERGY PREDICTED BY IDOCK:   -8.22 KCAL/MOL
REMARK 924 INTRA-LIGAND FREE ENERGY PREDICTED BY IDOCK:   -0.57 KCAL/MOL
REMARK 927      BINDING AFFINITY PREDICTED BY RF-SCORE:    0.00 PKD
ROOT
HETATM    1  C   UNL     1     -10.361   8.117  68.553  1.00  0.00    -0.198 C  
HETATM    2  C   UNL     1     -11.003   9.506  68.687  1.00  0.00    -0.113 C  
HETATM    3  C   UNL     1     -10.706  10.130  67.341  1.00  0.00    -0.277 C  
HETATM    4  C   UNL     1     -10.464  10.228  69.917  1.00  0.00    -0.304 C  
HETATM    5  O   UNL     1      -8.491   8.767  64.761  1.00  0.00    -0.166 OA 
HETATM    6  C   UNL     1     -10.014   9.276  66.555  1.00  0.00    -0.274 C  
HETATM    7  N   UNL     1      -9.822   8.044  67.166  1.00  0.00    -0.188 N  
HETATM    8  O   UNL     1      -7.596   7.433  66.880  1.00  0.00    -0.097 OA 
HETATM    9  C   UNL     1      -9.511   9.554  65.167  1.00  0.00    -0.236 C  
HETATM   10  C   UNL     1      -8.925   7.742  69.041  1.00  0.00    -0.145 C  
HETATM   11  O   UNL     1      -9.985  10.396  64.420  1.00  0.00    -0.335 OA 
HETATM   12  C   UNL     1      -8.585   7.610  67.553  1.00  0.00    -0.119 C  
ENDROOT
BRANCH   3  13
HETATM   13  S   UNL     1     -11.129  11.748  66.929  1.00  0.00    -0.320 SA 
BRANCH  13  14
HETATM   14  C   UNL     1     -10.064  12.824  67.952  1.00  0.00    -0.231 C  
HETATM   15  N   UNL     1     -10.896  15.054  67.751  1.00  0.00    -0.276 NA 
HETATM   16  C   UNL     1     -10.756  13.959  68.709  1.00  0.00    -0.262 C  
HETATM   17  C   UNL     1      -9.116  13.585  67.018  1.00  0.00    -0.248 C  
HETATM   18  C   UNL     1      -9.683  15.003  66.903  1.00  0.00    -0.238 C  
HETATM   19  H   UNL     1     -11.052  15.962  68.188  1.00  0.00     0.000 HD 
BRANCH  18  20
HETATM   20  C   UNL     1     -10.022  15.449  65.464  1.00  0.00    -0.344 C  
BRANCH  20  21
HETATM   21  N   UNL     1     -10.609  14.302  64.688  1.00  0.00    -0.576 N  
HETATM   22  H   UNL     1     -10.060  13.484  64.425  1.00  0.00     0.000 HD 
BRANCH  21  23
HETATM   23  S   UNL     1     -12.222  14.458  64.285  1.00  0.00    -0.323 S  
HETATM   24  O   UNL     1     -13.005  13.775  65.287  1.00  0.00    -0.731 OA 
HETATM   25  N   UNL     1     -12.203  13.482  62.956  1.00  0.00    -0.956 N  
HETATM   26  O   UNL     1     -12.470  15.808  63.859  1.00  0.00    -0.744 OA 
HETATM   27  H2  UNL     1     -11.449  12.952  62.520  1.00  0.00     0.000 HD 
HETATM   28  H1  UNL     1     -13.188  13.578  62.710  1.00  0.00     0.000 HD 
ENDBRANCH  21  23
ENDBRANCH  20  21
ENDBRANCH  18  20
ENDBRANCH  13  14
ENDBRANCH   3  13
BRANCH  10  29
HETATM   29  C   UNL     1      -8.878   6.511  69.923  1.00  0.00    -0.143 C  
HETATM   30  H   UNL     1      -8.058   4.772  69.785  1.00  0.00     0.000 HD 
HETATM   31  O   UNL     1      -8.087   5.544  69.231  1.00  0.00    -0.093 OA 
HETATM   32  C   UNL     1     -10.268   5.946  70.168  1.00  0.00    -0.281 C  
ENDBRANCH  10  29
TORSDOF 6
ENDMDL
MODEL       63
REMARK 921   NORMALIZED FREE ENERGY PREDICTED BY IDOCK:   -5.85 KCAL/MOL
REMARK 922        TOTAL FREE ENERGY PREDICTED BY IDOCK:   -8.79 KCAL/MOL
REMARK 923 INTER-LIGAND FREE ENERGY PREDICTED BY IDOCK:   -7.90 KCAL/MOL
REMARK 924 INTRA-LIGAND FREE ENERGY PREDICTED BY IDOCK:   -0.89 KCAL/MOL
REMARK 927      BINDING AFFINITY PREDICTED BY RF-SCORE:    0.00 PKD
ROOT
HETATM    1  C   UNL     1      -9.365  11.171  65.499  1.00  0.00    -0.223 C  
HETATM    2  C   UNL     1      -9.503  10.614  66.923  1.00  0.00    -0.189 C  
HETATM    3  C   UNL     1      -8.625   9.383  66.874  1.00  0.00    -0.127 C  
HETATM    4  C   UNL     1     -10.970  10.401  67.276  1.00  0.00    -0.306 C  
HETATM    5  O   UNL     1      -7.112   7.916  63.877  1.00  0.00    -0.073 OA 
HETATM    6  C   UNL     1      -8.073   9.232  65.650  1.00  0.00    -0.112 C  
HETATM    7  N   UNL     1      -8.404  10.275  64.796  1.00  0.00    -0.169 N  
HETATM    8  O   UNL     1      -9.039   9.363  62.753  1.00  0.00    -0.240 OA 
HETATM    9  C   UNL     1      -7.174   8.110  65.213  1.00  0.00    -0.068 C  
HETATM   10  C   UNL     1     -10.357  10.887  64.325  1.00  0.00    -0.436 C  
HETATM   11  O   UNL     1      -6.506   7.426  65.974  1.00  0.00    -0.043 OA 
HETATM   12  C   UNL     1      -9.205  10.092  63.703  1.00  0.00    -0.282 C  
ENDROOT
BRANCH   3  13
HETATM   13  S   UNL     1      -8.446   8.289  68.194  1.00  0.00    -0.133 SA 
BRANCH  13  14
HETATM   14  C   UNL     1      -9.214   6.721  67.657  1.00  0.00    -0.118 C  
HETATM   15  N   UNL     1     -11.535   6.836  68.206  1.00  0.00    -0.505 NA 
HETATM   16  C   UNL     1     -10.621   6.809  67.065  1.00  0.00    -0.335 C  
HETATM   17  C   UNL     1      -9.435   5.848  68.898  1.00  0.00    -0.146 C  
HETATM   18  C   UNL     1     -10.928   5.954  69.228  1.00  0.00    -0.327 C  
HETATM   19  H   UNL     1     -12.494   6.586  67.967  1.00  0.00     0.000 HD 
BRANCH  18  20
HETATM   20  C   UNL     1     -11.241   6.486  70.643  1.00  0.00    -0.329 C  
BRANCH  20  21
HETATM   21  N   UNL     1     -12.426   7.411  70.601  1.00  0.00    -0.567 N  
HETATM   22  H   UNL     1     -13.239   7.229  70.013  1.00  0.00     0.000 HD 
BRANCH  21  23
HETATM   23  S   UNL     1     -12.323   8.756  71.585  1.00  0.00    -0.357 S  
HETATM   24  O   UNL     1     -13.468   8.763  72.462  1.00  0.00    -0.397 OA 
HETATM   25  N   UNL     1     -12.612   9.890  70.423  1.00  0.00    -0.514 N  
HETATM   26  O   UNL     1     -10.966   8.901  72.039  1.00  0.00    -0.352 OA 
HETATM   27  H2  UNL     1     -12.796   9.799  69.424  1.00  0.00     0.000 HD 
HETATM   28  H1  UNL     1     -12.549  10.712  71.023  1.00  0.00     0.000 HD 
ENDBRANCH  21  23
ENDBRANCH  20  21
ENDBRANCH  18  20
ENDBRANCH  13  14
ENDBRANCH   3  13
BRANCH  10  29
HETATM   29  C   UNL     1     -10.856  12.136  63.627  1.00  0.00    -0.464 C  
HETATM   30  H   UNL     1     -10.671  14.030  63.937  1.00  0.00     0.000 HD 
HETATM   31  O   UNL     1     -10.358  13.247  64.375  1.00  0.00    -0.413 OA 
HETATM   32  C   UNL     1     -12.375  12.189  63.594  1.00  0.00    -0.673 C  
ENDBRANCH  10  29
TORSDOF 6
ENDMDL
MODEL       64
REMARK 921   NORMALIZED FREE ENERGY PREDICTED BY IDOCK:   -5.81 KCAL/MOL
REMARK 922        TOTAL FREE ENERGY PREDICTED BY IDOCK:   -8.73 KCAL/MOL
REMARK 923 INTER-LIGAND FREE ENERGY PREDICTED BY IDOCK:   -7.42 KCAL/MOL
REMARK 924 INTRA-LIGAND FREE ENERGY PREDICTED BY IDOCK:   -1.31 KCAL/MOL
REMARK 927      BINDING AFFINITY PREDICTED BY RF-SCORE:    0.00 PKD
ROOT
HETATM    1  C   UNL     1     -11.536  12.293  66.879  1.00  0.00    -0.356 C  
HETATM    2  C   UNL     1     -10.771  10.963  66.810  1.00  0.00    -0.309 C  
HETATM    3  C   UNL     1     -10.988  10.395  68.196  1.00  0.00    -0.281 C  
HETATM    4  C   UNL     1      -9.328  11.197  66.378  1.00  0.00    -0.207 C  
HETATM    5  O   UNL     1     -12.473  12.146  71.050  1.00  0.00    -0.370 OA 
HETATM    6  C   UNL     1     -11.737  11.230  68.948  1.00  0.00    -0.341 C  
HETATM    7  N   UNL     1     -12.157  12.343  68.232  1.00  0.00    -0.193 N  
HETATM    8  O   UNL     1     -11.789  14.229  69.543  1.00  0.00    -0.287 OA 
HETATM    9  C   UNL     1     -12.130  11.022  70.383  1.00  0.00    -0.373 C  
HETATM   10  C   UNL     1     -10.897  13.679  67.212  1.00  0.00    -0.292 C  
HETATM   11  O   UNL     1     -12.181   9.932  70.932  1.00  0.00    -0.300 OA 
HETATM   12  C   UNL     1     -11.702  13.601  68.513  1.00  0.00    -0.357 C  
ENDROOT
BRANCH   3  13
HETATM   13  S   UNL     1     -10.285   8.918  68.738  1.00  0.00    -0.208 SA 
BRANCH  13  14
HETATM   14  C   UNL     1      -8.817   9.389  69.718  1.00  0.00    -0.183 C  
HETATM   15  N   UNL     1      -7.417   7.461  69.881  1.00  0.00    -0.083 NA 
HETATM   16  C   UNL     1      -7.477   8.794  69.283  1.00  0.00    -0.078 C  
HETATM   17  C   UNL     1      -8.984   8.819  71.132  1.00  0.00    -0.280 C  
HETATM   18  C   UNL     1      -8.083   7.581  71.197  1.00  0.00    -0.100 C  
HETATM   19  H   UNL     1      -6.472   7.079  69.933  1.00  0.00     0.000 HD 
BRANCH  18  20
HETATM   20  C   UNL     1      -8.814   6.267  71.544  1.00  0.00    -0.138 C  
BRANCH  20  21
HETATM   21  N   UNL     1      -9.852   6.512  72.605  1.00  0.00    -0.168 N  
HETATM   22  H   UNL     1      -9.616   6.896  73.519  1.00  0.00     0.000 HD 
BRANCH  21  23
HETATM   23  S   UNL     1     -11.418   6.111  72.185  1.00  0.00    -0.308 S  
HETATM   24  O   UNL     1     -11.525   6.159  70.747  1.00  0.00    -0.324 OA 
HETATM   25  N   UNL     1     -12.146   7.476  72.757  1.00  0.00    -0.560 N  
HETATM   26  O   UNL     1     -11.845   4.995  72.983  1.00  0.00    -0.269 OA 
HETATM   27  H2  UNL     1     -11.763   8.301  73.219  1.00  0.00     0.000 HD 
HETATM   28  H1  UNL     1     -13.102   7.231  72.500  1.00  0.00     0.000 HD 
ENDBRANCH  21  23
ENDBRANCH  20  21
ENDBRANCH  18  20
ENDBRANCH  13  14
ENDBRANCH   3  13
BRANCH  10  29
HETATM   29  C   UNL     1     -11.221  14.763  66.204  1.00  0.00    -0.337 C  
HETATM   30  H   UNL     1     -11.919  14.782  64.407  1.00  0.00     0.000 HD 
HETATM   31  O   UNL     1     -11.716  14.101  65.039  1.00  0.00    -0.343 OA 
HETATM   32  C   UNL     1      -9.989  15.575  65.841  1.00  0.00    -0.377 C  
ENDBRANCH  10  29
TORSDOF 6
ENDMDL
MODEL       65
REMARK 921   NORMALIZED FREE ENERGY PREDICTED BY IDOCK:   -5.78 KCAL/MOL
REMARK 922        TOTAL FREE ENERGY PREDICTED BY IDOCK:   -8.70 KCAL/MOL
REMARK 923 INTER-LIGAND FREE ENERGY PREDICTED BY IDOCK:   -7.57 KCAL/MOL
REMARK 924 INTRA-LIGAND FREE ENERGY PREDICTED BY IDOCK:   -1.13 KCAL/MOL
REMARK 927      BINDING AFFINITY PREDICTED BY RF-SCORE:    0.00 PKD
ROOT
HETATM    1  C   UNL     1      -9.684  17.485  68.673  1.00  0.00    -0.319 C  
HETATM    2  C   UNL     1     -10.170  16.060  68.976  1.00  0.00    -0.236 C  
HETATM    3  C   UNL     1      -9.051  15.211  68.411  1.00  0.00    -0.185 C  
HETATM    4  C   UNL     1     -11.564  15.836  68.400  1.00  0.00    -0.343 C  
HETATM    5  O   UNL     1      -6.262  16.391  66.350  1.00  0.00    -0.174 OA 
HETATM    6  C   UNL     1      -8.084  15.984  67.871  1.00  0.00    -0.141 C  
HETATM    7  N   UNL     1      -8.344  17.338  68.037  1.00  0.00    -0.221 N  
HETATM    8  O   UNL     1      -7.967  18.403  66.003  1.00  0.00    -0.449 OA 
HETATM    9  C   UNL     1      -6.838  15.499  67.187  1.00  0.00    -0.041 C  
HETATM   10  C   UNL     1     -10.093  18.325  67.421  1.00  0.00    -0.364 C  
HETATM   11  O   UNL     1      -6.332  14.403  67.372  1.00  0.00    -0.323 OA 
HETATM   12  C   UNL     1      -8.635  18.157  66.982  1.00  0.00    -0.254 C  
ENDROOT
BRANCH   3  13
HETATM   13  S   UNL     1      -9.080  13.488  68.396  1.00  0.00    -0.109 SA 
BRANCH  13  14
HETATM   14  C   UNL     1      -9.642  13.009  66.725  1.00  0.00    -0.248 C  
HETATM   15  N   UNL     1     -11.502  11.534  66.992  1.00  0.00    -0.496 NA 
HETATM   16  C   UNL     1     -11.151  12.872  66.518  1.00  0.00    -0.286 C  
HETATM   17  C   UNL     1      -9.144  11.586  66.444  1.00  0.00    -0.206 C  
HETATM   18  C   UNL     1     -10.356  10.668  66.634  1.00  0.00    -0.241 C  
HETATM   19  H   UNL     1     -12.397  11.197  66.637  1.00  0.00     0.000 HD 
BRANCH  18  20
HETATM   20  C   UNL     1     -10.171   9.566  67.699  1.00  0.00    -0.220 C  
BRANCH  20  21
HETATM   21  N   UNL     1     -11.373   9.506  68.602  1.00  0.00    -0.464 N  
HETATM   22  H   UNL     1     -12.277   9.162  68.282  1.00  0.00     0.000 HD 
BRANCH  21  23
HETATM   23  S   UNL     1     -11.125  10.043  70.164  1.00  0.00    -0.330 S  
HETATM   24  O   UNL     1     -11.567  11.414  70.245  1.00  0.00    -0.307 OA 
HETATM   25  N   UNL     1      -9.477  10.082  70.114  1.00  0.00    -0.396 N  
HETATM   26  O   UNL     1     -11.531   9.015  71.082  1.00  0.00    -0.270 OA 
HETATM   27  H2  UNL     1      -8.819   9.853  69.369  1.00  0.00     0.000 HD 
HETATM   28  H1  UNL     1      -9.326  10.410  71.068  1.00  0.00     0.000 HD 
ENDBRANCH  21  23
ENDBRANCH  20  21
ENDBRANCH  18  20
ENDBRANCH  13  14
ENDBRANCH   3  13
BRANCH  10  29
HETATM   29  C   UNL     1     -10.611  19.710  67.753  1.00  0.00    -0.396 C  
HETATM   30  H   UNL     1     -10.317  21.476  67.038  1.00  0.00     0.000 HD 
HETATM   31  O   UNL     1      -9.992  20.608  66.830  1.00  0.00    -0.386 OA 
HETATM   32  C   UNL     1     -10.250  20.116  69.172  1.00  0.00    -0.162 C  
ENDBRANCH  10  29
TORSDOF 6
ENDMDL
MODEL       66
REMARK 921   NORMALIZED FREE ENERGY PREDICTED BY IDOCK:   -5.78 KCAL/MOL
REMARK 922        TOTAL FREE ENERGY PREDICTED BY IDOCK:   -8.69 KCAL/MOL
REMARK 923 INTER-LIGAND FREE ENERGY PREDICTED BY IDOCK:   -7.32 KCAL/MOL
REMARK 924 INTRA-LIGAND FREE ENERGY PREDICTED BY IDOCK:   -1.37 KCAL/MOL
REMARK 927      BINDING AFFINITY PREDICTED BY RF-SCORE:    0.00 PKD
ROOT
HETATM    1  C   UNL     1      -9.689  17.696  67.461  1.00  0.00    -0.280 C  
HETATM    2  C   UNL     1     -10.351  16.328  67.242  1.00  0.00    -0.285 C  
HETATM    3  C   UNL     1      -9.450  15.404  68.032  1.00  0.00    -0.201 C  
HETATM    4  C   UNL     1     -10.502  16.037  65.753  1.00  0.00    -0.391 C  
HETATM    5  O   UNL     1      -6.222  16.278  69.526  1.00  0.00    -0.164 OA 
HETATM    6  C   UNL     1      -8.440  16.091  68.609  1.00  0.00    -0.208 C  
HETATM    7  N   UNL     1      -8.539  17.456  68.377  1.00  0.00    -0.264 N  
HETATM    8  O   UNL     1      -6.442  18.237  67.740  1.00  0.00    -0.188 OA 
HETATM    9  C   UNL     1      -7.330  15.511  69.439  1.00  0.00    -0.215 C  
HETATM   10  C   UNL     1      -8.666  18.363  66.487  1.00  0.00    -0.291 C  
HETATM   11  O   UNL     1      -7.400  14.446  70.033  1.00  0.00     0.066 OA 
HETATM   12  C   UNL     1      -7.638  18.128  67.598  1.00  0.00    -0.219 C  
ENDROOT
BRANCH   3  13
HETATM   13  S   UNL     1      -9.660  13.694  68.094  1.00  0.00    -0.223 SA 
BRANCH  13  14
HETATM   14  C   UNL     1     -11.450  13.415  68.332  1.00  0.00    -0.316 C  
HETATM   15  N   UNL     1     -11.715  12.123  70.323  1.00  0.00    -0.534 NA 
HETATM   16  C   UNL     1     -11.969  13.452  69.770  1.00  0.00    -0.330 C  
HETATM   17  C   UNL     1     -11.770  11.977  67.906  1.00  0.00    -0.393 C  
HETATM   18  C   UNL     1     -11.922  11.176  69.204  1.00  0.00    -0.343 C  
HETATM   19  H   UNL     1     -12.275  11.910  71.148  1.00  0.00     0.000 HD 
BRANCH  18  20
HETATM   20  C   UNL     1     -10.960   9.976  69.339  1.00  0.00    -0.244 C  
BRANCH  20  21
HETATM   21  N   UNL     1      -9.677  10.408  69.995  1.00  0.00    -0.391 N  
HETATM   22  H   UNL     1      -9.657  10.849  70.914  1.00  0.00     0.000 HD 
BRANCH  21  23
HETATM   23  S   UNL     1      -8.288  10.114  69.117  1.00  0.00    -0.166 S  
HETATM   24  O   UNL     1      -7.679   8.909  69.626  1.00  0.00    -0.073 OA 
HETATM   25  N   UNL     1      -7.398  11.373  69.704  1.00  0.00    -0.359 N  
HETATM   26  O   UNL     1      -8.554  10.351  67.725  1.00  0.00    -0.121 OA 
HETATM   27  H2  UNL     1      -7.624  12.099  70.384  1.00  0.00     0.000 HD 
HETATM   28  H1  UNL     1      -6.549  11.194  69.167  1.00  0.00     0.000 HD 
ENDBRANCH  21  23
ENDBRANCH  20  21
ENDBRANCH  18  20
ENDBRANCH  13  14
ENDBRANCH   3  13
BRANCH  10  29
HETATM   29  C   UNL     1      -9.025  19.783  66.098  1.00  0.00    -0.336 C  
HETATM   30  H   UNL     1      -8.911  21.499  66.970  1.00  0.00     0.000 HD 
HETATM   31  O   UNL     1      -8.686  20.608  67.214  1.00  0.00    -0.334 OA 
HETATM   32  C   UNL     1     -10.508  19.923  65.798  1.00  0.00    -0.518 C  
ENDBRANCH  10  29
TORSDOF 6
ENDMDL
MODEL       67
REMARK 921   NORMALIZED FREE ENERGY PREDICTED BY IDOCK:   -5.75 KCAL/MOL
REMARK 922        TOTAL FREE ENERGY PREDICTED BY IDOCK:   -8.66 KCAL/MOL
REMARK 923 INTER-LIGAND FREE ENERGY PREDICTED BY IDOCK:   -7.94 KCAL/MOL
REMARK 924 INTRA-LIGAND FREE ENERGY PREDICTED BY IDOCK:   -0.71 KCAL/MOL
REMARK 927      BINDING AFFINITY PREDICTED BY RF-SCORE:    0.00 PKD
ROOT
HETATM    1  C   UNL     1     -10.629  13.804  67.916  1.00  0.00    -0.252 C  
HETATM    2  C   UNL     1     -10.148  12.348  68.005  1.00  0.00    -0.214 C  
HETATM    3  C   UNL     1     -10.938  11.821  69.184  1.00  0.00    -0.209 C  
HETATM    4  C   UNL     1      -8.629  12.292  68.112  1.00  0.00    -0.181 C  
HETATM    5  O   UNL     1     -12.976  13.804  71.492  1.00  0.00    -0.335 OA 
HETATM    6  C   UNL     1     -11.734  12.781  69.701  1.00  0.00    -0.302 C  
HETATM    7  N   UNL     1     -11.664  13.963  68.976  1.00  0.00    -0.314 N  
HETATM    8  O   UNL     1     -11.436  15.723  70.481  1.00  0.00    -0.316 OA 
HETATM    9  C   UNL     1     -12.636  12.641  70.894  1.00  0.00    -0.249 C  
HETATM   10  C   UNL     1      -9.903  15.029  68.557  1.00  0.00    -0.217 C  
HETATM   11  O   UNL     1     -13.076  11.578  71.304  1.00  0.00    -0.336 OA 
HETATM   12  C   UNL     1     -11.112  15.102  69.495  1.00  0.00    -0.277 C  
ENDROOT
BRANCH   3  13
HETATM   13  S   UNL     1     -10.755  10.227  69.813  1.00  0.00    -0.295 SA 
BRANCH  13  14
HETATM   14  C   UNL     1      -9.738   9.318  68.597  1.00  0.00    -0.150 C  
HETATM   15  N   UNL     1     -11.145   7.686  67.567  1.00  0.00    -0.511 NA 
HETATM   16  C   UNL     1     -10.420   8.924  67.286  1.00  0.00    -0.277 C  
HETATM   17  C   UNL     1      -9.377   7.955  69.200  1.00  0.00    -0.154 C  
HETATM   18  C   UNL     1     -10.303   6.937  68.527  1.00  0.00    -0.186 C  
HETATM   19  H   UNL     1     -11.385   7.154  66.731  1.00  0.00     0.000 HD 
BRANCH  18  20
HETATM   20  C   UNL     1     -11.192   6.132  69.498  1.00  0.00    -0.411 C  
BRANCH  20  21
HETATM   21  N   UNL     1     -10.796   6.411  70.922  1.00  0.00    -0.249 N  
HETATM   22  H   UNL     1      -9.840   6.288  71.256  1.00  0.00     0.000 HD 
BRANCH  21  23
HETATM   23  S   UNL     1     -12.026   6.937  71.921  1.00  0.00    -0.328 S  
HETATM   24  O   UNL     1     -11.517   8.014  72.735  1.00  0.00    -0.402 OA 
HETATM   25  N   UNL     1     -12.095   5.605  72.891  1.00  0.00    -0.521 N  
HETATM   26  O   UNL     1     -13.244   7.015  71.162  1.00  0.00    -0.324 OA 
HETATM   27  H2  UNL     1     -11.558   4.738  72.884  1.00  0.00     0.000 HD 
HETATM   28  H1  UNL     1     -12.846   5.927  73.501  1.00  0.00     0.000 HD 
ENDBRANCH  21  23
ENDBRANCH  20  21
ENDBRANCH  18  20
ENDBRANCH  13  14
ENDBRANCH   3  13
BRANCH  10  29
HETATM   29  C   UNL     1      -9.648  16.168  67.590  1.00  0.00    -0.222 C  
HETATM   30  H   UNL     1     -10.631  17.735  67.049  1.00  0.00     0.000 HD 
HETATM   31  O   UNL     1     -10.791  17.022  67.656  1.00  0.00    -0.331 OA 
HETATM   32  C   UNL     1      -9.475  15.663  66.166  1.00  0.00    -0.376 C  
ENDBRANCH  10  29
TORSDOF 6
ENDMDL
MODEL       68
REMARK 921   NORMALIZED FREE ENERGY PREDICTED BY IDOCK:   -5.74 KCAL/MOL
REMARK 922        TOTAL FREE ENERGY PREDICTED BY IDOCK:   -8.63 KCAL/MOL
REMARK 923 INTER-LIGAND FREE ENERGY PREDICTED BY IDOCK:   -7.31 KCAL/MOL
REMARK 924 INTRA-LIGAND FREE ENERGY PREDICTED BY IDOCK:   -1.32 KCAL/MOL
REMARK 927      BINDING AFFINITY PREDICTED BY RF-SCORE:    0.00 PKD
ROOT
HETATM    1  C   UNL     1     -11.420  13.382  70.274  1.00  0.00     0.090 C  
HETATM    2  C   UNL     1     -10.916  12.009  69.805  1.00  0.00     0.142 C  
HETATM    3  C   UNL     1     -10.000  12.377  68.658  1.00  0.00    -0.107 C  
HETATM    4  C   UNL     1     -12.089  11.090  69.483  1.00  0.00    -0.400 C  
HETATM    5  O   UNL     1      -9.652  15.691  67.137  1.00  0.00    -0.215 OA 
HETATM    6  C   UNL     1      -9.967  13.715  68.477  1.00  0.00    -0.208 C  
HETATM    7  N   UNL     1     -10.724  14.389  69.425  1.00  0.00    -0.205 N  
HETATM    8  O   UNL     1     -12.015  15.980  68.324  1.00  0.00    -0.163 OA 
HETATM    9  C   UNL     1      -9.198  14.449  67.415  1.00  0.00    -0.198 C  
HETATM   10  C   UNL     1     -12.758  14.048  69.823  1.00  0.00     0.030 C  
HETATM   11  O   UNL     1      -8.212  14.005  66.847  1.00  0.00    -0.110 OA 
HETATM   12  C   UNL     1     -11.868  15.062  69.097  1.00  0.00    -0.308 C  
ENDROOT
BRANCH   3  13
HETATM   13  S   UNL     1      -9.190  11.214  67.677  1.00  0.00    -0.153 SA 
BRANCH  13  14
HETATM   14  C   UNL     1     -10.494  10.376  66.709  1.00  0.00    -0.225 C  
HETATM   15  N   UNL     1      -9.791  10.361  64.427  1.00  0.00    -0.328 NA 
HETATM   16  C   UNL     1     -10.031   9.475  65.564  1.00  0.00    -0.139 C  
HETATM   17  C   UNL     1     -11.305  11.449  65.972  1.00  0.00    -0.097 C  
HETATM   18  C   UNL     1     -10.823  11.419  64.518  1.00  0.00    -0.309 C  
HETATM   19  H   UNL     1      -9.779   9.879  63.528  1.00  0.00     0.000 HD 
BRANCH  18  20
HETATM   20  C   UNL     1     -10.257  12.758  63.998  1.00  0.00    -0.298 C  
BRANCH  20  21
HETATM   21  N   UNL     1     -10.803  13.904  64.805  1.00  0.00    -0.399 N  
HETATM   22  H   UNL     1     -10.346  14.238  65.654  1.00  0.00     0.000 HD 
BRANCH  21  23
HETATM   23  S   UNL     1     -12.207  14.592  64.220  1.00  0.00    -0.296 S  
HETATM   24  O   UNL     1     -11.985  16.010  64.070  1.00  0.00    -0.796 OA 
HETATM   25  N   UNL     1     -13.120  14.399  65.579  1.00  0.00    -0.531 N  
HETATM   26  O   UNL     1     -12.743  13.752  63.184  1.00  0.00    -0.743 OA 
HETATM   27  H2  UNL     1     -12.898  13.991  66.487  1.00  0.00     0.000 HD 
HETATM   28  H1  UNL     1     -13.977  14.819  65.221  1.00  0.00     0.000 HD 
ENDBRANCH  21  23
ENDBRANCH  20  21
ENDBRANCH  18  20
ENDBRANCH  13  14
ENDBRANCH   3  13
BRANCH  10  29
HETATM   29  C   UNL     1     -13.629  14.517  70.972  1.00  0.00    -0.238 C  
HETATM   30  H   UNL     1     -13.768  16.147  71.991  1.00  0.00     0.000 HD 
HETATM   31  O   UNL     1     -13.223  15.854  71.271  1.00  0.00    -0.503 OA 
HETATM   32  C   UNL     1     -13.446  13.646  72.204  1.00  0.00    -0.606 C  
ENDBRANCH  10  29
TORSDOF 6
ENDMDL
MODEL       69
REMARK 921   NORMALIZED FREE ENERGY PREDICTED BY IDOCK:   -5.73 KCAL/MOL
REMARK 922        TOTAL FREE ENERGY PREDICTED BY IDOCK:   -8.62 KCAL/MOL
REMARK 923 INTER-LIGAND FREE ENERGY PREDICTED BY IDOCK:   -7.30 KCAL/MOL
REMARK 924 INTRA-LIGAND FREE ENERGY PREDICTED BY IDOCK:   -1.32 KCAL/MOL
REMARK 927      BINDING AFFINITY PREDICTED BY RF-SCORE:    0.00 PKD
ROOT
HETATM    1  C   UNL     1     -10.030  10.983  66.712  1.00  0.00    -0.203 C  
HETATM    2  C   UNL     1      -9.973  12.207  67.637  1.00  0.00    -0.199 C  
HETATM    3  C   UNL     1     -11.035  13.108  67.044  1.00  0.00    -0.269 C  
HETATM    4  C   UNL     1      -8.556  12.764  67.703  1.00  0.00    -0.181 C  
HETATM    5  O   UNL     1     -12.780  12.601  63.863  1.00  0.00    -0.677 OA 
HETATM    6  C   UNL     1     -11.612  12.531  65.968  1.00  0.00    -0.406 C  
HETATM    7  N   UNL     1     -11.125  11.250  65.739  1.00  0.00    -0.152 N  
HETATM    8  O   UNL     1     -10.655  11.051  63.469  1.00  0.00    -0.350 OA 
HETATM    9  C   UNL     1     -12.680  13.135  65.100  1.00  0.00    -0.405 C  
HETATM   10  C   UNL     1      -9.103  10.748  65.477  1.00  0.00    -0.220 C  
HETATM   11  O   UNL     1     -13.442  14.018  65.461  1.00  0.00    -0.677 OA 
HETATM   12  C   UNL     1     -10.370  10.947  64.640  1.00  0.00    -0.338 C  
ENDROOT
BRANCH   3  13
HETATM   13  S   UNL     1     -11.377  14.691  67.633  1.00  0.00    -0.348 SA 
BRANCH  13  14
HETATM   14  C   UNL     1     -10.890  15.841  66.299  1.00  0.00    -0.232 C  
HETATM   15  N   UNL     1      -8.507  16.000  66.326  1.00  0.00    -0.326 NA 
HETATM   16  C   UNL     1      -9.619  15.497  65.522  1.00  0.00    -0.221 C  
HETATM   17  C   UNL     1     -10.527  17.187  66.939  1.00  0.00    -0.274 C  
HETATM   18  C   UNL     1      -8.996  17.251  66.949  1.00  0.00    -0.240 C  
HETATM   19  H   UNL     1      -7.642  16.116  65.800  1.00  0.00     0.000 HD 
BRANCH  18  20
HETATM   20  C   UNL     1      -8.367  17.428  68.348  1.00  0.00    -0.263 C  
BRANCH  20  21
HETATM   21  N   UNL     1      -8.195  16.092  69.016  1.00  0.00    -0.223 N  
HETATM   22  H   UNL     1      -8.972  15.443  69.144  1.00  0.00     0.000 HD 
BRANCH  21  23
HETATM   23  S   UNL     1      -6.647  15.742  69.534  1.00  0.00    -0.183 S  
HETATM   24  O   UNL     1      -6.027  16.971  69.965  1.00  0.00    -0.232 OA 
HETATM   25  N   UNL     1      -6.006  15.383  68.058  1.00  0.00    -0.132 N  
HETATM   26  O   UNL     1      -6.678  14.541  70.325  1.00  0.00    -0.156 OA 
HETATM   27  H2  UNL     1      -6.422  15.377  67.126  1.00  0.00     0.000 HD 
HETATM   28  H1  UNL     1      -5.061  15.169  68.375  1.00  0.00     0.000 HD 
ENDBRANCH  21  23
ENDBRANCH  20  21
ENDBRANCH  18  20
ENDBRANCH  13  14
ENDBRANCH   3  13
BRANCH  10  29
HETATM   29  C   UNL     1      -8.417   9.396  65.472  1.00  0.00    -0.143 C  
HETATM   30  H   UNL     1      -8.712   7.721  66.379  1.00  0.00     0.000 HD 
HETATM   31  O   UNL     1      -9.142   8.568  66.383  1.00  0.00    -0.160 OA 
HETATM   32  C   UNL     1      -6.971   9.502  65.927  1.00  0.00    -0.091 C  
ENDBRANCH  10  29
TORSDOF 6
ENDMDL
MODEL       70
REMARK 921   NORMALIZED FREE ENERGY PREDICTED BY IDOCK:   -5.70 KCAL/MOL
REMARK 922        TOTAL FREE ENERGY PREDICTED BY IDOCK:   -8.58 KCAL/MOL
REMARK 923 INTER-LIGAND FREE ENERGY PREDICTED BY IDOCK:   -7.69 KCAL/MOL
REMARK 924 INTRA-LIGAND FREE ENERGY PREDICTED BY IDOCK:   -0.90 KCAL/MOL
REMARK 927      BINDING AFFINITY PREDICTED BY RF-SCORE:    0.00 PKD
ROOT
HETATM    1  C   UNL     1     -10.486   8.431  67.808  1.00  0.00    -0.220 C  
HETATM    2  C   UNL     1     -10.537   9.963  67.894  1.00  0.00    -0.303 C  
HETATM    3  C   UNL     1      -9.846  10.380  66.613  1.00  0.00    -0.202 C  
HETATM    4  C   UNL     1      -9.919  10.447  69.200  1.00  0.00    -0.237 C  
HETATM    5  O   UNL     1      -8.042   8.180  64.306  1.00  0.00    -0.149 OA 
HETATM    6  C   UNL     1      -9.455   9.300  65.902  1.00  0.00    -0.259 C  
HETATM    7  N   UNL     1      -9.848   8.111  66.500  1.00  0.00    -0.249 N  
HETATM    8  O   UNL     1      -8.030   6.659  66.488  1.00  0.00    -0.102 OA 
HETATM    9  C   UNL     1      -8.709   9.318  64.598  1.00  0.00    -0.192 C  
HETATM   10  C   UNL     1      -9.393   7.531  68.467  1.00  0.00    -0.142 C  
HETATM   11  O   UNL     1      -8.709  10.257  63.817  1.00  0.00    -0.176 OA 
HETATM   12  C   UNL     1      -8.945   7.233  67.033  1.00  0.00    -0.130 C  
ENDROOT
BRANCH   3  13
HETATM   13  S   UNL     1      -9.536  12.022  66.191  1.00  0.00    -0.234 SA 
BRANCH  13  14
HETATM   14  C   UNL     1     -11.110  12.680  65.538  1.00  0.00    -0.294 C  
HETATM   15  N   UNL     1     -11.016  15.061  65.709  1.00  0.00    -0.342 NA 
HETATM   16  C   UNL     1     -11.033  13.976  64.729  1.00  0.00    -0.402 C  
HETATM   17  C   UNL     1     -11.987  13.090  66.728  1.00  0.00    -0.434 C  
HETATM   18  C   UNL     1     -11.895  14.617  66.815  1.00  0.00    -0.317 C  
HETATM   19  H   UNL     1     -11.274  15.967  65.320  1.00  0.00     0.000 HD 
BRANCH  18  20
HETATM   20  C   UNL     1     -11.368  15.156  68.161  1.00  0.00    -0.335 C  
BRANCH  20  21
HETATM   21  N   UNL     1     -12.515  15.488  69.076  1.00  0.00    -0.567 N  
HETATM   22  H   UNL     1     -13.311  16.047  68.771  1.00  0.00     0.000 HD 
BRANCH  21  23
HETATM   23  S   UNL     1     -12.398  14.877  70.626  1.00  0.00    -0.374 S  
HETATM   24  O   UNL     1     -13.059  15.794  71.523  1.00  0.00    -0.484 OA 
HETATM   25  N   UNL     1     -10.778  15.111  70.823  1.00  0.00    -0.539 N  
HETATM   26  O   UNL     1     -12.657  13.463  70.593  1.00  0.00    -0.311 OA 
HETATM   27  H2  UNL     1     -10.073  15.503  70.199  1.00  0.00     0.000 HD 
HETATM   28  H1  UNL     1     -10.706  14.738  71.769  1.00  0.00     0.000 HD 
ENDBRANCH  21  23
ENDBRANCH  20  21
ENDBRANCH  18  20
ENDBRANCH  13  14
ENDBRANCH   3  13
BRANCH  10  29
HETATM   29  C   UNL     1      -9.952   6.407  69.317  1.00  0.00    -0.153 C  
HETATM   30  H   UNL     1     -11.542   5.320  69.253  1.00  0.00     0.000 HD 
HETATM   31  O   UNL     1     -11.192   6.024  68.720  1.00  0.00    -0.331 OA 
HETATM   32  C   UNL     1     -10.197   6.857  70.747  1.00  0.00    -0.212 C  
ENDBRANCH  10  29
TORSDOF 6
ENDMDL
MODEL       71
REMARK 921   NORMALIZED FREE ENERGY PREDICTED BY IDOCK:   -5.69 KCAL/MOL
REMARK 922        TOTAL FREE ENERGY PREDICTED BY IDOCK:   -8.57 KCAL/MOL
REMARK 923 INTER-LIGAND FREE ENERGY PREDICTED BY IDOCK:   -7.58 KCAL/MOL
REMARK 924 INTRA-LIGAND FREE ENERGY PREDICTED BY IDOCK:   -0.99 KCAL/MOL
REMARK 927      BINDING AFFINITY PREDICTED BY RF-SCORE:    0.00 PKD
ROOT
HETATM    1  C   UNL     1     -10.388   6.706  70.472  1.00  0.00    -0.199 C  
HETATM    2  C   UNL     1     -11.159   7.827  69.760  1.00  0.00    -0.095 C  
HETATM    3  C   UNL     1     -10.274   8.121  68.569  1.00  0.00    -0.208 C  
HETATM    4  C   UNL     1     -11.433   8.980  70.718  1.00  0.00    -0.331 C  
HETATM    5  O   UNL     1      -6.895   6.822  68.004  1.00  0.00    -0.071 OA 
HETATM    6  C   UNL     1      -9.180   7.328  68.573  1.00  0.00    -0.138 C  
HETATM    7  N   UNL     1      -9.197   6.421  69.623  1.00  0.00    -0.142 N  
HETATM    8  O   UNL     1      -7.099   6.436  70.628  1.00  0.00    -0.065 OA 
HETATM    9  C   UNL     1      -8.059   7.355  67.572  1.00  0.00    -0.114 C  
HETATM   10  C   UNL     1      -9.390   6.916  71.655  1.00  0.00    -0.154 C  
HETATM   11  O   UNL     1      -8.163   7.785  66.434  1.00  0.00    -0.107 OA 
HETATM   12  C   UNL     1      -8.307   6.491  70.658  1.00  0.00    -0.133 C  
ENDROOT
BRANCH   3  13
HETATM   13  S   UNL     1     -10.601   9.369  67.426  1.00  0.00    -0.209 SA 
BRANCH  13  14
HETATM   14  C   UNL     1      -9.859  10.890  68.115  1.00  0.00    -0.175 C  
HETATM   15  N   UNL     1     -11.217  12.727  67.419  1.00  0.00    -0.278 NA 
HETATM   16  C   UNL     1     -10.826  11.968  68.606  1.00  0.00    -0.237 C  
HETATM   17  C   UNL     1      -9.112  11.611  66.986  1.00  0.00    -0.179 C  
HETATM   18  C   UNL     1     -10.014  12.773  66.558  1.00  0.00    -0.253 C  
HETATM   19  H   UNL     1     -11.604  13.646  67.632  1.00  0.00     0.000 HD 
BRANCH  18  20
HETATM   20  C   UNL     1     -10.426  12.757  65.070  1.00  0.00    -0.314 C  
BRANCH  20  21
HETATM   21  N   UNL     1     -10.628  14.161  64.570  1.00  0.00    -0.597 N  
HETATM   22  H   UNL     1      -9.850  14.800  64.410  1.00  0.00     0.000 HD 
BRANCH  21  23
HETATM   23  S   UNL     1     -12.214  14.604  64.295  1.00  0.00    -0.263 S  
HETATM   24  O   UNL     1     -13.023  14.073  65.365  1.00  0.00    -0.726 OA 
HETATM   25  N   UNL     1     -12.478  13.639  62.983  1.00  0.00    -0.973 N  
HETATM   26  O   UNL     1     -12.251  15.977  63.869  1.00  0.00    -0.883 OA 
HETATM   27  H2  UNL     1     -11.868  12.983  62.496  1.00  0.00     0.000 HD 
HETATM   28  H1  UNL     1     -13.447  13.910  62.815  1.00  0.00     0.000 HD 
ENDBRANCH  21  23
ENDBRANCH  20  21
ENDBRANCH  18  20
ENDBRANCH  13  14
ENDBRANCH   3  13
BRANCH  10  29
HETATM   29  C   UNL     1      -9.672   6.040  72.859  1.00  0.00    -0.155 C  
HETATM   30  H   UNL     1     -10.971   4.677  73.272  1.00  0.00     0.000 HD 
HETATM   31  O   UNL     1     -10.795   5.226  72.517  1.00  0.00    -0.228 OA 
HETATM   32  C   UNL     1     -10.005   6.870  74.088  1.00  0.00    -0.351 C  
ENDBRANCH  10  29
TORSDOF 6
ENDMDL
MODEL       72
REMARK 921   NORMALIZED FREE ENERGY PREDICTED BY IDOCK:   -5.66 KCAL/MOL
REMARK 922        TOTAL FREE ENERGY PREDICTED BY IDOCK:   -8.53 KCAL/MOL
REMARK 923 INTER-LIGAND FREE ENERGY PREDICTED BY IDOCK:   -7.27 KCAL/MOL
REMARK 924 INTRA-LIGAND FREE ENERGY PREDICTED BY IDOCK:   -1.27 KCAL/MOL
REMARK 927      BINDING AFFINITY PREDICTED BY RF-SCORE:    0.00 PKD
ROOT
HETATM    1  C   UNL     1     -10.067  10.664  67.204  1.00  0.00    -0.207 C  
HETATM    2  C   UNL     1      -9.254  11.654  68.051  1.00  0.00    -0.178 C  
HETATM    3  C   UNL     1      -9.380  12.937  67.257  1.00  0.00    -0.212 C  
HETATM    4  C   UNL     1      -7.845  11.125  68.288  1.00  0.00    -0.123 C  
HETATM    5  O   UNL     1     -10.790  13.276  63.894  1.00  0.00    -0.331 OA 
HETATM    6  C   UNL     1     -10.123  12.745  66.146  1.00  0.00    -0.266 C  
HETATM    7  N   UNL     1     -10.622  11.452  66.067  1.00  0.00    -0.261 N  
HETATM    8  O   UNL     1     -10.264  10.669  63.906  1.00  0.00    -0.337 OA 
HETATM    9  C   UNL     1     -10.436  13.776  65.098  1.00  0.00    -0.384 C  
HETATM   10  C   UNL     1      -9.467   9.698  66.132  1.00  0.00    -0.274 C  
HETATM   11  O   UNL     1     -10.417  14.982  65.291  1.00  0.00    -0.346 OA 
HETATM   12  C   UNL     1     -10.204  10.570  65.110  1.00  0.00    -0.288 C  
ENDROOT
BRANCH   3  13
HETATM   13  S   UNL     1      -8.593  14.406  67.695  1.00  0.00    -0.199 SA 
BRANCH  13  14
HETATM   14  C   UNL     1      -9.519  15.067  69.124  1.00  0.00    -0.195 C  
HETATM   15  N   UNL     1     -11.507  16.088  68.279  1.00  0.00    -0.334 NA 
HETATM   16  C   UNL     1     -11.043  14.950  69.073  1.00  0.00    -0.250 C  
HETATM   17  C   UNL     1      -9.309  16.586  69.168  1.00  0.00    -0.207 C  
HETATM   18  C   UNL     1     -10.595  17.206  68.611  1.00  0.00    -0.352 C  
HETATM   19  H   UNL     1     -12.492  16.308  68.419  1.00  0.00     0.000 HD 
BRANCH  18  20
HETATM   20  C   UNL     1     -10.393  18.110  67.376  1.00  0.00    -0.389 C  
BRANCH  20  21
HETATM   21  N   UNL     1      -9.166  18.963  67.548  1.00  0.00    -0.288 N  
HETATM   22  H   UNL     1      -9.082  19.652  68.295  1.00  0.00     0.000 HD 
BRANCH  21  23
HETATM   23  S   UNL     1      -7.950  18.704  66.434  1.00  0.00    -0.262 S  
HETATM   24  O   UNL     1      -8.105  17.374  65.898  1.00  0.00    -0.537 OA 
HETATM   25  N   UNL     1      -6.695  18.637  67.503  1.00  0.00    -0.199 N  
HETATM   26  O   UNL     1      -7.799  19.881  65.624  1.00  0.00    -0.345 OA 
HETATM   27  H2  UNL     1      -6.670  18.725  68.519  1.00  0.00     0.000 HD 
HETATM   28  H1  UNL     1      -5.952  18.479  66.822  1.00  0.00     0.000 HD 
ENDBRANCH  21  23
ENDBRANCH  20  21
ENDBRANCH  18  20
ENDBRANCH  13  14
ENDBRANCH   3  13
BRANCH  10  29
HETATM   29  C   UNL     1      -9.884   8.252  66.308  1.00  0.00    -0.157 C  
HETATM   30  H   UNL     1     -10.467   7.179  67.799  1.00  0.00     0.000 HD 
HETATM   31  O   UNL     1     -10.207   8.086  67.689  1.00  0.00    -0.196 OA 
HETATM   32  C   UNL     1      -8.761   7.298  65.933  1.00  0.00    -0.150 C  
ENDBRANCH  10  29
TORSDOF 6
ENDMDL
MODEL       73
REMARK 921   NORMALIZED FREE ENERGY PREDICTED BY IDOCK:   -5.64 KCAL/MOL
REMARK 922        TOTAL FREE ENERGY PREDICTED BY IDOCK:   -8.51 KCAL/MOL
REMARK 923 INTER-LIGAND FREE ENERGY PREDICTED BY IDOCK:   -7.39 KCAL/MOL
REMARK 924 INTRA-LIGAND FREE ENERGY PREDICTED BY IDOCK:   -1.12 KCAL/MOL
REMARK 927      BINDING AFFINITY PREDICTED BY RF-SCORE:    0.00 PKD
ROOT
HETATM    1  C   UNL     1      -8.362   9.808  65.074  1.00  0.00    -0.145 C  
HETATM    2  C   UNL     1      -9.210  11.048  64.757  1.00  0.00    -0.198 C  
HETATM    3  C   UNL     1     -10.185  11.075  65.915  1.00  0.00    -0.254 C  
HETATM    4  C   UNL     1      -9.804  10.948  63.358  1.00  0.00    -0.408 C  
HETATM    5  O   UNL     1     -10.651   8.443  68.419  1.00  0.00    -0.190 OA 
HETATM    6  C   UNL     1      -9.962  10.044  66.758  1.00  0.00    -0.210 C  
HETATM    7  N   UNL     1      -8.865   9.284  66.374  1.00  0.00    -0.141 N  
HETATM    8  O   UNL     1      -9.463   7.038  66.499  1.00  0.00    -0.167 OA 
HETATM    9  C   UNL     1     -10.748   9.723  67.997  1.00  0.00    -0.247 C  
HETATM   10  C   UNL     1      -8.612   8.379  64.495  1.00  0.00    -0.015 C  
HETATM   11  O   UNL     1     -11.410  10.537  68.624  1.00  0.00    -0.263 OA 
HETATM   12  C   UNL     1      -8.994   7.997  65.929  1.00  0.00    -0.137 C  
ENDROOT
BRANCH   3  13
HETATM   13  S   UNL     1     -11.456  12.230  66.061  1.00  0.00    -0.384 SA 
BRANCH  13  14
HETATM   14  C   UNL     1     -10.664  13.785  66.601  1.00  0.00    -0.277 C  
HETATM   15  N   UNL     1     -10.084  13.531  68.904  1.00  0.00    -0.425 NA 
HETATM   16  C   UNL     1      -9.491  13.660  67.574  1.00  0.00    -0.222 C  
HETATM   17  C   UNL     1     -11.686  14.581  67.422  1.00  0.00    -0.425 C  
HETATM   18  C   UNL     1     -11.292  14.388  68.889  1.00  0.00    -0.274 C  
HETATM   19  H   UNL     1      -9.438  13.747  69.662  1.00  0.00     0.000 HD 
BRANCH  18  20
HETATM   20  C   UNL     1     -12.392  13.769  69.778  1.00  0.00    -0.255 C  
BRANCH  20  21
HETATM   21  N   UNL     1     -12.064  13.972  71.232  1.00  0.00    -0.423 N  
HETATM   22  H   UNL     1     -11.293  13.486  71.689  1.00  0.00     0.000 HD 
BRANCH  21  23
HETATM   23  S   UNL     1     -13.048  15.047  72.047  1.00  0.00    -0.386 S  
HETATM   24  O   UNL     1     -14.097  15.467  71.150  1.00  0.00    -0.537 OA 
HETATM   25  N   UNL     1     -11.972  16.294  72.132  1.00  0.00    -0.582 N  
HETATM   26  O   UNL     1     -13.282  14.552  73.376  1.00  0.00    -0.592 OA 
HETATM   27  H2  UNL     1     -11.014  16.382  71.794  1.00  0.00     0.000 HD 
HETATM   28  H1  UNL     1     -12.573  16.951  72.630  1.00  0.00     0.000 HD 
ENDBRANCH  21  23
ENDBRANCH  20  21
ENDBRANCH  18  20
ENDBRANCH  13  14
ENDBRANCH   3  13
BRANCH  10  29
HETATM   29  C   UNL     1      -7.387   7.749  63.864  1.00  0.00    -0.096 C  
HETATM   30  H   UNL     1      -6.684   5.957  63.758  1.00  0.00     0.000 HD 
HETATM   31  O   UNL     1      -7.452   6.352  64.155  1.00  0.00    -0.070 OA 
HETATM   32  C   UNL     1      -6.103   8.325  64.438  1.00  0.00    -0.065 C  
ENDBRANCH  10  29
TORSDOF 6
ENDMDL
MODEL       74
REMARK 921   NORMALIZED FREE ENERGY PREDICTED BY IDOCK:   -5.62 KCAL/MOL
REMARK 922        TOTAL FREE ENERGY PREDICTED BY IDOCK:   -8.48 KCAL/MOL
REMARK 923 INTER-LIGAND FREE ENERGY PREDICTED BY IDOCK:   -7.35 KCAL/MOL
REMARK 924 INTRA-LIGAND FREE ENERGY PREDICTED BY IDOCK:   -1.12 KCAL/MOL
REMARK 927      BINDING AFFINITY PREDICTED BY RF-SCORE:    0.00 PKD
ROOT
HETATM    1  C   UNL     1     -10.131  14.197  67.663  1.00  0.00    -0.236 C  
HETATM    2  C   UNL     1     -10.304  12.870  68.415  1.00  0.00    -0.249 C  
HETATM    3  C   UNL     1     -10.330  11.862  67.287  1.00  0.00    -0.205 C  
HETATM    4  C   UNL     1     -11.528  12.923  69.322  1.00  0.00    -0.341 C  
HETATM    5  O   UNL     1     -10.527  12.616  63.708  1.00  0.00    -0.421 OA 
HETATM    6  C   UNL     1     -10.202  12.473  66.089  1.00  0.00    -0.252 C  
HETATM    7  N   UNL     1     -10.015  13.843  66.220  1.00  0.00    -0.298 N  
HETATM    8  O   UNL     1     -11.422  14.913  64.707  1.00  0.00    -0.395 OA 
HETATM    9  C   UNL     1     -10.219  11.805  64.744  1.00  0.00    -0.282 C  
HETATM   10  C   UNL     1     -11.297  15.152  67.249  1.00  0.00    -0.305 C  
HETATM   11  O   UNL     1      -9.948  10.629  64.555  1.00  0.00    -0.296 OA 
HETATM   12  C   UNL     1     -10.957  14.746  65.811  1.00  0.00    -0.334 C  
ENDROOT
BRANCH   3  13
HETATM   13  S   UNL     1     -10.582  10.174  67.526  1.00  0.00    -0.284 SA 
BRANCH  13  14
HETATM   14  C   UNL     1      -8.944   9.473  67.932  1.00  0.00    -0.123 C  
HETATM   15  N   UNL     1      -9.309   7.533  69.276  1.00  0.00    -0.151 NA 
HETATM   16  C   UNL     1      -8.834   7.947  67.957  1.00  0.00    -0.124 C  
HETATM   17  C   UNL     1      -8.609   9.849  69.380  1.00  0.00    -0.180 C  
HETATM   18  C   UNL     1      -8.864   8.589  70.214  1.00  0.00    -0.148 C  
HETATM   19  H   UNL     1      -9.009   6.596  69.543  1.00  0.00     0.000 HD 
BRANCH  18  20
HETATM   20  C   UNL     1      -9.897   8.762  71.347  1.00  0.00    -0.283 C  
BRANCH  20  21
HETATM   21  N   UNL     1     -10.342   7.419  71.857  1.00  0.00    -0.191 N  
HETATM   22  H   UNL     1      -9.685   6.731  72.225  1.00  0.00     0.000 HD 
BRANCH  21  23
HETATM   23  S   UNL     1     -11.985   7.130  71.780  1.00  0.00    -0.329 S  
HETATM   24  O   UNL     1     -12.242   5.835  72.362  1.00  0.00    -0.207 OA 
HETATM   25  N   UNL     1     -12.089   6.941  70.145  1.00  0.00    -0.641 N  
HETATM   26  O   UNL     1     -12.689   8.327  72.149  1.00  0.00    -0.332 OA 
HETATM   27  H2  UNL     1     -11.379   6.986  69.415  1.00  0.00     0.000 HD 
HETATM   28  H1  UNL     1     -13.093   6.764  70.098  1.00  0.00     0.000 HD 
ENDBRANCH  21  23
ENDBRANCH  20  21
ENDBRANCH  18  20
ENDBRANCH  13  14
ENDBRANCH   3  13
BRANCH  10  29
HETATM   29  C   UNL     1     -11.095  16.590  67.679  1.00  0.00    -0.127 C  
HETATM   30  H   UNL     1      -9.934  18.024  67.121  1.00  0.00     0.000 HD 
HETATM   31  O   UNL     1     -10.060  17.122  66.851  1.00  0.00    -0.279 OA 
HETATM   32  C   UNL     1     -10.675  16.684  69.137  1.00  0.00    -0.342 C  
ENDBRANCH  10  29
TORSDOF 6
ENDMDL
MODEL       75
REMARK 921   NORMALIZED FREE ENERGY PREDICTED BY IDOCK:   -5.61 KCAL/MOL
REMARK 922        TOTAL FREE ENERGY PREDICTED BY IDOCK:   -8.47 KCAL/MOL
REMARK 923 INTER-LIGAND FREE ENERGY PREDICTED BY IDOCK:   -7.48 KCAL/MOL
REMARK 924 INTRA-LIGAND FREE ENERGY PREDICTED BY IDOCK:   -0.99 KCAL/MOL
REMARK 927      BINDING AFFINITY PREDICTED BY RF-SCORE:    0.00 PKD
ROOT
HETATM    1  C   UNL     1     -12.107  10.796  69.344  1.00  0.00    -0.244 C  
HETATM    2  C   UNL     1     -12.095  12.287  68.978  1.00  0.00    -0.197 C  
HETATM    3  C   UNL     1     -10.900  12.382  68.053  1.00  0.00    -0.221 C  
HETATM    4  C   UNL     1     -12.064  13.148  70.236  1.00  0.00    -0.399 C  
HETATM    5  O   UNL     1      -8.424   9.755  67.432  1.00  0.00    -0.121 OA 
HETATM    6  C   UNL     1     -10.311  11.177  67.901  1.00  0.00    -0.185 C  
HETATM    7  N   UNL     1     -10.993  10.173  68.575  1.00  0.00    -0.239 N  
HETATM    8  O   UNL     1      -9.436   8.892  69.735  1.00  0.00    -0.163 OA 
HETATM    9  C   UNL     1      -9.081  10.885  67.089  1.00  0.00    -0.145 C  
HETATM   10  C   UNL     1     -11.456  10.182  70.624  1.00  0.00    -0.432 C  
HETATM   11  O   UNL     1      -8.691  11.574  66.158  1.00  0.00    -0.186 OA 
HETATM   12  C   UNL     1     -10.459   9.533  69.659  1.00  0.00    -0.223 C  
ENDROOT
BRANCH   3  13
HETATM   13  S   UNL     1     -10.340  13.863  67.373  1.00  0.00    -0.253 SA 
BRANCH  13  14
HETATM   14  C   UNL     1      -9.076  14.502  68.527  1.00  0.00    -0.190 C  
HETATM   15  N   UNL     1      -9.348  16.872  68.644  1.00  0.00    -0.261 NA 
HETATM   16  C   UNL     1      -9.496  15.655  69.440  1.00  0.00    -0.279 C  
HETATM   17  C   UNL     1      -7.951  15.134  67.700  1.00  0.00    -0.177 C  
HETATM   18  C   UNL     1      -8.160  16.649  67.787  1.00  0.00    -0.176 C  
HETATM   19  H   UNL     1      -9.294  17.723  69.204  1.00  0.00     0.000 HD 
BRANCH  18  20
HETATM   20  C   UNL     1      -8.347  17.355  66.427  1.00  0.00    -0.267 C  
BRANCH  20  21
HETATM   21  N   UNL     1      -9.719  17.966  66.341  1.00  0.00    -0.320 N  
HETATM   22  H   UNL     1     -10.552  17.409  66.156  1.00  0.00     0.000 HD 
BRANCH  21  23
HETATM   23  S   UNL     1      -9.784  19.619  66.567  1.00  0.00    -0.430 S  
HETATM   24  O   UNL     1      -8.435  20.107  66.720  1.00  0.00    -0.315 OA 
HETATM   25  N   UNL     1     -10.451  19.599  68.076  1.00  0.00    -0.438 N  
HETATM   26  O   UNL     1     -10.740  20.180  65.651  1.00  0.00    -0.378 OA 
HETATM   27  H2  UNL     1     -10.732  18.826  68.678  1.00  0.00     0.000 HD 
HETATM   28  H1  UNL     1     -10.491  20.609  68.214  1.00  0.00     0.000 HD 
ENDBRANCH  21  23
ENDBRANCH  20  21
ENDBRANCH  18  20
ENDBRANCH  13  14
ENDBRANCH   3  13
BRANCH  10  29
HETATM   29  C   UNL     1     -12.391   9.299  71.426  1.00  0.00    -0.343 C  
HETATM   30  H   UNL     1     -13.825   9.621  72.673  1.00  0.00     0.000 HD 
HETATM   31  O   UNL     1     -13.239  10.175  72.171  1.00  0.00    -0.444 OA 
HETATM   32  C   UNL     1     -11.626   8.400  72.384  1.00  0.00    -0.450 C  
ENDBRANCH  10  29
TORSDOF 6
ENDMDL
MODEL       76
REMARK 921   NORMALIZED FREE ENERGY PREDICTED BY IDOCK:   -5.61 KCAL/MOL
REMARK 922        TOTAL FREE ENERGY PREDICTED BY IDOCK:   -8.46 KCAL/MOL
REMARK 923 INTER-LIGAND FREE ENERGY PREDICTED BY IDOCK:   -7.37 KCAL/MOL
REMARK 924 INTRA-LIGAND FREE ENERGY PREDICTED BY IDOCK:   -1.09 KCAL/MOL
REMARK 927      BINDING AFFINITY PREDICTED BY RF-SCORE:    0.00 PKD
ROOT
HETATM    1  C   UNL     1     -10.518  12.119  66.480  1.00  0.00    -0.225 C  
HETATM    2  C   UNL     1     -10.156  11.156  67.620  1.00  0.00    -0.203 C  
HETATM    3  C   UNL     1      -9.212  10.190  66.938  1.00  0.00    -0.146 C  
HETATM    4  C   UNL     1     -11.416  10.566  68.243  1.00  0.00    -0.272 C  
HETATM    5  O   UNL     1      -8.541   9.987  63.342  1.00  0.00    -0.168 OA 
HETATM    6  C   UNL     1      -9.046  10.514  65.637  1.00  0.00    -0.182 C  
HETATM    7  N   UNL     1      -9.729  11.674  65.298  1.00  0.00    -0.237 N  
HETATM    8  O   UNL     1     -10.859  11.291  63.300  1.00  0.00    -0.326 OA 
HETATM    9  C   UNL     1      -8.212   9.768  64.635  1.00  0.00    -0.150 C  
HETATM   10  C   UNL     1     -11.785  12.001  65.575  1.00  0.00    -0.315 C  
HETATM   11  O   UNL     1      -7.278   9.036  64.924  1.00  0.00    -0.093 OA 
HETATM   12  C   UNL     1     -10.801  11.664  64.449  1.00  0.00    -0.339 C  
ENDROOT
BRANCH   3  13
HETATM   13  S   UNL     1      -8.526   8.817  67.722  1.00  0.00    -0.125 SA 
BRANCH  13  14
HETATM   14  C   UNL     1      -9.309   7.355  66.955  1.00  0.00    -0.157 C  
HETATM   15  N   UNL     1     -11.230   6.804  68.263  1.00  0.00    -0.548 NA 
HETATM   16  C   UNL     1     -10.838   7.315  66.950  1.00  0.00    -0.195 C  
HETATM   17  C   UNL     1      -8.952   6.125  67.798  1.00  0.00    -0.115 C  
HETATM   18  C   UNL     1     -10.199   5.806  68.629  1.00  0.00    -0.197 C  
HETATM   19  H   UNL     1     -12.182   6.438  68.291  1.00  0.00     0.000 HD 
BRANCH  18  20
HETATM   20  C   UNL     1      -9.976   5.811  70.156  1.00  0.00    -0.198 C  
BRANCH  20  21
HETATM   21  N   UNL     1     -10.460   7.106  70.750  1.00  0.00    -0.211 N  
HETATM   22  H   UNL     1     -10.107   8.012  70.443  1.00  0.00     0.000 HD 
BRANCH  21  23
HETATM   23  S   UNL     1     -11.614   6.960  71.948  1.00  0.00    -0.300 S  
HETATM   24  O   UNL     1     -11.483   5.652  72.543  1.00  0.00    -0.294 OA 
HETATM   25  N   UNL     1     -12.934   6.898  70.962  1.00  0.00    -0.437 N  
HETATM   26  O   UNL     1     -11.662   8.182  72.703  1.00  0.00    -0.399 OA 
HETATM   27  H2  UNL     1     -13.019   6.936  69.946  1.00  0.00     0.000 HD 
HETATM   28  H1  UNL     1     -13.639   6.809  71.693  1.00  0.00     0.000 HD 
ENDBRANCH  21  23
ENDBRANCH  20  21
ENDBRANCH  18  20
ENDBRANCH  13  14
ENDBRANCH   3  13
BRANCH  10  29
HETATM   29  C   UNL     1     -12.600  13.275  65.488  1.00  0.00    -0.446 C  
HETATM   30  H   UNL     1     -12.996  14.541  64.089  1.00  0.00     0.000 HD 
HETATM   31  O   UNL     1     -12.485  13.742  64.143  1.00  0.00    -0.652 OA 
HETATM   32  C   UNL     1     -12.075  14.339  66.439  1.00  0.00    -0.442 C  
ENDBRANCH  10  29
TORSDOF 6
ENDMDL
MODEL       77
REMARK 921   NORMALIZED FREE ENERGY PREDICTED BY IDOCK:   -5.60 KCAL/MOL
REMARK 922        TOTAL FREE ENERGY PREDICTED BY IDOCK:   -8.45 KCAL/MOL
REMARK 923 INTER-LIGAND FREE ENERGY PREDICTED BY IDOCK:   -7.60 KCAL/MOL
REMARK 924 INTRA-LIGAND FREE ENERGY PREDICTED BY IDOCK:   -0.85 KCAL/MOL
REMARK 927      BINDING AFFINITY PREDICTED BY RF-SCORE:    0.00 PKD
ROOT
HETATM    1  C   UNL     1      -9.308  15.691  68.006  1.00  0.00    -0.193 C  
HETATM    2  C   UNL     1     -10.167  14.597  67.356  1.00  0.00    -0.240 C  
HETATM    3  C   UNL     1      -9.151  13.508  67.085  1.00  0.00    -0.232 C  
HETATM    4  C   UNL     1     -10.921  15.152  66.153  1.00  0.00    -0.331 C  
HETATM    5  O   UNL     1      -5.515  13.806  67.408  1.00  0.00    -0.347 OA 
HETATM    6  C   UNL     1      -7.920  13.885  67.493  1.00  0.00    -0.179 C  
HETATM    7  N   UNL     1      -7.931  15.131  68.105  1.00  0.00    -0.121 N  
HETATM    8  O   UNL     1      -6.169  16.378  67.239  1.00  0.00    -0.154 OA 
HETATM    9  C   UNL     1      -6.656  13.084  67.358  1.00  0.00    -0.107 C  
HETATM   10  C   UNL     1      -8.671  16.900  67.248  1.00  0.00    -0.207 C  
HETATM   11  O   UNL     1      -6.619  11.868  67.245  1.00  0.00    -0.113 OA 
HETATM   12  C   UNL     1      -7.329  16.222  67.542  1.00  0.00    -0.151 C  
ENDROOT
BRANCH   3  13
HETATM   13  S   UNL     1      -9.531  12.032  66.281  1.00  0.00    -0.221 SA 
BRANCH  13  14
HETATM   14  C   UNL     1      -9.648  10.761  67.589  1.00  0.00    -0.158 C  
HETATM   15  N   UNL     1     -11.938  10.630  68.255  1.00  0.00    -0.814 NA 
HETATM   16  C   UNL     1     -10.891   9.870  67.575  1.00  0.00    -0.243 C  
HETATM   17  C   UNL     1      -9.774  11.476  68.939  1.00  0.00    -0.069 C  
HETATM   18  C   UNL     1     -11.253  11.383  69.331  1.00  0.00    -0.268 C  
HETATM   19  H   UNL     1     -12.711  10.053  68.588  1.00  0.00     0.000 HD 
BRANCH  18  20
HETATM   20  C   UNL     1     -11.949  12.742  69.554  1.00  0.00    -0.276 C  
BRANCH  20  21
HETATM   21  N   UNL     1     -12.126  13.002  71.025  1.00  0.00    -0.413 N  
HETATM   22  H   UNL     1     -11.791  12.354  71.737  1.00  0.00     0.000 HD 
BRANCH  21  23
HETATM   23  S   UNL     1     -12.908  14.425  71.413  1.00  0.00    -0.361 S  
HETATM   24  O   UNL     1     -14.302  14.128  71.636  1.00  0.00    -0.398 OA 
HETATM   25  N   UNL     1     -12.809  15.133  69.927  1.00  0.00    -0.622 N  
HETATM   26  O   UNL     1     -12.092  15.172  72.332  1.00  0.00    -0.348 OA 
HETATM   27  H2  UNL     1     -12.401  14.807  69.051  1.00  0.00     0.000 HD 
HETATM   28  H1  UNL     1     -13.286  16.003  70.165  1.00  0.00     0.000 HD 
ENDBRANCH  21  23
ENDBRANCH  20  21
ENDBRANCH  18  20
ENDBRANCH  13  14
ENDBRANCH   3  13
BRANCH  10  29
HETATM   29  C   UNL     1      -8.973  18.246  67.875  1.00  0.00    -0.276 C  
HETATM   30  H   UNL     1     -10.145  18.857  69.278  1.00  0.00     0.000 HD 
HETATM   31  O   UNL     1      -9.956  18.013  68.886  1.00  0.00    -0.370 OA 
HETATM   32  C   UNL     1      -9.522  19.228  66.853  1.00  0.00    -0.386 C  
ENDBRANCH  10  29
TORSDOF 6
ENDMDL
MODEL       78
REMARK 921   NORMALIZED FREE ENERGY PREDICTED BY IDOCK:   -5.59 KCAL/MOL
REMARK 922        TOTAL FREE ENERGY PREDICTED BY IDOCK:   -8.44 KCAL/MOL
REMARK 923 INTER-LIGAND FREE ENERGY PREDICTED BY IDOCK:   -7.14 KCAL/MOL
REMARK 924 INTRA-LIGAND FREE ENERGY PREDICTED BY IDOCK:   -1.30 KCAL/MOL
REMARK 927      BINDING AFFINITY PREDICTED BY RF-SCORE:    0.00 PKD
ROOT
HETATM    1  C   UNL     1     -11.117   7.143  71.051  1.00  0.00    -0.260 C  
HETATM    2  C   UNL     1     -10.566   8.560  70.834  1.00  0.00    -0.252 C  
HETATM    3  C   UNL     1     -10.286   8.572  69.347  1.00  0.00    -0.211 C  
HETATM    4  C   UNL     1      -9.385   8.823  71.761  1.00  0.00    -0.350 C  
HETATM    5  O   UNL     1     -10.386   5.683  67.097  1.00  0.00    -0.195 OA 
HETATM    6  C   UNL     1     -10.605   7.386  68.786  1.00  0.00    -0.168 C  
HETATM    7  N   UNL     1     -11.162   6.507  69.705  1.00  0.00    -0.370 N  
HETATM    8  O   UNL     1     -10.142   4.433  69.432  1.00  0.00    -0.162 OA 
HETATM    9  C   UNL     1     -10.434   7.011  67.341  1.00  0.00    -0.273 C  
HETATM   10  C   UNL     1     -10.271   5.913  71.512  1.00  0.00    -0.254 C  
HETATM   11  O   UNL     1     -10.372   7.816  66.424  1.00  0.00    -0.154 OA 
HETATM   12  C   UNL     1     -10.518   5.368  70.102  1.00  0.00    -0.290 C  
ENDROOT
BRANCH   3  13
HETATM   13  S   UNL     1      -9.571   9.907  68.525  1.00  0.00    -0.157 SA 
BRANCH  13  14
HETATM   14  C   UNL     1     -10.568  11.370  68.978  1.00  0.00    -0.191 C  
HETATM   15  N   UNL     1     -11.800  12.024  67.039  1.00  0.00    -0.611 NA 
HETATM   16  C   UNL     1     -11.971  11.461  68.377  1.00  0.00    -0.200 C  
HETATM   17  C   UNL     1      -9.883  12.613  68.396  1.00  0.00    -0.200 C  
HETATM   18  C   UNL     1     -10.690  12.997  67.152  1.00  0.00    -0.254 C  
HETATM   19  H   UNL     1     -12.655  12.421  66.650  1.00  0.00     0.000 HD 
BRANCH  18  20
HETATM   20  C   UNL     1      -9.878  13.031  65.840  1.00  0.00    -0.237 C  
BRANCH  20  21
HETATM   21  N   UNL     1      -9.555  11.632  65.390  1.00  0.00    -0.267 N  
HETATM   22  H   UNL     1      -9.066  10.967  65.989  1.00  0.00     0.000 HD 
BRANCH  21  23
HETATM   23  S   UNL     1     -10.051  11.243  63.844  1.00  0.00    -0.378 S  
HETATM   24  O   UNL     1     -11.470  11.488  63.751  1.00  0.00    -0.402 OA 
HETATM   25  N   UNL     1      -9.862   9.609  63.968  1.00  0.00    -0.365 N  
HETATM   26  O   UNL     1      -9.088  11.745  62.903  1.00  0.00    -0.278 OA 
HETATM   27  H2  UNL     1      -9.545   9.024  64.740  1.00  0.00     0.000 HD 
HETATM   28  H1  UNL     1     -10.165   9.371  63.023  1.00  0.00     0.000 HD 
ENDBRANCH  21  23
ENDBRANCH  20  21
ENDBRANCH  18  20
ENDBRANCH  13  14
ENDBRANCH   3  13
BRANCH  10  29
HETATM   29  C   UNL     1     -10.854   5.178  72.702  1.00  0.00    -0.247 C  
HETATM   30  H   UNL     1     -12.632   4.923  73.402  1.00  0.00     0.000 HD 
HETATM   31  O   UNL     1     -12.267   5.384  72.656  1.00  0.00    -0.115 OA 
HETATM   32  C   UNL     1     -10.308   5.717  74.014  1.00  0.00    -0.298 C  
ENDBRANCH  10  29
TORSDOF 6
ENDMDL
MODEL       79
REMARK 921   NORMALIZED FREE ENERGY PREDICTED BY IDOCK:   -5.56 KCAL/MOL
REMARK 922        TOTAL FREE ENERGY PREDICTED BY IDOCK:   -8.40 KCAL/MOL
REMARK 923 INTER-LIGAND FREE ENERGY PREDICTED BY IDOCK:   -7.59 KCAL/MOL
REMARK 924 INTRA-LIGAND FREE ENERGY PREDICTED BY IDOCK:   -0.80 KCAL/MOL
REMARK 927      BINDING AFFINITY PREDICTED BY RF-SCORE:    0.00 PKD
ROOT
HETATM    1  C   UNL     1     -11.097   8.282  70.059  1.00  0.00    -0.147 C  
HETATM    2  C   UNL     1     -10.582   9.192  68.935  1.00  0.00    -0.214 C  
HETATM    3  C   UNL     1      -9.182   8.662  68.707  1.00  0.00    -0.142 C  
HETATM    4  C   UNL     1     -10.708  10.658  69.331  1.00  0.00    -0.281 C  
HETATM    5  O   UNL     1      -7.419   6.227  70.799  1.00  0.00    -0.086 OA 
HETATM    6  C   UNL     1      -8.914   7.635  69.542  1.00  0.00    -0.139 C  
HETATM    7  N   UNL     1     -10.008   7.302  70.329  1.00  0.00    -0.187 N  
HETATM    8  O   UNL     1      -9.271   7.049  72.521  1.00  0.00    -0.138 OA 
HETATM    9  C   UNL     1      -7.618   6.880  69.633  1.00  0.00    -0.101 C  
HETATM   10  C   UNL     1     -11.051   8.626  71.583  1.00  0.00    -0.375 C  
HETATM   11  O   UNL     1      -6.797   6.809  68.731  1.00  0.00    -0.061 OA 
HETATM   12  C   UNL     1     -10.016   7.500  71.682  1.00  0.00    -0.175 C  
ENDROOT
BRANCH   3  13
HETATM   13  S   UNL     1      -8.073   9.358  67.587  1.00  0.00    -0.106 SA 
BRANCH  13  14
HETATM   14  C   UNL     1      -8.635   8.834  65.930  1.00  0.00    -0.154 C  
HETATM   15  N   UNL     1      -8.030  10.558  64.391  1.00  0.00    -0.333 NA 
HETATM   16  C   UNL     1      -7.721   9.175  64.752  1.00  0.00    -0.111 C  
HETATM   17  C   UNL     1      -9.911   9.615  65.590  1.00  0.00    -0.369 C  
HETATM   18  C   UNL     1      -9.485  10.715  64.612  1.00  0.00    -0.258 C  
HETATM   19  H   UNL     1      -7.729  10.812  63.450  1.00  0.00     0.000 HD 
BRANCH  18  20
HETATM   20  C   UNL     1      -9.798  12.152  65.082  1.00  0.00    -0.180 C  
BRANCH  20  21
HETATM   21  N   UNL     1     -11.258  12.284  65.420  1.00  0.00    -0.317 N  
HETATM   22  H   UNL     1     -11.709  11.698  66.122  1.00  0.00     0.000 HD 
BRANCH  21  23
HETATM   23  S   UNL     1     -12.090  13.455  64.569  1.00  0.00    -0.414 S  
HETATM   24  O   UNL     1     -12.388  12.933  63.258  1.00  0.00    -0.652 OA 
HETATM   25  N   UNL     1     -10.836  14.510  64.381  1.00  0.00    -0.609 N  
HETATM   26  O   UNL     1     -13.069  14.056  65.434  1.00  0.00    -0.763 OA 
HETATM   27  H2  UNL     1      -9.864  14.463  64.687  1.00  0.00     0.000 HD 
HETATM   28  H1  UNL     1     -11.344  15.225  63.862  1.00  0.00     0.000 HD 
ENDBRANCH  21  23
ENDBRANCH  20  21
ENDBRANCH  18  20
ENDBRANCH  13  14
ENDBRANCH   3  13
BRANCH  10  29
HETATM   29  C   UNL     1     -12.383   8.470  72.288  1.00  0.00    -0.387 C  
HETATM   30  H   UNL     1     -13.822   7.190  72.204  1.00  0.00     0.000 HD 
HETATM   31  O   UNL     1     -12.986   7.287  71.762  1.00  0.00    -0.345 OA 
HETATM   32  C   UNL     1     -13.294   9.659  72.030  1.00  0.00    -0.547 C  
ENDBRANCH  10  29
TORSDOF 6
ENDMDL
MODEL       80
REMARK 921   NORMALIZED FREE ENERGY PREDICTED BY IDOCK:   -5.54 KCAL/MOL
REMARK 922        TOTAL FREE ENERGY PREDICTED BY IDOCK:   -8.37 KCAL/MOL
REMARK 923 INTER-LIGAND FREE ENERGY PREDICTED BY IDOCK:   -7.48 KCAL/MOL
REMARK 924 INTRA-LIGAND FREE ENERGY PREDICTED BY IDOCK:   -0.90 KCAL/MOL
REMARK 927      BINDING AFFINITY PREDICTED BY RF-SCORE:    0.00 PKD
ROOT
HETATM    1  C   UNL     1     -10.775  10.066  66.781  1.00  0.00    -0.101 C  
HETATM    2  C   UNL     1     -10.839  11.155  67.861  1.00  0.00    -0.285 C  
HETATM    3  C   UNL     1     -10.757  12.425  67.043  1.00  0.00    -0.239 C  
HETATM    4  C   UNL     1      -9.753  10.936  68.907  1.00  0.00    -0.198 C  
HETATM    5  O   UNL     1      -9.995  12.657  63.467  1.00  0.00    -0.359 OA 
HETATM    6  C   UNL     1     -10.658  12.145  65.725  1.00  0.00    -0.260 C  
HETATM    7  N   UNL     1     -10.725  10.781  65.475  1.00  0.00    -0.138 N  
HETATM    8  O   UNL     1      -9.026  10.234  63.983  1.00  0.00    -0.196 OA 
HETATM    9  C   UNL     1     -10.521  13.145  64.612  1.00  0.00    -0.392 C  
HETATM   10  C   UNL     1      -9.476   9.325  66.329  1.00  0.00    -0.284 C  
HETATM   11  O   UNL     1     -10.878  14.311  64.686  1.00  0.00    -0.401 OA 
HETATM   12  C   UNL     1      -9.653  10.075  65.005  1.00  0.00    -0.297 C  
ENDROOT
BRANCH   3  13
HETATM   13  S   UNL     1     -10.707  14.002  67.737  1.00  0.00    -0.245 SA 
BRANCH  13  14
HETATM   14  C   UNL     1      -9.020  14.204  68.408  1.00  0.00    -0.189 C  
HETATM   15  N   UNL     1      -8.624  16.547  68.654  1.00  0.00    -0.233 NA 
HETATM   16  C   UNL     1      -8.814  15.323  69.431  1.00  0.00    -0.220 C  
HETATM   17  C   UNL     1      -8.099  14.637  67.261  1.00  0.00    -0.230 C  
HETATM   18  C   UNL     1      -7.875  16.142  67.443  1.00  0.00    -0.154 C  
HETATM   19  H   UNL     1      -8.178  17.299  69.179  1.00  0.00     0.000 HD 
BRANCH  18  20
HETATM   20  C   UNL     1      -8.303  17.009  66.240  1.00  0.00    -0.273 C  
BRANCH  20  21
HETATM   21  N   UNL     1      -8.711  18.380  66.704  1.00  0.00    -0.279 N  
HETATM   22  H   UNL     1      -8.090  18.977  67.249  1.00  0.00     0.000 HD 
BRANCH  21  23
HETATM   23  S   UNL     1     -10.249  18.860  66.265  1.00  0.00    -0.446 S  
HETATM   24  O   UNL     1     -10.717  17.976  65.225  1.00  0.00    -0.625 OA 
HETATM   25  N   UNL     1      -9.827  20.273  65.527  1.00  0.00    -0.451 N  
HETATM   26  O   UNL     1     -11.000  19.168  67.451  1.00  0.00    -0.475 OA 
HETATM   27  H2  UNL     1      -8.919  20.713  65.384  1.00  0.00     0.000 HD 
HETATM   28  H1  UNL     1     -10.767  20.565  65.259  1.00  0.00     0.000 HD 
ENDBRANCH  21  23
ENDBRANCH  20  21
ENDBRANCH  18  20
ENDBRANCH  13  14
ENDBRANCH   3  13
BRANCH  10  29
HETATM   29  C   UNL     1      -9.593   7.814  66.345  1.00  0.00    -0.165 C  
HETATM   30  H   UNL     1     -11.014   6.567  66.720  1.00  0.00     0.000 HD 
HETATM   31  O   UNL     1     -10.941   7.514  66.710  1.00  0.00    -0.220 OA 
HETATM   32  C   UNL     1      -8.645   7.191  67.357  1.00  0.00    -0.121 C  
ENDBRANCH  10  29
TORSDOF 6
ENDMDL
MODEL       81
REMARK 921   NORMALIZED FREE ENERGY PREDICTED BY IDOCK:   -5.52 KCAL/MOL
REMARK 922        TOTAL FREE ENERGY PREDICTED BY IDOCK:   -8.35 KCAL/MOL
REMARK 923 INTER-LIGAND FREE ENERGY PREDICTED BY IDOCK:   -7.19 KCAL/MOL
REMARK 924 INTRA-LIGAND FREE ENERGY PREDICTED BY IDOCK:   -1.15 KCAL/MOL
REMARK 927      BINDING AFFINITY PREDICTED BY RF-SCORE:    0.00 PKD
ROOT
HETATM    1  C   UNL     1     -10.708   8.321  68.406  1.00  0.00    -0.019 C  
HETATM    2  C   UNL     1     -10.597   9.662  69.145  1.00  0.00    -0.237 C  
HETATM    3  C   UNL     1     -10.323  10.631  68.015  1.00  0.00    -0.178 C  
HETATM    4  C   UNL     1      -9.552   9.579  70.251  1.00  0.00    -0.314 C  
HETATM    5  O   UNL     1      -9.555   9.752  64.543  1.00  0.00    -0.273 OA 
HETATM    6  C   UNL     1     -10.276   9.987  66.828  1.00  0.00    -0.232 C  
HETATM    7  N   UNL     1     -10.556   8.633  66.958  1.00  0.00    -0.277 N  
HETATM    8  O   UNL     1      -8.969   7.448  65.736  1.00  0.00    -0.127 OA 
HETATM    9  C   UNL     1      -9.993  10.610  65.491  1.00  0.00    -0.272 C  
HETATM   10  C   UNL     1      -9.542   7.298  68.223  1.00  0.00    -0.150 C  
HETATM   11  O   UNL     1     -10.164  11.791  65.230  1.00  0.00    -0.247 OA 
HETATM   12  C   UNL     1      -9.608   7.672  66.739  1.00  0.00    -0.209 C  
ENDROOT
BRANCH   3  13
HETATM   13  S   UNL     1     -10.027  12.311  68.255  1.00  0.00    -0.209 SA 
BRANCH  13  14
HETATM   14  C   UNL     1     -11.668  13.115  68.275  1.00  0.00    -0.349 C  
HETATM   15  N   UNL     1     -11.359  15.390  67.617  1.00  0.00    -0.321 NA 
HETATM   16  C   UNL     1     -11.952  14.131  67.169  1.00  0.00    -0.426 C  
HETATM   17  C   UNL     1     -11.762  13.975  69.541  1.00  0.00    -0.367 C  
HETATM   18  C   UNL     1     -11.550  15.422  69.085  1.00  0.00    -0.339 C  
HETATM   19  H   UNL     1     -11.730  16.210  67.138  1.00  0.00     0.000 HD 
BRANCH  18  20
HETATM   20  C   UNL     1     -10.363  16.144  69.759  1.00  0.00    -0.244 C  
BRANCH  20  21
HETATM   21  N   UNL     1     -10.481  17.631  69.569  1.00  0.00    -0.286 N  
HETATM   22  H   UNL     1     -11.097  18.206  70.144  1.00  0.00     0.000 HD 
BRANCH  21  23
HETATM   23  S   UNL     1      -9.535  18.278  68.355  1.00  0.00    -0.334 S  
HETATM   24  O   UNL     1      -9.020  19.546  68.812  1.00  0.00    -0.364 OA 
HETATM   25  N   UNL     1     -10.754  18.619  67.297  1.00  0.00    -0.424 N  
HETATM   26  O   UNL     1      -8.719  17.238  67.793  1.00  0.00    -0.220 OA 
HETATM   27  H2  UNL     1     -11.762  18.480  67.364  1.00  0.00     0.000 HD 
HETATM   28  H1  UNL     1     -10.177  19.014  66.556  1.00  0.00     0.000 HD 
ENDBRANCH  21  23
ENDBRANCH  20  21
ENDBRANCH  18  20
ENDBRANCH  13  14
ENDBRANCH   3  13
BRANCH  10  29
HETATM   29  C   UNL     1      -9.891   5.886  68.646  1.00  0.00    -0.136 C  
HETATM   30  H   UNL     1     -10.653   4.353  67.760  1.00  0.00     0.000 HD 
HETATM   31  O   UNL     1     -10.434   5.238  67.494  1.00  0.00    -0.187 OA 
HETATM   32  C   UNL     1     -10.920   5.876  69.765  1.00  0.00    -0.452 C  
ENDBRANCH  10  29
TORSDOF 6
ENDMDL
MODEL       82
REMARK 921   NORMALIZED FREE ENERGY PREDICTED BY IDOCK:   -5.52 KCAL/MOL
REMARK 922        TOTAL FREE ENERGY PREDICTED BY IDOCK:   -8.34 KCAL/MOL
REMARK 923 INTER-LIGAND FREE ENERGY PREDICTED BY IDOCK:   -7.33 KCAL/MOL
REMARK 924 INTRA-LIGAND FREE ENERGY PREDICTED BY IDOCK:   -1.02 KCAL/MOL
REMARK 927      BINDING AFFINITY PREDICTED BY RF-SCORE:    0.00 PKD
ROOT
HETATM    1  C   UNL     1     -11.093  13.242  69.701  1.00  0.00     0.063 C  
HETATM    2  C   UNL     1     -11.085  11.958  68.860  1.00  0.00    -0.299 C  
HETATM    3  C   UNL     1     -10.773  12.482  67.475  1.00  0.00    -0.225 C  
HETATM    4  C   UNL     1     -12.395  11.197  69.030  1.00  0.00    -0.032 C  
HETATM    5  O   UNL     1     -10.685  16.000  66.457  1.00  0.00    -0.306 OA 
HETATM    6  C   UNL     1     -10.627  13.825  67.489  1.00  0.00    -0.244 C  
HETATM    7  N   UNL     1     -10.736  14.349  68.770  1.00  0.00    -0.246 N  
HETATM    8  O   UNL     1     -12.136  16.205  68.676  1.00  0.00    -0.144 OA 
HETATM    9  C   UNL     1     -10.348  14.701  66.300  1.00  0.00    -0.294 C  
HETATM   10  C   UNL     1     -12.368  14.070  70.063  1.00  0.00    -0.397 C  
HETATM   11  O   UNL     1      -9.825  14.313  65.266  1.00  0.00    -0.304 OA 
HETATM   12  C   UNL     1     -11.783  15.146  69.142  1.00  0.00    -0.325 C  
ENDROOT
BRANCH   3  13
HETATM   13  S   UNL     1     -10.707  11.483  66.072  1.00  0.00    -0.269 SA 
BRANCH  13  14
HETATM   14  C   UNL     1      -8.992  10.863  65.975  1.00  0.00    -0.186 C  
HETATM   15  N   UNL     1      -9.056   8.756  64.851  1.00  0.00    -0.428 NA 
HETATM   16  C   UNL     1      -8.594  10.134  64.691  1.00  0.00    -0.183 C  
HETATM   17  C   UNL     1      -8.818   9.770  67.037  1.00  0.00    -0.145 C  
HETATM   18  C   UNL     1      -8.875   8.437  66.285  1.00  0.00    -0.159 C  
HETATM   19  H   UNL     1      -8.597   8.096  64.223  1.00  0.00     0.000 HD 
BRANCH  18  20
HETATM   20  C   UNL     1      -9.985   7.475  66.758  1.00  0.00    -0.237 C  
BRANCH  20  21
HETATM   21  N   UNL     1     -10.733   8.072  67.919  1.00  0.00    -0.448 N  
HETATM   22  H   UNL     1     -11.280   8.929  67.831  1.00  0.00     0.000 HD 
BRANCH  21  23
HETATM   23  S   UNL     1     -10.609   7.238  69.360  1.00  0.00    -0.217 S  
HETATM   24  O   UNL     1     -11.113   5.902  69.153  1.00  0.00    -0.351 OA 
HETATM   25  N   UNL     1     -11.779   8.061  70.181  1.00  0.00    -0.464 N  
HETATM   26  O   UNL     1      -9.336   7.530  69.961  1.00  0.00    -0.154 OA 
HETATM   27  H2  UNL     1     -12.385   8.831  69.900  1.00  0.00     0.000 HD 
HETATM   28  H1  UNL     1     -11.703   7.551  71.061  1.00  0.00     0.000 HD 
ENDBRANCH  21  23
ENDBRANCH  20  21
ENDBRANCH  18  20
ENDBRANCH  13  14
ENDBRANCH   3  13
BRANCH  10  29
HETATM   29  C   UNL     1     -12.513  14.361  71.543  1.00  0.00    -0.355 C  
HETATM   30  H   UNL     1     -13.178  13.377  73.061  1.00  0.00     0.000 HD 
HETATM   31  O   UNL     1     -13.088  13.194  72.133  1.00  0.00    -0.397 OA 
HETATM   32  C   UNL     1     -13.421  15.554  71.791  1.00  0.00    -0.576 C  
ENDBRANCH  10  29
TORSDOF 6
ENDMDL
MODEL       83
REMARK 921   NORMALIZED FREE ENERGY PREDICTED BY IDOCK:   -5.51 KCAL/MOL
REMARK 922        TOTAL FREE ENERGY PREDICTED BY IDOCK:   -8.32 KCAL/MOL
REMARK 923 INTER-LIGAND FREE ENERGY PREDICTED BY IDOCK:   -7.88 KCAL/MOL
REMARK 924 INTRA-LIGAND FREE ENERGY PREDICTED BY IDOCK:   -0.44 KCAL/MOL
REMARK 927      BINDING AFFINITY PREDICTED BY RF-SCORE:    0.00 PKD
ROOT
HETATM    1  C   UNL     1     -10.160  17.026  66.738  1.00  0.00    -0.300 C  
HETATM    2  C   UNL     1     -10.771  15.922  65.862  1.00  0.00    -0.303 C  
HETATM    3  C   UNL     1      -9.813  14.771  66.081  1.00  0.00    -0.312 C  
HETATM    4  C   UNL     1     -10.946  16.410  64.429  1.00  0.00     0.182 C  
HETATM    5  O   UNL     1      -6.588  14.931  67.810  1.00  0.00    -0.143 OA 
HETATM    6  C   UNL     1      -8.819  15.124  66.924  1.00  0.00    -0.256 C  
HETATM    7  N   UNL     1      -8.980  16.415  67.409  1.00  0.00    -0.190 N  
HETATM    8  O   UNL     1      -6.932  17.508  67.248  1.00  0.00    -0.158 OA 
HETATM    9  C   UNL     1      -7.666  14.259  67.350  1.00  0.00    -0.173 C  
HETATM   10  C   UNL     1      -9.190  18.140  66.229  1.00  0.00    -0.213 C  
HETATM   11  O   UNL     1      -7.677  13.038  67.329  1.00  0.00    -0.160 OA 
HETATM   12  C   UNL     1      -8.126  17.429  67.072  1.00  0.00    -0.216 C  
ENDROOT
BRANCH   3  13
HETATM   13  S   UNL     1      -9.952  13.253  65.277  1.00  0.00    -0.111 SA 
BRANCH  13  14
HETATM   14  C   UNL     1     -11.545  12.540  65.817  1.00  0.00    -0.392 C  
HETATM   15  N   UNL     1     -12.507  14.053  67.395  1.00  0.00    -0.478 NA 
HETATM   16  C   UNL     1     -12.696  13.520  66.047  1.00  0.00    -0.245 C  
HETATM   17  C   UNL     1     -11.348  11.934  67.212  1.00  0.00    -0.393 C  
HETATM   18  C   UNL     1     -11.966  12.933  68.197  1.00  0.00    -0.261 C  
HETATM   19  H   UNL     1     -13.349  14.471  67.791  1.00  0.00     0.000 HD 
BRANCH  18  20
HETATM   20  C   UNL     1     -10.993  13.469  69.268  1.00  0.00    -0.122 C  
BRANCH  20  21
HETATM   21  N   UNL     1     -11.739  13.801  70.531  1.00  0.00    -0.518 N  
HETATM   22  H   UNL     1     -12.046  13.084  71.188  1.00  0.00     0.000 HD 
BRANCH  21  23
HETATM   23  S   UNL     1     -12.032  15.425  70.786  1.00  0.00    -0.399 S  
HETATM   24  O   UNL     1     -11.622  15.752  72.131  1.00  0.00    -0.418 OA 
HETATM   25  N   UNL     1     -13.679  15.343  70.803  1.00  0.00    -0.845 N  
HETATM   26  O   UNL     1     -11.621  16.163  69.623  1.00  0.00    -0.312 OA 
HETATM   27  H2  UNL     1     -14.315  14.554  70.693  1.00  0.00     0.000 HD 
HETATM   28  H1  UNL     1     -13.857  16.335  70.959  1.00  0.00     0.000 HD 
ENDBRANCH  21  23
ENDBRANCH  20  21
ENDBRANCH  18  20
ENDBRANCH  13  14
ENDBRANCH   3  13
BRANCH  10  29
HETATM   29  C   UNL     1      -9.616  19.544  66.607  1.00  0.00    -0.363 C  
HETATM   30  H   UNL     1      -8.901  20.916  67.757  1.00  0.00     0.000 HD 
HETATM   31  O   UNL     1      -8.634  20.035  67.521  1.00  0.00    -0.322 OA 
HETATM   32  C   UNL     1     -10.980  19.553  67.277  1.00  0.00    -0.460 C  
ENDBRANCH  10  29
TORSDOF 6
ENDMDL
MODEL       84
REMARK 921   NORMALIZED FREE ENERGY PREDICTED BY IDOCK:   -5.50 KCAL/MOL
REMARK 922        TOTAL FREE ENERGY PREDICTED BY IDOCK:   -8.31 KCAL/MOL
REMARK 923 INTER-LIGAND FREE ENERGY PREDICTED BY IDOCK:   -6.72 KCAL/MOL
REMARK 924 INTRA-LIGAND FREE ENERGY PREDICTED BY IDOCK:   -1.59 KCAL/MOL
REMARK 927      BINDING AFFINITY PREDICTED BY RF-SCORE:    0.00 PKD
ROOT
HETATM    1  C   UNL     1      -8.494   9.195  66.067  1.00  0.00    -0.131 C  
HETATM    2  C   UNL     1      -9.950   9.645  66.253  1.00  0.00    -0.335 C  
HETATM    3  C   UNL     1      -9.792  11.109  66.605  1.00  0.00    -0.199 C  
HETATM    4  C   UNL     1     -10.657   8.762  67.274  1.00  0.00    -0.303 C  
HETATM    5  O   UNL     1      -6.650  12.830  67.368  1.00  0.00    -0.153 OA 
HETATM    6  C   UNL     1      -8.489  11.462  66.629  1.00  0.00    -0.171 C  
HETATM    7  N   UNL     1      -7.657  10.413  66.261  1.00  0.00    -0.121 N  
HETATM    8  O   UNL     1      -5.903  10.312  67.786  1.00  0.00    -0.045 OA 
HETATM    9  C   UNL     1      -7.942  12.819  66.972  1.00  0.00    -0.038 C  
HETATM   10  C   UNL     1      -7.616   8.518  67.168  1.00  0.00    -0.096 C  
HETATM   11  O   UNL     1      -8.575  13.859  66.881  1.00  0.00    -0.201 OA 
HETATM   12  C   UNL     1      -6.804   9.817  67.149  1.00  0.00    -0.083 C  
ENDROOT
BRANCH   3  13
HETATM   13  S   UNL     1     -11.115  12.138  67.006  1.00  0.00    -0.313 SA 
BRANCH  13  14
HETATM   14  C   UNL     1     -11.871  12.628  65.416  1.00  0.00    -0.427 C  
HETATM   15  N   UNL     1     -10.255  13.922  64.224  1.00  0.00    -0.703 NA 
HETATM   16  C   UNL     1     -10.955  12.639  64.191  1.00  0.00    -0.387 C  
HETATM   17  C   UNL     1     -12.293  14.098  65.521  1.00  0.00    -0.472 C  
HETATM   18  C   UNL     1     -11.232  14.898  64.758  1.00  0.00    -0.386 C  
HETATM   19  H   UNL     1      -9.855  14.192  63.326  1.00  0.00     0.000 HD 
BRANCH  18  20
HETATM   20  C   UNL     1     -10.506  15.972  65.595  1.00  0.00    -0.397 C  
BRANCH  20  21
HETATM   21  N   UNL     1     -10.650  15.675  67.063  1.00  0.00    -0.308 N  
HETATM   22  H   UNL     1     -10.932  14.758  67.408  1.00  0.00     0.000 HD 
BRANCH  21  23
HETATM   23  S   UNL     1     -10.319  16.950  68.090  1.00  0.00    -0.354 S  
HETATM   24  O   UNL     1     -10.423  18.175  67.335  1.00  0.00    -0.375 OA 
HETATM   25  N   UNL     1      -8.709  16.651  68.284  1.00  0.00    -0.209 N  
HETATM   26  O   UNL     1     -10.982  16.724  69.345  1.00  0.00    -0.293 OA 
HETATM   27  H2  UNL     1      -8.108  15.923  67.900  1.00  0.00     0.000 HD 
HETATM   28  H1  UNL     1      -8.507  17.430  68.911  1.00  0.00     0.000 HD 
ENDBRANCH  21  23
ENDBRANCH  20  21
ENDBRANCH  18  20
ENDBRANCH  13  14
ENDBRANCH   3  13
BRANCH  10  29
HETATM   29  C   UNL     1      -6.959   7.228  66.723  1.00  0.00    -0.074 C  
HETATM   30  H   UNL     1      -6.407   6.502  65.025  1.00  0.00     0.000 HD 
HETATM   31  O   UNL     1      -6.819   7.311  65.303  1.00  0.00    -0.050 OA 
HETATM   32  C   UNL     1      -7.807   6.018  67.076  1.00  0.00    -0.102 C  
ENDBRANCH  10  29
TORSDOF 6
ENDMDL
MODEL       85
REMARK 921   NORMALIZED FREE ENERGY PREDICTED BY IDOCK:   -5.50 KCAL/MOL
REMARK 922        TOTAL FREE ENERGY PREDICTED BY IDOCK:   -8.31 KCAL/MOL
REMARK 923 INTER-LIGAND FREE ENERGY PREDICTED BY IDOCK:   -7.27 KCAL/MOL
REMARK 924 INTRA-LIGAND FREE ENERGY PREDICTED BY IDOCK:   -1.04 KCAL/MOL
REMARK 927      BINDING AFFINITY PREDICTED BY RF-SCORE:    0.00 PKD
ROOT
HETATM    1  C   UNL     1     -10.154   8.234  69.970  1.00  0.00    -0.196 C  
HETATM    2  C   UNL     1     -10.103   9.137  68.729  1.00  0.00    -0.212 C  
HETATM    3  C   UNL     1     -10.975  10.303  69.144  1.00  0.00    -0.238 C  
HETATM    4  C   UNL     1     -10.529   8.365  67.487  1.00  0.00    -0.328 C  
HETATM    5  O   UNL     1     -13.077  10.484  72.138  1.00  0.00    -0.459 OA 
HETATM    6  C   UNL     1     -11.457  10.126  70.393  1.00  0.00    -0.322 C  
HETATM    7  N   UNL     1     -10.973   8.964  70.979  1.00  0.00    -0.256 N  
HETATM    8  O   UNL     1     -12.763   7.848  71.960  1.00  0.00    -0.311 OA 
HETATM    9  C   UNL     1     -12.383  11.053  71.128  1.00  0.00    -0.359 C  
HETATM   10  C   UNL     1     -11.135   7.034  70.166  1.00  0.00    -0.323 C  
HETATM   11  O   UNL     1     -12.503  12.244  70.883  1.00  0.00    -0.371 OA 
HETATM   12  C   UNL     1     -11.783   7.897  71.253  1.00  0.00    -0.287 C  
ENDROOT
BRANCH   3  13
HETATM   13  S   UNL     1     -11.354  11.623  68.103  1.00  0.00    -0.317 SA 
BRANCH  13  14
HETATM   14  C   UNL     1      -9.932  12.766  68.199  1.00  0.00    -0.229 C  
HETATM   15  N   UNL     1      -9.037  12.981  65.995  1.00  0.00    -0.442 NA 
HETATM   16  C   UNL     1      -9.744  13.734  67.030  1.00  0.00    -0.251 C  
HETATM   17  C   UNL     1      -8.646  11.933  68.142  1.00  0.00    -0.165 C  
HETATM   18  C   UNL     1      -8.106  12.085  66.716  1.00  0.00    -0.081 C  
HETATM   19  H   UNL     1      -8.581  13.572  65.300  1.00  0.00     0.000 HD 
BRANCH  18  20
HETATM   20  C   UNL     1      -7.941  10.759  65.943  1.00  0.00    -0.140 C  
BRANCH  20  21
HETATM   21  N   UNL     1      -9.155  10.494  65.096  1.00  0.00    -0.186 N  
HETATM   22  H   UNL     1     -10.058  10.245  65.501  1.00  0.00     0.000 HD 
BRANCH  21  23
HETATM   23  S   UNL     1      -8.927  10.634  63.448  1.00  0.00    -0.227 S  
HETATM   24  O   UNL     1      -9.213   9.355  62.843  1.00  0.00    -0.187 OA 
HETATM   25  N   UNL     1      -7.284  10.785  63.475  1.00  0.00    -0.328 N  
HETATM   26  O   UNL     1      -9.494  11.876  63.001  1.00  0.00    -0.359 OA 
HETATM   27  H2  UNL     1      -6.621  10.790  64.250  1.00  0.00     0.000 HD 
HETATM   28  H1  UNL     1      -7.145  10.870  62.469  1.00  0.00     0.000 HD 
ENDBRANCH  21  23
ENDBRANCH  20  21
ENDBRANCH  18  20
ENDBRANCH  13  14
ENDBRANCH   3  13
BRANCH  10  29
HETATM   29  C   UNL     1     -10.451   5.740  70.559  1.00  0.00    -0.263 C  
HETATM   30  H   UNL     1      -8.879   5.291  71.581  1.00  0.00     0.000 HD 
HETATM   31  O   UNL     1      -9.307   6.103  71.335  1.00  0.00    -0.152 OA 
HETATM   32  C   UNL     1     -10.004   4.951  69.339  1.00  0.00    -0.282 C  
ENDBRANCH  10  29
TORSDOF 6
ENDMDL
MODEL       86
REMARK 921   NORMALIZED FREE ENERGY PREDICTED BY IDOCK:   -5.48 KCAL/MOL
REMARK 922        TOTAL FREE ENERGY PREDICTED BY IDOCK:   -8.28 KCAL/MOL
REMARK 923 INTER-LIGAND FREE ENERGY PREDICTED BY IDOCK:   -7.10 KCAL/MOL
REMARK 924 INTRA-LIGAND FREE ENERGY PREDICTED BY IDOCK:   -1.18 KCAL/MOL
REMARK 927      BINDING AFFINITY PREDICTED BY RF-SCORE:    0.00 PKD
ROOT
HETATM    1  C   UNL     1     -11.127  11.431  68.146  1.00  0.00    -0.248 C  
HETATM    2  C   UNL     1     -10.437  10.206  68.765  1.00  0.00    -0.223 C  
HETATM    3  C   UNL     1     -11.127  10.093  70.108  1.00  0.00    -0.315 C  
HETATM    4  C   UNL     1      -8.925  10.394  68.780  1.00  0.00    -0.157 C  
HETATM    5  O   UNL     1     -13.405  12.549  71.590  1.00  0.00    -0.358 OA 
HETATM    6  C   UNL     1     -12.049  11.068  70.261  1.00  0.00    -0.362 C  
HETATM    7  N   UNL     1     -12.160  11.863  69.128  1.00  0.00    -0.251 N  
HETATM    8  O   UNL     1     -12.174  14.089  69.804  1.00  0.00    -0.327 OA 
HETATM    9  C   UNL     1     -12.906  11.299  71.473  1.00  0.00    -0.414 C  
HETATM   10  C   UNL     1     -10.580  12.893  68.204  1.00  0.00    -0.249 C  
HETATM   11  O   UNL     1     -13.181  10.439  72.296  1.00  0.00    -0.400 OA 
HETATM   12  C   UNL     1     -11.775  13.175  69.120  1.00  0.00    -0.325 C  
ENDROOT
BRANCH   3  13
HETATM   13  S   UNL     1     -10.705   8.919  71.297  1.00  0.00    -0.316 SA 
BRANCH  13  14
HETATM   14  C   UNL     1     -11.790   7.481  70.993  1.00  0.00    -0.293 C  
HETATM   15  N   UNL     1     -10.596   5.528  71.671  1.00  0.00    -0.231 NA 
HETATM   16  C   UNL     1     -11.748   6.355  72.026  1.00  0.00    -0.329 C  
HETATM   17  C   UNL     1     -11.303   6.777  69.721  1.00  0.00    -0.350 C  
HETATM   18  C   UNL     1     -10.535   5.538  70.192  1.00  0.00    -0.300 C  
HETATM   19  H   UNL     1     -10.626   4.591  72.073  1.00  0.00     0.000 HD 
BRANCH  18  20
HETATM   20  C   UNL     1      -9.066   5.471  69.721  1.00  0.00    -0.132 C  
BRANCH  20  21
HETATM   21  N   UNL     1      -8.662   6.774  69.088  1.00  0.00    -0.131 N  
HETATM   22  H   UNL     1      -8.612   7.644  69.617  1.00  0.00     0.000 HD 
BRANCH  21  23
HETATM   23  S   UNL     1      -8.299   6.699  67.460  1.00  0.00    -0.122 S  
HETATM   24  O   UNL     1      -9.466   7.115  66.719  1.00  0.00    -0.155 OA 
HETATM   25  N   UNL     1      -8.224   5.057  67.335  1.00  0.00    -0.106 N  
HETATM   26  O   UNL     1      -6.983   7.237  67.248  1.00  0.00    -0.073 OA 
HETATM   27  H2  UNL     1      -8.356   4.322  68.030  1.00  0.00     0.000 HD 
HETATM   28  H1  UNL     1      -8.002   5.011  66.341  1.00  0.00     0.000 HD 
ENDBRANCH  21  23
ENDBRANCH  20  21
ENDBRANCH  18  20
ENDBRANCH  13  14
ENDBRANCH   3  13
BRANCH  10  29
HETATM   29  C   UNL     1     -10.505  13.575  66.854  1.00  0.00    -0.271 C  
HETATM   30  H   UNL     1      -9.882  15.290  66.232  1.00  0.00     0.000 HD 
HETATM   31  O   UNL     1      -9.928  14.862  67.079  1.00  0.00    -0.235 OA 
HETATM   32  C   UNL     1     -11.884  13.741  66.235  1.00  0.00    -0.426 C  
ENDBRANCH  10  29
TORSDOF 6
ENDMDL
MODEL       87
REMARK 921   NORMALIZED FREE ENERGY PREDICTED BY IDOCK:   -5.46 KCAL/MOL
REMARK 922        TOTAL FREE ENERGY PREDICTED BY IDOCK:   -8.26 KCAL/MOL
REMARK 923 INTER-LIGAND FREE ENERGY PREDICTED BY IDOCK:   -6.67 KCAL/MOL
REMARK 924 INTRA-LIGAND FREE ENERGY PREDICTED BY IDOCK:   -1.59 KCAL/MOL
REMARK 927      BINDING AFFINITY PREDICTED BY RF-SCORE:    0.00 PKD
ROOT
HETATM    1  C   UNL     1      -9.061  17.392  67.811  1.00  0.00    -0.243 C  
HETATM    2  C   UNL     1     -10.187  16.612  67.116  1.00  0.00    -0.290 C  
HETATM    3  C   UNL     1      -9.577  15.235  66.964  1.00  0.00    -0.224 C  
HETATM    4  C   UNL     1     -10.619  17.321  65.838  1.00  0.00    -0.206 C  
HETATM    5  O   UNL     1      -6.086  14.325  67.598  1.00  0.00    -0.271 OA 
HETATM    6  C   UNL     1      -8.325  15.202  67.469  1.00  0.00    -0.172 C  
HETATM    7  N   UNL     1      -7.964  16.412  68.046  1.00  0.00    -0.153 N  
HETATM    8  O   UNL     1      -5.826  16.956  67.307  1.00  0.00    -0.137 OA 
HETATM    9  C   UNL     1      -7.396  14.022  67.466  1.00  0.00    -0.170 C  
HETATM   10  C   UNL     1      -8.002  18.279  67.083  1.00  0.00    -0.229 C  
HETATM   11  O   UNL     1      -7.761  12.858  67.387  1.00  0.00    -0.161 OA 
HETATM   12  C   UNL     1      -6.990  17.210  67.511  1.00  0.00    -0.151 C  
ENDROOT
BRANCH   3  13
HETATM   13  S   UNL     1     -10.369  13.928  66.166  1.00  0.00    -0.308 SA 
BRANCH  13  14
HETATM   14  C   UNL     1     -11.588  13.274  67.360  1.00  0.00    -0.353 C  
HETATM   15  N   UNL     1     -10.400  11.909  68.919  1.00  0.00    -0.373 NA 
HETATM   16  C   UNL     1     -11.137  13.167  68.817  1.00  0.00    -0.269 C  
HETATM   17  C   UNL     1     -11.872  11.811  66.998  1.00  0.00    -0.126 C  
HETATM   18  C   UNL     1     -11.089  10.966  68.008  1.00  0.00    -0.293 C  
HETATM   19  H   UNL     1     -10.311  11.563  69.874  1.00  0.00     0.000 HD 
BRANCH  18  20
HETATM   20  C   UNL     1     -10.069   9.992  67.382  1.00  0.00    -0.208 C  
BRANCH  20  21
HETATM   21  N   UNL     1      -9.196  10.715  66.393  1.00  0.00    -0.164 N  
HETATM   22  H   UNL     1      -8.693  11.569  66.633  1.00  0.00     0.000 HD 
BRANCH  21  23
HETATM   23  S   UNL     1      -9.108  10.027  64.874  1.00  0.00    -0.243 S  
HETATM   24  O   UNL     1      -8.740   8.640  65.029  1.00  0.00    -0.179 OA 
HETATM   25  N   UNL     1      -7.755  10.818  64.362  1.00  0.00    -0.350 N  
HETATM   26  O   UNL     1     -10.226  10.475  64.091  1.00  0.00    -0.342 OA 
HETATM   27  H2  UNL     1      -7.162  11.508  64.824  1.00  0.00     0.000 HD 
HETATM   28  H1  UNL     1      -7.701  10.398  63.435  1.00  0.00     0.000 HD 
ENDBRANCH  21  23
ENDBRANCH  20  21
ENDBRANCH  18  20
ENDBRANCH  13  14
ENDBRANCH   3  13
BRANCH  10  29
HETATM   29  C   UNL     1      -7.881  19.680  67.647  1.00  0.00    -0.282 C  
HETATM   30  H   UNL     1      -7.338  20.418  69.342  1.00  0.00     0.000 HD 
HETATM   31  O   UNL     1      -7.413  19.539  68.989  1.00  0.00    -0.363 OA 
HETATM   32  C   UNL     1      -9.220  20.398  67.650  1.00  0.00    -0.413 C  
ENDBRANCH  10  29
TORSDOF 6
ENDMDL
MODEL       88
REMARK 921   NORMALIZED FREE ENERGY PREDICTED BY IDOCK:   -5.46 KCAL/MOL
REMARK 922        TOTAL FREE ENERGY PREDICTED BY IDOCK:   -8.26 KCAL/MOL
REMARK 923 INTER-LIGAND FREE ENERGY PREDICTED BY IDOCK:   -7.34 KCAL/MOL
REMARK 924 INTRA-LIGAND FREE ENERGY PREDICTED BY IDOCK:   -0.91 KCAL/MOL
REMARK 927      BINDING AFFINITY PREDICTED BY RF-SCORE:    0.00 PKD
ROOT
HETATM    1  C   UNL     1     -11.083   6.560  71.641  1.00  0.00    -0.259 C  
HETATM    2  C   UNL     1     -11.120   8.038  71.228  1.00  0.00    -0.279 C  
HETATM    3  C   UNL     1     -10.994   7.954  69.722  1.00  0.00    -0.148 C  
HETATM    4  C   UNL     1     -10.046   8.828  71.967  1.00  0.00    -0.397 C  
HETATM    5  O   UNL     1     -10.207   4.953  67.775  1.00  0.00    -0.135 OA 
HETATM    6  C   UNL     1     -10.896   6.670  69.316  1.00  0.00    -0.289 C  
HETATM    7  N   UNL     1     -11.004   5.778  70.375  1.00  0.00    -0.291 N  
HETATM    8  O   UNL     1      -9.314   4.194  70.162  1.00  0.00    -0.129 OA 
HETATM    9  C   UNL     1     -10.723   6.195  67.901  1.00  0.00    -0.296 C  
HETATM   10  C   UNL     1      -9.804   5.788  72.099  1.00  0.00    -0.181 C  
HETATM   11  O   UNL     1     -11.045   6.840  66.915  1.00  0.00    -0.397 OA 
HETATM   12  C   UNL     1      -9.951   5.010  70.788  1.00  0.00    -0.221 C  
ENDROOT
BRANCH   3  13
HETATM   13  S   UNL     1     -10.901   9.337  68.697  1.00  0.00    -0.008 SA 
BRANCH  13  14
HETATM   14  C   UNL     1      -9.120   9.672  68.463  1.00  0.00    -0.131 C  
HETATM   15  N   UNL     1      -8.929  11.757  67.315  1.00  0.00    -0.167 NA 
HETATM   16  C   UNL     1      -8.667  11.125  68.607  1.00  0.00    -0.153 C  
HETATM   17  C   UNL     1      -8.764   9.361  67.005  1.00  0.00    -0.135 C  
HETATM   18  C   UNL     1      -8.660  10.716  66.297  1.00  0.00    -0.153 C  
HETATM   19  H   UNL     1      -8.404  12.619  67.168  1.00  0.00     0.000 HD 
BRANCH  18  20
HETATM   20  C   UNL     1      -9.611  10.891  65.094  1.00  0.00    -0.243 C  
BRANCH  20  21
HETATM   21  N   UNL     1     -10.906  11.514  65.540  1.00  0.00    -0.276 N  
HETATM   22  H   UNL     1     -11.298  11.350  66.466  1.00  0.00     0.000 HD 
BRANCH  21  23
HETATM   23  S   UNL     1     -11.658  12.492  64.414  1.00  0.00    -0.386 S  
HETATM   24  O   UNL     1     -13.081  12.434  64.645  1.00  0.00    -0.825 OA 
HETATM   25  N   UNL     1     -11.358  11.556  63.089  1.00  0.00    -0.848 N  
HETATM   26  O   UNL     1     -10.916  13.717  64.288  1.00  0.00    -0.382 OA 
HETATM   27  H2  UNL     1     -10.870  10.666  62.989  1.00  0.00     0.000 HD 
HETATM   28  H1  UNL     1     -11.817  12.154  62.401  1.00  0.00     0.000 HD 
ENDBRANCH  21  23
ENDBRANCH  20  21
ENDBRANCH  18  20
ENDBRANCH  13  14
ENDBRANCH   3  13
BRANCH  10  29
HETATM   29  C   UNL     1      -9.967   5.056  73.416  1.00  0.00    -0.157 C  
HETATM   30  H   UNL     1      -8.959   3.706  74.352  1.00  0.00     0.000 HD 
HETATM   31  O   UNL     1      -8.856   4.165  73.526  1.00  0.00    -0.094 OA 
HETATM   32  C   UNL     1     -11.260   4.259  73.456  1.00  0.00    -0.361 C  
ENDBRANCH  10  29
TORSDOF 6
ENDMDL
MODEL       89
REMARK 921   NORMALIZED FREE ENERGY PREDICTED BY IDOCK:   -5.46 KCAL/MOL
REMARK 922        TOTAL FREE ENERGY PREDICTED BY IDOCK:   -8.25 KCAL/MOL
REMARK 923 INTER-LIGAND FREE ENERGY PREDICTED BY IDOCK:   -7.08 KCAL/MOL
REMARK 924 INTRA-LIGAND FREE ENERGY PREDICTED BY IDOCK:   -1.17 KCAL/MOL
REMARK 927      BINDING AFFINITY PREDICTED BY RF-SCORE:    0.00 PKD
ROOT
HETATM    1  C   UNL     1     -10.808  13.105  68.852  1.00  0.00    -0.204 C  
HETATM    2  C   UNL     1     -10.684  11.642  69.301  1.00  0.00    -0.144 C  
HETATM    3  C   UNL     1     -10.598  10.906  67.982  1.00  0.00    -0.202 C  
HETATM    4  C   UNL     1     -11.836  11.266  70.227  1.00  0.00    -0.446 C  
HETATM    5  O   UNL     1     -11.161  12.339  64.658  1.00  0.00    -0.293 OA 
HETATM    6  C   UNL     1     -10.662  11.767  66.943  1.00  0.00    -0.250 C  
HETATM    7  N   UNL     1     -10.722  13.089  67.365  1.00  0.00    -0.243 N  
HETATM    8  O   UNL     1     -12.396  14.158  66.154  1.00  0.00    -0.450 OA 
HETATM    9  C   UNL     1     -10.643  11.405  65.486  1.00  0.00    -0.271 C  
HETATM   10  C   UNL     1     -12.154  13.880  68.683  1.00  0.00    -0.337 C  
HETATM   11  O   UNL     1     -10.172  10.369  65.040  1.00  0.00    -0.324 OA 
HETATM   12  C   UNL     1     -11.838  13.858  67.184  1.00  0.00    -0.412 C  
ENDROOT
BRANCH   3  13
HETATM   13  S   UNL     1     -10.518   9.189  67.854  1.00  0.00    -0.218 SA 
BRANCH  13  14
HETATM   14  C   UNL     1      -8.815   8.727  68.327  1.00  0.00    -0.141 C  
HETATM   15  N   UNL     1      -7.465   8.862  66.362  1.00  0.00    -0.087 NA 
HETATM   16  C   UNL     1      -7.679   9.502  67.658  1.00  0.00    -0.095 C  
HETATM   17  C   UNL     1      -8.559   7.293  67.847  1.00  0.00    -0.120 C  
HETATM   18  C   UNL     1      -7.702   7.418  66.583  1.00  0.00    -0.101 C  
HETATM   19  H   UNL     1      -6.556   9.069  65.949  1.00  0.00     0.000 HD 
BRANCH  18  20
HETATM   20  C   UNL     1      -8.319   6.781  65.319  1.00  0.00    -0.105 C  
BRANCH  20  21
HETATM   21  N   UNL     1      -9.684   6.228  65.627  1.00  0.00    -0.252 N  
HETATM   22  H   UNL     1     -10.479   6.829  65.840  1.00  0.00     0.000 HD 
BRANCH  21  23
HETATM   23  S   UNL     1      -9.808   4.564  65.596  1.00  0.00    -0.226 S  
HETATM   24  O   UNL     1      -8.989   4.070  64.515  1.00  0.00    -0.125 OA 
HETATM   25  N   UNL     1     -11.372   4.478  65.078  1.00  0.00    -0.920 N  
HETATM   26  O   UNL     1      -9.743   4.064  66.942  1.00  0.00    -0.209 OA 
HETATM   27  H2  UNL     1     -12.046   5.208  64.850  1.00  0.00     0.000 HD 
HETATM   28  H1  UNL     1     -11.447   3.462  65.060  1.00  0.00     0.000 HD 
ENDBRANCH  21  23
ENDBRANCH  20  21
ENDBRANCH  18  20
ENDBRANCH  13  14
ENDBRANCH   3  13
BRANCH  10  29
HETATM   29  C   UNL     1     -12.193  15.208  69.411  1.00  0.00    -0.202 C  
HETATM   30  H   UNL     1     -10.861  16.400  70.134  1.00  0.00     0.000 HD 
HETATM   31  O   UNL     1     -10.836  15.567  69.677  1.00  0.00    -0.240 OA 
HETATM   32  C   UNL     1     -12.955  15.104  70.722  1.00  0.00    -0.468 C  
ENDBRANCH  10  29
TORSDOF 6
ENDMDL
MODEL       90
REMARK 921   NORMALIZED FREE ENERGY PREDICTED BY IDOCK:   -5.44 KCAL/MOL
REMARK 922        TOTAL FREE ENERGY PREDICTED BY IDOCK:   -8.23 KCAL/MOL
REMARK 923 INTER-LIGAND FREE ENERGY PREDICTED BY IDOCK:   -6.79 KCAL/MOL
REMARK 924 INTRA-LIGAND FREE ENERGY PREDICTED BY IDOCK:   -1.45 KCAL/MOL
REMARK 927      BINDING AFFINITY PREDICTED BY RF-SCORE:    0.00 PKD
ROOT
HETATM    1  C   UNL     1      -8.303  16.754  66.974  1.00  0.00    -0.191 C  
HETATM    2  C   UNL     1      -7.679  15.355  67.083  1.00  0.00    -0.246 C  
HETATM    3  C   UNL     1      -8.811  14.543  67.673  1.00  0.00    -0.187 C  
HETATM    4  C   UNL     1      -6.380  15.409  67.878  1.00  0.00    -0.170 C  
HETATM    5  O   UNL     1     -11.961  15.858  69.002  1.00  0.00    -0.378 OA 
HETATM    6  C   UNL     1      -9.901  15.313  67.881  1.00  0.00    -0.216 C  
HETATM    7  N   UNL     1      -9.712  16.615  67.438  1.00  0.00    -0.247 N  
HETATM    8  O   UNL     1     -10.473  18.060  69.094  1.00  0.00    -0.241 OA 
HETATM    9  C   UNL     1     -11.203  14.867  68.484  1.00  0.00    -0.279 C  
HETATM   10  C   UNL     1      -8.153  17.888  68.037  1.00  0.00    -0.252 C  
HETATM   11  O   UNL     1     -11.596  13.710  68.495  1.00  0.00    -0.289 OA 
HETATM   12  C   UNL     1      -9.646  17.673  68.301  1.00  0.00    -0.306 C  
ENDROOT
BRANCH   3  13
HETATM   13  S   UNL     1      -8.666  12.878  68.097  1.00  0.00    -0.179 SA 
BRANCH  13  14
HETATM   14  C   UNL     1      -8.997  11.938  66.565  1.00  0.00    -0.199 C  
HETATM   15  N   UNL     1     -11.290  11.274  66.615  1.00  0.00    -0.351 NA 
HETATM   16  C   UNL     1     -10.360  12.151  65.906  1.00  0.00    -0.255 C  
HETATM   17  C   UNL     1      -9.035  10.447  66.920  1.00  0.00    -0.151 C  
HETATM   18  C   UNL     1     -10.516  10.058  66.953  1.00  0.00    -0.218 C  
HETATM   19  H   UNL     1     -12.147  11.082  66.095  1.00  0.00     0.000 HD 
BRANCH  18  20
HETATM   20  C   UNL     1     -11.002   9.477  68.298  1.00  0.00    -0.079 C  
BRANCH  20  21
HETATM   21  N   UNL     1     -12.019  10.391  68.924  1.00  0.00    -0.501 N  
HETATM   22  H   UNL     1     -12.681  10.933  68.367  1.00  0.00     0.000 HD 
BRANCH  21  23
HETATM   23  S   UNL     1     -11.993  10.461  70.592  1.00  0.00    -0.379 S  
HETATM   24  O   UNL     1     -12.553  11.726  70.999  1.00  0.00    -0.374 OA 
HETATM   25  N   UNL     1     -10.359  10.589  70.772  1.00  0.00     0.024 N  
HETATM   26  O   UNL     1     -12.414   9.192  71.120  1.00  0.00    -0.305 OA 
HETATM   27  H2  UNL     1      -9.605  10.618  70.086  1.00  0.00     0.000 HD 
HETATM   28  H1  UNL     1     -10.343  10.632  71.791  1.00  0.00     0.000 HD 
ENDBRANCH  21  23
ENDBRANCH  20  21
ENDBRANCH  18  20
ENDBRANCH  13  14
ENDBRANCH   3  13
BRANCH  10  29
HETATM   29  C   UNL     1      -7.686  19.211  67.462  1.00  0.00    -0.237 C  
HETATM   30  H   UNL     1      -8.570  20.796  66.813  1.00  0.00     0.000 HD 
HETATM   31  O   UNL     1      -8.863  19.967  67.173  1.00  0.00    -0.318 OA 
HETATM   32  C   UNL     1      -6.886  19.013  66.185  1.00  0.00    -0.260 C  
ENDBRANCH  10  29
TORSDOF 6
ENDMDL
MODEL       91
REMARK 921   NORMALIZED FREE ENERGY PREDICTED BY IDOCK:   -5.39 KCAL/MOL
REMARK 922        TOTAL FREE ENERGY PREDICTED BY IDOCK:   -8.16 KCAL/MOL
REMARK 923 INTER-LIGAND FREE ENERGY PREDICTED BY IDOCK:   -7.36 KCAL/MOL
REMARK 924 INTRA-LIGAND FREE ENERGY PREDICTED BY IDOCK:   -0.80 KCAL/MOL
REMARK 927      BINDING AFFINITY PREDICTED BY RF-SCORE:    0.00 PKD
ROOT
HETATM    1  C   UNL     1      -9.006   6.976  68.418  1.00  0.00    -0.122 C  
HETATM    2  C   UNL     1      -9.570   8.303  67.891  1.00  0.00    -0.176 C  
HETATM    3  C   UNL     1     -10.331   8.828  69.089  1.00  0.00    -0.217 C  
HETATM    4  C   UNL     1     -10.369   8.075  66.613  1.00  0.00    -0.273 C  
HETATM    5  O   UNL     1     -11.042   6.995  72.180  1.00  0.00    -0.232 OA 
HETATM    6  C   UNL     1     -10.240   7.974  70.131  1.00  0.00    -0.203 C  
HETATM    7  N   UNL     1      -9.425   6.886  69.845  1.00  0.00    -0.157 N  
HETATM    8  O   UNL     1     -10.516   4.958  70.553  1.00  0.00    -0.216 OA 
HETATM    9  C   UNL     1     -10.891   8.138  71.475  1.00  0.00    -0.238 C  
HETATM   10  C   UNL     1      -9.671   5.576  68.222  1.00  0.00    -0.167 C  
HETATM   11  O   UNL     1     -11.240   9.211  71.944  1.00  0.00    -0.364 OA 
HETATM   12  C   UNL     1      -9.921   5.617  69.733  1.00  0.00    -0.200 C  
ENDROOT
BRANCH   3  13
HETATM   13  S   UNL     1     -11.254  10.283  69.066  1.00  0.00    -0.176 SA 
BRANCH  13  14
HETATM   14  C   UNL     1     -10.456  11.367  67.830  1.00  0.00    -0.184 C  
HETATM   15  N   UNL     1      -9.882  13.406  68.933  1.00  0.00    -0.426 NA 
HETATM   16  C   UNL     1      -9.285  12.222  68.317  1.00  0.00    -0.189 C  
HETATM   17  C   UNL     1     -11.475  12.426  67.395  1.00  0.00    -0.418 C  
HETATM   18  C   UNL     1     -11.085  13.714  68.127  1.00  0.00    -0.256 C  
HETATM   19  H   UNL     1      -9.236  14.191  69.020  1.00  0.00     0.000 HD 
BRANCH  18  20
HETATM   20  C   UNL     1     -12.190  14.306  69.028  1.00  0.00    -0.220 C  
BRANCH  20  21
HETATM   21  N   UNL     1     -11.901  14.006  70.473  1.00  0.00    -0.453 N  
HETATM   22  H   UNL     1     -11.414  13.159  70.767  1.00  0.00     0.000 HD 
BRANCH  21  23
HETATM   23  S   UNL     1     -12.431  15.152  71.565  1.00  0.00    -0.388 S  
HETATM   24  O   UNL     1     -12.784  14.477  72.791  1.00  0.00    -0.379 OA 
HETATM   25  N   UNL     1     -13.848  15.525  70.808  1.00  0.00    -0.865 N  
HETATM   26  O   UNL     1     -11.563  16.296  71.502  1.00  0.00    -0.457 OA 
HETATM   27  H2  UNL     1     -14.267  15.169  69.949  1.00  0.00     0.000 HD 
HETATM   28  H1  UNL     1     -14.172  16.225  71.475  1.00  0.00     0.000 HD 
ENDBRANCH  21  23
ENDBRANCH  20  21
ENDBRANCH  18  20
ENDBRANCH  13  14
ENDBRANCH   3  13
BRANCH  10  29
HETATM   29  C   UNL     1      -8.738   4.526  67.654  1.00  0.00    -0.104 C  
HETATM   30  H   UNL     1      -7.502   4.465  66.176  1.00  0.00     0.000 HD 
HETATM   31  O   UNL     1      -8.087   5.124  66.532  1.00  0.00    -0.107 OA 
HETATM   32  C   UNL     1      -9.498   3.291  67.198  1.00  0.00    -0.178 C  
ENDBRANCH  10  29
TORSDOF 6
ENDMDL
MODEL       92
REMARK 921   NORMALIZED FREE ENERGY PREDICTED BY IDOCK:   -5.39 KCAL/MOL
REMARK 922        TOTAL FREE ENERGY PREDICTED BY IDOCK:   -8.16 KCAL/MOL
REMARK 923 INTER-LIGAND FREE ENERGY PREDICTED BY IDOCK:   -6.41 KCAL/MOL
REMARK 924 INTRA-LIGAND FREE ENERGY PREDICTED BY IDOCK:   -1.75 KCAL/MOL
REMARK 927      BINDING AFFINITY PREDICTED BY RF-SCORE:    0.00 PKD
ROOT
HETATM    1  C   UNL     1      -9.226   4.121  68.228  1.00  0.00    -0.144 C  
HETATM    2  C   UNL     1      -9.058   4.590  69.681  1.00  0.00    -0.166 C  
HETATM    3  C   UNL     1      -9.448   6.049  69.595  1.00  0.00    -0.144 C  
HETATM    4  C   UNL     1      -7.653   4.280  70.184  1.00  0.00    -0.046 C  
HETATM    5  O   UNL     1     -10.037   7.960  66.525  1.00  0.00    -0.246 OA 
HETATM    6  C   UNL     1      -9.782   6.386  68.330  1.00  0.00    -0.127 C  
HETATM    7  N   UNL     1      -9.741   5.296  67.471  1.00  0.00    -0.138 N  
HETATM    8  O   UNL     1      -8.617   5.939  65.538  1.00  0.00    -0.151 OA 
HETATM    9  C   UNL     1     -10.188   7.751  67.852  1.00  0.00    -0.206 C  
HETATM   10  C   UNL     1      -8.079   4.047  67.171  1.00  0.00    -0.096 C  
HETATM   11  O   UNL     1     -10.656   8.622  68.570  1.00  0.00    -0.196 OA 
HETATM   12  C   UNL     1      -8.815   5.194  66.471  1.00  0.00    -0.117 C  
ENDROOT
BRANCH   3  13
HETATM   13  S   UNL     1      -9.379   7.132  70.934  1.00  0.00    -0.159 SA 
BRANCH  13  14
HETATM   14  C   UNL     1     -10.918   6.860  71.881  1.00  0.00    -0.235 C  
HETATM   15  N   UNL     1     -12.680   7.981  70.721  1.00  0.00    -0.483 NA 
HETATM   16  C   UNL     1     -12.197   6.646  71.071  1.00  0.00    -0.286 C  
HETATM   17  C   UNL     1     -11.234   8.144  72.657  1.00  0.00    -0.447 C  
HETATM   18  C   UNL     1     -12.357   8.841  71.882  1.00  0.00    -0.363 C  
HETATM   19  H   UNL     1     -13.664   8.003  70.456  1.00  0.00     0.000 HD 
BRANCH  18  20
HETATM   20  C   UNL     1     -12.023  10.271  71.406  1.00  0.00    -0.327 C  
BRANCH  20  21
HETATM   21  N   UNL     1     -12.471  10.465  69.983  1.00  0.00    -0.529 N  
HETATM   22  H   UNL     1     -13.090   9.806  69.513  1.00  0.00     0.000 HD 
BRANCH  21  23
HETATM   23  S   UNL     1     -11.887  11.834  69.227  1.00  0.00    -0.315 S  
HETATM   24  O   UNL     1     -12.156  11.718  67.814  1.00  0.00    -0.595 OA 
HETATM   25  N   UNL     1     -10.281  11.517  69.427  1.00  0.00    -0.422 N  
HETATM   26  O   UNL     1     -12.229  12.987  70.015  1.00  0.00    -0.299 OA 
HETATM   27  H2  UNL     1      -9.799  10.736  69.871  1.00  0.00     0.000 HD 
HETATM   28  H1  UNL     1      -9.925  12.354  68.965  1.00  0.00     0.000 HD 
ENDBRANCH  21  23
ENDBRANCH  20  21
ENDBRANCH  18  20
ENDBRANCH  13  14
ENDBRANCH   3  13
BRANCH  10  29
HETATM   29  C   UNL     1      -7.969   2.705  66.475  1.00  0.00    -0.081 C  
HETATM   30  H   UNL     1      -6.726   1.920  65.228  1.00  0.00     0.000 HD 
HETATM   31  O   UNL     1      -6.794   2.762  65.664  1.00  0.00    -0.045 OA 
HETATM   32  C   UNL     1      -9.178   2.431  65.596  1.00  0.00    -0.044 C  
ENDBRANCH  10  29
TORSDOF 6
ENDMDL
MODEL       93
REMARK 921   NORMALIZED FREE ENERGY PREDICTED BY IDOCK:   -5.38 KCAL/MOL
REMARK 922        TOTAL FREE ENERGY PREDICTED BY IDOCK:   -8.15 KCAL/MOL
REMARK 923 INTER-LIGAND FREE ENERGY PREDICTED BY IDOCK:   -7.28 KCAL/MOL
REMARK 924 INTRA-LIGAND FREE ENERGY PREDICTED BY IDOCK:   -0.86 KCAL/MOL
REMARK 927      BINDING AFFINITY PREDICTED BY RF-SCORE:    0.00 PKD
ROOT
HETATM    1  C   UNL     1     -10.832  14.299  66.514  1.00  0.00    -0.304 C  
HETATM    2  C   UNL     1     -11.175  13.001  65.769  1.00  0.00    -0.316 C  
HETATM    3  C   UNL     1     -10.156  12.031  66.328  1.00  0.00    -0.222 C  
HETATM    4  C   UNL     1     -11.157  13.227  64.262  1.00  0.00    -0.414 C  
HETATM    5  O   UNL     1      -7.297  12.875  68.456  1.00  0.00    -0.107 OA 
HETATM    6  C   UNL     1      -9.356  12.638  67.232  1.00  0.00    -0.195 C  
HETATM    7  N   UNL     1      -9.725  13.958  67.450  1.00  0.00    -0.229 N  
HETATM    8  O   UNL     1      -7.800  15.264  67.400  1.00  0.00    -0.160 OA 
HETATM    9  C   UNL     1      -8.210  12.006  67.970  1.00  0.00    -0.156 C  
HETATM   10  C   UNL     1      -9.908  15.431  65.964  1.00  0.00    -0.355 C  
HETATM   11  O   UNL     1      -8.094  10.806  68.165  1.00  0.00    -0.109 OA 
HETATM   12  C   UNL     1      -8.933  15.006  67.067  1.00  0.00    -0.234 C  
ENDROOT
BRANCH   3  13
HETATM   13  S   UNL     1     -10.006  10.399  65.796  1.00  0.00    -0.273 SA 
BRANCH  13  14
HETATM   14  C   UNL     1      -8.721  10.409  64.497  1.00  0.00    -0.194 C  
HETATM   15  N   UNL     1      -8.725   8.252  63.470  1.00  0.00    -0.384 NA 
HETATM   16  C   UNL     1      -9.040   9.655  63.205  1.00  0.00    -0.191 C  
HETATM   17  C   UNL     1      -7.501   9.646  65.027  1.00  0.00    -0.116 C  
HETATM   18  C   UNL     1      -7.540   8.268  64.358  1.00  0.00    -0.113 C  
HETATM   19  H   UNL     1      -8.596   7.696  62.625  1.00  0.00     0.000 HD 
BRANCH  18  20
HETATM   20  C   UNL     1      -7.595   7.076  65.337  1.00  0.00    -0.097 C  
BRANCH  20  21
HETATM   21  N   UNL     1      -8.936   6.399  65.261  1.00  0.00    -0.364 N  
HETATM   22  H   UNL     1      -9.393   6.195  64.372  1.00  0.00     0.000 HD 
BRANCH  21  23
HETATM   23  S   UNL     1      -9.627   6.005  66.729  1.00  0.00    -0.155 S  
HETATM   24  O   UNL     1      -8.871   4.920  67.306  1.00  0.00    -0.104 OA 
HETATM   25  N   UNL     1     -11.018   5.347  66.137  1.00  0.00    -0.767 N  
HETATM   26  O   UNL     1      -9.955   7.215  67.432  1.00  0.00    -0.148 OA 
HETATM   27  H2  UNL     1     -11.351   5.220  65.182  1.00  0.00     0.000 HD 
HETATM   28  H1  UNL     1     -11.440   5.106  67.034  1.00  0.00     0.000 HD 
ENDBRANCH  21  23
ENDBRANCH  20  21
ENDBRANCH  18  20
ENDBRANCH  13  14
ENDBRANCH   3  13
BRANCH  10  29
HETATM   29  C   UNL     1     -10.529  16.812  66.019  1.00  0.00    -0.293 C  
HETATM   30  H   UNL     1     -11.396  17.962  64.737  1.00  0.00     0.000 HD 
HETATM   31  O   UNL     1     -11.006  17.096  64.703  1.00  0.00    -1.005 OA 
HETATM   32  C   UNL     1      -9.513  17.867  66.426  1.00  0.00    -0.278 C  
ENDBRANCH  10  29
TORSDOF 6
ENDMDL
MODEL       94
REMARK 921   NORMALIZED FREE ENERGY PREDICTED BY IDOCK:   -5.37 KCAL/MOL
REMARK 922        TOTAL FREE ENERGY PREDICTED BY IDOCK:   -8.14 KCAL/MOL
REMARK 923 INTER-LIGAND FREE ENERGY PREDICTED BY IDOCK:   -6.76 KCAL/MOL
REMARK 924 INTRA-LIGAND FREE ENERGY PREDICTED BY IDOCK:   -1.38 KCAL/MOL
REMARK 927      BINDING AFFINITY PREDICTED BY RF-SCORE:    0.00 PKD
ROOT
HETATM    1  C   UNL     1     -10.579  13.496  66.460  1.00  0.00    -0.281 C  
HETATM    2  C   UNL     1     -10.523  13.148  67.954  1.00  0.00    -0.245 C  
HETATM    3  C   UNL     1      -9.916  11.762  67.939  1.00  0.00    -0.181 C  
HETATM    4  C   UNL     1     -11.900  13.292  68.590  1.00  0.00    -0.380 C  
HETATM    5  O   UNL     1      -9.347   9.675  64.983  1.00  0.00    -0.242 OA 
HETATM    6  C   UNL     1      -9.664  11.359  66.675  1.00  0.00    -0.200 C  
HETATM    7  N   UNL     1      -9.964  12.344  65.744  1.00  0.00    -0.255 N  
HETATM    8  O   UNL     1     -11.162  11.359  64.010  1.00  0.00    -0.368 OA 
HETATM    9  C   UNL     1      -9.097  10.030  66.263  1.00  0.00    -0.151 C  
HETATM   10  C   UNL     1     -11.825  13.296  65.539  1.00  0.00    -0.405 C  
HETATM   11  O   UNL     1      -8.426   9.312  66.989  1.00  0.00    -0.122 OA 
HETATM   12  C   UNL     1     -10.991  12.210  64.851  1.00  0.00    -0.309 C  
ENDROOT
BRANCH   3  13
HETATM   13  S   UNL     1      -9.676  10.814  69.358  1.00  0.00     0.026 SA 
BRANCH  13  14
HETATM   14  C   UNL     1     -11.216   9.859  69.593  1.00  0.00    -0.208 C  
HETATM   15  N   UNL     1     -11.140   8.906  71.782  1.00  0.00    -0.341 NA 
HETATM   16  C   UNL     1     -11.850   9.904  70.984  1.00  0.00    -0.376 C  
HETATM   17  C   UNL     1     -10.884   8.371  69.434  1.00  0.00    -0.094 C  
HETATM   18  C   UNL     1     -10.833   7.795  70.853  1.00  0.00    -0.237 C  
HETATM   19  H   UNL     1     -11.648   8.613  72.616  1.00  0.00     0.000 HD 
BRANCH  18  20
HETATM   20  C   UNL     1      -9.489   7.139  71.235  1.00  0.00    -0.163 C  
BRANCH  20  21
HETATM   21  N   UNL     1      -8.456   7.410  70.176  1.00  0.00    -0.136 N  
HETATM   22  H   UNL     1      -8.614   7.191  69.193  1.00  0.00     0.000 HD 
BRANCH  21  23
HETATM   23  S   UNL     1      -7.032   8.093  70.718  1.00  0.00    -0.043 S  
HETATM   24  O   UNL     1      -7.364   9.225  71.550  1.00  0.00    -0.323 OA 
HETATM   25  N   UNL     1      -6.527   8.703  69.272  1.00  0.00    -0.042 N  
HETATM   26  O   UNL     1      -6.131   7.045  71.114  1.00  0.00    -0.036 OA 
HETATM   27  H2  UNL     1      -6.948   8.674  68.344  1.00  0.00     0.000 HD 
HETATM   28  H1  UNL     1      -5.657   9.121  69.604  1.00  0.00     0.000 HD 
ENDBRANCH  21  23
ENDBRANCH  20  21
ENDBRANCH  18  20
ENDBRANCH  13  14
ENDBRANCH   3  13
BRANCH  10  29
HETATM   29  C   UNL     1     -12.216  14.534  64.757  1.00  0.00    -0.431 C  
HETATM   30  H   UNL     1     -12.701  14.886  62.925  1.00  0.00     0.000 HD 
HETATM   31  O   UNL     1     -12.456  14.109  63.415  1.00  0.00    -0.797 OA 
HETATM   32  C   UNL     1     -11.108  15.575  64.768  1.00  0.00    -0.421 C  
ENDBRANCH  10  29
TORSDOF 6
ENDMDL
MODEL       95
REMARK 921   NORMALIZED FREE ENERGY PREDICTED BY IDOCK:   -5.36 KCAL/MOL
REMARK 922        TOTAL FREE ENERGY PREDICTED BY IDOCK:   -8.12 KCAL/MOL
REMARK 923 INTER-LIGAND FREE ENERGY PREDICTED BY IDOCK:   -7.39 KCAL/MOL
REMARK 924 INTRA-LIGAND FREE ENERGY PREDICTED BY IDOCK:   -0.74 KCAL/MOL
REMARK 927      BINDING AFFINITY PREDICTED BY RF-SCORE:    0.00 PKD
ROOT
HETATM    1  C   UNL     1     -10.881  12.156  65.855  1.00  0.00    -0.278 C  
HETATM    2  C   UNL     1     -10.010  10.910  66.068  1.00  0.00    -0.290 C  
HETATM    3  C   UNL     1      -8.885  11.446  66.928  1.00  0.00    -0.173 C  
HETATM    4  C   UNL     1      -9.621  10.292  64.731  1.00  0.00    -0.369 C  
HETATM    5  O   UNL     1      -8.240  14.967  67.705  1.00  0.00    -0.146 OA 
HETATM    6  C   UNL     1      -9.053  12.763  67.175  1.00  0.00    -0.219 C  
HETATM    7  N   UNL     1     -10.236  13.249  66.634  1.00  0.00    -0.260 N  
HETATM    8  O   UNL     1      -9.765  15.250  65.544  1.00  0.00    -0.332 OA 
HETATM    9  C   UNL     1      -8.124  13.645  67.960  1.00  0.00    -0.161 C  
HETATM   10  C   UNL     1     -10.800  13.105  64.616  1.00  0.00    -0.383 C  
HETATM   11  O   UNL     1      -7.335  13.240  68.800  1.00  0.00    -0.103 OA 
HETATM   12  C   UNL     1     -10.248  14.143  65.599  1.00  0.00    -0.339 C  
ENDROOT
BRANCH   3  13
HETATM   13  S   UNL     1      -7.538  10.497  67.432  1.00  0.00    -0.095 SA 
BRANCH  13  14
HETATM   14  C   UNL     1      -8.168   9.383  68.737  1.00  0.00    -0.108 C  
HETATM   15  N   UNL     1      -7.055   7.285  68.482  1.00  0.00    -0.082 NA 
HETATM   16  C   UNL     1      -7.155   8.434  69.380  1.00  0.00    -0.054 C  
HETATM   17  C   UNL     1      -9.164   8.410  68.094  1.00  0.00    -0.141 C  
HETATM   18  C   UNL     1      -8.416   7.082  67.936  1.00  0.00    -0.124 C  
HETATM   19  H   UNL     1      -6.664   6.453  68.925  1.00  0.00     0.000 HD 
BRANCH  18  20
HETATM   20  C   UNL     1      -8.334   6.555  66.488  1.00  0.00    -0.116 C  
BRANCH  20  21
HETATM   21  N   UNL     1      -9.694   6.123  66.012  1.00  0.00    -0.381 N  
HETATM   22  H   UNL     1     -10.476   6.773  65.936  1.00  0.00     0.000 HD 
BRANCH  21  23
HETATM   23  S   UNL     1      -9.836   4.507  65.615  1.00  0.00    -0.226 S  
HETATM   24  O   UNL     1      -9.017   4.254  64.454  1.00  0.00    -0.136 OA 
HETATM   25  N   UNL     1     -11.398   4.556  65.087  1.00  0.00    -0.949 N  
HETATM   26  O   UNL     1      -9.783   3.723  66.819  1.00  0.00    -0.208 OA 
HETATM   27  H2  UNL     1     -12.064   5.326  65.024  1.00  0.00     0.000 HD 
HETATM   28  H1  UNL     1     -11.485   3.570  64.845  1.00  0.00     0.000 HD 
ENDBRANCH  21  23
ENDBRANCH  20  21
ENDBRANCH  18  20
ENDBRANCH  13  14
ENDBRANCH   3  13
BRANCH  10  29
HETATM   29  C   UNL     1     -12.136  13.357  63.947  1.00  0.00    -0.455 C  
HETATM   30  H   UNL     1     -13.852  14.003  64.542  1.00  0.00     0.000 HD 
HETATM   31  O   UNL     1     -13.014  13.845  64.963  1.00  0.00    -0.731 OA 
HETATM   32  C   UNL     1     -12.711  12.083  63.351  1.00  0.00    -0.527 C  
ENDBRANCH  10  29
TORSDOF 6
ENDMDL
MODEL       96
REMARK 921   NORMALIZED FREE ENERGY PREDICTED BY IDOCK:   -5.35 KCAL/MOL
REMARK 922        TOTAL FREE ENERGY PREDICTED BY IDOCK:   -8.12 KCAL/MOL
REMARK 923 INTER-LIGAND FREE ENERGY PREDICTED BY IDOCK:   -7.52 KCAL/MOL
REMARK 924 INTRA-LIGAND FREE ENERGY PREDICTED BY IDOCK:   -0.60 KCAL/MOL
REMARK 927      BINDING AFFINITY PREDICTED BY RF-SCORE:    0.00 PKD
ROOT
HETATM    1  C   UNL     1      -7.855  19.522  67.498  1.00  0.00    -0.264 C  
HETATM    2  C   UNL     1      -9.256  19.007  67.857  1.00  0.00    -0.345 C  
HETATM    3  C   UNL     1      -8.956  17.644  68.444  1.00  0.00    -0.280 C  
HETATM    4  C   UNL     1     -10.171  19.047  66.639  1.00  0.00    -0.475 C  
HETATM    5  O   UNL     1      -5.723  15.923  68.392  1.00  0.00    -0.100 OA 
HETATM    6  C   UNL     1      -7.629  17.394  68.432  1.00  0.00    -0.255 C  
HETATM    7  N   UNL     1      -6.899  18.473  67.950  1.00  0.00    -0.216 N  
HETATM    8  O   UNL     1      -5.342  17.667  66.421  1.00  0.00    -0.154 OA 
HETATM    9  C   UNL     1      -6.958  16.134  68.899  1.00  0.00    -0.161 C  
HETATM   10  C   UNL     1      -7.189  19.403  66.089  1.00  0.00    -0.281 C  
HETATM   11  O   UNL     1      -7.444  15.352  69.702  1.00  0.00    -0.209 OA 
HETATM   12  C   UNL     1      -6.225  18.420  66.762  1.00  0.00    -0.173 C  
ENDROOT
BRANCH   3  13
HETATM   13  S   UNL     1     -10.177  16.545  68.967  1.00  0.00    -0.303 SA 
BRANCH  13  14
HETATM   14  C   UNL     1     -10.252  15.235  67.696  1.00  0.00    -0.242 C  
HETATM   15  N   UNL     1     -12.410  14.220  67.842  1.00  0.00    -0.570 NA 
HETATM   16  C   UNL     1     -11.586  15.055  66.969  1.00  0.00    -0.240 C  
HETATM   17  C   UNL     1     -10.077  13.881  68.395  1.00  0.00    -0.237 C  
HETATM   18  C   UNL     1     -11.477  13.265  68.481  1.00  0.00    -0.312 C  
HETATM   19  H   UNL     1     -13.190  13.772  67.362  1.00  0.00     0.000 HD 
BRANCH  18  20
HETATM   20  C   UNL     1     -11.951  12.937  69.913  1.00  0.00    -0.307 C  
BRANCH  20  21
HETATM   21  N   UNL     1     -11.567  11.530  70.280  1.00  0.00    -0.504 N  
HETATM   22  H   UNL     1     -10.667  11.126  70.022  1.00  0.00     0.000 HD 
BRANCH  21  23
HETATM   23  S   UNL     1     -12.714  10.673  71.140  1.00  0.00    -0.451 S  
HETATM   24  O   UNL     1     -13.209  11.520  72.198  1.00  0.00    -0.505 OA 
HETATM   25  N   UNL     1     -11.686   9.593  71.845  1.00  0.00    -0.282 N  
HETATM   26  O   UNL     1     -13.559   9.967  70.218  1.00  0.00     0.132 OA 
HETATM   27  H2  UNL     1     -10.674   9.483  71.778  1.00  0.00     0.000 HD 
HETATM   28  H1  UNL     1     -12.386   9.070  72.370  1.00  0.00     0.000 HD 
ENDBRANCH  21  23
ENDBRANCH  20  21
ENDBRANCH  18  20
ENDBRANCH  13  14
ENDBRANCH   3  13
BRANCH  10  29
HETATM   29  C   UNL     1      -6.653  20.713  65.550  1.00  0.00    -0.207 C  
HETATM   30  H   UNL     1      -5.662  21.231  63.980  1.00  0.00     0.000 HD 
HETATM   31  O   UNL     1      -5.998  20.409  64.318  1.00  0.00    -0.238 OA 
HETATM   32  C   UNL     1      -5.659  21.347  66.509  1.00  0.00    -0.341 C  
ENDBRANCH  10  29
TORSDOF 6
ENDMDL
MODEL       97
REMARK 921   NORMALIZED FREE ENERGY PREDICTED BY IDOCK:   -5.35 KCAL/MOL
REMARK 922        TOTAL FREE ENERGY PREDICTED BY IDOCK:   -8.11 KCAL/MOL
REMARK 923 INTER-LIGAND FREE ENERGY PREDICTED BY IDOCK:   -7.48 KCAL/MOL
REMARK 924 INTRA-LIGAND FREE ENERGY PREDICTED BY IDOCK:   -0.63 KCAL/MOL
REMARK 927      BINDING AFFINITY PREDICTED BY RF-SCORE:    0.00 PKD
ROOT
HETATM    1  C   UNL     1     -11.292  11.656  68.092  1.00  0.00    -0.292 C  
HETATM    2  C   UNL     1     -10.551  10.407  68.591  1.00  0.00    -0.234 C  
HETATM    3  C   UNL     1     -11.150  10.206  69.967  1.00  0.00    -0.308 C  
HETATM    4  C   UNL     1      -9.043  10.615  68.519  1.00  0.00    -0.159 C  
HETATM    5  O   UNL     1     -13.352  12.538  71.737  1.00  0.00    -0.414 OA 
HETATM    6  C   UNL     1     -12.070  11.157  70.237  1.00  0.00    -0.377 C  
HETATM    7  N   UNL     1     -12.264  12.015  69.163  1.00  0.00    -0.146 N  
HETATM    8  O   UNL     1     -12.257  14.197  69.970  1.00  0.00    -0.322 OA 
HETATM    9  C   UNL     1     -12.848  11.304  71.514  1.00  0.00    -0.414 C  
HETATM   10  C   UNL     1     -10.758  13.120  68.202  1.00  0.00    -0.258 C  
HETATM   11  O   UNL     1     -13.060  10.393  72.300  1.00  0.00    -0.397 OA 
HETATM   12  C   UNL     1     -11.893  13.331  69.209  1.00  0.00    -0.331 C  
ENDROOT
BRANCH   3  13
HETATM   13  S   UNL     1     -10.640   8.970  71.054  1.00  0.00    -0.299 SA 
BRANCH  13  14
HETATM   14  C   UNL     1     -11.463   7.437  70.496  1.00  0.00    -0.255 C  
HETATM   15  N   UNL     1     -12.686   6.566  72.354  1.00  0.00    -0.524 NA 
HETATM   16  C   UNL     1     -12.869   7.174  71.037  1.00  0.00    -0.212 C  
HETATM   17  C   UNL     1     -10.673   6.244  71.047  1.00  0.00    -0.313 C  
HETATM   18  C   UNL     1     -11.478   5.718  72.240  1.00  0.00    -0.262 C  
HETATM   19  H   UNL     1     -13.508   6.064  72.690  1.00  0.00     0.000 HD 
BRANCH  18  20
HETATM   20  C   UNL     1     -10.712   5.703  73.580  1.00  0.00    -0.267 C  
BRANCH  20  21
HETATM   21  N   UNL     1     -10.675   4.309  74.144  1.00  0.00    -0.254 N  
HETATM   22  H   UNL     1     -11.244   4.030  74.943  1.00  0.00     0.000 HD 
BRANCH  21  23
HETATM   23  S   UNL     1      -9.639   3.249  73.375  1.00  0.00    -0.105 S  
HETATM   24  O   UNL     1     -10.306   2.740  72.201  1.00  0.00    -0.130 OA 
HETATM   25  N   UNL     1      -9.690   2.047  74.503  1.00  0.00    -0.087 N  
HETATM   26  O   UNL     1      -8.317   3.812  73.364  1.00  0.00    -0.086 OA 
HETATM   27  H2  UNL     1     -10.193   1.974  75.387  1.00  0.00     0.000 HD 
HETATM   28  H1  UNL     1      -9.058   1.400  74.033  1.00  0.00     0.000 HD 
ENDBRANCH  21  23
ENDBRANCH  20  21
ENDBRANCH  18  20
ENDBRANCH  13  14
ENDBRANCH   3  13
BRANCH  10  29
HETATM   29  C   UNL     1     -10.779  13.882  66.892  1.00  0.00    -0.284 C  
HETATM   30  H   UNL     1     -10.520  15.725  66.389  1.00  0.00     0.000 HD 
HETATM   31  O   UNL     1     -10.506  15.247  67.211  1.00  0.00    -0.265 OA 
HETATM   32  C   UNL     1     -12.134  13.783  66.211  1.00  0.00    -0.484 C  
ENDBRANCH  10  29
TORSDOF 6
ENDMDL
MODEL       98
REMARK 921   NORMALIZED FREE ENERGY PREDICTED BY IDOCK:   -5.34 KCAL/MOL
REMARK 922        TOTAL FREE ENERGY PREDICTED BY IDOCK:   -8.10 KCAL/MOL
REMARK 923 INTER-LIGAND FREE ENERGY PREDICTED BY IDOCK:   -6.99 KCAL/MOL
REMARK 924 INTRA-LIGAND FREE ENERGY PREDICTED BY IDOCK:   -1.11 KCAL/MOL
REMARK 927      BINDING AFFINITY PREDICTED BY RF-SCORE:    0.00 PKD
ROOT
HETATM    1  C   UNL     1      -8.874  16.711  67.447  1.00  0.00    -0.188 C  
HETATM    2  C   UNL     1      -9.951  15.752  66.921  1.00  0.00    -0.247 C  
HETATM    3  C   UNL     1      -9.245  14.415  66.975  1.00  0.00    -0.234 C  
HETATM    4  C   UNL     1     -10.457  16.210  65.558  1.00  0.00    -0.407 C  
HETATM    5  O   UNL     1      -5.686  13.866  67.645  1.00  0.00    -0.291 OA 
HETATM    6  C   UNL     1      -7.985  14.552  67.441  1.00  0.00    -0.200 C  
HETATM    7  N   UNL     1      -7.703  15.862  67.804  1.00  0.00    -0.134 N  
HETATM    8  O   UNL     1      -5.624  16.425  66.925  1.00  0.00    -0.332 OA 
HETATM    9  C   UNL     1      -6.972  13.454  67.603  1.00  0.00    -0.162 C  
HETATM   10  C   UNL     1      -7.895  17.538  66.553  1.00  0.00    -0.312 C  
HETATM   11  O   UNL     1      -7.252  12.271  67.723  1.00  0.00    -0.093 OA 
HETATM   12  C   UNL     1      -6.801  16.627  67.119  1.00  0.00    -0.188 C  
ENDROOT
BRANCH   3  13
HETATM   13  S   UNL     1      -9.953  12.943  66.424  1.00  0.00    -0.271 SA 
BRANCH  13  14
HETATM   14  C   UNL     1     -11.494  12.735  67.383  1.00  0.00    -0.340 C  
HETATM   15  N   UNL     1     -10.874  12.163  69.617  1.00  0.00    -0.436 NA 
HETATM   16  C   UNL     1     -11.479  13.235  68.828  1.00  0.00    -0.306 C  
HETATM   17  C   UNL     1     -11.747  11.233  67.559  1.00  0.00    -0.166 C  
HETATM   18  C   UNL     1     -11.330  10.900  68.995  1.00  0.00    -0.281 C  
HETATM   19  H   UNL     1     -11.078  12.225  70.615  1.00  0.00     0.000 HD 
BRANCH  18  20
HETATM   20  C   UNL     1     -10.231   9.822  69.115  1.00  0.00    -0.199 C  
BRANCH  20  21
HETATM   21  N   UNL     1      -9.738   9.736  70.534  1.00  0.00    -0.353 N  
HETATM   22  H   UNL     1     -10.298  10.052  71.325  1.00  0.00     0.000 HD 
BRANCH  21  23
HETATM   23  S   UNL     1      -8.212   9.087  70.726  1.00  0.00    -0.190 S  
HETATM   24  O   UNL     1      -7.965   8.925  72.138  1.00  0.00    -0.364 OA 
HETATM   25  N   UNL     1      -7.356  10.413  70.247  1.00  0.00    -0.257 N  
HETATM   26  O   UNL     1      -8.021   8.044  69.755  1.00  0.00    -0.110 OA 
HETATM   27  H2  UNL     1      -7.662  11.335  69.935  1.00  0.00     0.000 HD 
HETATM   28  H1  UNL     1      -6.424  10.017  70.364  1.00  0.00     0.000 HD 
ENDBRANCH  21  23
ENDBRANCH  20  21
ENDBRANCH  18  20
ENDBRANCH  13  14
ENDBRANCH   3  13
BRANCH  10  29
HETATM   29  C   UNL     1      -7.867  19.018  66.879  1.00  0.00    -0.245 C  
HETATM   30  H   UNL     1      -8.005  20.054  68.499  1.00  0.00     0.000 HD 
HETATM   31  O   UNL     1      -8.022  19.126  68.295  1.00  0.00    -0.299 OA 
HETATM   32  C   UNL     1      -8.997  19.764  66.188  1.00  0.00    -0.387 C  
ENDBRANCH  10  29
TORSDOF 6
ENDMDL
MODEL       99
REMARK 921   NORMALIZED FREE ENERGY PREDICTED BY IDOCK:   -5.30 KCAL/MOL
REMARK 922        TOTAL FREE ENERGY PREDICTED BY IDOCK:   -8.04 KCAL/MOL
REMARK 923 INTER-LIGAND FREE ENERGY PREDICTED BY IDOCK:   -6.59 KCAL/MOL
REMARK 924 INTRA-LIGAND FREE ENERGY PREDICTED BY IDOCK:   -1.45 KCAL/MOL
REMARK 927      BINDING AFFINITY PREDICTED BY RF-SCORE:    0.00 PKD
ROOT
HETATM    1  C   UNL     1      -8.817   6.684  67.429  1.00  0.00    -0.116 C  
HETATM    2  C   UNL     1      -8.551   7.814  68.433  1.00  0.00    -0.128 C  
HETATM    3  C   UNL     1      -8.715   9.051  67.577  1.00  0.00    -0.119 C  
HETATM    4  C   UNL     1      -7.202   7.620  69.114  1.00  0.00    -0.080 C  
HETATM    5  O   UNL     1      -9.062   9.134  63.931  1.00  0.00    -0.084 OA 
HETATM    6  C   UNL     1      -9.017   8.720  66.303  1.00  0.00    -0.173 C  
HETATM    7  N   UNL     1      -9.160   7.348  66.140  1.00  0.00    -0.156 N  
HETATM    8  O   UNL     1      -7.988   6.720  64.231  1.00  0.00    -0.118 OA 
HETATM    9  C   UNL     1      -9.218   9.674  65.160  1.00  0.00    -0.246 C  
HETATM   10  C   UNL     1      -7.715   5.908  66.640  1.00  0.00    -0.100 C  
HETATM   11  O   UNL     1      -9.534  10.847  65.290  1.00  0.00    -0.196 OA 
HETATM   12  C   UNL     1      -8.279   6.609  65.400  1.00  0.00    -0.138 C  
ENDROOT
BRANCH   3  13
HETATM   13  S   UNL     1      -8.456  10.652  68.159  1.00  0.00    -0.126 SA 
BRANCH  13  14
HETATM   14  C   UNL     1      -9.938  11.078  69.140  1.00  0.00    -0.121 C  
HETATM   15  N   UNL     1     -11.808  11.057  67.654  1.00  0.00    -0.623 NA 
HETATM   16  C   UNL     1     -11.231  10.340  68.790  1.00  0.00    -0.206 C  
HETATM   17  C   UNL     1     -10.304  12.537  68.842  1.00  0.00    -0.063 C  
HETATM   18  C   UNL     1     -11.496  12.486  67.882  1.00  0.00    -0.315 C  
HETATM   19  H   UNL     1     -12.801  10.872  67.516  1.00  0.00     0.000 HD 
BRANCH  18  20
HETATM   20  C   UNL     1     -11.270  13.201  66.532  1.00  0.00    -0.310 C  
BRANCH  20  21
HETATM   21  N   UNL     1     -12.330  12.799  65.544  1.00  0.00    -0.472 N  
HETATM   22  H   UNL     1     -13.235  12.432  65.837  1.00  0.00     0.000 HD 
BRANCH  21  23
HETATM   23  S   UNL     1     -11.926  12.995  63.936  1.00  0.00    -0.508 S  
HETATM   24  O   UNL     1     -11.924  11.695  63.310  1.00  0.00    -0.378 OA 
HETATM   25  N   UNL     1     -10.346  13.410  64.165  1.00  0.00    -0.638 N  
HETATM   26  O   UNL     1     -12.627  14.135  63.412  1.00  0.00    -0.818 OA 
HETATM   27  H2  UNL     1      -9.793  13.513  65.016  1.00  0.00     0.000 HD 
HETATM   28  H1  UNL     1     -10.099  13.529  63.183  1.00  0.00     0.000 HD 
ENDBRANCH  21  23
ENDBRANCH  20  21
ENDBRANCH  18  20
ENDBRANCH  13  14
ENDBRANCH   3  13
BRANCH  10  29
HETATM   29  C   UNL     1      -7.825   4.401  66.752  1.00  0.00    -0.098 C  
HETATM   30  H   UNL     1      -7.331   2.916  65.626  1.00  0.00     0.000 HD 
HETATM   31  O   UNL     1      -7.261   3.861  65.555  1.00  0.00    -0.068 OA 
HETATM   32  C   UNL     1      -9.273   3.954  66.874  1.00  0.00    -0.190 C  
ENDBRANCH  10  29
TORSDOF 6
ENDMDL
MODEL      100
REMARK 921   NORMALIZED FREE ENERGY PREDICTED BY IDOCK:   -5.28 KCAL/MOL
REMARK 922        TOTAL FREE ENERGY PREDICTED BY IDOCK:   -8.02 KCAL/MOL
REMARK 923 INTER-LIGAND FREE ENERGY PREDICTED BY IDOCK:   -7.04 KCAL/MOL
REMARK 924 INTRA-LIGAND FREE ENERGY PREDICTED BY IDOCK:   -0.98 KCAL/MOL
REMARK 927      BINDING AFFINITY PREDICTED BY RF-SCORE:    0.00 PKD
ROOT
HETATM    1  C   UNL     1     -10.703  12.307  67.452  1.00  0.00    -0.230 C  
HETATM    2  C   UNL     1     -10.831  11.430  68.706  1.00  0.00    -0.251 C  
HETATM    3  C   UNL     1     -10.256  10.111  68.237  1.00  0.00    -0.166 C  
HETATM    4  C   UNL     1     -12.271  11.417  69.206  1.00  0.00    -0.271 C  
HETATM    5  O   UNL     1      -9.385   9.229  64.790  1.00  0.00    -0.183 OA 
HETATM    6  C   UNL     1      -9.864  10.187  66.947  1.00  0.00    -0.195 C  
HETATM    7  N   UNL     1     -10.032  11.463  66.425  1.00  0.00    -0.208 N  
HETATM    8  O   UNL     1     -11.036  11.263  64.336  1.00  0.00    -0.310 OA 
HETATM    9  C   UNL     1      -9.280   9.071  66.128  1.00  0.00    -0.216 C  
HETATM   10  C   UNL     1     -11.835  12.540  66.401  1.00  0.00    -0.445 C  
HETATM   11  O   UNL     1      -8.716   8.095  66.598  1.00  0.00    -0.128 OA 
HETATM   12  C   UNL     1     -10.949  11.732  65.447  1.00  0.00    -0.297 C  
ENDROOT
BRANCH   3  13
HETATM   13  S   UNL     1     -10.206   8.694  69.216  1.00  0.00    -0.213 SA 
BRANCH  13  14
HETATM   14  C   UNL     1      -9.797   9.262  70.904  1.00  0.00    -0.293 C  
HETATM   15  N   UNL     1      -8.870   7.402  72.080  1.00  0.00    -0.123 NA 
HETATM   16  C   UNL     1      -8.515   8.708  71.527  1.00  0.00    -0.181 C  
HETATM   17  C   UNL     1     -10.877   8.739  71.858  1.00  0.00    -0.431 C  
HETATM   18  C   UNL     1     -10.254   7.543  72.587  1.00  0.00    -0.245 C  
HETATM   19  H   UNL     1      -8.211   7.062  72.780  1.00  0.00     0.000 HD 
BRANCH  18  20
HETATM   20  C   UNL     1     -11.019   6.213  72.417  1.00  0.00    -0.259 C  
BRANCH  20  21
HETATM   21  N   UNL     1     -10.102   5.048  72.668  1.00  0.00    -0.176 N  
HETATM   22  H   UNL     1      -9.850   4.746  73.609  1.00  0.00     0.000 HD 
BRANCH  21  23
HETATM   23  S   UNL     1      -9.524   4.281  71.303  1.00  0.00    -0.172 S  
HETATM   24  O   UNL     1      -8.159   4.700  71.094  1.00  0.00    -0.084 OA 
HETATM   25  N   UNL     1     -10.440   5.095  70.199  1.00  0.00    -0.275 N  
HETATM   26  O   UNL     1      -9.945   2.907  71.323  1.00  0.00    -0.126 OA 
HETATM   27  H2  UNL     1     -11.137   5.831  70.314  1.00  0.00     0.000 HD 
HETATM   28  H1  UNL     1     -10.087   4.627  69.365  1.00  0.00     0.000 HD 
ENDBRANCH  21  23
ENDBRANCH  20  21
ENDBRANCH  18  20
ENDBRANCH  13  14
ENDBRANCH   3  13
BRANCH  10  29
HETATM   29  C   UNL     1     -12.105  14.000  66.102  1.00  0.00    -0.446 C  
HETATM   30  H   UNL     1     -13.466  14.958  65.129  1.00  0.00     0.000 HD 
HETATM   31  O   UNL     1     -13.297  14.042  65.316  1.00  0.00    -0.741 OA 
HETATM   32  C   UNL     1     -10.963  14.632  65.323  1.00  0.00    -0.374 C  
ENDBRANCH  10  29
TORSDOF 6
ENDMDL
MODEL      101
REMARK 921   NORMALIZED FREE ENERGY PREDICTED BY IDOCK:   -5.27 KCAL/MOL
REMARK 922        TOTAL FREE ENERGY PREDICTED BY IDOCK:   -8.00 KCAL/MOL
REMARK 923 INTER-LIGAND FREE ENERGY PREDICTED BY IDOCK:   -7.35 KCAL/MOL
REMARK 924 INTRA-LIGAND FREE ENERGY PREDICTED BY IDOCK:   -0.65 KCAL/MOL
REMARK 927      BINDING AFFINITY PREDICTED BY RF-SCORE:    0.00 PKD
ROOT
HETATM    1  C   UNL     1     -10.020   6.984  71.964  1.00  0.00    -0.159 C  
HETATM    2  C   UNL     1     -10.833   7.939  71.079  1.00  0.00    -0.253 C  
HETATM    3  C   UNL     1      -9.803   8.979  70.695  1.00  0.00    -0.230 C  
HETATM    4  C   UNL     1     -12.070   8.433  71.819  1.00  0.00    -0.379 C  
HETATM    5  O   UNL     1      -6.434   9.313  72.096  1.00  0.00    -0.286 OA 
HETATM    6  C   UNL     1      -8.604   8.698  71.251  1.00  0.00    -0.187 C  
HETATM    7  N   UNL     1      -8.625   7.506  71.963  1.00  0.00    -0.106 N  
HETATM    8  O   UNL     1      -7.582   7.868  74.011  1.00  0.00    -0.136 OA 
HETATM    9  C   UNL     1      -7.352   9.520  71.126  1.00  0.00     0.136 C  
HETATM   10  C   UNL     1      -9.953   7.046  73.524  1.00  0.00    -0.321 C  
HETATM   11  O   UNL     1      -7.129  10.300  70.213  1.00  0.00    -0.155 OA 
HETATM   12  C   UNL     1      -8.495   7.471  73.324  1.00  0.00    -0.137 C  
ENDROOT
BRANCH   3  13
HETATM   13  S   UNL     1     -10.165  10.372  69.747  1.00  0.00    -0.121 SA 
BRANCH  13  14
HETATM   14  C   UNL     1     -11.105   9.767  68.302  1.00  0.00    -0.102 C  
HETATM   15  N   UNL     1      -9.801  10.231  66.356  1.00  0.00    -0.207 NA 
HETATM   16  C   UNL     1     -10.298   9.125  67.173  1.00  0.00    -0.267 C  
HETATM   17  C   UNL     1     -11.737  10.977  67.604  1.00  0.00    -0.102 C  
HETATM   18  C   UNL     1     -10.873  11.253  66.370  1.00  0.00    -0.251 C  
HETATM   19  H   UNL     1      -9.516   9.949  65.418  1.00  0.00     0.000 HD 
BRANCH  18  20
HETATM   20  C   UNL     1     -10.257  12.667  66.315  1.00  0.00    -0.251 C  
BRANCH  20  21
HETATM   21  N   UNL     1     -11.280  13.663  65.840  1.00  0.00    -0.303 N  
HETATM   22  H   UNL     1     -11.508  14.504  66.370  1.00  0.00     0.000 HD 
BRANCH  21  23
HETATM   23  S   UNL     1     -12.017  13.298  64.387  1.00  0.00    -0.427 S  
HETATM   24  O   UNL     1     -11.007  12.815  63.478  1.00  0.00    -0.412 OA 
HETATM   25  N   UNL     1     -12.360  14.845  63.930  1.00  0.00    -1.064 N  
HETATM   26  O   UNL     1     -13.253  12.613  64.648  1.00  0.00    -0.828 OA 
HETATM   27  H2  UNL     1     -12.179  15.739  64.388  1.00  0.00     0.000 HD 
HETATM   28  H1  UNL     1     -12.810  14.623  63.043  1.00  0.00     0.000 HD 
ENDBRANCH  21  23
ENDBRANCH  20  21
ENDBRANCH  18  20
ENDBRANCH  13  14
ENDBRANCH   3  13
BRANCH  10  29
HETATM   29  C   UNL     1     -10.252   5.725  74.204  1.00  0.00    -0.276 C  
HETATM   30  H   UNL     1      -9.204   4.182  74.693  1.00  0.00     0.000 HD 
HETATM   31  O   UNL     1      -9.016   5.010  74.266  1.00  0.00    -0.112 OA 
HETATM   32  C   UNL     1     -11.268   4.911  73.422  1.00  0.00    -0.415 C  
ENDBRANCH  10  29
TORSDOF 6
ENDMDL
MODEL      102
REMARK 921   NORMALIZED FREE ENERGY PREDICTED BY IDOCK:   -5.26 KCAL/MOL
REMARK 922        TOTAL FREE ENERGY PREDICTED BY IDOCK:   -7.99 KCAL/MOL
REMARK 923 INTER-LIGAND FREE ENERGY PREDICTED BY IDOCK:   -7.09 KCAL/MOL
REMARK 924 INTRA-LIGAND FREE ENERGY PREDICTED BY IDOCK:   -0.89 KCAL/MOL
REMARK 927      BINDING AFFINITY PREDICTED BY RF-SCORE:    0.00 PKD
ROOT
HETATM    1  C   UNL     1      -9.789   7.839  71.237  1.00  0.00    -0.171 C  
HETATM    2  C   UNL     1      -9.978   9.078  70.350  1.00  0.00    -0.244 C  
HETATM    3  C   UNL     1     -10.378   8.467  69.024  1.00  0.00    -0.216 C  
HETATM    4  C   UNL     1      -8.722   9.942  70.361  1.00  0.00     0.032 C  
HETATM    5  O   UNL     1     -10.284   4.909  68.160  1.00  0.00    -0.122 OA 
HETATM    6  C   UNL     1     -10.415   7.119  69.106  1.00  0.00    -0.211 C  
HETATM    7  N   UNL     1     -10.144   6.666  70.390  1.00  0.00    -0.182 N  
HETATM    8  O   UNL     1      -8.617   4.918  70.233  1.00  0.00    -0.092 OA 
HETATM    9  C   UNL     1     -10.736   6.170  67.986  1.00  0.00    -0.295 C  
HETATM   10  C   UNL     1      -8.424   7.127  71.504  1.00  0.00    -0.115 C  
HETATM   11  O   UNL     1     -11.383   6.469  66.994  1.00  0.00    -0.342 OA 
HETATM   12  C   UNL     1      -9.007   5.968  70.689  1.00  0.00    -0.146 C  
ENDROOT
BRANCH   3  13
HETATM   13  S   UNL     1     -10.654   9.391  67.596  1.00  0.00    -0.236 SA 
BRANCH  13  14
HETATM   14  C   UNL     1      -9.069   9.404  66.689  1.00  0.00    -0.149 C  
HETATM   15  N   UNL     1      -8.764  11.604  65.812  1.00  0.00    -0.399 NA 
HETATM   16  C   UNL     1      -8.221  10.672  66.799  1.00  0.00    -0.130 C  
HETATM   17  C   UNL     1      -9.377   9.346  65.188  1.00  0.00    -0.288 C  
HETATM   18  C   UNL     1      -9.183  10.772  64.661  1.00  0.00    -0.219 C  
HETATM   19  H   UNL     1      -8.120  12.354  65.561  1.00  0.00     0.000 HD 
BRANCH  18  20
HETATM   20  C   UNL     1     -10.427  11.386  63.987  1.00  0.00    -0.378 C  
BRANCH  20  21
HETATM   21  N   UNL     1     -10.819  12.664  64.679  1.00  0.00    -0.302 N  
HETATM   22  H   UNL     1     -10.133  13.277  65.117  1.00  0.00     0.000 HD 
BRANCH  21  23
HETATM   23  S   UNL     1     -12.452  13.009  64.680  1.00  0.00    -0.372 S  
HETATM   24  O   UNL     1     -13.152  11.880  64.116  1.00  0.00    -0.597 OA 
HETATM   25  N   UNL     1     -12.423  14.175  63.514  1.00  0.00    -1.106 N  
HETATM   26  O   UNL     1     -12.800  13.621  65.933  1.00  0.00    -0.413 OA 
HETATM   27  H2  UNL     1     -11.654  14.561  62.967  1.00  0.00     0.000 HD 
HETATM   28  H1  UNL     1     -13.421  14.385  63.515  1.00  0.00     0.000 HD 
ENDBRANCH  21  23
ENDBRANCH  20  21
ENDBRANCH  18  20
ENDBRANCH  13  14
ENDBRANCH   3  13
BRANCH  10  29
HETATM   29  C   UNL     1      -8.118   6.918  72.973  1.00  0.00    -0.106 C  
HETATM   30  H   UNL     1      -8.769   7.682  74.618  1.00  0.00     0.000 HD 
HETATM   31  O   UNL     1      -8.962   7.814  73.697  1.00  0.00    -0.230 OA 
HETATM   32  C   UNL     1      -6.663   7.227  73.290  1.00  0.00    -0.065 C  
ENDBRANCH  10  29
TORSDOF 6
ENDMDL
MODEL      103
REMARK 921   NORMALIZED FREE ENERGY PREDICTED BY IDOCK:   -5.25 KCAL/MOL
REMARK 922        TOTAL FREE ENERGY PREDICTED BY IDOCK:   -7.98 KCAL/MOL
REMARK 923 INTER-LIGAND FREE ENERGY PREDICTED BY IDOCK:   -7.04 KCAL/MOL
REMARK 924 INTRA-LIGAND FREE ENERGY PREDICTED BY IDOCK:   -0.94 KCAL/MOL
REMARK 927      BINDING AFFINITY PREDICTED BY RF-SCORE:    0.00 PKD
ROOT
HETATM    1  C   UNL     1     -10.435   7.921  67.749  1.00  0.00    -0.212 C  
HETATM    2  C   UNL     1     -10.638   9.430  67.547  1.00  0.00    -0.333 C  
HETATM    3  C   UNL     1      -9.848   9.693  66.283  1.00  0.00    -0.256 C  
HETATM    4  C   UNL     1     -10.221  10.199  68.794  1.00  0.00    -0.200 C  
HETATM    5  O   UNL     1      -7.596   7.344  64.603  1.00  0.00    -0.090 OA 
HETATM    6  C   UNL     1      -9.279   8.558  65.823  1.00  0.00    -0.146 C  
HETATM    7  N   UNL     1      -9.625   7.453  66.590  1.00  0.00    -0.192 N  
HETATM    8  O   UNL     1      -7.689   6.236  67.019  1.00  0.00    -0.097 OA 
HETATM    9  C   UNL     1      -8.395   8.433  64.615  1.00  0.00    -0.127 C  
HETATM   10  C   UNL     1      -9.345   7.278  68.664  1.00  0.00    -0.138 C  
HETATM   11  O   UNL     1      -8.394   9.217  63.678  1.00  0.00    -0.169 OA 
HETATM   12  C   UNL     1      -8.710   6.788  67.359  1.00  0.00    -0.119 C  
ENDROOT
BRANCH   3  13
HETATM   13  S   UNL     1      -9.648  11.262  65.597  1.00  0.00    -0.236 SA 
BRANCH  13  14
HETATM   14  C   UNL     1     -11.292  11.752  64.970  1.00  0.00    -0.225 C  
HETATM   15  N   UNL     1     -11.073  13.930  64.014  1.00  0.00    -0.547 NA 
HETATM   16  C   UNL     1     -11.324  12.535  63.657  1.00  0.00    -0.485 C  
HETATM   17  C   UNL     1     -11.902  12.751  65.960  1.00  0.00    -0.495 C  
HETATM   18  C   UNL     1     -11.735  14.134  65.322  1.00  0.00    -0.353 C  
HETATM   19  H   UNL     1     -11.366  14.594  63.298  1.00  0.00     0.000 HD 
BRANCH  18  20
HETATM   20  C   UNL     1     -10.934  15.145  66.171  1.00  0.00    -0.331 C  
BRANCH  20  21
HETATM   21  N   UNL     1     -10.734  14.613  67.564  1.00  0.00    -0.265 N  
HETATM   22  H   UNL     1     -10.516  13.634  67.747  1.00  0.00     0.000 HD 
BRANCH  21  23
HETATM   23  S   UNL     1     -10.895  15.735  68.790  1.00  0.00    -0.294 S  
HETATM   24  O   UNL     1     -12.254  15.683  69.273  1.00  0.00    -0.303 OA 
HETATM   25  N   UNL     1     -10.779  17.088  67.855  1.00  0.00    -0.362 N  
HETATM   26  O   UNL     1      -9.739  15.666  69.642  1.00  0.00    -0.274 OA 
HETATM   27  H2  UNL     1     -10.651  17.204  66.850  1.00  0.00     0.000 HD 
HETATM   28  H1  UNL     1     -10.877  17.773  68.604  1.00  0.00     0.000 HD 
ENDBRANCH  21  23
ENDBRANCH  20  21
ENDBRANCH  18  20
ENDBRANCH  13  14
ENDBRANCH   3  13
BRANCH  10  29
HETATM   29  C   UNL     1      -9.889   6.263  69.649  1.00  0.00    -0.163 C  
HETATM   30  H   UNL     1     -10.150   4.353  69.625  1.00  0.00     0.000 HD 
HETATM   31  O   UNL     1      -9.808   4.989  69.007  1.00  0.00    -0.156 OA 
HETATM   32  C   UNL     1     -11.336   6.555  70.010  1.00  0.00    -0.472 C  
ENDBRANCH  10  29
TORSDOF 6
ENDMDL
MODEL      104
REMARK 921   NORMALIZED FREE ENERGY PREDICTED BY IDOCK:   -5.24 KCAL/MOL
REMARK 922        TOTAL FREE ENERGY PREDICTED BY IDOCK:   -7.96 KCAL/MOL
REMARK 923 INTER-LIGAND FREE ENERGY PREDICTED BY IDOCK:   -7.35 KCAL/MOL
REMARK 924 INTRA-LIGAND FREE ENERGY PREDICTED BY IDOCK:   -0.60 KCAL/MOL
REMARK 927      BINDING AFFINITY PREDICTED BY RF-SCORE:    0.00 PKD
ROOT
HETATM    1  C   UNL     1     -10.997  10.139  66.780  1.00  0.00     0.021 C  
HETATM    2  C   UNL     1     -11.534  11.159  67.795  1.00  0.00    -0.349 C  
HETATM    3  C   UNL     1     -11.495  12.449  67.005  1.00  0.00    -0.358 C  
HETATM    4  C   UNL     1     -10.720  11.113  69.082  1.00  0.00    -0.262 C  
HETATM    5  O   UNL     1      -9.929  12.942  63.730  1.00  0.00    -0.324 OA 
HETATM    6  C   UNL     1     -11.021  12.238  65.758  1.00  0.00    -0.301 C  
HETATM    7  N   UNL     1     -10.763  10.895  65.518  1.00  0.00    -0.167 N  
HETATM    8  O   UNL     1      -8.674  10.730  64.507  1.00  0.00    -0.168 OA 
HETATM    9  C   UNL     1     -10.806  13.284  64.700  1.00  0.00    -0.382 C  
HETATM   10  C   UNL     1      -9.510   9.672  66.679  1.00  0.00    -0.221 C  
HETATM   11  O   UNL     1     -11.386  14.358  64.666  1.00  0.00    -0.376 OA 
HETATM   12  C   UNL     1      -9.492  10.421  65.342  1.00  0.00    -0.232 C  
ENDROOT
BRANCH   3  13
HETATM   13  S   UNL     1     -11.922  13.982  67.667  1.00  0.00    -0.318 SA 
BRANCH  13  14
HETATM   14  C   UNL     1     -10.791  14.255  69.076  1.00  0.00    -0.255 C  
HETATM   15  N   UNL     1     -11.370  16.352  70.062  1.00  0.00    -0.409 NA 
HETATM   16  C   UNL     1     -11.387  14.913  70.321  1.00  0.00    -0.254 C  
HETATM   17  C   UNL     1      -9.729  15.272  68.645  1.00  0.00    -0.212 C  
HETATM   18  C   UNL     1     -10.135  16.604  69.284  1.00  0.00    -0.257 C  
HETATM   19  H   UNL     1     -11.446  16.920  70.905  1.00  0.00     0.000 HD 
BRANCH  18  20
HETATM   20  C   UNL     1     -10.364  17.757  68.284  1.00  0.00    -0.385 C  
BRANCH  20  21
HETATM   21  N   UNL     1      -9.471  17.593  67.085  1.00  0.00    -0.261 N  
HETATM   22  H   UNL     1      -9.657  16.903  66.358  1.00  0.00     0.000 HD 
BRANCH  21  23
HETATM   23  S   UNL     1      -8.153  18.617  67.026  1.00  0.00    -0.258 S  
HETATM   24  O   UNL     1      -7.003  17.900  67.520  1.00  0.00    -0.188 OA 
HETATM   25  N   UNL     1      -8.625  19.638  68.232  1.00  0.00    -0.329 N  
HETATM   26  O   UNL     1      -8.175  19.336  65.781  1.00  0.00    -0.445 OA 
HETATM   27  H2  UNL     1      -9.455  19.643  68.824  1.00  0.00     0.000 HD 
HETATM   28  H1  UNL     1      -7.820  20.263  68.195  1.00  0.00     0.000 HD 
ENDBRANCH  21  23
ENDBRANCH  20  21
ENDBRANCH  18  20
ENDBRANCH  13  14
ENDBRANCH   3  13
BRANCH  10  29
HETATM   29  C   UNL     1      -9.336   8.167  66.686  1.00  0.00    -0.197 C  
HETATM   30  H   UNL     1     -10.521   6.665  66.922  1.00  0.00     0.000 HD 
HETATM   31  O   UNL     1     -10.630   7.609  66.917  1.00  0.00    -0.341 OA 
HETATM   32  C   UNL     1      -8.389   7.720  67.788  1.00  0.00    -0.125 C  
ENDBRANCH  10  29
TORSDOF 6
ENDMDL
MODEL      105
REMARK 921   NORMALIZED FREE ENERGY PREDICTED BY IDOCK:   -5.22 KCAL/MOL
REMARK 922        TOTAL FREE ENERGY PREDICTED BY IDOCK:   -7.93 KCAL/MOL
REMARK 923 INTER-LIGAND FREE ENERGY PREDICTED BY IDOCK:   -7.36 KCAL/MOL
REMARK 924 INTRA-LIGAND FREE ENERGY PREDICTED BY IDOCK:   -0.57 KCAL/MOL
REMARK 927      BINDING AFFINITY PREDICTED BY RF-SCORE:    0.00 PKD
ROOT
HETATM    1  C   UNL     1     -10.511   5.520  70.807  1.00  0.00    -0.260 C  
HETATM    2  C   UNL     1     -11.154   6.453  69.771  1.00  0.00    -0.459 C  
HETATM    3  C   UNL     1      -9.965   7.242  69.266  1.00  0.00    -0.170 C  
HETATM    4  C   UNL     1     -12.293   7.248  70.399  1.00  0.00     0.059 C  
HETATM    5  O   UNL     1      -6.589   7.225  70.688  1.00  0.00    -0.046 OA 
HETATM    6  C   UNL     1      -8.830   6.855  69.888  1.00  0.00    -0.142 C  
HETATM    7  N   UNL     1      -9.049   5.802  70.765  1.00  0.00    -0.147 N  
HETATM    8  O   UNL     1      -7.963   6.289  72.765  1.00  0.00    -0.105 OA 
HETATM    9  C   UNL     1      -7.460   7.433  69.676  1.00  0.00    -0.093 C  
HETATM   10  C   UNL     1     -10.436   5.801  72.342  1.00  0.00    -0.252 C  
HETATM   11  O   UNL     1      -7.110   8.022  68.664  1.00  0.00    -0.068 OA 
HETATM   12  C   UNL     1      -8.927   5.948  72.120  1.00  0.00    -0.143 C  
ENDROOT
BRANCH   3  13
HETATM   13  S   UNL     1     -10.091   8.519  68.116  1.00  0.00    -0.208 SA 
BRANCH  13  14
HETATM   14  C   UNL     1     -10.219  10.061  69.087  1.00  0.00    -0.210 C  
HETATM   15  N   UNL     1     -12.219  11.173  68.402  1.00  0.00    -0.726 NA 
HETATM   16  C   UNL     1     -11.620  10.476  69.539  1.00  0.00    -0.260 C  
HETATM   17  C   UNL     1      -9.808  11.230  68.183  1.00  0.00    -0.190 C  
HETATM   18  C   UNL     1     -11.111  11.912  67.755  1.00  0.00    -0.239 C  
HETATM   19  H   UNL     1     -13.011  11.763  68.656  1.00  0.00     0.000 HD 
BRANCH  18  20
HETATM   20  C   UNL     1     -11.336  11.976  66.229  1.00  0.00    -0.357 C  
BRANCH  20  21
HETATM   21  N   UNL     1     -11.947  13.296  65.847  1.00  0.00    -0.396 N  
HETATM   22  H   UNL     1     -12.822  13.629  66.252  1.00  0.00     0.000 HD 
BRANCH  21  23
HETATM   23  S   UNL     1     -11.097  14.180  64.714  1.00  0.00    -0.382 S  
HETATM   24  O   UNL     1     -10.471  15.292  65.387  1.00  0.00    -0.336 OA 
HETATM   25  N   UNL     1     -12.397  14.792  63.904  1.00  0.00    -1.070 N  
HETATM   26  O   UNL     1     -10.398  13.276  63.843  1.00  0.00    -0.326 OA 
HETATM   27  H2  UNL     1     -13.399  14.669  64.049  1.00  0.00     0.000 HD 
HETATM   28  H1  UNL     1     -11.878  15.331  63.212  1.00  0.00     0.000 HD 
ENDBRANCH  21  23
ENDBRANCH  20  21
ENDBRANCH  18  20
ENDBRANCH  13  14
ENDBRANCH   3  13
BRANCH  10  29
HETATM   29  C   UNL     1     -10.950   4.663  73.201  1.00  0.00    -0.286 C  
HETATM   30  H   UNL     1     -11.115   4.361  75.098  1.00  0.00     0.000 HD 
HETATM   31  O   UNL     1     -10.793   5.075  74.560  1.00  0.00    -0.331 OA 
HETATM   32  C   UNL     1     -10.161   3.386  72.966  1.00  0.00    -0.221 C  
ENDBRANCH  10  29
TORSDOF 6
ENDMDL
MODEL      106
REMARK 921   NORMALIZED FREE ENERGY PREDICTED BY IDOCK:   -5.21 KCAL/MOL
REMARK 922        TOTAL FREE ENERGY PREDICTED BY IDOCK:   -7.92 KCAL/MOL
REMARK 923 INTER-LIGAND FREE ENERGY PREDICTED BY IDOCK:   -7.04 KCAL/MOL
REMARK 924 INTRA-LIGAND FREE ENERGY PREDICTED BY IDOCK:   -0.88 KCAL/MOL
REMARK 927      BINDING AFFINITY PREDICTED BY RF-SCORE:    0.00 PKD
ROOT
HETATM    1  C   UNL     1     -10.386   7.107  69.364  1.00  0.00    -0.198 C  
HETATM    2  C   UNL     1     -10.033   8.481  69.949  1.00  0.00    -0.189 C  
HETATM    3  C   UNL     1      -9.609   9.256  68.720  1.00  0.00    -0.154 C  
HETATM    4  C   UNL     1      -9.004   8.340  71.065  1.00  0.00    -0.183 C  
HETATM    5  O   UNL     1      -9.051   7.875  65.373  1.00  0.00     0.005 OA 
HETATM    6  C   UNL     1      -9.690   8.486  67.613  1.00  0.00    -0.160 C  
HETATM    7  N   UNL     1     -10.200   7.225  67.890  1.00  0.00    -0.180 N  
HETATM    8  O   UNL     1      -8.861   5.652  66.820  1.00  0.00    -0.114 OA 
HETATM    9  C   UNL     1      -9.320   8.897  66.216  1.00  0.00    -0.219 C  
HETATM   10  C   UNL     1      -9.418   5.882  69.304  1.00  0.00    -0.154 C  
HETATM   11  O   UNL     1      -9.286  10.053  65.824  1.00  0.00    -0.156 OA 
HETATM   12  C   UNL     1      -9.437   6.094  67.787  1.00  0.00    -0.115 C  
ENDROOT
BRANCH   3  13
HETATM   13  S   UNL     1      -9.021  10.874  68.772  1.00  0.00    -0.141 SA 
BRANCH  13  14
HETATM   14  C   UNL     1     -10.396  11.890  69.417  1.00  0.00     0.290 C  
HETATM   15  N   UNL     1     -12.231  11.650  67.906  1.00  0.00    -0.437 NA 
HETATM   16  C   UNL     1     -11.806  11.317  69.265  1.00  0.00    -0.354 C  
HETATM   17  C   UNL     1     -10.474  13.174  68.582  1.00  0.00    -0.242 C  
HETATM   18  C   UNL     1     -11.651  12.982  67.620  1.00  0.00    -0.355 C  
HETATM   19  H   UNL     1     -13.241  11.606  67.772  1.00  0.00     0.000 HD 
BRANCH  18  20
HETATM   20  C   UNL     1     -11.287  13.091  66.124  1.00  0.00    -0.314 C  
BRANCH  20  21
HETATM   21  N   UNL     1     -12.398  12.537  65.275  1.00  0.00    -0.463 N  
HETATM   22  H   UNL     1     -13.245  12.138  65.679  1.00  0.00     0.000 HD 
BRANCH  21  23
HETATM   23  S   UNL     1     -12.152  12.621  63.625  1.00  0.00    -0.565 S  
HETATM   24  O   UNL     1     -10.761  12.346  63.363  1.00  0.00    -0.446 OA 
HETATM   25  N   UNL     1     -12.348  14.251  63.465  1.00  0.00    -1.122 N  
HETATM   26  O   UNL     1     -13.239  11.960  62.956  1.00  0.00    -0.473 OA 
HETATM   27  H2  UNL     1     -12.553  14.975  64.153  1.00  0.00     0.000 HD 
HETATM   28  H1  UNL     1     -12.198  14.301  62.458  1.00  0.00     0.000 HD 
ENDBRANCH  21  23
ENDBRANCH  20  21
ENDBRANCH  18  20
ENDBRANCH  13  14
ENDBRANCH   3  13
BRANCH  10  29
HETATM   29  C   UNL     1     -10.003   4.608  69.880  1.00  0.00    -0.226 C  
HETATM   30  H   UNL     1     -10.648   4.074  71.616  1.00  0.00     0.000 HD 
HETATM   31  O   UNL     1     -10.282   4.873  71.255  1.00  0.00    -0.198 OA 
HETATM   32  C   UNL     1      -9.026   3.448  69.776  1.00  0.00    -0.176 C  
ENDBRANCH  10  29
TORSDOF 6
ENDMDL
MODEL      107
REMARK 921   NORMALIZED FREE ENERGY PREDICTED BY IDOCK:   -5.21 KCAL/MOL
REMARK 922        TOTAL FREE ENERGY PREDICTED BY IDOCK:   -7.92 KCAL/MOL
REMARK 923 INTER-LIGAND FREE ENERGY PREDICTED BY IDOCK:   -6.95 KCAL/MOL
REMARK 924 INTRA-LIGAND FREE ENERGY PREDICTED BY IDOCK:   -0.97 KCAL/MOL
REMARK 927      BINDING AFFINITY PREDICTED BY RF-SCORE:    0.00 PKD
ROOT
HETATM    1  C   UNL     1      -9.283   9.306  65.056  1.00  0.00    -0.178 C  
HETATM    2  C   UNL     1      -8.860   8.590  66.346  1.00  0.00    -0.178 C  
HETATM    3  C   UNL     1      -9.725   9.265  67.388  1.00  0.00    -0.161 C  
HETATM    4  C   UNL     1      -7.350   8.680  66.539  1.00  0.00    -0.081 C  
HETATM    5  O   UNL     1     -11.803  12.239  66.885  1.00  0.00    -0.524 OA 
HETATM    6  C   UNL     1     -10.511  10.208  66.825  1.00  0.00    -0.204 C  
HETATM    7  N   UNL     1     -10.362  10.256  65.446  1.00  0.00    -0.232 N  
HETATM    8  O   UNL     1     -10.147  12.485  64.818  1.00  0.00    -0.278 OA 
HETATM    9  C   UNL     1     -11.475  11.107  67.546  1.00  0.00    -0.216 C  
HETATM   10  C   UNL     1      -8.546  10.531  64.427  1.00  0.00    -0.160 C  
HETATM   11  O   UNL     1     -11.973  10.854  68.632  1.00  0.00    -0.484 OA 
HETATM   12  C   UNL     1      -9.797  11.328  64.813  1.00  0.00    -0.266 C  
ENDROOT
BRANCH   3  13
HETATM   13  S   UNL     1      -9.630   8.917  69.073  1.00  0.00    -0.160 SA 
BRANCH  13  14
HETATM   14  C   UNL     1      -9.309   7.123  69.200  1.00  0.00    -0.141 C  
HETATM   15  N   UNL     1     -11.427   6.019  69.247  1.00  0.00    -0.278 NA 
HETATM   16  C   UNL     1     -10.240   6.199  68.413  1.00  0.00    -0.175 C  
HETATM   17  C   UNL     1      -9.570   6.692  70.648  1.00  0.00    -0.177 C  
HETATM   18  C   UNL     1     -10.937   5.999  70.644  1.00  0.00    -0.307 C  
HETATM   19  H   UNL     1     -11.982   5.201  68.996  1.00  0.00     0.000 HD 
BRANCH  18  20
HETATM   20  C   UNL     1     -11.986   6.633  71.583  1.00  0.00    -0.347 C  
BRANCH  20  21
HETATM   21  N   UNL     1     -12.689   7.768  70.890  1.00  0.00    -0.533 N  
HETATM   22  H   UNL     1     -13.111   7.665  69.967  1.00  0.00     0.000 HD 
BRANCH  21  23
HETATM   23  S   UNL     1     -12.730   9.209  71.732  1.00  0.00    -0.403 S  
HETATM   24  O   UNL     1     -11.378   9.559  72.093  1.00  0.00    -0.108 OA 
HETATM   25  N   UNL     1     -13.448   8.632  73.101  1.00  0.00    -0.549 N  
HETATM   26  O   UNL     1     -13.643  10.107  71.079  1.00  0.00    -0.285 OA 
HETATM   27  H2  UNL     1     -13.765   7.696  73.352  1.00  0.00     0.000 HD 
HETATM   28  H1  UNL     1     -13.473   9.512  73.615  1.00  0.00     0.000 HD 
ENDBRANCH  21  23
ENDBRANCH  20  21
ENDBRANCH  18  20
ENDBRANCH  13  14
ENDBRANCH   3  13
BRANCH  10  29
HETATM   29  C   UNL     1      -8.203  10.357  62.962  1.00  0.00    -0.160 C  
HETATM   30  H   UNL     1      -8.682   9.081  61.598  1.00  0.00     0.000 HD 
HETATM   31  O   UNL     1      -8.898   9.190  62.517  1.00  0.00    -0.231 OA 
HETATM   32  C   UNL     1      -6.709  10.164  62.757  1.00  0.00    -0.133 C  
ENDBRANCH  10  29
TORSDOF 6
ENDMDL
MODEL      108
REMARK 921   NORMALIZED FREE ENERGY PREDICTED BY IDOCK:   -5.21 KCAL/MOL
REMARK 922        TOTAL FREE ENERGY PREDICTED BY IDOCK:   -7.92 KCAL/MOL
REMARK 923 INTER-LIGAND FREE ENERGY PREDICTED BY IDOCK:   -7.08 KCAL/MOL
REMARK 924 INTRA-LIGAND FREE ENERGY PREDICTED BY IDOCK:   -0.83 KCAL/MOL
REMARK 927      BINDING AFFINITY PREDICTED BY RF-SCORE:    0.00 PKD
ROOT
HETATM    1  C   UNL     1      -7.794   7.908  68.641  1.00  0.00    -0.119 C  
HETATM    2  C   UNL     1      -7.111   8.004  67.269  1.00  0.00    -0.083 C  
HETATM    3  C   UNL     1      -7.397   9.435  66.867  1.00  0.00    -0.090 C  
HETATM    4  C   UNL     1      -7.622   6.911  66.338  1.00  0.00    -0.089 C  
HETATM    5  O   UNL     1      -9.663  11.755  68.570  1.00  0.00    -0.200 OA 
HETATM    6  C   UNL     1      -8.118  10.069  67.818  1.00  0.00    -0.109 C  
HETATM    7  N   UNL     1      -8.342   9.264  68.926  1.00  0.00    -0.118 N  
HETATM    8  O   UNL     1     -10.587   9.445  69.509  1.00  0.00    -0.211 OA 
HETATM    9  C   UNL     1      -8.619  11.484  67.757  1.00  0.00    -0.138 C  
HETATM   10  C   UNL     1      -9.238   7.364  68.888  1.00  0.00    -0.142 C  
HETATM   11  O   UNL     1      -8.125  12.360  67.063  1.00  0.00    -0.174 OA 
HETATM   12  C   UNL     1      -9.590   8.810  69.254  1.00  0.00    -0.162 C  
ENDROOT
BRANCH   3  13
HETATM   13  S   UNL     1      -6.928  10.108  65.352  1.00  0.00    -0.141 SA 
BRANCH  13  14
HETATM   14  C   UNL     1      -8.190   9.565  64.147  1.00  0.00    -0.159 C  
HETATM   15  N   UNL     1      -8.672  11.425  62.728  1.00  0.00    -0.541 NA 
HETATM   16  C   UNL     1      -8.056  10.099  62.720  1.00  0.00    -0.145 C  
HETATM   17  C   UNL     1      -9.544  10.136  64.584  1.00  0.00    -0.379 C  
HETATM   18  C   UNL     1      -9.817  11.330  63.663  1.00  0.00    -0.340 C  
HETATM   19  H   UNL     1      -8.929  11.762  61.800  1.00  0.00     0.000 HD 
BRANCH  18  20
HETATM   20  C   UNL     1     -10.019  12.675  64.392  1.00  0.00    -0.170 C  
BRANCH  20  21
HETATM   21  N   UNL     1     -11.346  13.277  64.018  1.00  0.00    -0.499 N  
HETATM   22  H   UNL     1     -11.886  12.950  63.217  1.00  0.00     0.000 HD 
BRANCH  21  23
HETATM   23  S   UNL     1     -11.877  14.516  65.002  1.00  0.00    -0.397 S  
HETATM   24  O   UNL     1     -13.219  14.208  65.432  1.00  0.00    -0.741 OA 
HETATM   25  N   UNL     1     -12.010  15.672  63.833  1.00  0.00    -0.987 N  
HETATM   26  O   UNL     1     -10.816  14.890  65.898  1.00  0.00    -0.315 OA 
HETATM   27  H2  UNL     1     -11.827  15.640  62.831  1.00  0.00     0.000 HD 
HETATM   28  H1  UNL     1     -12.334  16.429  64.435  1.00  0.00     0.000 HD 
ENDBRANCH  21  23
ENDBRANCH  20  21
ENDBRANCH  18  20
ENDBRANCH  13  14
ENDBRANCH   3  13
BRANCH  10  29
HETATM   29  C   UNL     1      -9.316   6.292  69.955  1.00  0.00    -0.155 C  
HETATM   30  H   UNL     1      -8.657   4.487  70.117  1.00  0.00     0.000 HD 
HETATM   31  O   UNL     1      -8.607   5.160  69.447  1.00  0.00    -0.095 OA 
HETATM   32  C   UNL     1     -10.755   5.898  70.246  1.00  0.00    -0.383 C  
ENDBRANCH  10  29
TORSDOF 6
ENDMDL
MODEL      109
REMARK 921   NORMALIZED FREE ENERGY PREDICTED BY IDOCK:   -5.21 KCAL/MOL
REMARK 922        TOTAL FREE ENERGY PREDICTED BY IDOCK:   -7.92 KCAL/MOL
REMARK 923 INTER-LIGAND FREE ENERGY PREDICTED BY IDOCK:   -5.94 KCAL/MOL
REMARK 924 INTRA-LIGAND FREE ENERGY PREDICTED BY IDOCK:   -1.97 KCAL/MOL
REMARK 927      BINDING AFFINITY PREDICTED BY RF-SCORE:    0.00 PKD
ROOT
HETATM    1  C   UNL     1     -10.773  10.849  69.453  1.00  0.00    -0.225 C  
HETATM    2  C   UNL     1     -11.418  10.069  70.607  1.00  0.00    -0.425 C  
HETATM    3  C   UNL     1     -11.059   8.638  70.270  1.00  0.00    -0.217 C  
HETATM    4  C   UNL     1     -12.902  10.401  70.714  1.00  0.00    -0.450 C  
HETATM    5  O   UNL     1      -9.550   7.459  67.147  1.00  0.00    -0.142 OA 
HETATM    6  C   UNL     1     -10.340   8.577  69.128  1.00  0.00    -0.217 C  
HETATM    7  N   UNL     1     -10.070   9.838  68.614  1.00  0.00    -0.163 N  
HETATM    8  O   UNL     1     -10.517   9.798  66.331  1.00  0.00    -0.204 OA 
HETATM    9  C   UNL     1      -9.835   7.329  68.462  1.00  0.00    -0.156 C  
HETATM   10  C   UNL     1     -11.509  11.295  68.149  1.00  0.00    -0.376 C  
HETATM   11  O   UNL     1      -9.650   6.267  69.037  1.00  0.00    -0.127 OA 
HETATM   12  C   UNL     1     -10.615  10.274  67.438  1.00  0.00    -0.270 C  
ENDROOT
BRANCH   3  13
HETATM   13  S   UNL     1     -11.590   7.282  71.192  1.00  0.00    -0.306 SA 
BRANCH  13  14
HETATM   14  C   UNL     1     -10.483   7.195  72.643  1.00  0.00    -0.237 C  
HETATM   15  N   UNL     1      -8.620   5.827  72.040  1.00  0.00    -0.130 NA 
HETATM   16  C   UNL     1      -8.979   7.206  72.364  1.00  0.00    -0.127 C  
HETATM   17  C   UNL     1     -10.681   5.831  73.313  1.00  0.00    -0.297 C  
HETATM   18  C   UNL     1      -9.478   4.977  72.898  1.00  0.00    -0.137 C  
HETATM   19  H   UNL     1      -7.624   5.630  72.135  1.00  0.00     0.000 HD 
BRANCH  18  20
HETATM   20  C   UNL     1      -9.837   3.670  72.160  1.00  0.00    -0.170 C  
BRANCH  20  21
HETATM   21  N   UNL     1      -9.936   3.917  70.680  1.00  0.00    -0.116 N  
HETATM   22  H   UNL     1     -10.557   4.623  70.286  1.00  0.00     0.000 HD 
BRANCH  21  23
HETATM   23  S   UNL     1      -8.960   2.956  69.725  1.00  0.00    -0.118 S  
HETATM   24  O   UNL     1      -8.504   1.843  70.522  1.00  0.00    -0.048 OA 
HETATM   25  N   UNL     1      -7.689   4.000  69.603  1.00  0.00    -0.053 N  
HETATM   26  O   UNL     1      -9.565   2.817  68.428  1.00  0.00    -0.181 OA 
HETATM   27  H2  UNL     1      -7.545   4.934  69.989  1.00  0.00     0.000 HD 
HETATM   28  H1  UNL     1      -7.094   3.414  69.020  1.00  0.00     0.000 HD 
ENDBRANCH  21  23
ENDBRANCH  20  21
ENDBRANCH  18  20
ENDBRANCH  13  14
ENDBRANCH   3  13
BRANCH  10  29
HETATM   29  C   UNL     1     -11.351  12.768  67.828  1.00  0.00    -0.294 C  
HETATM   30  H   UNL     1     -11.835  14.410  68.714  1.00  0.00     0.000 HD 
HETATM   31  O   UNL     1     -11.934  13.487  68.916  1.00  0.00    -0.336 OA 
HETATM   32  C   UNL     1     -12.063  13.138  66.538  1.00  0.00    -0.423 C  
ENDBRANCH  10  29
TORSDOF 6
ENDMDL
MODEL      110
REMARK 921   NORMALIZED FREE ENERGY PREDICTED BY IDOCK:   -5.20 KCAL/MOL
REMARK 922        TOTAL FREE ENERGY PREDICTED BY IDOCK:   -7.91 KCAL/MOL
REMARK 923 INTER-LIGAND FREE ENERGY PREDICTED BY IDOCK:   -6.19 KCAL/MOL
REMARK 924 INTRA-LIGAND FREE ENERGY PREDICTED BY IDOCK:   -1.72 KCAL/MOL
REMARK 927      BINDING AFFINITY PREDICTED BY RF-SCORE:    0.00 PKD
ROOT
HETATM    1  C   UNL     1      -9.058   7.500  71.039  1.00  0.00    -0.148 C  
HETATM    2  C   UNL     1      -8.296   8.357  70.018  1.00  0.00    -0.123 C  
HETATM    3  C   UNL     1      -9.287   9.462  69.721  1.00  0.00    -0.203 C  
HETATM    4  C   UNL     1      -7.839   7.506  68.839  1.00  0.00    -0.124 C  
HETATM    5  O   UNL     1     -12.788   9.581  70.792  1.00  0.00    -0.187 OA 
HETATM    6  C   UNL     1     -10.425   9.293  70.429  1.00  0.00    -0.245 C  
HETATM    7  N   UNL     1     -10.353   8.197  71.279  1.00  0.00    -0.195 N  
HETATM    8  O   UNL     1     -12.320   6.976  71.053  1.00  0.00    -0.370 OA 
HETATM    9  C   UNL     1     -11.645  10.167  70.371  1.00  0.00    -0.316 C  
HETATM   10  C   UNL     1      -9.901   6.231  70.693  1.00  0.00    -0.213 C  
HETATM   11  O   UNL     1     -11.640  11.334  70.010  1.00  0.00    -0.297 OA 
HETATM   12  C   UNL     1     -11.116   7.079  71.088  1.00  0.00    -0.258 C  
ENDROOT
BRANCH   3  13
HETATM   13  S   UNL     1      -9.004  10.707  68.563  1.00  0.00    -0.163 SA 
BRANCH  13  14
HETATM   14  C   UNL     1      -9.415   9.983  66.936  1.00  0.00    -0.166 C  
HETATM   15  N   UNL     1      -9.541  11.779  65.367  1.00  0.00    -0.320 NA 
HETATM   16  C   UNL     1      -8.739  10.607  65.714  1.00  0.00    -0.182 C  
HETATM   17  C   UNL     1     -10.900  10.246  66.658  1.00  0.00    -0.115 C  
HETATM   18  C   UNL     1     -10.944  11.407  65.659  1.00  0.00    -0.190 C  
HETATM   19  H   UNL     1      -9.395  12.106  64.412  1.00  0.00     0.000 HD 
BRANCH  18  20
HETATM   20  C   UNL     1     -11.732  12.644  66.140  1.00  0.00    -0.406 C  
BRANCH  20  21
HETATM   21  N   UNL     1     -11.452  12.907  67.595  1.00  0.00    -0.313 N  
HETATM   22  H   UNL     1     -11.780  12.285  68.334  1.00  0.00     0.000 HD 
BRANCH  21  23
HETATM   23  S   UNL     1     -10.569  14.286  67.918  1.00  0.00    -0.242 S  
HETATM   24  O   UNL     1      -9.222  14.081  67.443  1.00  0.00    -0.199 OA 
HETATM   25  N   UNL     1     -10.519  14.125  69.559  1.00  0.00    -0.434 N  
HETATM   26  O   UNL     1     -11.365  15.439  67.595  1.00  0.00    -0.331 OA 
HETATM   27  H2  UNL     1     -10.903  13.412  70.178  1.00  0.00     0.000 HD 
HETATM   28  H1  UNL     1      -9.979  14.968  69.756  1.00  0.00     0.000 HD 
ENDBRANCH  21  23
ENDBRANCH  20  21
ENDBRANCH  18  20
ENDBRANCH  13  14
ENDBRANCH   3  13
BRANCH  10  29
HETATM   29  C   UNL     1      -9.548   5.014  71.523  1.00  0.00    -0.158 C  
HETATM   30  H   UNL     1     -10.502   3.900  72.774  1.00  0.00     0.000 HD 
HETATM   31  O   UNL     1     -10.724   4.663  72.253  1.00  0.00    -0.172 OA 
HETATM   32  C   UNL     1      -8.418   5.310  72.496  1.00  0.00    -0.118 C  
ENDBRANCH  10  29
TORSDOF 6
ENDMDL
MODEL      111
REMARK 921   NORMALIZED FREE ENERGY PREDICTED BY IDOCK:   -5.20 KCAL/MOL
REMARK 922        TOTAL FREE ENERGY PREDICTED BY IDOCK:   -7.91 KCAL/MOL
REMARK 923 INTER-LIGAND FREE ENERGY PREDICTED BY IDOCK:   -6.50 KCAL/MOL
REMARK 924 INTRA-LIGAND FREE ENERGY PREDICTED BY IDOCK:   -1.41 KCAL/MOL
REMARK 927      BINDING AFFINITY PREDICTED BY RF-SCORE:    0.00 PKD
ROOT
HETATM    1  C   UNL     1      -8.446   7.640  66.750  1.00  0.00    -0.127 C  
HETATM    2  C   UNL     1      -8.252   8.904  65.901  1.00  0.00    -0.119 C  
HETATM    3  C   UNL     1      -8.985   9.951  66.711  1.00  0.00    -0.138 C  
HETATM    4  C   UNL     1      -8.737   8.671  64.475  1.00  0.00    -0.034 C  
HETATM    5  O   UNL     1     -11.128   9.337  69.618  1.00  0.00    -0.212 OA 
HETATM    6  C   UNL     1      -9.518   9.412  67.829  1.00  0.00    -0.132 C  
HETATM    7  N   UNL     1      -9.195   8.068  67.964  1.00  0.00    -0.136 N  
HETATM    8  O   UNL     1     -11.134   6.911  68.527  1.00  0.00    -0.168 OA 
HETATM    9  C   UNL     1     -10.344  10.132  68.857  1.00  0.00    -0.206 C  
HETATM   10  C   UNL     1      -9.570   6.577  66.533  1.00  0.00    -0.184 C  
HETATM   11  O   UNL     1     -10.310  11.338  69.045  1.00  0.00    -0.205 OA 
HETATM   12  C   UNL     1     -10.137   7.081  67.864  1.00  0.00    -0.169 C  
ENDROOT
BRANCH   3  13
HETATM   13  S   UNL     1      -9.173  11.587  66.202  1.00  0.00    -0.214 SA 
BRANCH  13  14
HETATM   14  C   UNL     1     -10.586  11.596  65.044  1.00  0.00    -0.289 C  
HETATM   15  N   UNL     1     -10.943  13.859  64.368  1.00  0.00    -0.570 NA 
HETATM   16  C   UNL     1     -10.501  12.561  63.860  1.00  0.00    -0.434 C  
HETATM   17  C   UNL     1     -11.818  12.111  65.797  1.00  0.00    -0.342 C  
HETATM   18  C   UNL     1     -12.011  13.563  65.349  1.00  0.00    -0.379 C  
HETATM   19  H   UNL     1     -11.228  14.508  63.635  1.00  0.00     0.000 HD 
BRANCH  18  20
HETATM   20  C   UNL     1     -11.984  14.601  66.492  1.00  0.00    -0.268 C  
BRANCH  20  21
HETATM   21  N   UNL     1     -12.011  13.907  67.827  1.00  0.00    -0.395 N  
HETATM   22  H   UNL     1     -12.367  12.959  67.940  1.00  0.00     0.000 HD 
BRANCH  21  23
HETATM   23  S   UNL     1     -11.420  14.797  69.110  1.00  0.00    -0.318 S  
HETATM   24  O   UNL     1      -9.983  14.859  68.992  1.00  0.00    -0.228 OA 
HETATM   25  N   UNL     1     -11.747  13.698  70.296  1.00  0.00    -0.500 N  
HETATM   26  O   UNL     1     -12.258  15.948  69.308  1.00  0.00    -0.273 OA 
HETATM   27  H2  UNL     1     -12.173  12.773  70.259  1.00  0.00     0.000 HD 
HETATM   28  H1  UNL     1     -11.386  14.241  71.080  1.00  0.00     0.000 HD 
ENDBRANCH  21  23
ENDBRANCH  20  21
ENDBRANCH  18  20
ENDBRANCH  13  14
ENDBRANCH   3  13
BRANCH  10  29
HETATM   29  C   UNL     1      -9.060   5.153  66.438  1.00  0.00    -0.131 C  
HETATM   30  H   UNL     1      -7.437   4.333  65.799  1.00  0.00     0.000 HD 
HETATM   31  O   UNL     1      -7.756   5.226  65.859  1.00  0.00    -0.089 OA 
HETATM   32  C   UNL     1      -9.956   4.296  65.559  1.00  0.00    -0.233 C  
ENDBRANCH  10  29
TORSDOF 6
ENDMDL
MODEL      112
REMARK 921   NORMALIZED FREE ENERGY PREDICTED BY IDOCK:   -5.19 KCAL/MOL
REMARK 922        TOTAL FREE ENERGY PREDICTED BY IDOCK:   -7.90 KCAL/MOL
REMARK 923 INTER-LIGAND FREE ENERGY PREDICTED BY IDOCK:   -6.95 KCAL/MOL
REMARK 924 INTRA-LIGAND FREE ENERGY PREDICTED BY IDOCK:   -0.95 KCAL/MOL
REMARK 927      BINDING AFFINITY PREDICTED BY RF-SCORE:    0.00 PKD
ROOT
HETATM    1  C   UNL     1     -10.947   7.440  69.830  1.00  0.00    -0.200 C  
HETATM    2  C   UNL     1     -10.875   8.971  69.911  1.00  0.00    -0.228 C  
HETATM    3  C   UNL     1     -10.338   9.342  68.546  1.00  0.00    -0.209 C  
HETATM    4  C   UNL     1     -10.051   9.406  71.118  1.00  0.00    -0.335 C  
HETATM    5  O   UNL     1      -9.030   7.025  66.029  1.00  0.00    -0.158 OA 
HETATM    6  C   UNL     1     -10.126   8.239  67.795  1.00  0.00    -0.206 C  
HETATM    7  N   UNL     1     -10.518   7.079  68.450  1.00  0.00    -0.193 N  
HETATM    8  O   UNL     1      -8.827   5.501  68.199  1.00  0.00    -0.106 OA 
HETATM    9  C   UNL     1      -9.567   8.207  66.401  1.00  0.00    -0.216 C  
HETATM   10  C   UNL     1      -9.841   6.462  70.340  1.00  0.00    -0.193 C  
HETATM   11  O   UNL     1      -9.607   9.147  65.621  1.00  0.00    -0.262 OA 
HETATM   12  C   UNL     1      -9.616   6.137  68.860  1.00  0.00    -0.129 C  
ENDROOT
BRANCH   3  13
HETATM   13  S   UNL     1      -9.973  10.958  68.074  1.00  0.00    -0.176 SA 
BRANCH  13  14
HETATM   14  C   UNL     1     -11.560  11.707  67.567  1.00  0.00    -0.272 C  
HETATM   15  N   UNL     1     -11.053  13.634  66.250  1.00  0.00    -0.299 NA 
HETATM   16  C   UNL     1     -11.626  12.292  66.155  1.00  0.00    -0.390 C  
HETATM   17  C   UNL     1     -11.808  12.940  68.444  1.00  0.00    -0.357 C  
HETATM   18  C   UNL     1     -11.464  14.154  67.574  1.00  0.00    -0.340 C  
HETATM   19  H   UNL     1     -11.310  14.243  65.473  1.00  0.00     0.000 HD 
BRANCH  18  20
HETATM   20  C   UNL     1     -10.363  15.070  68.149  1.00  0.00    -0.239 C  
BRANCH  20  21
HETATM   21  N   UNL     1     -10.652  16.507  67.812  1.00  0.00    -0.325 N  
HETATM   22  H   UNL     1     -11.437  17.015  68.218  1.00  0.00     0.000 HD 
BRANCH  21  23
HETATM   23  S   UNL     1      -9.599  17.216  66.726  1.00  0.00    -0.282 S  
HETATM   24  O   UNL     1     -10.327  17.503  65.514  1.00  0.00    -0.620 OA 
HETATM   25  N   UNL     1      -8.682  15.880  66.419  1.00  0.00    -0.303 N  
HETATM   26  O   UNL     1      -8.788  18.178  67.421  1.00  0.00    -0.252 OA 
HETATM   27  H2  UNL     1      -8.739  14.926  66.777  1.00  0.00     0.000 HD 
HETATM   28  H1  UNL     1      -8.039  16.313  65.756  1.00  0.00     0.000 HD 
ENDBRANCH  21  23
ENDBRANCH  20  21
ENDBRANCH  18  20
ENDBRANCH  13  14
ENDBRANCH   3  13
BRANCH  10  29
HETATM   29  C   UNL     1     -10.357   5.379  71.265  1.00  0.00    -0.228 C  
HETATM   30  H   UNL     1     -11.882   5.202  72.431  1.00  0.00     0.000 HD 
HETATM   31  O   UNL     1     -11.559   5.882  71.851  1.00  0.00    -0.270 OA 
HETATM   32  C   UNL     1      -9.356   5.057  72.363  1.00  0.00    -0.157 C  
ENDBRANCH  10  29
TORSDOF 6
ENDMDL
MODEL      113
REMARK 921   NORMALIZED FREE ENERGY PREDICTED BY IDOCK:   -5.19 KCAL/MOL
REMARK 922        TOTAL FREE ENERGY PREDICTED BY IDOCK:   -7.89 KCAL/MOL
REMARK 923 INTER-LIGAND FREE ENERGY PREDICTED BY IDOCK:   -6.87 KCAL/MOL
REMARK 924 INTRA-LIGAND FREE ENERGY PREDICTED BY IDOCK:   -1.02 KCAL/MOL
REMARK 927      BINDING AFFINITY PREDICTED BY RF-SCORE:    0.00 PKD
ROOT
HETATM    1  C   UNL     1     -11.097  12.153  65.621  1.00  0.00    -0.316 C  
HETATM    2  C   UNL     1     -10.487  10.822  65.158  1.00  0.00    -0.299 C  
HETATM    3  C   UNL     1      -9.343  10.635  66.132  1.00  0.00    -0.177 C  
HETATM    4  C   UNL     1     -10.129  10.883  63.678  1.00  0.00    -0.414 C  
HETATM    5  O   UNL     1      -8.114  13.113  68.534  1.00  0.00    -0.144 OA 
HETATM    6  C   UNL     1      -9.282  11.663  67.006  1.00  0.00    -0.183 C  
HETATM    7  N   UNL     1     -10.316  12.570  66.819  1.00  0.00    -0.225 N  
HETATM    8  O   UNL     1      -9.412  14.714  66.852  1.00  0.00    -0.226 OA 
HETATM    9  C   UNL     1      -8.262  11.844  68.094  1.00  0.00    -0.158 C  
HETATM   10  C   UNL     1     -10.760  13.553  65.016  1.00  0.00    -0.366 C  
HETATM   11  O   UNL     1      -7.619  10.933  68.594  1.00  0.00    -0.098 OA 
HETATM   12  C   UNL     1     -10.094  13.841  66.366  1.00  0.00    -0.295 C  
ENDROOT
BRANCH   3  13
HETATM   13  S   UNL     1      -8.231   9.321  66.052  1.00  0.00    -0.113 SA 
BRANCH  13  14
HETATM   14  C   UNL     1      -9.234   7.802  66.208  1.00  0.00    -0.166 C  
HETATM   15  N   UNL     1     -10.221   7.817  68.383  1.00  0.00    -0.196 NA 
HETATM   16  C   UNL     1     -10.558   7.924  66.964  1.00  0.00    -0.311 C  
HETATM   17  C   UNL     1      -8.456   6.803  67.071  1.00  0.00    -0.114 C  
HETATM   18  C   UNL     1      -9.106   6.845  68.458  1.00  0.00    -0.127 C  
HETATM   19  H   UNL     1     -11.016   7.574  68.974  1.00  0.00     0.000 HD 
BRANCH  18  20
HETATM   20  C   UNL     1      -8.149   7.223  69.609  1.00  0.00    -0.129 C  
BRANCH  20  21
HETATM   21  N   UNL     1      -8.874   7.173  70.926  1.00  0.00    -0.149 N  
HETATM   22  H   UNL     1      -9.284   6.313  71.290  1.00  0.00     0.000 HD 
BRANCH  21  23
HETATM   23  S   UNL     1      -8.961   8.621  71.753  1.00  0.00    -0.218 S  
HETATM   24  O   UNL     1      -7.645   9.213  71.765  1.00  0.00    -0.339 OA 
HETATM   25  N   UNL     1      -9.207   7.991  73.257  1.00  0.00    -0.277 N  
HETATM   26  O   UNL     1     -10.150   9.320  71.349  1.00  0.00    -0.314 OA 
HETATM   27  H2  UNL     1      -9.282   7.027  73.580  1.00  0.00     0.000 HD 
HETATM   28  H1  UNL     1      -9.260   8.876  73.762  1.00  0.00     0.000 HD 
ENDBRANCH  21  23
ENDBRANCH  20  21
ENDBRANCH  18  20
ENDBRANCH  13  14
ENDBRANCH   3  13
BRANCH  10  29
HETATM   29  C   UNL     1     -11.978  14.355  64.607  1.00  0.00    -0.464 C  
HETATM   30  H   UNL     1     -13.234  14.265  63.147  1.00  0.00     0.000 HD 
HETATM   31  O   UNL     1     -12.470  13.762  63.404  1.00  0.00    -0.817 OA 
HETATM   32  C   UNL     1     -11.627  15.810  64.346  1.00  0.00    -0.240 C  
ENDBRANCH  10  29
TORSDOF 6
ENDMDL
MODEL      114
REMARK 921   NORMALIZED FREE ENERGY PREDICTED BY IDOCK:   -5.18 KCAL/MOL
REMARK 922        TOTAL FREE ENERGY PREDICTED BY IDOCK:   -7.88 KCAL/MOL
REMARK 923 INTER-LIGAND FREE ENERGY PREDICTED BY IDOCK:   -6.97 KCAL/MOL
REMARK 924 INTRA-LIGAND FREE ENERGY PREDICTED BY IDOCK:   -0.91 KCAL/MOL
REMARK 927      BINDING AFFINITY PREDICTED BY RF-SCORE:    0.00 PKD
ROOT
HETATM    1  C   UNL     1     -10.223   8.137  70.658  1.00  0.00    -0.196 C  
HETATM    2  C   UNL     1     -10.107   8.666  69.221  1.00  0.00    -0.203 C  
HETATM    3  C   UNL     1     -10.943   9.926  69.272  1.00  0.00    -0.211 C  
HETATM    4  C   UNL     1     -10.530   7.597  68.221  1.00  0.00    -0.219 C  
HETATM    5  O   UNL     1     -13.112  10.978  72.031  1.00  0.00    -0.496 OA 
HETATM    6  C   UNL     1     -11.463  10.110  70.506  1.00  0.00    -0.337 C  
HETATM    7  N   UNL     1     -11.038   9.138  71.401  1.00  0.00    -0.317 N  
HETATM    8  O   UNL     1     -12.894   8.386  72.586  1.00  0.00    -0.273 OA 
HETATM    9  C   UNL     1     -12.372  11.229  70.929  1.00  0.00    -0.388 C  
HETATM   10  C   UNL     1     -11.253   7.065  71.138  1.00  0.00    -0.304 C  
HETATM   11  O   UNL     1     -12.440  12.311  70.366  1.00  0.00    -0.241 OA 
HETATM   12  C   UNL     1     -11.895   8.211  71.927  1.00  0.00    -0.317 C  
ENDROOT
BRANCH   3  13
HETATM   13  S   UNL     1     -11.246  10.923  67.900  1.00  0.00    -0.315 SA 
BRANCH  13  14
HETATM   14  C   UNL     1      -9.665  11.758  67.525  1.00  0.00    -0.180 C  
HETATM   15  N   UNL     1      -9.688  12.323  65.204  1.00  0.00    -0.441 NA 
HETATM   16  C   UNL     1      -9.719  12.924  66.537  1.00  0.00    -0.257 C  
HETATM   17  C   UNL     1      -8.757  10.757  66.800  1.00  0.00    -0.145 C  
HETATM   18  C   UNL     1      -8.803  11.142  65.317  1.00  0.00    -0.076 C  
HETATM   19  H   UNL     1      -9.410  12.974  64.470  1.00  0.00     0.000 HD 
BRANCH  18  20
HETATM   20  C   UNL     1      -9.292  10.021  64.374  1.00  0.00    -0.290 C  
BRANCH  20  21
HETATM   21  N   UNL     1      -9.299   8.700  65.094  1.00  0.00    -0.408 N  
HETATM   22  H   UNL     1      -9.979   8.481  65.822  1.00  0.00     0.000 HD 
BRANCH  21  23
HETATM   23  S   UNL     1      -8.120   7.617  64.620  1.00  0.00    -0.070 S  
HETATM   24  O   UNL     1      -8.127   7.545  63.179  1.00  0.00    -0.127 OA 
HETATM   25  N   UNL     1      -8.861   6.247  65.163  1.00  0.00    -0.364 N  
HETATM   26  O   UNL     1      -6.937   7.841  65.405  1.00  0.00    -0.054 OA 
HETATM   27  H2  UNL     1      -9.753   6.106  65.637  1.00  0.00     0.000 HD 
HETATM   28  H1  UNL     1      -8.140   5.586  64.874  1.00  0.00     0.000 HD 
ENDBRANCH  21  23
ENDBRANCH  20  21
ENDBRANCH  18  20
ENDBRANCH  13  14
ENDBRANCH   3  13
BRANCH  10  29
HETATM   29  C   UNL     1     -10.629   5.908  71.891  1.00  0.00    -0.231 C  
HETATM   30  H   UNL     1      -9.953   4.172  71.395  1.00  0.00     0.000 HD 
HETATM   31  O   UNL     1     -10.344   4.898  70.922  1.00  0.00    -0.217 OA 
HETATM   32  C   UNL     1     -11.575   5.349  72.941  1.00  0.00    -0.296 C  
ENDBRANCH  10  29
TORSDOF 6
ENDMDL
MODEL      115
REMARK 921   NORMALIZED FREE ENERGY PREDICTED BY IDOCK:   -5.17 KCAL/MOL
REMARK 922        TOTAL FREE ENERGY PREDICTED BY IDOCK:   -7.87 KCAL/MOL
REMARK 923 INTER-LIGAND FREE ENERGY PREDICTED BY IDOCK:   -7.33 KCAL/MOL
REMARK 924 INTRA-LIGAND FREE ENERGY PREDICTED BY IDOCK:   -0.54 KCAL/MOL
REMARK 927      BINDING AFFINITY PREDICTED BY RF-SCORE:    0.00 PKD
ROOT
HETATM    1  C   UNL     1     -11.056   7.321  69.608  1.00  0.00    -0.141 C  
HETATM    2  C   UNL     1     -10.367   8.577  69.054  1.00  0.00    -0.229 C  
HETATM    3  C   UNL     1      -9.486   8.007  67.964  1.00  0.00    -0.146 C  
HETATM    4  C   UNL     1      -9.672   9.344  70.173  1.00  0.00    -0.274 C  
HETATM    5  O   UNL     1      -8.830   4.457  67.341  1.00  0.00    -0.104 OA 
HETATM    6  C   UNL     1      -9.621   6.665  67.887  1.00  0.00    -0.119 C  
HETATM    7  N   UNL     1     -10.573   6.184  68.775  1.00  0.00    -0.241 N  
HETATM    8  O   UNL     1      -9.681   4.328  69.857  1.00  0.00    -0.198 OA 
HETATM    9  C   UNL     1      -8.882   5.750  66.951  1.00  0.00    -0.114 C  
HETATM   10  C   UNL     1     -10.572   6.508  70.851  1.00  0.00    -0.275 C  
HETATM   11  O   UNL     1      -8.383   6.103  65.894  1.00  0.00    -0.127 OA 
HETATM   12  C   UNL     1     -10.238   5.401  69.845  1.00  0.00    -0.281 C  
ENDROOT
BRANCH   3  13
HETATM   13  S   UNL     1      -8.399   8.959  67.025  1.00  0.00    -0.105 SA 
BRANCH  13  14
HETATM   14  C   UNL     1      -9.131   9.056  65.353  1.00  0.00    -0.193 C  
HETATM   15  N   UNL     1      -8.454  11.138  64.397  1.00  0.00    -0.349 NA 
HETATM   16  C   UNL     1      -8.271   9.694  64.261  1.00  0.00    -0.156 C  
HETATM   17  C   UNL     1     -10.336  10.003  65.414  1.00  0.00    -0.111 C  
HETATM   18  C   UNL     1      -9.865  11.327  64.804  1.00  0.00    -0.266 C  
HETATM   19  H   UNL     1      -8.195  11.663  63.562  1.00  0.00     0.000 HD 
BRANCH  18  20
HETATM   20  C   UNL     1      -9.987  12.549  65.739  1.00  0.00    -0.259 C  
BRANCH  20  21
HETATM   21  N   UNL     1     -10.186  13.804  64.934  1.00  0.00    -0.556 N  
HETATM   22  H   UNL     1      -9.455  14.188  64.336  1.00  0.00     0.000 HD 
BRANCH  21  23
HETATM   23  S   UNL     1     -11.683  14.526  65.087  1.00  0.00    -0.377 S  
HETATM   24  O   UNL     1     -12.611  13.827  64.231  1.00  0.00    -0.654 OA 
HETATM   25  N   UNL     1     -11.314  15.942  64.325  1.00  0.00    -0.780 N  
HETATM   26  O   UNL     1     -11.930  14.804  66.476  1.00  0.00    -0.309 OA 
HETATM   27  H2  UNL     1     -10.449  16.270  63.897  1.00  0.00     0.000 HD 
HETATM   28  H1  UNL     1     -12.229  16.382  64.419  1.00  0.00     0.000 HD 
ENDBRANCH  21  23
ENDBRANCH  20  21
ENDBRANCH  18  20
ENDBRANCH  13  14
ENDBRANCH   3  13
BRANCH  10  29
HETATM   29  C   UNL     1     -11.653   6.266  71.885  1.00  0.00    -0.317 C  
HETATM   30  H   UNL     1     -12.541   7.359  73.201  1.00  0.00     0.000 HD 
HETATM   31  O   UNL     1     -11.864   7.511  72.552  1.00  0.00    -0.285 OA 
HETATM   32  C   UNL     1     -11.231   5.214  72.898  1.00  0.00    -0.362 C  
ENDBRANCH  10  29
TORSDOF 6
ENDMDL
MODEL      116
REMARK 921   NORMALIZED FREE ENERGY PREDICTED BY IDOCK:   -5.17 KCAL/MOL
REMARK 922        TOTAL FREE ENERGY PREDICTED BY IDOCK:   -7.87 KCAL/MOL
REMARK 923 INTER-LIGAND FREE ENERGY PREDICTED BY IDOCK:   -7.15 KCAL/MOL
REMARK 924 INTRA-LIGAND FREE ENERGY PREDICTED BY IDOCK:   -0.72 KCAL/MOL
REMARK 927      BINDING AFFINITY PREDICTED BY RF-SCORE:    0.00 PKD
ROOT
HETATM    1  C   UNL     1      -8.291   5.773  68.944  1.00  0.00    -0.101 C  
HETATM    2  C   UNL     1      -7.539   6.568  67.867  1.00  0.00    -0.103 C  
HETATM    3  C   UNL     1      -8.156   7.944  67.992  1.00  0.00    -0.126 C  
HETATM    4  C   UNL     1      -7.657   5.879  66.513  1.00  0.00    -0.095 C  
HETATM    5  O   UNL     1     -11.098   8.828  69.987  1.00  0.00    -0.237 OA 
HETATM    6  C   UNL     1      -9.101   7.964  68.957  1.00  0.00    -0.144 C  
HETATM    7  N   UNL     1      -9.201   6.744  69.614  1.00  0.00    -0.146 N  
HETATM    8  O   UNL     1     -11.457   6.200  69.788  1.00  0.00    -0.433 OA 
HETATM    9  C   UNL     1      -9.951   9.140  69.345  1.00  0.00    -0.191 C  
HETATM   10  C   UNL     1      -9.556   4.892  68.689  1.00  0.00    -0.215 C  
HETATM   11  O   UNL     1      -9.647  10.306  69.143  1.00  0.00    -0.196 OA 
HETATM   12  C   UNL     1     -10.309   5.949  69.503  1.00  0.00    -0.248 C  
ENDROOT
BRANCH   3  13
HETATM   13  S   UNL     1      -7.750   9.265  66.963  1.00  0.00    -0.095 SA 
BRANCH  13  14
HETATM   14  C   UNL     1      -8.699   9.015  65.422  1.00  0.00    -0.189 C  
HETATM   15  N   UNL     1      -8.524  11.022  64.140  1.00  0.00    -0.369 NA 
HETATM   16  C   UNL     1      -8.113   9.619  64.145  1.00  0.00    -0.151 C  
HETATM   17  C   UNL     1     -10.031   9.762  65.556  1.00  0.00    -0.329 C  
HETATM   18  C   UNL     1      -9.881  11.046  64.732  1.00  0.00    -0.276 C  
HETATM   19  H   UNL     1      -8.471  11.460  63.220  1.00  0.00     0.000 HD 
BRANCH  18  20
HETATM   20  C   UNL     1     -10.090  12.352  65.528  1.00  0.00    -0.267 C  
BRANCH  20  21
HETATM   21  N   UNL     1     -10.628  13.430  64.628  1.00  0.00    -0.396 N  
HETATM   22  H   UNL     1     -10.037  13.935  63.969  1.00  0.00     0.000 HD 
BRANCH  21  23
HETATM   23  S   UNL     1     -12.261  13.745  64.781  1.00  0.00    -0.403 S  
HETATM   24  O   UNL     1     -12.607  13.659  66.180  1.00  0.00    -0.412 OA 
HETATM   25  N   UNL     1     -12.810  12.359  64.075  1.00  0.00    -0.756 N  
HETATM   26  O   UNL     1     -12.605  14.856  63.938  1.00  0.00    -0.831 OA 
HETATM   27  H2  UNL     1     -12.313  11.564  63.674  1.00  0.00     0.000 HD 
HETATM   28  H1  UNL     1     -13.807  12.551  64.169  1.00  0.00     0.000 HD 
ENDBRANCH  21  23
ENDBRANCH  20  21
ENDBRANCH  18  20
ENDBRANCH  13  14
ENDBRANCH   3  13
BRANCH  10  29
HETATM   29  C   UNL     1      -9.442   3.482  69.234  1.00  0.00    -0.163 C  
HETATM   30  H   UNL     1      -8.340   2.626  70.563  1.00  0.00     0.000 HD 
HETATM   31  O   UNL     1      -8.411   3.510  70.222  1.00  0.00    -0.055 OA 
HETATM   32  C   UNL     1      -9.070   2.490  68.144  1.00  0.00    -0.229 C  
ENDBRANCH  10  29
TORSDOF 6
ENDMDL
MODEL      117
REMARK 921   NORMALIZED FREE ENERGY PREDICTED BY IDOCK:   -5.17 KCAL/MOL
REMARK 922        TOTAL FREE ENERGY PREDICTED BY IDOCK:   -7.87 KCAL/MOL
REMARK 923 INTER-LIGAND FREE ENERGY PREDICTED BY IDOCK:   -6.84 KCAL/MOL
REMARK 924 INTRA-LIGAND FREE ENERGY PREDICTED BY IDOCK:   -1.03 KCAL/MOL
REMARK 927      BINDING AFFINITY PREDICTED BY RF-SCORE:    0.00 PKD
ROOT
HETATM    1  C   UNL     1      -8.933   5.675  69.532  1.00  0.00    -0.118 C  
HETATM    2  C   UNL     1     -10.193   6.544  69.415  1.00  0.00    -0.214 C  
HETATM    3  C   UNL     1     -10.935   6.209  70.690  1.00  0.00    -0.311 C  
HETATM    4  C   UNL     1     -10.915   6.266  68.102  1.00  0.00    -0.412 C  
HETATM    5  O   UNL     1     -10.093   3.538  73.052  1.00  0.00    -0.135 OA 
HETATM    6  C   UNL     1     -10.249   5.307  71.425  1.00  0.00    -0.213 C  
HETATM    7  N   UNL     1      -9.027   4.985  70.849  1.00  0.00    -0.131 N  
HETATM    8  O   UNL     1      -8.790   2.671  70.901  1.00  0.00    -0.070 OA 
HETATM    9  C   UNL     1     -10.686   4.710  72.733  1.00  0.00    -0.204 C  
HETATM   10  C   UNL     1      -8.758   4.258  68.897  1.00  0.00    -0.122 C  
HETATM   11  O   UNL     1     -11.487   5.230  73.494  1.00  0.00    -0.207 OA 
HETATM   12  C   UNL     1      -8.770   3.743  70.340  1.00  0.00    -0.079 C  
ENDROOT
BRANCH   3  13
HETATM   13  S   UNL     1     -12.490   6.842  71.080  1.00  0.00    -0.216 SA 
BRANCH  13  14
HETATM   14  C   UNL     1     -12.186   8.379  72.020  1.00  0.00    -0.362 C  
HETATM   15  N   UNL     1     -12.696  10.212  70.576  1.00  0.00    -0.524 NA 
HETATM   16  C   UNL     1     -13.161   9.534  71.785  1.00  0.00    -0.418 C  
HETATM   17  C   UNL     1     -10.855   8.974  71.545  1.00  0.00    -0.416 C  
HETATM   18  C   UNL     1     -11.218  10.137  70.616  1.00  0.00    -0.340 C  
HETATM   19  H   UNL     1     -13.055  11.162  70.477  1.00  0.00     0.000 HD 
BRANCH  18  20
HETATM   20  C   UNL     1     -10.654  10.020  69.184  1.00  0.00    -0.218 C  
BRANCH  20  21
HETATM   21  N   UNL     1     -11.659  10.523  68.185  1.00  0.00    -0.469 N  
HETATM   22  H   UNL     1     -12.484   9.984  67.923  1.00  0.00     0.000 HD 
BRANCH  21  23
HETATM   23  S   UNL     1     -11.333  12.025  67.532  1.00  0.00    -0.333 S  
HETATM   24  O   UNL     1      -9.905  12.229  67.562  1.00  0.00    -0.189 OA 
HETATM   25  N   UNL     1     -11.963  12.929  68.760  1.00  0.00    -0.298 N  
HETATM   26  O   UNL     1     -12.145  12.213  66.361  1.00  0.00    -0.630 OA 
HETATM   27  H2  UNL     1     -12.408  12.658  69.636  1.00  0.00     0.000 HD 
HETATM   28  H1  UNL     1     -11.764  13.847  68.361  1.00  0.00     0.000 HD 
ENDBRANCH  21  23
ENDBRANCH  20  21
ENDBRANCH  18  20
ENDBRANCH  13  14
ENDBRANCH   3  13
BRANCH  10  29
HETATM   29  C   UNL     1      -7.498   4.108  68.068  1.00  0.00    -0.068 C  
HETATM   30  H   UNL     1      -5.758   4.936  68.081  1.00  0.00     0.000 HD 
HETATM   31  O   UNL     1      -6.547   5.031  68.601  1.00  0.00    -0.045 OA 
HETATM   32  C   UNL     1      -7.751   4.431  66.604  1.00  0.00    -0.094 C  
ENDBRANCH  10  29
TORSDOF 6
ENDMDL
MODEL      118
REMARK 921   NORMALIZED FREE ENERGY PREDICTED BY IDOCK:   -5.17 KCAL/MOL
REMARK 922        TOTAL FREE ENERGY PREDICTED BY IDOCK:   -7.87 KCAL/MOL
REMARK 923 INTER-LIGAND FREE ENERGY PREDICTED BY IDOCK:   -6.83 KCAL/MOL
REMARK 924 INTRA-LIGAND FREE ENERGY PREDICTED BY IDOCK:   -1.03 KCAL/MOL
REMARK 927      BINDING AFFINITY PREDICTED BY RF-SCORE:    0.00 PKD
ROOT
HETATM    1  C   UNL     1     -10.455  12.203  66.433  1.00  0.00    -0.230 C  
HETATM    2  C   UNL     1     -10.210  10.939  67.270  1.00  0.00    -0.242 C  
HETATM    3  C   UNL     1      -9.700   9.961  66.234  1.00  0.00    -0.222 C  
HETATM    4  C   UNL     1     -11.473  10.545  68.027  1.00  0.00    -0.230 C  
HETATM    5  O   UNL     1      -9.684  10.457  62.604  1.00  0.00    -0.298 OA 
HETATM    6  C   UNL     1      -9.654  10.533  65.011  1.00  0.00    -0.276 C  
HETATM    7  N   UNL     1     -10.020  11.871  65.047  1.00  0.00    -0.256 N  
HETATM    8  O   UNL     1     -11.509  12.261  63.302  1.00  0.00    -0.417 OA 
HETATM    9  C   UNL     1      -9.235   9.864  63.732  1.00  0.00    -0.243 C  
HETATM   10  C   UNL     1     -11.828  12.617  65.814  1.00  0.00    -0.497 C  
HETATM   11  O   UNL     1      -8.515   8.879  63.674  1.00  0.00    -0.187 OA 
HETATM   12  C   UNL     1     -11.169  12.326  64.461  1.00  0.00    -0.326 C  
ENDROOT
BRANCH   3  13
HETATM   13  S   UNL     1      -9.322   8.316  66.584  1.00  0.00    -0.208 SA 
BRANCH  13  14
HETATM   14  C   UNL     1      -8.867   8.270  68.353  1.00  0.00    -0.137 C  
HETATM   15  N   UNL     1      -7.891   6.133  68.784  1.00  0.00    -0.099 NA 
HETATM   16  C   UNL     1      -7.563   7.555  68.711  1.00  0.00    -0.106 C  
HETATM   17  C   UNL     1      -9.914   7.428  69.093  1.00  0.00    -0.173 C  
HETATM   18  C   UNL     1      -9.260   6.065  69.343  1.00  0.00    -0.132 C  
HETATM   19  H   UNL     1      -7.208   5.582  69.305  1.00  0.00     0.000 HD 
BRANCH  18  20
HETATM   20  C   UNL     1     -10.020   4.864  68.741  1.00  0.00    -0.136 C  
BRANCH  20  21
HETATM   21  N   UNL     1      -9.075   3.981  67.972  1.00  0.00    -0.129 N  
HETATM   22  H   UNL     1      -8.396   3.377  68.434  1.00  0.00     0.000 HD 
BRANCH  21  23
HETATM   23  S   UNL     1      -9.214   4.057  66.310  1.00  0.00    -0.170 S  
HETATM   24  O   UNL     1      -8.378   5.133  65.836  1.00  0.00    -0.113 OA 
HETATM   25  N   UNL     1     -10.768   4.607  66.253  1.00  0.00    -0.492 N  
HETATM   26  O   UNL     1      -9.181   2.722  65.776  1.00  0.00    -0.149 OA 
HETATM   27  H2  UNL     1     -11.431   4.830  66.994  1.00  0.00     0.000 HD 
HETATM   28  H1  UNL     1     -10.853   4.653  65.238  1.00  0.00     0.000 HD 
ENDBRANCH  21  23
ENDBRANCH  20  21
ENDBRANCH  18  20
ENDBRANCH  13  14
ENDBRANCH   3  13
BRANCH  10  29
HETATM   29  C   UNL     1     -12.247  14.035  66.142  1.00  0.00    -0.465 C  
HETATM   30  H   UNL     1     -13.550  15.265  65.430  1.00  0.00     0.000 HD 
HETATM   31  O   UNL     1     -13.288  14.375  65.224  1.00  0.00    -0.574 OA 
HETATM   32  C   UNL     1     -11.093  15.011  65.981  1.00  0.00    -0.329 C  
ENDBRANCH  10  29
TORSDOF 6
ENDMDL
MODEL      119
REMARK 921   NORMALIZED FREE ENERGY PREDICTED BY IDOCK:   -5.16 KCAL/MOL
REMARK 922        TOTAL FREE ENERGY PREDICTED BY IDOCK:   -7.85 KCAL/MOL
REMARK 923 INTER-LIGAND FREE ENERGY PREDICTED BY IDOCK:   -6.52 KCAL/MOL
REMARK 924 INTRA-LIGAND FREE ENERGY PREDICTED BY IDOCK:   -1.32 KCAL/MOL
REMARK 927      BINDING AFFINITY PREDICTED BY RF-SCORE:    0.00 PKD
ROOT
HETATM    1  C   UNL     1     -11.300  11.342  68.053  1.00  0.00    -0.304 C  
HETATM    2  C   UNL     1     -10.544  10.034  68.328  1.00  0.00    -0.264 C  
HETATM    3  C   UNL     1     -11.078   9.632  69.686  1.00  0.00    -0.193 C  
HETATM    4  C   UNL     1      -9.039  10.250  68.215  1.00  0.00    -0.139 C  
HETATM    5  O   UNL     1     -13.179  11.678  71.882  1.00  0.00    -0.485 OA 
HETATM    6  C   UNL     1     -11.978  10.533  70.136  1.00  0.00    -0.316 C  
HETATM    7  N   UNL     1     -12.217  11.540  69.210  1.00  0.00    -0.246 N  
HETATM    8  O   UNL     1     -12.158  13.580  70.327  1.00  0.00    -0.335 OA 
HETATM    9  C   UNL     1     -12.694  10.490  71.457  1.00  0.00    -0.452 C  
HETATM   10  C   UNL     1     -10.751  12.774  68.351  1.00  0.00    -0.269 C  
HETATM   11  O   UNL     1     -12.874   9.474  72.110  1.00  0.00    -0.388 OA 
HETATM   12  C   UNL     1     -11.837  12.834  69.430  1.00  0.00    -0.300 C  
ENDROOT
BRANCH   3  13
HETATM   13  S   UNL     1     -10.525   8.251  70.555  1.00  0.00    -0.215 SA 
BRANCH  13  14
HETATM   14  C   UNL     1      -9.345   8.878  71.800  1.00  0.00    -0.234 C  
HETATM   15  N   UNL     1      -7.674   7.200  72.112  1.00  0.00    -0.090 NA 
HETATM   16  C   UNL     1      -7.868   8.548  71.579  1.00  0.00    -0.125 C  
HETATM   17  C   UNL     1      -9.640   8.179  73.132  1.00  0.00    -0.307 C  
HETATM   18  C   UNL     1      -8.559   7.105  73.295  1.00  0.00    -0.131 C  
HETATM   19  H   UNL     1      -6.699   6.976  72.311  1.00  0.00     0.000 HD 
BRANCH  18  20
HETATM   20  C   UNL     1      -9.096   5.665  73.441  1.00  0.00    -0.129 C  
BRANCH  20  21
HETATM   21  N   UNL     1      -8.477   4.770  72.403  1.00  0.00    -0.115 N  
HETATM   22  H   UNL     1      -7.489   4.516  72.422  1.00  0.00     0.000 HD 
BRANCH  21  23
HETATM   23  S   UNL     1      -9.516   4.219  71.218  1.00  0.00    -0.172 S  
HETATM   24  O   UNL     1      -9.363   2.788  71.115  1.00  0.00    -0.116 OA 
HETATM   25  N   UNL     1      -8.727   4.871  69.925  1.00  0.00    -0.092 N  
HETATM   26  O   UNL     1     -10.784   4.880  71.363  1.00  0.00    -0.104 OA 
HETATM   27  H2  UNL     1      -7.876   5.431  69.868  1.00  0.00     0.000 HD 
HETATM   28  H1  UNL     1      -9.362   4.534  69.202  1.00  0.00     0.000 HD 
ENDBRANCH  21  23
ENDBRANCH  20  21
ENDBRANCH  18  20
ENDBRANCH  13  14
ENDBRANCH   3  13
BRANCH  10  29
HETATM   29  C   UNL     1     -10.830  13.720  67.169  1.00  0.00    -0.283 C  
HETATM   30  H   UNL     1     -12.267  14.530  66.173  1.00  0.00     0.000 HD 
HETATM   31  O   UNL     1     -12.218  13.937  66.914  1.00  0.00    -0.424 OA 
HETATM   32  C   UNL     1     -10.175  13.125  65.933  1.00  0.00    -0.294 C  
ENDBRANCH  10  29
TORSDOF 6
ENDMDL
MODEL      120
REMARK 921   NORMALIZED FREE ENERGY PREDICTED BY IDOCK:   -5.15 KCAL/MOL
REMARK 922        TOTAL FREE ENERGY PREDICTED BY IDOCK:   -7.84 KCAL/MOL
REMARK 923 INTER-LIGAND FREE ENERGY PREDICTED BY IDOCK:   -6.53 KCAL/MOL
REMARK 924 INTRA-LIGAND FREE ENERGY PREDICTED BY IDOCK:   -1.30 KCAL/MOL
REMARK 927      BINDING AFFINITY PREDICTED BY RF-SCORE:    0.00 PKD
ROOT
HETATM    1  C   UNL     1      -9.518  11.959  67.281  1.00  0.00    -0.175 C  
HETATM    2  C   UNL     1      -8.653  12.609  68.371  1.00  0.00    -0.122 C  
HETATM    3  C   UNL     1      -9.126  14.046  68.344  1.00  0.00    -0.191 C  
HETATM    4  C   UNL     1      -7.174  12.364  68.097  1.00  0.00    -0.100 C  
HETATM    5  O   UNL     1     -11.344  15.552  65.848  1.00  0.00    -0.195 OA 
HETATM    6  C   UNL     1     -10.088  14.220  67.412  1.00  0.00    -0.247 C  
HETATM    7  N   UNL     1     -10.426  13.029  66.782  1.00  0.00    -0.258 N  
HETATM    8  O   UNL     1     -10.512  13.421  64.491  1.00  0.00    -0.404 OA 
HETATM    9  C   UNL     1     -10.772  15.514  67.071  1.00  0.00    -0.321 C  
HETATM   10  C   UNL     1      -9.083  11.751  65.796  1.00  0.00    -0.088 C  
HETATM   11  O   UNL     1     -10.856  16.468  67.829  1.00  0.00    -0.341 OA 
HETATM   12  C   UNL     1     -10.148  12.801  65.463  1.00  0.00    -0.264 C  
ENDROOT
BRANCH   3  13
HETATM   13  S   UNL     1      -8.445  15.290  69.323  1.00  0.00    -0.221 SA 
BRANCH  13  14
HETATM   14  C   UNL     1      -6.791  15.631  68.626  1.00  0.00    -0.120 C  
HETATM   15  N   UNL     1      -6.600  17.997  68.363  1.00  0.00    -0.204 NA 
HETATM   16  C   UNL     1      -6.070  16.878  69.140  1.00  0.00    -0.184 C  
HETATM   17  C   UNL     1      -6.957  15.942  67.134  1.00  0.00    -0.227 C  
HETATM   18  C   UNL     1      -6.840  17.464  67.003  1.00  0.00    -0.182 C  
HETATM   19  H   UNL     1      -6.003  18.824  68.379  1.00  0.00     0.000 HD 
BRANCH  18  20
HETATM   20  C   UNL     1      -8.067  18.155  66.371  1.00  0.00    -0.261 C  
BRANCH  20  21
HETATM   21  N   UNL     1      -8.917  18.788  67.439  1.00  0.00    -0.271 N  
HETATM   22  H   UNL     1      -8.753  18.625  68.433  1.00  0.00     0.000 HD 
BRANCH  21  23
HETATM   23  S   UNL     1     -10.146  19.775  66.889  1.00  0.00    -0.473 S  
HETATM   24  O   UNL     1     -10.290  19.565  65.468  1.00  0.00    -0.442 OA 
HETATM   25  N   UNL     1      -9.361  21.213  67.075  1.00  0.00    -0.563 N  
HETATM   26  O   UNL     1     -11.239  19.725  67.820  1.00  0.00    -0.080 OA 
HETATM   27  H2  UNL     1      -8.425  21.431  67.417  1.00  0.00     0.000 HD 
HETATM   28  H1  UNL     1     -10.111  21.816  66.739  1.00  0.00     0.000 HD 
ENDBRANCH  21  23
ENDBRANCH  20  21
ENDBRANCH  18  20
ENDBRANCH  13  14
ENDBRANCH   3  13
BRANCH  10  29
HETATM   29  C   UNL     1      -9.261  10.332  65.296  1.00  0.00    -0.199 C  
HETATM   30  H   UNL     1     -10.570   9.432  64.204  1.00  0.00     0.000 HD 
HETATM   31  O   UNL     1     -10.459  10.322  64.517  1.00  0.00    -0.159 OA 
HETATM   32  C   UNL     1      -9.398   9.348  66.446  1.00  0.00    -0.241 C  
ENDBRANCH  10  29
TORSDOF 6
ENDMDL
MODEL      121
REMARK 921   NORMALIZED FREE ENERGY PREDICTED BY IDOCK:   -5.14 KCAL/MOL
REMARK 922        TOTAL FREE ENERGY PREDICTED BY IDOCK:   -7.82 KCAL/MOL
REMARK 923 INTER-LIGAND FREE ENERGY PREDICTED BY IDOCK:   -6.59 KCAL/MOL
REMARK 924 INTRA-LIGAND FREE ENERGY PREDICTED BY IDOCK:   -1.24 KCAL/MOL
REMARK 927      BINDING AFFINITY PREDICTED BY RF-SCORE:    0.00 PKD
ROOT
HETATM    1  C   UNL     1     -11.305  14.131  70.557  1.00  0.00     0.054 C  
HETATM    2  C   UNL     1     -11.256  12.924  69.609  1.00  0.00    -0.072 C  
HETATM    3  C   UNL     1     -10.155  13.316  68.647  1.00  0.00    -0.146 C  
HETATM    4  C   UNL     1     -12.632  12.656  69.011  1.00  0.00     0.667 C  
HETATM    5  O   UNL     1      -8.539  16.595  68.419  1.00  0.00    -0.204 OA 
HETATM    6  C   UNL     1      -9.648  14.528  68.961  1.00  0.00    -0.102 C  
HETATM    7  N   UNL     1     -10.223  15.052  70.111  1.00  0.00    -0.063 N  
HETATM    8  O   UNL     1     -10.771  17.275  69.697  1.00  0.00    -0.164 OA 
HETATM    9  C   UNL     1      -8.569  15.260  68.215  1.00  0.00    -0.159 C  
HETATM   10  C   UNL     1     -12.281  15.343  70.417  1.00  0.00    -0.430 C  
HETATM   11  O   UNL     1      -7.741  14.721  67.497  1.00  0.00    -0.163 OA 
HETATM   12  C   UNL     1     -11.028  16.157  70.081  1.00  0.00    -0.358 C  
ENDROOT
BRANCH   3  13
HETATM   13  S   UNL     1      -9.695  12.360  67.289  1.00  0.00    -0.204 SA 
BRANCH  13  14
HETATM   14  C   UNL     1     -11.022  12.571  66.051  1.00  0.00    -0.283 C  
HETATM   15  N   UNL     1     -10.099  13.788  64.215  1.00  0.00    -0.734 NA 
HETATM   16  C   UNL     1     -10.615  12.470  64.580  1.00  0.00    -0.316 C  
HETATM   17  C   UNL     1     -11.540  14.011  66.148  1.00  0.00    -0.374 C  
HETATM   18  C   UNL     1     -10.922  14.763  64.965  1.00  0.00    -0.414 C  
HETATM   19  H   UNL     1     -10.082  13.955  63.209  1.00  0.00     0.000 HD 
BRANCH  18  20
HETATM   20  C   UNL     1     -10.069  15.990  65.354  1.00  0.00    -0.225 C  
BRANCH  20  21
HETATM   21  N   UNL     1     -10.837  16.884  66.289  1.00  0.00    -0.067 N  
HETATM   22  H   UNL     1     -11.515  16.518  66.958  1.00  0.00     0.000 HD 
BRANCH  21  23
HETATM   23  S   UNL     1     -10.504  18.514  66.160  1.00  0.00    -0.331 S  
HETATM   24  O   UNL     1     -10.957  18.965  64.866  1.00  0.00    -0.389 OA 
HETATM   25  N   UNL     1      -8.862  18.388  66.065  1.00  0.00    -0.077 N  
HETATM   26  O   UNL     1     -10.844  19.162  67.397  1.00  0.00    -0.483 OA 
HETATM   27  H2  UNL     1      -8.247  17.575  66.081  1.00  0.00     0.000 HD 
HETATM   28  H1  UNL     1      -8.659  19.384  65.986  1.00  0.00     0.000 HD 
ENDBRANCH  21  23
ENDBRANCH  20  21
ENDBRANCH  18  20
ENDBRANCH  13  14
ENDBRANCH   3  13
BRANCH  10  29
HETATM   29  C   UNL     1     -13.053  15.660  71.682  1.00  0.00    -0.475 C  
HETATM   30  H   UNL     1     -12.642  16.573  73.329  1.00  0.00     0.000 HD 
HETATM   31  O   UNL     1     -12.158  16.374  72.536  1.00  0.00    -0.516 OA 
HETATM   32  C   UNL     1     -13.521  14.395  72.383  1.00  0.00    -0.557 C  
ENDBRANCH  10  29
TORSDOF 6
ENDMDL
MODEL      122
REMARK 921   NORMALIZED FREE ENERGY PREDICTED BY IDOCK:   -5.12 KCAL/MOL
REMARK 922        TOTAL FREE ENERGY PREDICTED BY IDOCK:   -7.80 KCAL/MOL
REMARK 923 INTER-LIGAND FREE ENERGY PREDICTED BY IDOCK:   -6.96 KCAL/MOL
REMARK 924 INTRA-LIGAND FREE ENERGY PREDICTED BY IDOCK:   -0.84 KCAL/MOL
REMARK 927      BINDING AFFINITY PREDICTED BY RF-SCORE:    0.00 PKD
ROOT
HETATM    1  C   UNL     1     -11.403   7.162  70.886  1.00  0.00    -0.286 C  
HETATM    2  C   UNL     1     -11.039   8.654  70.891  1.00  0.00    -0.310 C  
HETATM    3  C   UNL     1     -10.656   8.896  69.447  1.00  0.00    -0.217 C  
HETATM    4  C   UNL     1      -9.976   8.943  71.944  1.00  0.00    -0.384 C  
HETATM    5  O   UNL     1     -10.193   6.337  66.867  1.00  0.00    -0.171 OA 
HETATM    6  C   UNL     1     -10.767   7.762  68.721  1.00  0.00    -0.062 C  
HETATM    7  N   UNL     1     -11.262   6.707  69.475  1.00  0.00    -0.329 N  
HETATM    8  O   UNL     1      -9.949   4.834  69.048  1.00  0.00    -0.180 OA 
HETATM    9  C   UNL     1     -10.440   7.605  67.263  1.00  0.00    -0.326 C  
HETATM   10  C   UNL     1     -10.432   6.001  71.271  1.00  0.00    -0.283 C  
HETATM   11  O   UNL     1     -10.424   8.524  66.458  1.00  0.00    -0.256 OA 
HETATM   12  C   UNL     1     -10.497   5.617  69.789  1.00  0.00    -0.306 C  
ENDROOT
BRANCH   3  13
HETATM   13  S   UNL     1     -10.073  10.408  68.859  1.00  0.00    -0.213 SA 
BRANCH  13  14
HETATM   14  C   UNL     1     -11.537  11.298  68.222  1.00  0.00    -0.300 C  
HETATM   15  N   UNL     1     -10.744  13.121  66.898  1.00  0.00    -0.262 NA 
HETATM   16  C   UNL     1     -11.446  11.843  66.796  1.00  0.00    -0.316 C  
HETATM   17  C   UNL     1     -11.714  12.577  69.050  1.00  0.00    -0.368 C  
HETATM   18  C   UNL     1     -11.188  13.721  68.177  1.00  0.00    -0.271 C  
HETATM   19  H   UNL     1     -10.883  13.729  66.091  1.00  0.00     0.000 HD 
BRANCH  18  20
HETATM   20  C   UNL     1     -10.039  14.538  68.807  1.00  0.00    -0.239 C  
BRANCH  20  21
HETATM   21  N   UNL     1      -9.097  15.023  67.739  1.00  0.00    -0.178 N  
HETATM   22  H   UNL     1      -8.264  14.501  67.470  1.00  0.00     0.000 HD 
BRANCH  21  23
HETATM   23  S   UNL     1      -9.509  16.474  67.023  1.00  0.00    -0.246 S  
HETATM   24  O   UNL     1      -9.988  16.198  65.690  1.00  0.00    -0.386 OA 
HETATM   25  N   UNL     1      -7.980  17.070  66.859  1.00  0.00    -0.202 N  
HETATM   26  O   UNL     1     -10.217  17.283  67.977  1.00  0.00    -0.297 OA 
HETATM   27  H2  UNL     1      -7.073  16.678  67.114  1.00  0.00     0.000 HD 
HETATM   28  H1  UNL     1      -8.232  17.956  66.422  1.00  0.00     0.000 HD 
ENDBRANCH  21  23
ENDBRANCH  20  21
ENDBRANCH  18  20
ENDBRANCH  13  14
ENDBRANCH   3  13
BRANCH  10  29
HETATM   29  C   UNL     1     -10.993   5.048  72.307  1.00  0.00    -0.092 C  
HETATM   30  H   UNL     1     -11.278   5.129  74.212  1.00  0.00     0.000 HD 
HETATM   31  O   UNL     1     -10.926   5.727  73.562  1.00  0.00    -0.262 OA 
HETATM   32  C   UNL     1     -10.183   3.764  72.382  1.00  0.00    -0.219 C  
ENDBRANCH  10  29
TORSDOF 6
ENDMDL
MODEL      123
REMARK 921   NORMALIZED FREE ENERGY PREDICTED BY IDOCK:   -5.12 KCAL/MOL
REMARK 922        TOTAL FREE ENERGY PREDICTED BY IDOCK:   -7.80 KCAL/MOL
REMARK 923 INTER-LIGAND FREE ENERGY PREDICTED BY IDOCK:   -6.30 KCAL/MOL
REMARK 924 INTRA-LIGAND FREE ENERGY PREDICTED BY IDOCK:   -1.50 KCAL/MOL
REMARK 927      BINDING AFFINITY PREDICTED BY RF-SCORE:    0.00 PKD
ROOT
HETATM    1  C   UNL     1      -9.861  16.615  67.420  1.00  0.00    -0.254 C  
HETATM    2  C   UNL     1     -10.616  15.540  66.624  1.00  0.00    -0.307 C  
HETATM    3  C   UNL     1      -9.807  14.295  66.918  1.00  0.00    -0.263 C  
HETATM    4  C   UNL     1     -10.746  15.949  65.162  1.00  0.00    -0.449 C  
HETATM    5  O   UNL     1      -6.567  14.164  68.621  1.00  0.00    -0.081 OA 
HETATM    6  C   UNL     1      -8.766  14.576  67.731  1.00  0.00    -0.174 C  
HETATM    7  N   UNL     1      -8.758  15.906  68.128  1.00  0.00    -0.169 N  
HETATM    8  O   UNL     1      -6.592  16.720  67.886  1.00  0.00    -0.132 OA 
HETATM    9  C   UNL     1      -7.726  13.604  68.212  1.00  0.00    -0.140 C  
HETATM   10  C   UNL     1      -8.765  17.561  66.834  1.00  0.00    -0.269 C  
HETATM   11  O   UNL     1      -7.890  12.395  68.275  1.00  0.00    -0.136 OA 
HETATM   12  C   UNL     1      -7.789  16.780  67.720  1.00  0.00    -0.176 C  
ENDROOT
BRANCH   3  13
HETATM   13  S   UNL     1     -10.145  12.756  66.220  1.00  0.00    -0.263 SA 
BRANCH  13  14
HETATM   14  C   UNL     1     -11.465  12.016  67.244  1.00  0.00    -0.335 C  
HETATM   15  N   UNL     1     -10.494  11.422  69.344  1.00  0.00    -0.434 NA 
HETATM   16  C   UNL     1     -11.448  12.349  68.737  1.00  0.00    -0.304 C  
HETATM   17  C   UNL     1     -11.272  10.495  67.246  1.00  0.00    -0.202 C  
HETATM   18  C   UNL     1     -10.640  10.151  68.599  1.00  0.00    -0.210 C  
HETATM   19  H   UNL     1     -10.608  11.321  70.352  1.00  0.00     0.000 HD 
BRANCH  18  20
HETATM   20  C   UNL     1      -9.278   9.429  68.510  1.00  0.00    -0.131 C  
BRANCH  20  21
HETATM   21  N   UNL     1      -8.790   9.410  67.088  1.00  0.00    -0.127 N  
HETATM   22  H   UNL     1      -8.609  10.265  66.563  1.00  0.00     0.000 HD 
BRANCH  21  23
HETATM   23  S   UNL     1      -8.563   7.894  66.426  1.00  0.00    -0.155 S  
HETATM   24  O   UNL     1      -7.175   7.534  66.587  1.00  0.00    -0.079 OA 
HETATM   25  N   UNL     1      -8.758   8.322  64.845  1.00  0.00    -0.395 N  
HETATM   26  O   UNL     1      -9.659   7.047  66.810  1.00  0.00    -0.158 OA 
HETATM   27  H2  UNL     1      -8.954   9.223  64.411  1.00  0.00     0.000 HD 
HETATM   28  H1  UNL     1      -8.620   7.396  64.442  1.00  0.00     0.000 HD 
ENDBRANCH  21  23
ENDBRANCH  20  21
ENDBRANCH  18  20
ENDBRANCH  13  14
ENDBRANCH   3  13
BRANCH  10  29
HETATM   29  C   UNL     1      -9.007  19.030  67.116  1.00  0.00    -0.287 C  
HETATM   30  H   UNL     1     -10.078  20.011  68.383  1.00  0.00     0.000 HD 
HETATM   31  O   UNL     1      -9.926  19.089  68.207  1.00  0.00    -0.350 OA 
HETATM   32  C   UNL     1      -9.605  19.738  65.911  1.00  0.00    -0.318 C  
ENDBRANCH  10  29
TORSDOF 6
ENDMDL
MODEL      124
REMARK 921   NORMALIZED FREE ENERGY PREDICTED BY IDOCK:   -5.12 KCAL/MOL
REMARK 922        TOTAL FREE ENERGY PREDICTED BY IDOCK:   -7.80 KCAL/MOL
REMARK 923 INTER-LIGAND FREE ENERGY PREDICTED BY IDOCK:   -7.58 KCAL/MOL
REMARK 924 INTRA-LIGAND FREE ENERGY PREDICTED BY IDOCK:   -0.21 KCAL/MOL
REMARK 927      BINDING AFFINITY PREDICTED BY RF-SCORE:    0.00 PKD
ROOT
HETATM    1  C   UNL     1     -11.561  13.374  67.166  1.00  0.00    -0.358 C  
HETATM    2  C   UNL     1     -11.470  11.960  67.758  1.00  0.00    -0.389 C  
HETATM    3  C   UNL     1     -11.672  12.217  69.236  1.00  0.00    -0.330 C  
HETATM    4  C   UNL     1     -10.166  11.289  67.346  1.00  0.00    -0.217 C  
HETATM    5  O   UNL     1     -11.740  15.491  70.879  1.00  0.00    -0.304 OA 
HETATM    6  C   UNL     1     -11.844  13.535  69.478  1.00  0.00    -0.334 C  
HETATM    7  N   UNL     1     -11.857  14.283  68.308  1.00  0.00    -0.337 N  
HETATM    8  O   UNL     1     -10.492  16.140  68.622  1.00  0.00    -0.244 OA 
HETATM    9  C   UNL     1     -12.037  14.174  70.824  1.00  0.00    -0.349 C  
HETATM   10  C   UNL     1     -10.338  14.297  66.857  1.00  0.00    -0.268 C  
HETATM   11  O   UNL     1     -12.460  13.589  71.810  1.00  0.00    -0.210 OA 
HETATM   12  C   UNL     1     -10.862  15.170  68.002  1.00  0.00    -0.284 C  
ENDROOT
BRANCH   3  13
HETATM   13  S   UNL     1     -11.595  10.982  70.435  1.00  0.00    -0.227 SA 
BRANCH  13  14
HETATM   14  C   UNL     1     -10.333   9.795  69.855  1.00  0.00    -0.254 C  
HETATM   15  N   UNL     1     -11.039   7.615  70.527  1.00  0.00    -0.254 NA 
HETATM   16  C   UNL     1     -10.839   8.446  69.342  1.00  0.00    -0.082 C  
HETATM   17  C   UNL     1      -9.475   9.385  71.058  1.00  0.00    -0.243 C  
HETATM   18  C   UNL     1      -9.961   7.991  71.469  1.00  0.00    -0.177 C  
HETATM   19  H   UNL     1     -11.075   6.616  70.324  1.00  0.00     0.000 HD 
BRANCH  18  20
HETATM   20  C   UNL     1     -10.465   7.885  72.923  1.00  0.00    -0.355 C  
BRANCH  20  21
HETATM   21  N   UNL     1      -9.926   6.640  73.573  1.00  0.00    -0.203 N  
HETATM   22  H   UNL     1      -9.067   6.640  74.122  1.00  0.00     0.000 HD 
BRANCH  21  23
HETATM   23  S   UNL     1     -10.830   5.256  73.336  1.00  0.00    -0.313 S  
HETATM   24  O   UNL     1     -10.709   4.431  74.513  1.00  0.00    -0.270 OA 
HETATM   25  N   UNL     1      -9.871   4.573  72.181  1.00  0.00    -0.170 N  
HETATM   26  O   UNL     1     -12.086   5.615  72.736  1.00  0.00    -0.181 OA 
HETATM   27  H2  UNL     1      -9.004   4.893  71.750  1.00  0.00     0.000 HD 
HETATM   28  H1  UNL     1     -10.424   3.728  72.036  1.00  0.00     0.000 HD 
ENDBRANCH  21  23
ENDBRANCH  20  21
ENDBRANCH  18  20
ENDBRANCH  13  14
ENDBRANCH   3  13
BRANCH  10  29
HETATM   29  C   UNL     1     -10.329  14.853  65.448  1.00  0.00    -0.388 C  
HETATM   30  H   UNL     1     -10.339  16.625  64.688  1.00  0.00     0.000 HD 
HETATM   31  O   UNL     1     -10.345  16.276  65.572  1.00  0.00    -0.428 OA 
HETATM   32  C   UNL     1     -11.547  14.401  64.660  1.00  0.00    -0.414 C  
ENDBRANCH  10  29
TORSDOF 6
ENDMDL
MODEL      125
REMARK 921   NORMALIZED FREE ENERGY PREDICTED BY IDOCK:   -5.10 KCAL/MOL
REMARK 922        TOTAL FREE ENERGY PREDICTED BY IDOCK:   -7.78 KCAL/MOL
REMARK 923 INTER-LIGAND FREE ENERGY PREDICTED BY IDOCK:   -6.28 KCAL/MOL
REMARK 924 INTRA-LIGAND FREE ENERGY PREDICTED BY IDOCK:   -1.50 KCAL/MOL
REMARK 927      BINDING AFFINITY PREDICTED BY RF-SCORE:    0.00 PKD
ROOT
HETATM    1  C   UNL     1      -8.356   7.952  66.446  1.00  0.00    -0.129 C  
HETATM    2  C   UNL     1      -8.185   9.092  67.460  1.00  0.00    -0.109 C  
HETATM    3  C   UNL     1      -8.740  10.281  66.706  1.00  0.00    -0.126 C  
HETATM    4  C   UNL     1      -6.735   9.184  67.923  1.00  0.00    -0.068 C  
HETATM    5  O   UNL     1      -9.660  10.363  63.161  1.00  0.00    -0.306 OA 
HETATM    6  C   UNL     1      -9.159   9.918  65.474  1.00  0.00    -0.189 C  
HETATM    7  N   UNL     1      -9.029   8.552  65.260  1.00  0.00    -0.110 N  
HETATM    8  O   UNL     1      -8.062   8.236  63.168  1.00  0.00    -0.159 OA 
HETATM    9  C   UNL     1      -9.734  10.829  64.427  1.00  0.00    -0.301 C  
HETATM   10  C   UNL     1      -7.251   7.453  65.462  1.00  0.00    -0.066 C  
HETATM   11  O   UNL     1     -10.268  11.901  64.666  1.00  0.00    -0.260 OA 
HETATM   12  C   UNL     1      -8.138   8.040  64.359  1.00  0.00    -0.123 C  
ENDROOT
BRANCH   3  13
HETATM   13  S   UNL     1      -8.740  11.887  67.330  1.00  0.00    -0.174 SA 
BRANCH  13  14
HETATM   14  C   UNL     1     -10.178  11.990  68.454  1.00  0.00    -0.209 C  
HETATM   15  N   UNL     1     -12.146  11.967  67.101  1.00  0.00    -0.532 NA 
HETATM   16  C   UNL     1     -11.409  11.165  68.076  1.00  0.00    -0.312 C  
HETATM   17  C   UNL     1     -10.718  13.424  68.406  1.00  0.00    -0.271 C  
HETATM   18  C   UNL     1     -11.971  13.375  67.524  1.00  0.00    -0.339 C  
HETATM   19  H   UNL     1     -13.122  11.689  66.998  1.00  0.00     0.000 HD 
BRANCH  18  20
HETATM   20  C   UNL     1     -11.927  14.299  66.289  1.00  0.00    -0.412 C  
BRANCH  20  21
HETATM   21  N   UNL     1     -10.515  14.738  66.014  1.00  0.00    -0.290 N  
HETATM   22  H   UNL     1      -9.771  14.074  65.798  1.00  0.00     0.000 HD 
BRANCH  21  23
HETATM   23  S   UNL     1     -10.246  16.384  66.088  1.00  0.00    -0.360 S  
HETATM   24  O   UNL     1     -10.653  16.963  64.831  1.00  0.00    -0.702 OA 
HETATM   25  N   UNL     1      -8.598  16.330  66.070  1.00  0.00    -0.305 N  
HETATM   26  O   UNL     1     -10.675  16.871  67.370  1.00  0.00    -0.316 OA 
HETATM   27  H2  UNL     1      -7.950  15.543  66.027  1.00  0.00     0.000 HD 
HETATM   28  H1  UNL     1      -8.434  17.335  66.115  1.00  0.00     0.000 HD 
ENDBRANCH  21  23
ENDBRANCH  20  21
ENDBRANCH  18  20
ENDBRANCH  13  14
ENDBRANCH   3  13
BRANCH  10  29
HETATM   29  C   UNL     1      -7.018   5.957  65.506  1.00  0.00    -0.064 C  
HETATM   30  H   UNL     1      -6.084   4.763  66.697  1.00  0.00     0.000 HD 
HETATM   31  O   UNL     1      -6.229   5.702  66.670  1.00  0.00    -0.029 OA 
HETATM   32  C   UNL     1      -6.274   5.470  64.274  1.00  0.00    -0.022 C  
ENDBRANCH  10  29
TORSDOF 6
ENDMDL
MODEL      126
REMARK 921   NORMALIZED FREE ENERGY PREDICTED BY IDOCK:   -5.08 KCAL/MOL
REMARK 922        TOTAL FREE ENERGY PREDICTED BY IDOCK:   -7.74 KCAL/MOL
REMARK 923 INTER-LIGAND FREE ENERGY PREDICTED BY IDOCK:   -7.90 KCAL/MOL
REMARK 924 INTRA-LIGAND FREE ENERGY PREDICTED BY IDOCK:    0.16 KCAL/MOL
REMARK 927      BINDING AFFINITY PREDICTED BY RF-SCORE:    0.00 PKD
ROOT
HETATM    1  C   UNL     1     -10.431  13.643  68.401  1.00  0.00    -0.246 C  
HETATM    2  C   UNL     1     -10.305  15.066  68.963  1.00  0.00    -0.243 C  
HETATM    3  C   UNL     1      -8.879  15.428  68.607  1.00  0.00    -0.186 C  
HETATM    4  C   UNL     1     -10.675  15.093  70.441  1.00  0.00    -0.211 C  
HETATM    5  O   UNL     1      -6.332  13.154  67.280  1.00  0.00    -0.270 OA 
HETATM    6  C   UNL     1      -8.270  14.410  67.959  1.00  0.00    -0.149 C  
HETATM    7  N   UNL     1      -9.131  13.343  67.739  1.00  0.00    -0.191 N  
HETATM    8  O   UNL     1      -8.021  11.385  68.326  1.00  0.00    -0.121 OA 
HETATM    9  C   UNL     1      -6.847  14.387  67.481  1.00  0.00    -0.139 C  
HETATM   10  C   UNL     1     -10.219  12.332  69.223  1.00  0.00     0.321 C  
HETATM   11  O   UNL     1      -6.182  15.385  67.247  1.00  0.00    -0.317 OA 
HETATM   12  C   UNL     1      -8.967  12.137  68.362  1.00  0.00    -0.146 C  
ENDROOT
BRANCH   3  13
HETATM   13  S   UNL     1      -8.133  16.913  69.061  1.00  0.00    -0.094 SA 
BRANCH  13  14
HETATM   14  C   UNL     1      -8.856  18.192  67.975  1.00  0.00    -0.279 C  
HETATM   15  N   UNL     1     -10.964  17.372  67.209  1.00  0.00    -0.110 NA 
HETATM   16  C   UNL     1     -10.369  18.398  68.064  1.00  0.00    -0.384 C  
HETATM   17  C   UNL     1      -8.672  17.743  66.520  1.00  0.00    -0.281 C  
HETATM   18  C   UNL     1     -10.036  17.215  66.065  1.00  0.00    -0.288 C  
HETATM   19  H   UNL     1     -11.924  17.578  66.931  1.00  0.00     0.000 HD 
BRANCH  18  20
HETATM   20  C   UNL     1     -10.033  15.748  65.583  1.00  0.00    -0.345 C  
BRANCH  20  21
HETATM   21  N   UNL     1     -11.085  15.544  64.527  1.00  0.00    -0.703 N  
HETATM   22  H   UNL     1     -11.273  16.239  63.805  1.00  0.00     0.000 HD 
BRANCH  21  23
HETATM   23  S   UNL     1     -11.923  14.103  64.618  1.00  0.00    -0.466 S  
HETATM   24  O   UNL     1     -10.990  13.059  64.964  1.00  0.00    -0.284 OA 
HETATM   25  N   UNL     1     -12.236  13.939  63.007  1.00  0.00    -0.919 N  
HETATM   26  O   UNL     1     -13.166  14.327  65.306  1.00  0.00    -0.704 OA 
HETATM   27  H2  UNL     1     -11.995  14.528  62.210  1.00  0.00     0.000 HD 
HETATM   28  H1  UNL     1     -12.749  13.059  63.063  1.00  0.00     0.000 HD 
ENDBRANCH  21  23
ENDBRANCH  20  21
ENDBRANCH  18  20
ENDBRANCH  13  14
ENDBRANCH   3  13
BRANCH  10  29
HETATM   29  C   UNL     1     -11.360  11.341  69.105  1.00  0.00    -0.282 C  
HETATM   30  H   UNL     1     -12.644  10.907  67.734  1.00  0.00     0.000 HD 
HETATM   31  O   UNL     1     -11.928  11.528  67.808  1.00  0.00    -0.623 OA 
HETATM   32  C   UNL     1     -12.423  11.585  70.163  1.00  0.00    -0.239 C  
ENDBRANCH  10  29
TORSDOF 6
ENDMDL
MODEL      127
REMARK 921   NORMALIZED FREE ENERGY PREDICTED BY IDOCK:   -5.06 KCAL/MOL
REMARK 922        TOTAL FREE ENERGY PREDICTED BY IDOCK:   -7.71 KCAL/MOL
REMARK 923 INTER-LIGAND FREE ENERGY PREDICTED BY IDOCK:   -6.70 KCAL/MOL
REMARK 924 INTRA-LIGAND FREE ENERGY PREDICTED BY IDOCK:   -1.02 KCAL/MOL
REMARK 927      BINDING AFFINITY PREDICTED BY RF-SCORE:    0.00 PKD
ROOT
HETATM    1  C   UNL     1      -8.562   8.088  67.732  1.00  0.00    -0.128 C  
HETATM    2  C   UNL     1      -8.510   9.269  66.753  1.00  0.00    -0.129 C  
HETATM    3  C   UNL     1      -9.522  10.225  67.347  1.00  0.00    -0.153 C  
HETATM    4  C   UNL     1      -8.764   8.794  65.327  1.00  0.00    -0.216 C  
HETATM    5  O   UNL     1     -11.847   9.497  70.083  1.00  0.00    -0.142 OA 
HETATM    6  C   UNL     1     -10.075   9.708  68.466  1.00  0.00    -0.175 C  
HETATM    7  N   UNL     1      -9.521   8.480  68.802  1.00  0.00    -0.143 N  
HETATM    8  O   UNL     1     -11.259   7.020  69.313  1.00  0.00    -0.170 OA 
HETATM    9  C   UNL     1     -11.140  10.350  69.308  1.00  0.00    -0.253 C  
HETATM   10  C   UNL     1      -9.429   6.802  67.542  1.00  0.00    -0.139 C  
HETATM   11  O   UNL     1     -11.360  11.551  69.344  1.00  0.00    -0.252 OA 
HETATM   12  C   UNL     1     -10.239   7.318  68.736  1.00  0.00    -0.182 C  
ENDROOT
BRANCH   3  13
HETATM   13  S   UNL     1      -9.953  11.726  66.619  1.00  0.00    -0.205 SA 
BRANCH  13  14
HETATM   14  C   UNL     1     -11.335  11.356  65.482  1.00  0.00     0.003 C  
HETATM   15  N   UNL     1     -11.048  12.719  63.542  1.00  0.00    -0.558 NA 
HETATM   16  C   UNL     1     -11.009  11.327  63.988  1.00  0.00    -0.303 C  
HETATM   17  C   UNL     1     -12.348  12.502  65.573  1.00  0.00    -0.364 C  
HETATM   18  C   UNL     1     -12.130  13.360  64.322  1.00  0.00    -0.424 C  
HETATM   19  H   UNL     1     -11.156  12.821  62.533  1.00  0.00     0.000 HD 
BRANCH  18  20
HETATM   20  C   UNL     1     -11.778  14.836  64.605  1.00  0.00    -0.422 C  
BRANCH  20  21
HETATM   21  N   UNL     1     -10.309  14.975  64.898  1.00  0.00    -0.453 N  
HETATM   22  H   UNL     1      -9.614  14.335  64.513  1.00  0.00     0.000 HD 
BRANCH  21  23
HETATM   23  S   UNL     1      -9.893  16.246  65.897  1.00  0.00    -0.310 S  
HETATM   24  O   UNL     1      -8.482  16.150  66.185  1.00  0.00    -0.327 OA 
HETATM   25  N   UNL     1     -10.685  15.723  67.245  1.00  0.00    -0.315 N  
HETATM   26  O   UNL     1     -10.533  17.443  65.423  1.00  0.00    -0.648 OA 
HETATM   27  H2  UNL     1     -11.249  14.891  67.415  1.00  0.00     0.000 HD 
HETATM   28  H1  UNL     1     -10.431  16.500  67.855  1.00  0.00     0.000 HD 
ENDBRANCH  21  23
ENDBRANCH  20  21
ENDBRANCH  18  20
ENDBRANCH  13  14
ENDBRANCH   3  13
BRANCH  10  29
HETATM   29  C   UNL     1      -8.650   5.510  67.679  1.00  0.00    -0.108 C  
HETATM   30  H   UNL     1      -7.584   4.709  69.071  1.00  0.00     0.000 HD 
HETATM   31  O   UNL     1      -8.072   5.519  68.985  1.00  0.00    -0.093 OA 
HETATM   32  C   UNL     1      -7.547   5.409  66.639  1.00  0.00    -0.088 C  
ENDBRANCH  10  29
TORSDOF 6
ENDMDL
MODEL      128
REMARK 921   NORMALIZED FREE ENERGY PREDICTED BY IDOCK:   -5.02 KCAL/MOL
REMARK 922        TOTAL FREE ENERGY PREDICTED BY IDOCK:   -7.67 KCAL/MOL
REMARK 923 INTER-LIGAND FREE ENERGY PREDICTED BY IDOCK:   -5.92 KCAL/MOL
REMARK 924 INTRA-LIGAND FREE ENERGY PREDICTED BY IDOCK:   -1.75 KCAL/MOL
REMARK 927      BINDING AFFINITY PREDICTED BY RF-SCORE:    0.00 PKD
ROOT
HETATM    1  C   UNL     1      -9.149  10.666  69.210  1.00  0.00    -0.100 C  
HETATM    2  C   UNL     1      -7.827  11.294  68.746  1.00  0.00    -0.139 C  
HETATM    3  C   UNL     1      -8.295  12.563  68.066  1.00  0.00    -0.171 C  
HETATM    4  C   UNL     1      -7.035  10.308  67.895  1.00  0.00    -0.083 C  
HETATM    5  O   UNL     1     -11.761  13.456  67.289  1.00  0.00    -0.337 OA 
HETATM    6  C   UNL     1      -9.640  12.669  68.114  1.00  0.00    -0.219 C  
HETATM    7  N   UNL     1     -10.221  11.627  68.825  1.00  0.00    -0.204 N  
HETATM    8  O   UNL     1     -12.026  10.827  67.594  1.00  0.00    -0.411 OA 
HETATM    9  C   UNL     1     -10.467  13.772  67.517  1.00  0.00    -0.245 C  
HETATM   10  C   UNL     1      -9.953   9.583  68.423  1.00  0.00    -0.184 C  
HETATM   11  O   UNL     1     -10.047  14.893  67.273  1.00  0.00    -0.234 OA 
HETATM   12  C   UNL     1     -11.001  10.681  68.220  1.00  0.00    -0.263 C  
ENDROOT
BRANCH   3  13
HETATM   13  S   UNL     1      -7.233  13.662  67.270  1.00  0.00     0.181 SA 
BRANCH  13  14
HETATM   14  C   UNL     1      -6.578  14.764  68.572  1.00  0.00    -0.094 C  
HETATM   15  N   UNL     1      -8.248  16.413  69.018  1.00  0.00    -0.235 NA 
HETATM   16  C   UNL     1      -7.576  15.262  69.619  1.00  0.00    -0.176 C  
HETATM   17  C   UNL     1      -6.123  16.069  67.908  1.00  0.00    -0.149 C  
HETATM   18  C   UNL     1      -7.218  17.099  68.204  1.00  0.00    -0.193 C  
HETATM   19  H   UNL     1      -8.703  17.021  69.698  1.00  0.00     0.000 HD 
BRANCH  18  20
HETATM   20  C   UNL     1      -7.865  17.732  66.954  1.00  0.00    -0.224 C  
BRANCH  20  21
HETATM   21  N   UNL     1      -9.351  17.865  67.146  1.00  0.00    -0.260 N  
HETATM   22  H   UNL     1      -9.990  17.082  67.011  1.00  0.00     0.000 HD 
BRANCH  21  23
HETATM   23  S   UNL     1      -9.884  19.382  67.596  1.00  0.00    -0.372 S  
HETATM   24  O   UNL     1      -8.760  20.286  67.551  1.00  0.00    -0.335 OA 
HETATM   25  N   UNL     1     -10.155  19.047  69.188  1.00  0.00    -0.515 N  
HETATM   26  O   UNL     1     -11.146  19.643  66.961  1.00  0.00    -0.412 OA 
HETATM   27  H2  UNL     1     -10.035  18.189  69.726  1.00  0.00     0.000 HD 
HETATM   28  H1  UNL     1     -10.480  19.974  69.463  1.00  0.00     0.000 HD 
ENDBRANCH  21  23
ENDBRANCH  20  21
ENDBRANCH  18  20
ENDBRANCH  13  14
ENDBRANCH   3  13
BRANCH  10  29
HETATM   29  C   UNL     1     -10.309   8.362  69.247  1.00  0.00    -0.214 C  
HETATM   30  H   UNL     1     -10.624   8.034  71.120  1.00  0.00     0.000 HD 
HETATM   31  O   UNL     1     -10.400   8.800  70.604  1.00  0.00    -0.193 OA 
HETATM   32  C   UNL     1      -9.246   7.282  69.135  1.00  0.00    -0.139 C  
ENDBRANCH  10  29
TORSDOF 6
ENDMDL
MODEL      129
REMARK 921   NORMALIZED FREE ENERGY PREDICTED BY IDOCK:   -4.98 KCAL/MOL
REMARK 922        TOTAL FREE ENERGY PREDICTED BY IDOCK:   -7.61 KCAL/MOL
REMARK 923 INTER-LIGAND FREE ENERGY PREDICTED BY IDOCK:   -6.61 KCAL/MOL
REMARK 924 INTRA-LIGAND FREE ENERGY PREDICTED BY IDOCK:   -1.00 KCAL/MOL
REMARK 927      BINDING AFFINITY PREDICTED BY RF-SCORE:    0.00 PKD
ROOT
HETATM    1  C   UNL     1      -9.197   6.227  70.685  1.00  0.00    -0.158 C  
HETATM    2  C   UNL     1      -8.857   6.621  69.240  1.00  0.00    -0.133 C  
HETATM    3  C   UNL     1      -9.606   7.926  69.077  1.00  0.00    -0.155 C  
HETATM    4  C   UNL     1      -9.217   5.494  68.279  1.00  0.00    -0.118 C  
HETATM    5  O   UNL     1     -12.041   9.337  71.421  1.00  0.00    -0.306 OA 
HETATM    6  C   UNL     1     -10.269   8.247  70.209  1.00  0.00    -0.196 C  
HETATM    7  N   UNL     1     -10.033   7.334  71.228  1.00  0.00    -0.188 N  
HETATM    8  O   UNL     1     -12.076   6.795  72.204  1.00  0.00    -0.300 OA 
HETATM    9  C   UNL     1     -11.147   9.448  70.414  1.00  0.00    -0.261 C  
HETATM   10  C   UNL     1     -10.352   5.262  71.103  1.00  0.00    -0.291 C  
HETATM   11  O   UNL     1     -11.067  10.479  69.764  1.00  0.00    -0.254 OA 
HETATM   12  C   UNL     1     -11.013   6.507  71.703  1.00  0.00    -0.249 C  
ENDROOT
BRANCH   3  13
HETATM   13  S   UNL     1      -9.656   8.815  67.602  1.00  0.00    -0.150 SA 
BRANCH  13  14
HETATM   14  C   UNL     1      -8.093   9.758  67.527  1.00  0.00    -0.114 C  
HETATM   15  N   UNL     1      -8.472  11.856  68.603  1.00  0.00    -0.318 NA 
HETATM   16  C   UNL     1      -7.738  10.601  68.753  1.00  0.00    -0.117 C  
HETATM   17  C   UNL     1      -8.228  10.819  66.429  1.00  0.00    -0.155 C  
HETATM   18  C   UNL     1      -8.480  12.147  67.151  1.00  0.00    -0.182 C  
HETATM   19  H   UNL     1      -8.099  12.618  69.171  1.00  0.00     0.000 HD 
BRANCH  18  20
HETATM   20  C   UNL     1      -9.793  12.857  66.759  1.00  0.00    -0.241 C  
BRANCH  20  21
HETATM   21  N   UNL     1      -9.741  13.292  65.320  1.00  0.00    -0.518 N  
HETATM   22  H   UNL     1      -8.904  13.702  64.905  1.00  0.00     0.000 HD 
BRANCH  21  23
HETATM   23  S   UNL     1     -11.146  13.059  64.448  1.00  0.00    -0.392 S  
HETATM   24  O   UNL     1     -11.791  14.339  64.283  1.00  0.00    -0.417 OA 
HETATM   25  N   UNL     1     -11.988  12.255  65.616  1.00  0.00    -0.378 N  
HETATM   26  O   UNL     1     -10.880  12.151  63.366  1.00  0.00    -0.431 OA 
HETATM   27  H2  UNL     1     -11.733  11.986  66.566  1.00  0.00     0.000 HD 
HETATM   28  H1  UNL     1     -12.846  12.113  65.083  1.00  0.00     0.000 HD 
ENDBRANCH  21  23
ENDBRANCH  20  21
ENDBRANCH  18  20
ENDBRANCH  13  14
ENDBRANCH   3  13
BRANCH  10  29
HETATM   29  C   UNL     1      -9.913   4.141  72.023  1.00  0.00    -0.180 C  
HETATM   30  H   UNL     1      -9.513   2.270  71.788  1.00  0.00     0.000 HD 
HETATM   31  O   UNL     1      -9.789   2.972  71.211  1.00  0.00    -0.162 OA 
HETATM   32  C   UNL     1     -10.932   3.887  73.121  1.00  0.00    -0.246 C  
ENDBRANCH  10  29
TORSDOF 6
ENDMDL
MODEL      130
REMARK 921   NORMALIZED FREE ENERGY PREDICTED BY IDOCK:   -4.98 KCAL/MOL
REMARK 922        TOTAL FREE ENERGY PREDICTED BY IDOCK:   -7.61 KCAL/MOL
REMARK 923 INTER-LIGAND FREE ENERGY PREDICTED BY IDOCK:   -6.84 KCAL/MOL
REMARK 924 INTRA-LIGAND FREE ENERGY PREDICTED BY IDOCK:   -0.77 KCAL/MOL
REMARK 927      BINDING AFFINITY PREDICTED BY RF-SCORE:    0.00 PKD
ROOT
HETATM    1  C   UNL     1      -9.180   5.027  72.619  1.00  0.00    -0.131 C  
HETATM    2  C   UNL     1     -10.569   5.593  72.945  1.00  0.00    -0.268 C  
HETATM    3  C   UNL     1     -11.037   6.095  71.597  1.00  0.00    -0.276 C  
HETATM    4  C   UNL     1     -10.480   6.618  74.070  1.00  0.00    -0.309 C  
HETATM    5  O   UNL     1      -9.009   6.359  68.558  1.00  0.00    -0.126 OA 
HETATM    6  C   UNL     1     -10.102   5.874  70.648  1.00  0.00    -0.197 C  
HETATM    7  N   UNL     1      -9.001   5.191  71.149  1.00  0.00    -0.136 N  
HETATM    8  O   UNL     1      -7.079   6.256  70.385  1.00  0.00    -0.067 OA 
HETATM    9  C   UNL     1     -10.194   6.265  69.200  1.00  0.00    -0.187 C  
HETATM   10  C   UNL     1      -7.834   5.802  72.785  1.00  0.00    -0.101 C  
HETATM   11  O   UNL     1     -11.243   6.459  68.605  1.00  0.00    -0.329 OA 
HETATM   12  C   UNL     1      -7.770   5.776  71.254  1.00  0.00    -0.109 C  
ENDROOT
BRANCH   3  13
HETATM   13  S   UNL     1     -12.533   6.916  71.354  1.00  0.00    -0.338 SA 
BRANCH  13  14
HETATM   14  C   UNL     1     -12.345   8.550  72.150  1.00  0.00    -0.382 C  
HETATM   15  N   UNL     1     -12.956  10.204  70.539  1.00  0.00    -0.578 NA 
HETATM   16  C   UNL     1     -13.391   9.611  71.802  1.00  0.00    -0.419 C  
HETATM   17  C   UNL     1     -11.050   9.187  71.632  1.00  0.00    -0.445 C  
HETATM   18  C   UNL     1     -11.477  10.232  70.596  1.00  0.00    -0.349 C  
HETATM   19  H   UNL     1     -13.376  11.114  70.349  1.00  0.00     0.000 HD 
BRANCH  18  20
HETATM   20  C   UNL     1     -10.887  10.023  69.186  1.00  0.00    -0.222 C  
BRANCH  20  21
HETATM   21  N   UNL     1     -10.305  11.309  68.667  1.00  0.00    -0.195 N  
HETATM   22  H   UNL     1      -9.300  11.458  68.583  1.00  0.00     0.000 HD 
BRANCH  21  23
HETATM   23  S   UNL     1     -11.417  12.478  68.237  1.00  0.00    -0.331 S  
HETATM   24  O   UNL     1     -12.159  11.997  67.097  1.00  0.00    -0.587 OA 
HETATM   25  N   UNL     1     -10.342  13.591  67.664  1.00  0.00    -0.236 N  
HETATM   26  O   UNL     1     -12.029  13.003  69.427  1.00  0.00    -0.306 OA 
HETATM   27  H2  UNL     1      -9.325  13.571  67.594  1.00  0.00     0.000 HD 
HETATM   28  H1  UNL     1     -11.022  14.305  67.401  1.00  0.00     0.000 HD 
ENDBRANCH  21  23
ENDBRANCH  20  21
ENDBRANCH  18  20
ENDBRANCH  13  14
ENDBRANCH   3  13
BRANCH  10  29
HETATM   29  C   UNL     1      -6.786   5.051  73.582  1.00  0.00    -0.079 C  
HETATM   30  H   UNL     1      -6.837   3.715  74.971  1.00  0.00     0.000 HD 
HETATM   31  O   UNL     1      -7.494   4.186  74.471  1.00  0.00    -0.073 OA 
HETATM   32  C   UNL     1      -5.911   5.997  74.386  1.00  0.00    -0.063 C  
ENDBRANCH  10  29
TORSDOF 6
ENDMDL
MODEL      131
REMARK 921   NORMALIZED FREE ENERGY PREDICTED BY IDOCK:   -4.98 KCAL/MOL
REMARK 922        TOTAL FREE ENERGY PREDICTED BY IDOCK:   -7.61 KCAL/MOL
REMARK 923 INTER-LIGAND FREE ENERGY PREDICTED BY IDOCK:   -6.55 KCAL/MOL
REMARK 924 INTRA-LIGAND FREE ENERGY PREDICTED BY IDOCK:   -1.05 KCAL/MOL
REMARK 927      BINDING AFFINITY PREDICTED BY RF-SCORE:    0.00 PKD
ROOT
HETATM    1  C   UNL     1     -11.996   6.991  70.958  1.00  0.00    -0.361 C  
HETATM    2  C   UNL     1     -11.413   6.366  69.683  1.00  0.00    -0.446 C  
HETATM    3  C   UNL     1     -10.494   5.300  70.238  1.00  0.00    -0.261 C  
HETATM    4  C   UNL     1     -10.776   7.437  68.805  1.00  0.00    -0.145 C  
HETATM    5  O   UNL     1      -9.559   4.856  73.752  1.00  0.00    -0.127 OA 
HETATM    6  C   UNL     1     -10.521   5.293  71.588  1.00  0.00    -0.214 C  
HETATM    7  N   UNL     1     -11.428   6.214  72.096  1.00  0.00    -0.299 N  
HETATM    8  O   UNL     1     -10.386   7.383  73.816  1.00  0.00    -0.348 OA 
HETATM    9  C   UNL     1      -9.717   4.400  72.489  1.00  0.00    -0.153 C  
HETATM   10  C   UNL     1     -11.443   8.270  71.665  1.00  0.00    -0.333 C  
HETATM   11  O   UNL     1      -9.253   3.321  72.154  1.00  0.00    -0.101 OA 
HETATM   12  C   UNL     1     -11.027   7.320  72.792  1.00  0.00    -0.323 C  
ENDROOT
BRANCH   3  13
HETATM   13  S   UNL     1      -9.491   4.302  69.253  1.00  0.00    -0.192 SA 
BRANCH  13  14
HETATM   14  C   UNL     1      -7.800   4.977  69.410  1.00  0.00    -0.075 C  
HETATM   15  N   UNL     1      -7.521   6.614  67.694  1.00  0.00    -0.095 NA 
HETATM   16  C   UNL     1      -7.627   6.473  69.145  1.00  0.00    -0.100 C  
HETATM   17  C   UNL     1      -6.932   4.348  68.313  1.00  0.00    -0.056 C  
HETATM   18  C   UNL     1      -6.782   5.419  67.227  1.00  0.00    -0.059 C  
HETATM   19  H   UNL     1      -7.101   7.496  67.399  1.00  0.00     0.000 HD 
BRANCH  18  20
HETATM   20  C   UNL     1      -7.285   4.997  65.830  1.00  0.00    -0.076 C  
BRANCH  20  21
HETATM   21  N   UNL     1      -8.725   5.393  65.652  1.00  0.00    -0.148 N  
HETATM   22  H   UNL     1      -9.053   6.344  65.820  1.00  0.00     0.000 HD 
BRANCH  21  23
HETATM   23  S   UNL     1      -9.751   4.171  65.161  1.00  0.00    -0.205 S  
HETATM   24  O   UNL     1      -9.781   4.161  63.718  1.00  0.00    -0.158 OA 
HETATM   25  N   UNL     1     -11.162   4.868  65.655  1.00  0.00    -0.929 N  
HETATM   26  O   UNL     1      -9.510   3.005  65.965  1.00  0.00    -0.111 OA 
HETATM   27  H2  UNL     1     -11.348   5.760  66.114  1.00  0.00     0.000 HD 
HETATM   28  H1  UNL     1     -11.788   4.122  65.355  1.00  0.00     0.000 HD 
ENDBRANCH  21  23
ENDBRANCH  20  21
ENDBRANCH  18  20
ENDBRANCH  13  14
ENDBRANCH   3  13
BRANCH  10  29
HETATM   29  C   UNL     1     -12.496   9.325  71.937  1.00  0.00    -0.382 C  
HETATM   30  H   UNL     1     -14.417   9.317  72.094  1.00  0.00     0.000 HD 
HETATM   31  O   UNL     1     -13.757   8.654  71.924  1.00  0.00    -0.377 OA 
HETATM   32  C   UNL     1     -12.489  10.410  70.872  1.00  0.00    -0.478 C  
ENDBRANCH  10  29
TORSDOF 6
ENDMDL
MODEL      132
REMARK 921   NORMALIZED FREE ENERGY PREDICTED BY IDOCK:   -4.97 KCAL/MOL
REMARK 922        TOTAL FREE ENERGY PREDICTED BY IDOCK:   -7.59 KCAL/MOL
REMARK 923 INTER-LIGAND FREE ENERGY PREDICTED BY IDOCK:   -6.83 KCAL/MOL
REMARK 924 INTRA-LIGAND FREE ENERGY PREDICTED BY IDOCK:   -0.77 KCAL/MOL
REMARK 927      BINDING AFFINITY PREDICTED BY RF-SCORE:    0.00 PKD
ROOT
HETATM    1  C   UNL     1     -11.887  14.932  69.557  1.00  0.00    -0.325 C  
HETATM    2  C   UNL     1     -10.679  15.064  68.618  1.00  0.00    -0.244 C  
HETATM    3  C   UNL     1     -10.584  13.677  68.020  1.00  0.00    -0.249 C  
HETATM    4  C   UNL     1      -9.461  15.572  69.380  1.00  0.00    -0.278 C  
HETATM    5  O   UNL     1     -12.457  10.718  69.096  1.00  0.00    -0.377 OA 
HETATM    6  C   UNL     1     -11.550  12.871  68.513  1.00  0.00    -0.323 C  
HETATM    7  N   UNL     1     -12.402  13.546  69.377  1.00  0.00    -0.207 N  
HETATM    8  O   UNL     1     -12.705  12.229  71.270  1.00  0.00    -0.361 OA 
HETATM    9  C   UNL     1     -11.751  11.420  68.182  1.00  0.00    -0.284 C  
HETATM   10  C   UNL     1     -11.806  14.615  71.084  1.00  0.00    -0.378 C  
HETATM   11  O   UNL     1     -11.351  10.885  67.159  1.00  0.00    -0.394 OA 
HETATM   12  C   UNL     1     -12.445  13.272  70.716  1.00  0.00    -0.324 C  
ENDROOT
BRANCH   3  13
HETATM   13  S   UNL     1      -9.342  13.196  66.927  1.00  0.00    -0.248 SA 
BRANCH  13  14
HETATM   14  C   UNL     1      -7.934  12.666  67.964  1.00  0.00    -0.155 C  
HETATM   15  N   UNL     1      -6.039  12.430  66.530  1.00  0.00    -0.352 NA 
HETATM   16  C   UNL     1      -6.564  13.252  67.618  1.00  0.00    -0.167 C  
HETATM   17  C   UNL     1      -7.714  11.166  67.739  1.00  0.00    -0.112 C  
HETATM   18  C   UNL     1      -6.501  11.052  66.809  1.00  0.00    -0.124 C  
HETATM   19  H   UNL     1      -5.029  12.507  66.411  1.00  0.00     0.000 HD 
BRANCH  18  20
HETATM   20  C   UNL     1      -6.769  10.304  65.486  1.00  0.00    -0.128 C  
BRANCH  20  21
HETATM   21  N   UNL     1      -5.870   9.103  65.373  1.00  0.00    -0.053 N  
HETATM   22  H   UNL     1      -4.896   9.122  65.675  1.00  0.00     0.000 HD 
BRANCH  21  23
HETATM   23  S   UNL     1      -6.574   7.736  64.722  1.00  0.00    -0.044 S  
HETATM   24  O   UNL     1      -7.310   8.127  63.544  1.00  0.00    -0.095 OA 
HETATM   25  N   UNL     1      -7.689   7.486  65.912  1.00  0.00    -0.094 N  
HETATM   26  O   UNL     1      -5.622   6.660  64.751  1.00  0.00    -0.029 OA 
HETATM   27  H2  UNL     1      -7.885   8.000  66.770  1.00  0.00     0.000 HD 
HETATM   28  H1  UNL     1      -8.118   6.651  65.514  1.00  0.00     0.000 HD 
ENDBRANCH  21  23
ENDBRANCH  20  21
ENDBRANCH  18  20
ENDBRANCH  13  14
ENDBRANCH   3  13
BRANCH  10  29
HETATM   29  C   UNL     1     -12.576  15.586  71.956  1.00  0.00    -0.404 C  
HETATM   30  H   UNL     1     -12.192  17.305  72.740  1.00  0.00     0.000 HD 
HETATM   31  O   UNL     1     -11.708  16.696  72.193  1.00  0.00    -0.444 OA 
HETATM   32  C   UNL     1     -12.966  14.957  73.283  1.00  0.00    -0.635 C  
ENDBRANCH  10  29
TORSDOF 6
ENDMDL
MODEL      133
REMARK 921   NORMALIZED FREE ENERGY PREDICTED BY IDOCK:   -4.92 KCAL/MOL
REMARK 922        TOTAL FREE ENERGY PREDICTED BY IDOCK:   -7.52 KCAL/MOL
REMARK 923 INTER-LIGAND FREE ENERGY PREDICTED BY IDOCK:   -6.52 KCAL/MOL
REMARK 924 INTRA-LIGAND FREE ENERGY PREDICTED BY IDOCK:   -1.01 KCAL/MOL
REMARK 927      BINDING AFFINITY PREDICTED BY RF-SCORE:    0.00 PKD
ROOT
HETATM    1  C   UNL     1     -10.621  13.037  68.375  1.00  0.00    -0.251 C  
HETATM    2  C   UNL     1     -10.425  11.538  68.643  1.00  0.00    -0.224 C  
HETATM    3  C   UNL     1     -10.438  10.957  67.245  1.00  0.00    -0.232 C  
HETATM    4  C   UNL     1     -11.483  11.024  69.613  1.00  0.00    -0.375 C  
HETATM    5  O   UNL     1     -11.321  12.733  64.166  1.00  0.00    -0.342 OA 
HETATM    6  C   UNL     1     -10.612  11.926  66.321  1.00  0.00    -0.253 C  
HETATM    7  N   UNL     1     -10.665  13.190  66.894  1.00  0.00    -0.262 N  
HETATM    8  O   UNL     1     -12.463  14.333  65.958  1.00  0.00    -0.442 OA 
HETATM    9  C   UNL     1     -10.712  11.730  64.835  1.00  0.00    -0.295 C  
HETATM   10  C   UNL     1     -11.993  13.783  68.409  1.00  0.00    -0.395 C  
HETATM   11  O   UNL     1     -10.259  10.766  64.236  1.00  0.00    -0.334 OA 
HETATM   12  C   UNL     1     -11.810  13.938  66.896  1.00  0.00    -0.423 C  
ENDROOT
BRANCH   3  13
HETATM   13  S   UNL     1     -10.331   9.269  66.917  1.00  0.00    -0.223 SA 
BRANCH  13  14
HETATM   14  C   UNL     1      -8.559   8.920  66.641  1.00  0.00    -0.123 C  
HETATM   15  N   UNL     1      -8.249   6.563  66.876  1.00  0.00    -0.112 NA 
HETATM   16  C   UNL     1      -8.218   7.636  65.883  1.00  0.00    -0.133 C  
HETATM   17  C   UNL     1      -7.903   8.677  68.006  1.00  0.00    -0.103 C  
HETATM   18  C   UNL     1      -7.729   7.160  68.127  1.00  0.00    -0.117 C  
HETATM   19  H   UNL     1      -7.750   5.723  66.584  1.00  0.00     0.000 HD 
BRANCH  18  20
HETATM   20  C   UNL     1      -8.428   6.525  69.348  1.00  0.00    -0.127 C  
BRANCH  20  21
HETATM   21  N   UNL     1      -8.939   7.596  70.272  1.00  0.00    -0.145 N  
HETATM   22  H   UNL     1      -9.814   8.091  70.101  1.00  0.00     0.000 HD 
BRANCH  21  23
HETATM   23  S   UNL     1      -7.976   7.922  71.597  1.00  0.00    -0.109 S  
HETATM   24  O   UNL     1      -6.974   6.887  71.690  1.00  0.00    -0.067 OA 
HETATM   25  N   UNL     1      -9.099   7.596  72.759  1.00  0.00    -0.150 N  
HETATM   26  O   UNL     1      -7.680   9.328  71.626  1.00  0.00    -0.336 OA 
HETATM   27  H2  UNL     1     -10.070   7.293  72.692  1.00  0.00     0.000 HD 
HETATM   28  H1  UNL     1      -8.511   7.795  73.568  1.00  0.00     0.000 HD 
ENDBRANCH  21  23
ENDBRANCH  20  21
ENDBRANCH  18  20
ENDBRANCH  13  14
ENDBRANCH   3  13
BRANCH  10  29
HETATM   29  C   UNL     1     -11.999  15.019  69.285  1.00  0.00    -0.289 C  
HETATM   30  H   UNL     1     -10.636  16.106  70.108  1.00  0.00     0.000 HD 
HETATM   31  O   UNL     1     -10.632  15.330  69.559  1.00  0.00    -0.240 OA 
HETATM   32  C   UNL     1     -12.734  14.775  70.593  1.00  0.00    -0.415 C  
ENDBRANCH  10  29
TORSDOF 6
ENDMDL
MODEL      134
REMARK 921   NORMALIZED FREE ENERGY PREDICTED BY IDOCK:   -4.91 KCAL/MOL
REMARK 922        TOTAL FREE ENERGY PREDICTED BY IDOCK:   -7.52 KCAL/MOL
REMARK 923 INTER-LIGAND FREE ENERGY PREDICTED BY IDOCK:   -6.28 KCAL/MOL
REMARK 924 INTRA-LIGAND FREE ENERGY PREDICTED BY IDOCK:   -1.24 KCAL/MOL
REMARK 927      BINDING AFFINITY PREDICTED BY RF-SCORE:    0.00 PKD
ROOT
HETATM    1  C   UNL     1      -8.962   7.613  67.306  1.00  0.00    -0.127 C  
HETATM    2  C   UNL     1      -8.842   9.114  67.005  1.00  0.00    -0.135 C  
HETATM    3  C   UNL     1      -9.531   9.738  68.200  1.00  0.00    -0.135 C  
HETATM    4  C   UNL     1      -9.419   9.433  65.631  1.00  0.00    -0.328 C  
HETATM    5  O   UNL     1     -11.465   7.966  70.757  1.00  0.00    -0.277 OA 
HETATM    6  C   UNL     1      -9.981   8.787  69.048  1.00  0.00    -0.191 C  
HETATM    7  N   UNL     1      -9.633   7.509  68.632  1.00  0.00    -0.150 N  
HETATM    8  O   UNL     1     -11.515   6.153  68.811  1.00  0.00    -0.259 OA 
HETATM    9  C   UNL     1     -10.743   9.022  70.321  1.00  0.00    -0.230 C  
HETATM   10  C   UNL     1     -10.086   6.676  66.757  1.00  0.00    -0.240 C  
HETATM   11  O   UNL     1     -10.712  10.062  70.961  1.00  0.00    -0.268 OA 
HETATM   12  C   UNL     1     -10.567   6.604  68.210  1.00  0.00    -0.241 C  
ENDROOT
BRANCH   3  13
HETATM   13  S   UNL     1      -9.773  11.434  68.379  1.00  0.00    -0.205 SA 
BRANCH  13  14
HETATM   14  C   UNL     1     -11.492  11.757  67.852  1.00  0.00    -0.317 C  
HETATM   15  N   UNL     1     -11.527  13.901  66.800  1.00  0.00    -0.336 NA 
HETATM   16  C   UNL     1     -11.680  12.475  66.515  1.00  0.00    -0.391 C  
HETATM   17  C   UNL     1     -12.118  12.745  68.844  1.00  0.00    -0.175 C  
HETATM   18  C   UNL     1     -12.115  14.107  68.143  1.00  0.00    -0.262 C  
HETATM   19  H   UNL     1     -11.925  14.506  66.081  1.00  0.00     0.000 HD 
BRANCH  18  20
HETATM   20  C   UNL     1     -11.349  15.218  68.892  1.00  0.00    -0.305 C  
BRANCH  20  21
HETATM   21  N   UNL     1     -11.095  16.385  67.978  1.00  0.00    -0.329 N  
HETATM   22  H   UNL     1     -11.835  17.030  67.701  1.00  0.00     0.000 HD 
BRANCH  21  23
HETATM   23  S   UNL     1      -9.521  16.553  67.448  1.00  0.00    -0.230 S  
HETATM   24  O   UNL     1      -9.070  17.880  67.789  1.00  0.00    -0.252 OA 
HETATM   25  N   UNL     1      -9.843  16.567  65.830  1.00  0.00    -0.314 N  
HETATM   26  O   UNL     1      -8.791  15.355  67.760  1.00  0.00    -0.166 OA 
HETATM   27  H2  UNL     1     -10.722  16.496  65.318  1.00  0.00     0.000 HD 
HETATM   28  H1  UNL     1      -8.882  16.669  65.507  1.00  0.00     0.000 HD 
ENDBRANCH  21  23
ENDBRANCH  20  21
ENDBRANCH  18  20
ENDBRANCH  13  14
ENDBRANCH   3  13
BRANCH  10  29
HETATM   29  C   UNL     1      -9.566   5.420  66.087  1.00  0.00    -0.153 C  
HETATM   30  H   UNL     1      -8.807   3.762  66.713  1.00  0.00     0.000 HD 
HETATM   31  O   UNL     1      -9.133   4.549  67.134  1.00  0.00    -0.116 OA 
HETATM   32  C   UNL     1      -8.396   5.723  65.165  1.00  0.00    -0.146 C  
ENDBRANCH  10  29
TORSDOF 6
ENDMDL
MODEL      135
REMARK 921   NORMALIZED FREE ENERGY PREDICTED BY IDOCK:   -4.87 KCAL/MOL
REMARK 922        TOTAL FREE ENERGY PREDICTED BY IDOCK:   -7.47 KCAL/MOL
REMARK 923 INTER-LIGAND FREE ENERGY PREDICTED BY IDOCK:   -6.63 KCAL/MOL
REMARK 924 INTRA-LIGAND FREE ENERGY PREDICTED BY IDOCK:   -0.83 KCAL/MOL
REMARK 927      BINDING AFFINITY PREDICTED BY RF-SCORE:    0.00 PKD
ROOT
HETATM    1  C   UNL     1     -11.123   6.384  71.477  1.00  0.00    -0.273 C  
HETATM    2  C   UNL     1     -11.019   7.903  71.281  1.00  0.00    -0.266 C  
HETATM    3  C   UNL     1     -10.889   8.026  69.778  1.00  0.00    -0.194 C  
HETATM    4  C   UNL     1      -9.883   8.475  72.121  1.00  0.00    -0.388 C  
HETATM    5  O   UNL     1     -10.367   5.276  67.414  1.00  0.00    -0.200 OA 
HETATM    6  C   UNL     1     -10.908   6.809  69.191  1.00  0.00    -0.258 C  
HETATM    7  N   UNL     1     -11.106   5.789  70.111  1.00  0.00    -0.313 N  
HETATM    8  O   UNL     1      -9.569   4.101  69.663  1.00  0.00    -0.181 OA 
HETATM    9  C   UNL     1     -10.768   6.530  67.721  1.00  0.00    -0.296 C  
HETATM   10  C   UNL     1      -9.925   5.439  71.812  1.00  0.00    -0.235 C  
HETATM   11  O   UNL     1     -11.020   7.337  66.840  1.00  0.00    -0.343 OA 
HETATM   12  C   UNL     1     -10.132   4.875  70.403  1.00  0.00    -0.245 C  
ENDROOT
BRANCH   3  13
HETATM   13  S   UNL     1     -10.660   9.527  68.963  1.00  0.00    -0.203 SA 
BRANCH  13  14
HETATM   14  C   UNL     1      -8.867   9.653  68.635  1.00  0.00    -0.128 C  
HETATM   15  N   UNL     1      -8.279  11.965  68.756  1.00  0.00    -0.337 NA 
HETATM   16  C   UNL     1      -8.089  10.690  69.446  1.00  0.00    -0.093 C  
HETATM   17  C   UNL     1      -8.678  10.154  67.198  1.00  0.00    -0.131 C  
HETATM   18  C   UNL     1      -8.313  11.638  67.312  1.00  0.00    -0.158 C  
HETATM   19  H   UNL     1      -7.582  12.669  68.999  1.00  0.00     0.000 HD 
BRANCH  18  20
HETATM   20  C   UNL     1      -9.271  12.597  66.574  1.00  0.00    -0.200 C  
BRANCH  20  21
HETATM   21  N   UNL     1      -8.970  14.023  66.946  1.00  0.00    -0.292 N  
HETATM   22  H   UNL     1      -8.243  14.269  67.616  1.00  0.00     0.000 HD 
BRANCH  21  23
HETATM   23  S   UNL     1      -9.909  15.177  66.187  1.00  0.00    -0.322 S  
HETATM   24  O   UNL     1      -9.029  16.154  65.594  1.00  0.00    -0.370 OA 
HETATM   25  N   UNL     1     -10.533  15.870  67.548  1.00  0.00    -0.292 N  
HETATM   26  O   UNL     1     -10.973  14.522  65.477  1.00  0.00    -0.308 OA 
HETATM   27  H2  UNL     1     -10.391  15.661  68.536  1.00  0.00     0.000 HD 
HETATM   28  H1  UNL     1     -11.106  16.574  67.084  1.00  0.00     0.000 HD 
ENDBRANCH  21  23
ENDBRANCH  20  21
ENDBRANCH  18  20
ENDBRANCH  13  14
ENDBRANCH   3  13
BRANCH  10  29
HETATM   29  C   UNL     1     -10.166   4.543  73.010  1.00  0.00    -0.167 C  
HETATM   30  H   UNL     1     -11.697   4.120  74.103  1.00  0.00     0.000 HD 
HETATM   31  O   UNL     1     -11.546   4.682  73.351  1.00  0.00    -0.317 OA 
HETATM   32  C   UNL     1      -9.309   4.953  74.196  1.00  0.00    -0.125 C  
ENDBRANCH  10  29
TORSDOF 6
ENDMDL
MODEL      136
REMARK 921   NORMALIZED FREE ENERGY PREDICTED BY IDOCK:   -4.86 KCAL/MOL
REMARK 922        TOTAL FREE ENERGY PREDICTED BY IDOCK:   -7.45 KCAL/MOL
REMARK 923 INTER-LIGAND FREE ENERGY PREDICTED BY IDOCK:   -6.70 KCAL/MOL
REMARK 924 INTRA-LIGAND FREE ENERGY PREDICTED BY IDOCK:   -0.75 KCAL/MOL
REMARK 927      BINDING AFFINITY PREDICTED BY RF-SCORE:    0.00 PKD
ROOT
HETATM    1  C   UNL     1     -10.933  14.729  67.161  1.00  0.00    -0.320 C  
HETATM    2  C   UNL     1     -11.348  13.257  67.293  1.00  0.00    -0.347 C  
HETATM    3  C   UNL     1     -10.080  12.610  67.808  1.00  0.00    -0.220 C  
HETATM    4  C   UNL     1     -11.901  12.736  65.972  1.00  0.00    -0.495 C  
HETATM    5  O   UNL     1      -6.784  14.188  68.049  1.00  0.00    -0.114 OA 
HETATM    6  C   UNL     1      -9.096  13.523  67.951  1.00  0.00    -0.204 C  
HETATM    7  N   UNL     1      -9.529  14.809  67.653  1.00  0.00    -0.202 N  
HETATM    8  O   UNL     1      -7.937  15.810  66.285  1.00  0.00    -0.141 OA 
HETATM    9  C   UNL     1      -7.690  13.251  68.404  1.00  0.00    -0.138 C  
HETATM   10  C   UNL     1     -10.422  15.403  65.847  1.00  0.00    -0.354 C  
HETATM   11  O   UNL     1      -7.357  12.285  69.074  1.00  0.00    -0.079 OA 
HETATM   12  C   UNL     1      -9.071  15.495  66.563  1.00  0.00    -0.302 C  
ENDROOT
BRANCH   3  13
HETATM   13  S   UNL     1      -9.920  10.916  68.079  1.00  0.00    -0.176 SA 
BRANCH  13  14
HETATM   14  C   UNL     1      -8.826  10.294  66.755  1.00  0.00    -0.133 C  
HETATM   15  N   UNL     1      -9.834   8.321  65.862  1.00  0.00    -0.440 NA 
HETATM   16  C   UNL     1      -9.507   9.704  65.519  1.00  0.00    -0.266 C  
HETATM   17  C   UNL     1      -8.048   9.092  67.304  1.00  0.00    -0.106 C  
HETATM   18  C   UNL     1      -8.725   7.848  66.721  1.00  0.00    -0.134 C  
HETATM   19  H   UNL     1     -10.005   7.728  65.050  1.00  0.00     0.000 HD 
BRANCH  18  20
HETATM   20  C   UNL     1      -9.257   6.850  67.772  1.00  0.00    -0.119 C  
BRANCH  20  21
HETATM   21  N   UNL     1      -9.148   7.439  69.153  1.00  0.00    -0.135 N  
HETATM   22  H   UNL     1      -8.359   8.019  69.436  1.00  0.00     0.000 HD 
BRANCH  21  23
HETATM   23  S   UNL     1     -10.407   7.079  70.189  1.00  0.00    -0.202 S  
HETATM   24  O   UNL     1     -11.199   8.272  70.367  1.00  0.00    -0.263 OA 
HETATM   25  N   UNL     1      -9.508   6.902  71.560  1.00  0.00    -0.156 N  
HETATM   26  O   UNL     1     -10.956   5.800  69.832  1.00  0.00    -0.344 OA 
HETATM   27  H2  UNL     1      -8.505   6.986  71.723  1.00  0.00     0.000 HD 
HETATM   28  H1  UNL     1     -10.277   6.683  72.192  1.00  0.00     0.000 HD 
ENDBRANCH  21  23
ENDBRANCH  20  21
ENDBRANCH  18  20
ENDBRANCH  13  14
ENDBRANCH   3  13
BRANCH  10  29
HETATM   29  C   UNL     1     -11.156  16.678  65.485  1.00  0.00     0.072 C  
HETATM   30  H   UNL     1     -11.756  17.478  63.837  1.00  0.00     0.000 HD 
HETATM   31  O   UNL     1     -11.295  16.678  64.063  1.00  0.00    -1.120 OA 
HETATM   32  C   UNL     1     -10.380  17.911  65.917  1.00  0.00    -0.259 C  
ENDBRANCH  10  29
TORSDOF 6
ENDMDL
MODEL      137
REMARK 921   NORMALIZED FREE ENERGY PREDICTED BY IDOCK:   -4.84 KCAL/MOL
REMARK 922        TOTAL FREE ENERGY PREDICTED BY IDOCK:   -7.42 KCAL/MOL
REMARK 923 INTER-LIGAND FREE ENERGY PREDICTED BY IDOCK:   -6.46 KCAL/MOL
REMARK 924 INTRA-LIGAND FREE ENERGY PREDICTED BY IDOCK:   -0.96 KCAL/MOL
REMARK 927      BINDING AFFINITY PREDICTED BY RF-SCORE:    0.00 PKD
ROOT
HETATM    1  C   UNL     1      -9.893  14.425  67.636  1.00  0.00    -0.224 C  
HETATM    2  C   UNL     1      -9.263  13.068  67.292  1.00  0.00    -0.213 C  
HETATM    3  C   UNL     1     -10.063  12.114  68.153  1.00  0.00    -0.206 C  
HETATM    4  C   UNL     1      -7.756  13.103  67.519  1.00  0.00    -0.168 C  
HETATM    5  O   UNL     1     -12.448  13.041  70.775  1.00  0.00    -0.354 OA 
HETATM    6  C   UNL     1     -10.991  12.779  68.876  1.00  0.00    -0.231 C  
HETATM    7  N   UNL     1     -11.004  14.137  68.585  1.00  0.00    -0.249 N  
HETATM    8  O   UNL     1     -11.065  15.306  70.596  1.00  0.00    -0.300 OA 
HETATM    9  C   UNL     1     -11.946  12.176  69.866  1.00  0.00    -0.309 C  
HETATM   10  C   UNL     1      -9.347  15.422  68.707  1.00  0.00    -0.209 C  
HETATM   11  O   UNL     1     -12.293  11.005  69.863  1.00  0.00    -0.322 OA 
HETATM   12  C   UNL     1     -10.614  15.078  69.497  1.00  0.00    -0.254 C  
ENDROOT
BRANCH   3  13
HETATM   13  S   UNL     1      -9.748  10.423  68.244  1.00  0.00    -0.155 SA 
BRANCH  13  14
HETATM   14  C   UNL     1      -8.837  10.163  69.806  1.00  0.00    -0.127 C  
HETATM   15  N   UNL     1      -6.914   8.839  69.300  1.00  0.00    -0.057 NA 
HETATM   16  C   UNL     1      -7.309  10.181  69.724  1.00  0.00    -0.158 C  
HETATM   17  C   UNL     1      -9.121   8.737  70.293  1.00  0.00    -0.185 C  
HETATM   18  C   UNL     1      -7.875   7.915  69.944  1.00  0.00    -0.103 C  
HETATM   19  H   UNL     1      -5.938   8.618  69.499  1.00  0.00     0.000 HD 
BRANCH  18  20
HETATM   20  C   UNL     1      -8.139   6.700  69.029  1.00  0.00    -0.116 C  
BRANCH  20  21
HETATM   21  N   UNL     1      -9.191   7.035  68.007  1.00  0.00    -0.130 N  
HETATM   22  H   UNL     1      -9.108   7.836  67.382  1.00  0.00     0.000 HD 
BRANCH  21  23
HETATM   23  S   UNL     1     -10.506   6.007  67.968  1.00  0.00    -0.256 S  
HETATM   24  O   UNL     1     -10.093   4.770  67.351  1.00  0.00    -0.174 OA 
HETATM   25  N   UNL     1     -11.381   6.827  66.835  1.00  0.00    -0.792 N  
HETATM   26  O   UNL     1     -11.198   6.083  69.225  1.00  0.00    -0.384 OA 
HETATM   27  H2  UNL     1     -11.183   7.687  66.323  1.00  0.00     0.000 HD 
HETATM   28  H1  UNL     1     -12.184   6.199  66.811  1.00  0.00     0.000 HD 
ENDBRANCH  21  23
ENDBRANCH  20  21
ENDBRANCH  18  20
ENDBRANCH  13  14
ENDBRANCH   3  13
BRANCH  10  29
HETATM   29  C   UNL     1      -9.156  16.834  68.193  1.00  0.00    -0.227 C  
HETATM   30  H   UNL     1     -10.302  18.141  67.359  1.00  0.00     0.000 HD 
HETATM   31  O   UNL     1     -10.422  17.255  67.682  1.00  0.00    -0.343 OA 
HETATM   32  C   UNL     1      -8.119  16.889  67.083  1.00  0.00    -0.214 C  
ENDBRANCH  10  29
TORSDOF 6
ENDMDL
MODEL      138
REMARK 921   NORMALIZED FREE ENERGY PREDICTED BY IDOCK:   -4.83 KCAL/MOL
REMARK 922        TOTAL FREE ENERGY PREDICTED BY IDOCK:   -7.41 KCAL/MOL
REMARK 923 INTER-LIGAND FREE ENERGY PREDICTED BY IDOCK:   -5.88 KCAL/MOL
REMARK 924 INTRA-LIGAND FREE ENERGY PREDICTED BY IDOCK:   -1.53 KCAL/MOL
REMARK 927      BINDING AFFINITY PREDICTED BY RF-SCORE:    0.00 PKD
ROOT
HETATM    1  C   UNL     1     -10.393   6.781  71.541  1.00  0.00    -0.208 C  
HETATM    2  C   UNL     1     -11.409   7.811  71.025  1.00  0.00    -0.287 C  
HETATM    3  C   UNL     1     -10.513   8.927  70.533  1.00  0.00    -0.215 C  
HETATM    4  C   UNL     1     -12.416   8.163  72.114  1.00  0.00    -0.364 C  
HETATM    5  O   UNL     1      -6.899   9.203  71.063  1.00  0.00    -0.083 OA 
HETATM    6  C   UNL     1      -9.212   8.622  70.724  1.00  0.00    -0.185 C  
HETATM    7  N   UNL     1      -9.047   7.350  71.254  1.00  0.00    -0.142 N  
HETATM    8  O   UNL     1      -7.514   7.486  73.000  1.00  0.00    -0.077 OA 
HETATM    9  C   UNL     1      -8.036   9.498  70.394  1.00  0.00    -0.178 C  
HETATM   10  C   UNL     1      -9.928   6.647  73.026  1.00  0.00    -0.191 C  
HETATM   11  O   UNL     1      -8.056  10.395  69.566  1.00  0.00    -0.161 OA 
HETATM   12  C   UNL     1      -8.571   7.147  72.520  1.00  0.00    -0.115 C  
ENDROOT
BRANCH   3  13
HETATM   13  S   UNL     1     -11.110  10.415  69.900  1.00  0.00    -0.321 SA 
BRANCH  13  14
HETATM   14  C   UNL     1     -11.455  10.109  68.133  1.00  0.00     0.041 C  
HETATM   15  N   UNL     1      -9.369  10.188  66.972  1.00  0.00    -0.152 NA 
HETATM   16  C   UNL     1     -10.434   9.267  67.366  1.00  0.00    -0.273 C  
HETATM   17  C   UNL     1     -11.391  11.452  67.394  1.00  0.00    -0.359 C  
HETATM   18  C   UNL     1     -10.040  11.473  66.672  1.00  0.00    -0.210 C  
HETATM   19  H   UNL     1      -8.790   9.840  66.208  1.00  0.00     0.000 HD 
BRANCH  18  20
HETATM   20  C   UNL     1      -9.122  12.653  67.054  1.00  0.00    -0.215 C  
BRANCH  20  21
HETATM   21  N   UNL     1      -9.406  13.101  68.462  1.00  0.00    -0.371 N  
HETATM   22  H   UNL     1      -9.256  12.493  69.267  1.00  0.00     0.000 HD 
BRANCH  21  23
HETATM   23  S   UNL     1      -9.984  14.659  68.617  1.00  0.00    -0.236 S  
HETATM   24  O   UNL     1      -9.484  15.438  67.510  1.00  0.00    -0.203 OA 
HETATM   25  N   UNL     1      -9.089  15.086  69.935  1.00  0.00    -0.427 N  
HETATM   26  O   UNL     1     -11.369  14.609  69.000  1.00  0.00    -0.249 OA 
HETATM   27  H2  UNL     1      -8.402  14.565  70.480  1.00  0.00     0.000 HD 
HETATM   28  H1  UNL     1      -9.442  16.038  70.030  1.00  0.00     0.000 HD 
ENDBRANCH  21  23
ENDBRANCH  20  21
ENDBRANCH  18  20
ENDBRANCH  13  14
ENDBRANCH   3  13
BRANCH  10  29
HETATM   29  C   UNL     1     -10.040   5.241  73.580  1.00  0.00    -0.192 C  
HETATM   30  H   UNL     1      -9.105   3.583  73.272  1.00  0.00     0.000 HD 
HETATM   31  O   UNL     1      -9.035   4.465  72.925  1.00  0.00    -0.116 OA 
HETATM   32  C   UNL     1     -11.406   4.637  73.302  1.00  0.00    -0.393 C  
ENDBRANCH  10  29
TORSDOF 6
ENDMDL
MODEL      139
REMARK 921   NORMALIZED FREE ENERGY PREDICTED BY IDOCK:   -4.82 KCAL/MOL
REMARK 922        TOTAL FREE ENERGY PREDICTED BY IDOCK:   -7.39 KCAL/MOL
REMARK 923 INTER-LIGAND FREE ENERGY PREDICTED BY IDOCK:   -6.74 KCAL/MOL
REMARK 924 INTRA-LIGAND FREE ENERGY PREDICTED BY IDOCK:   -0.65 KCAL/MOL
REMARK 927      BINDING AFFINITY PREDICTED BY RF-SCORE:    0.00 PKD
ROOT
HETATM    1  C   UNL     1      -8.945   7.650  67.416  1.00  0.00    -0.126 C  
HETATM    2  C   UNL     1      -9.057   9.130  67.022  1.00  0.00    -0.147 C  
HETATM    3  C   UNL     1      -9.905   9.697  68.140  1.00  0.00    -0.150 C  
HETATM    4  C   UNL     1      -9.602   9.267  65.606  1.00  0.00    -0.324 C  
HETATM    5  O   UNL     1     -11.658   7.777  70.721  1.00  0.00    -0.286 OA 
HETATM    6  C   UNL     1     -10.238   8.736  69.029  1.00  0.00    -0.207 C  
HETATM    7  N   UNL     1      -9.661   7.512  68.715  1.00  0.00    -0.149 N  
HETATM    8  O   UNL     1     -11.300   5.871  68.900  1.00  0.00    -0.213 OA 
HETATM    9  C   UNL     1     -11.098   8.912  70.249  1.00  0.00    -0.228 C  
HETATM   10  C   UNL     1      -9.866   6.507  66.882  1.00  0.00    -0.211 C  
HETATM   11  O   UNL     1     -11.274   9.978  70.819  1.00  0.00    -0.312 OA 
HETATM   12  C   UNL     1     -10.408   6.440  68.313  1.00  0.00    -0.191 C  
ENDROOT
BRANCH   3  13
HETATM   13  S   UNL     1     -10.433  11.336  68.195  1.00  0.00    -0.200 SA 
BRANCH  13  14
HETATM   14  C   UNL     1      -8.935  12.356  67.963  1.00  0.00    -0.194 C  
HETATM   15  N   UNL     1      -9.597  14.646  68.126  1.00  0.00    -0.207 NA 
HETATM   16  C   UNL     1      -8.821  13.618  68.819  1.00  0.00     0.076 C  
HETATM   17  C   UNL     1      -8.963  12.928  66.540  1.00  0.00    -0.086 C  
HETATM   18  C   UNL     1      -9.400  14.390  66.681  1.00  0.00    -0.278 C  
HETATM   19  H   UNL     1      -9.360  15.596  68.409  1.00  0.00     0.000 HD 
BRANCH  18  20
HETATM   20  C   UNL     1     -10.678  14.761  65.898  1.00  0.00    -0.316 C  
BRANCH  20  21
HETATM   21  N   UNL     1     -10.633  14.169  64.516  1.00  0.00    -0.597 N  
HETATM   22  H   UNL     1      -9.971  14.489  63.808  1.00  0.00     0.000 HD 
BRANCH  21  23
HETATM   23  S   UNL     1     -11.739  12.955  64.217  1.00  0.00    -0.418 S  
HETATM   24  O   UNL     1     -12.415  13.256  62.978  1.00  0.00    -0.606 OA 
HETATM   25  N   UNL     1     -12.793  13.327  65.430  1.00  0.00    -0.587 N  
HETATM   26  O   UNL     1     -11.132  11.686  64.511  1.00  0.00    -0.321 OA 
HETATM   27  H2  UNL     1     -12.776  14.063  66.136  1.00  0.00     0.000 HD 
HETATM   28  H1  UNL     1     -13.469  12.586  65.247  1.00  0.00     0.000 HD 
ENDBRANCH  21  23
ENDBRANCH  20  21
ENDBRANCH  18  20
ENDBRANCH  13  14
ENDBRANCH   3  13
BRANCH  10  29
HETATM   29  C   UNL     1      -9.110   5.320  66.321  1.00  0.00    -0.139 C  
HETATM   30  H   UNL     1      -9.589   3.525  65.808  1.00  0.00     0.000 HD 
HETATM   31  O   UNL     1     -10.063   4.269  66.159  1.00  0.00    -0.226 OA 
HETATM   32  C   UNL     1      -8.008   4.863  67.263  1.00  0.00    -0.095 C  
ENDBRANCH  10  29
TORSDOF 6
ENDMDL
MODEL      140
REMARK 921   NORMALIZED FREE ENERGY PREDICTED BY IDOCK:   -4.80 KCAL/MOL
REMARK 922        TOTAL FREE ENERGY PREDICTED BY IDOCK:   -7.37 KCAL/MOL
REMARK 923 INTER-LIGAND FREE ENERGY PREDICTED BY IDOCK:   -6.33 KCAL/MOL
REMARK 924 INTRA-LIGAND FREE ENERGY PREDICTED BY IDOCK:   -1.04 KCAL/MOL
REMARK 927      BINDING AFFINITY PREDICTED BY RF-SCORE:    0.00 PKD
ROOT
HETATM    1  C   UNL     1     -10.741  11.741  67.687  1.00  0.00    -0.214 C  
HETATM    2  C   UNL     1      -9.636  10.735  68.041  1.00  0.00    -0.172 C  
HETATM    3  C   UNL     1     -10.087  10.225  69.393  1.00  0.00    -0.235 C  
HETATM    4  C   UNL     1      -8.266  11.399  67.975  1.00  0.00    -0.140 C  
HETATM    5  O   UNL     1     -12.812  11.586  71.427  1.00  0.00    -0.419 OA 
HETATM    6  C   UNL     1     -11.239  10.818  69.774  1.00  0.00    -0.297 C  
HETATM    7  N   UNL     1     -11.729  11.679  68.801  1.00  0.00    -0.306 N  
HETATM    8  O   UNL     1     -12.346  13.668  69.838  1.00  0.00    -0.310 OA 
HETATM    9  C   UNL     1     -11.969  10.593  71.067  1.00  0.00    -0.339 C  
HETATM   10  C   UNL     1     -10.669  13.280  67.948  1.00  0.00    -0.252 C  
HETATM   11  O   UNL     1     -11.861   9.588  71.753  1.00  0.00    -0.377 OA 
HETATM   12  C   UNL     1     -11.771  13.033  68.984  1.00  0.00    -0.329 C  
ENDROOT
BRANCH   3  13
HETATM   13  S   UNL     1      -9.180   9.102  70.335  1.00  0.00    -0.252 SA 
BRANCH  13  14
HETATM   14  C   UNL     1      -9.880   7.455  69.967  1.00  0.00    -0.179 C  
HETATM   15  N   UNL     1      -8.520   6.463  68.273  1.00  0.00    -0.116 NA 
HETATM   16  C   UNL     1      -8.883   6.330  69.683  1.00  0.00    -0.136 C  
HETATM   17  C   UNL     1     -10.652   7.549  68.646  1.00  0.00    -0.171 C  
HETATM   18  C   UNL     1      -9.750   6.915  67.583  1.00  0.00    -0.127 C  
HETATM   19  H   UNL     1      -8.115   5.616  67.874  1.00  0.00     0.000 HD 
BRANCH  18  20
HETATM   20  C   UNL     1      -9.386   7.845  66.406  1.00  0.00    -0.189 C  
BRANCH  20  21
HETATM   21  N   UNL     1      -7.903   8.100  66.381  1.00  0.00    -0.091 N  
HETATM   22  H   UNL     1      -7.333   8.078  67.226  1.00  0.00     0.000 HD 
BRANCH  21  23
HETATM   23  S   UNL     1      -7.255   8.420  64.876  1.00  0.00    -0.087 S  
HETATM   24  O   UNL     1      -6.988   9.836  64.792  1.00  0.00    -0.109 OA 
HETATM   25  N   UNL     1      -8.621   8.146  63.994  1.00  0.00    -0.388 N  
HETATM   26  O   UNL     1      -6.291   7.403  64.556  1.00  0.00    -0.040 OA 
HETATM   27  H2  UNL     1      -9.561   7.869  64.277  1.00  0.00     0.000 HD 
HETATM   28  H1  UNL     1      -8.225   8.341  63.076  1.00  0.00     0.000 HD 
ENDBRANCH  21  23
ENDBRANCH  20  21
ENDBRANCH  18  20
ENDBRANCH  13  14
ENDBRANCH   3  13
BRANCH  10  29
HETATM   29  C   UNL     1     -10.976  14.125  66.728  1.00  0.00    -0.300 C  
HETATM   30  H   UNL     1     -12.592  14.733  65.870  1.00  0.00     0.000 HD 
HETATM   31  O   UNL     1     -12.400  14.203  66.635  1.00  0.00    -0.455 OA 
HETATM   32  C   UNL     1     -10.421  13.498  65.460  1.00  0.00    -0.304 C  
ENDBRANCH  10  29
TORSDOF 6
ENDMDL
MODEL      141
REMARK 921   NORMALIZED FREE ENERGY PREDICTED BY IDOCK:   -4.80 KCAL/MOL
REMARK 922        TOTAL FREE ENERGY PREDICTED BY IDOCK:   -7.37 KCAL/MOL
REMARK 923 INTER-LIGAND FREE ENERGY PREDICTED BY IDOCK:   -6.47 KCAL/MOL
REMARK 924 INTRA-LIGAND FREE ENERGY PREDICTED BY IDOCK:   -0.90 KCAL/MOL
REMARK 927      BINDING AFFINITY PREDICTED BY RF-SCORE:    0.00 PKD
ROOT
HETATM    1  C   UNL     1     -10.748   8.469  68.063  1.00  0.00    -0.059 C  
HETATM    2  C   UNL     1     -10.799   9.881  68.663  1.00  0.00    -0.244 C  
HETATM    3  C   UNL     1     -10.551  10.754  67.452  1.00  0.00    -0.242 C  
HETATM    4  C   UNL     1      -9.815  10.009  69.819  1.00  0.00    -0.270 C  
HETATM    5  O   UNL     1      -9.512   9.611  64.130  1.00  0.00    -0.192 OA 
HETATM    6  C   UNL     1     -10.379  10.004  66.342  1.00  0.00    -0.179 C  
HETATM    7  N   UNL     1     -10.542   8.649  66.599  1.00  0.00    -0.180 N  
HETATM    8  O   UNL     1      -8.790   7.504  65.584  1.00  0.00    -0.134 OA 
HETATM    9  C   UNL     1     -10.078  10.514  64.962  1.00  0.00    -0.321 C  
HETATM   10  C   UNL     1      -9.486   7.549  68.043  1.00  0.00    -0.149 C  
HETATM   11  O   UNL     1     -10.339  11.642  64.572  1.00  0.00    -0.264 OA 
HETATM   12  C   UNL     1      -9.501   7.765  66.526  1.00  0.00    -0.201 C  
ENDROOT
BRANCH   3  13
HETATM   13  S   UNL     1     -10.420  12.471  67.528  1.00  0.00    -0.222 SA 
BRANCH  13  14
HETATM   14  C   UNL     1      -8.676  12.861  67.147  1.00  0.00    -0.205 C  
HETATM   15  N   UNL     1      -7.627  13.517  69.190  1.00  0.00    -0.319 NA 
HETATM   16  C   UNL     1      -7.634  12.451  68.189  1.00  0.00    -0.129 C  
HETATM   17  C   UNL     1      -8.525  14.387  67.116  1.00  0.00    -0.229 C  
HETATM   18  C   UNL     1      -7.860  14.773  68.442  1.00  0.00    -0.128 C  
HETATM   19  H   UNL     1      -6.784  13.532  69.764  1.00  0.00     0.000 HD 
BRANCH  18  20
HETATM   20  C   UNL     1      -8.669  15.763  69.306  1.00  0.00    -0.261 C  
BRANCH  20  21
HETATM   21  N   UNL     1      -9.822  15.057  69.967  1.00  0.00    -0.483 N  
HETATM   22  H   UNL     1      -9.738  14.113  70.344  1.00  0.00     0.000 HD 
BRANCH  21  23
HETATM   23  S   UNL     1     -11.247  15.923  70.042  1.00  0.00    -0.378 S  
HETATM   24  O   UNL     1     -12.167  15.361  69.084  1.00  0.00    -0.269 OA 
HETATM   25  N   UNL     1     -10.678  17.324  69.382  1.00  0.00    -0.354 N  
HETATM   26  O   UNL     1     -11.575  16.166  71.421  1.00  0.00    -0.445 OA 
HETATM   27  H2  UNL     1      -9.753  17.579  69.038  1.00  0.00     0.000 HD 
HETATM   28  H1  UNL     1     -11.549  17.852  69.428  1.00  0.00     0.000 HD 
ENDBRANCH  21  23
ENDBRANCH  20  21
ENDBRANCH  18  20
ENDBRANCH  13  14
ENDBRANCH   3  13
BRANCH  10  29
HETATM   29  C   UNL     1      -9.730   6.158  68.594  1.00  0.00    -0.128 C  
HETATM   30  H   UNL     1     -11.261   5.232  69.312  1.00  0.00     0.000 HD 
HETATM   31  O   UNL     1     -11.108   6.104  68.966  1.00  0.00    -0.353 OA 
HETATM   32  C   UNL     1      -8.866   5.881  69.813  1.00  0.00    -0.129 C  
ENDBRANCH  10  29
TORSDOF 6
ENDMDL
MODEL      142
REMARK 921   NORMALIZED FREE ENERGY PREDICTED BY IDOCK:   -4.80 KCAL/MOL
REMARK 922        TOTAL FREE ENERGY PREDICTED BY IDOCK:   -7.37 KCAL/MOL
REMARK 923 INTER-LIGAND FREE ENERGY PREDICTED BY IDOCK:   -6.48 KCAL/MOL
REMARK 924 INTRA-LIGAND FREE ENERGY PREDICTED BY IDOCK:   -0.89 KCAL/MOL
REMARK 927      BINDING AFFINITY PREDICTED BY RF-SCORE:    0.00 PKD
ROOT
HETATM    1  C   UNL     1     -11.178   7.309  70.552  1.00  0.00    -0.279 C  
HETATM    2  C   UNL     1     -10.534   8.577  69.974  1.00  0.00    -0.226 C  
HETATM    3  C   UNL     1     -10.024   8.096  68.633  1.00  0.00    -0.190 C  
HETATM    4  C   UNL     1      -9.502   9.143  70.942  1.00  0.00    -0.343 C  
HETATM    5  O   UNL     1      -9.906   4.623  67.476  1.00  0.00    -0.171 OA 
HETATM    6  C   UNL     1     -10.307   6.789  68.449  1.00  0.00    -0.191 C  
HETATM    7  N   UNL     1     -11.041   6.261  69.503  1.00  0.00    -0.377 N  
HETATM    8  O   UNL     1     -10.090   4.223  70.099  1.00  0.00    -0.194 OA 
HETATM    9  C   UNL     1      -9.929   5.956  67.257  1.00  0.00    -0.153 C  
HETATM   10  C   UNL     1     -10.475   6.309  71.525  1.00  0.00    -0.266 C  
HETATM   11  O   UNL     1      -9.686   6.410  66.149  1.00  0.00    -0.085 OA 
HETATM   12  C   UNL     1     -10.522   5.324  70.353  1.00  0.00    -0.251 C  
ENDROOT
BRANCH   3  13
HETATM   13  S   UNL     1      -9.126   9.088  67.546  1.00  0.00    -0.132 SA 
BRANCH  13  14
HETATM   14  C   UNL     1     -10.350   9.815  66.400  1.00  0.00    -0.177 C  
HETATM   15  N   UNL     1      -9.253  11.564  65.199  1.00  0.00    -0.398 NA 
HETATM   16  C   UNL     1      -9.838  10.236  65.022  1.00  0.00    -0.329 C  
HETATM   17  C   UNL     1     -10.826  11.146  66.992  1.00  0.00    -0.338 C  
HETATM   18  C   UNL     1     -10.098  12.243  66.208  1.00  0.00    -0.234 C  
HETATM   19  H   UNL     1      -9.155  12.087  64.329  1.00  0.00     0.000 HD 
BRANCH  18  20
HETATM   20  C   UNL     1      -9.236  13.190  67.071  1.00  0.00    -0.233 C  
BRANCH  20  21
HETATM   21  N   UNL     1      -7.790  12.781  67.008  1.00  0.00    -0.380 N  
HETATM   22  H   UNL     1      -7.324  12.562  66.128  1.00  0.00     0.000 HD 
BRANCH  21  23
HETATM   23  S   UNL     1      -6.999  12.711  68.477  1.00  0.00    -0.100 S  
HETATM   24  O   UNL     1      -7.465  11.544  69.185  1.00  0.00    -0.100 OA 
HETATM   25  N   UNL     1      -7.735  14.011  69.175  1.00  0.00    -0.324 N  
HETATM   26  O   UNL     1      -5.610  13.024  68.276  1.00  0.00    -0.067 OA 
HETATM   27  H2  UNL     1      -8.446  14.652  68.823  1.00  0.00     0.000 HD 
HETATM   28  H1  UNL     1      -7.252  13.968  70.072  1.00  0.00     0.000 HD 
ENDBRANCH  21  23
ENDBRANCH  20  21
ENDBRANCH  18  20
ENDBRANCH  13  14
ENDBRANCH   3  13
BRANCH  10  29
HETATM   29  C   UNL     1     -11.271   6.007  72.778  1.00  0.00    -0.261 C  
HETATM   30  H   UNL     1     -11.301   6.714  74.571  1.00  0.00     0.000 HD 
HETATM   31  O   UNL     1     -10.801   6.904  73.785  1.00  0.00    -0.289 OA 
HETATM   32  C   UNL     1     -11.063   4.574  73.240  1.00  0.00    -0.389 C  
ENDBRANCH  10  29
TORSDOF 6
ENDMDL
MODEL      143
REMARK 921   NORMALIZED FREE ENERGY PREDICTED BY IDOCK:   -4.80 KCAL/MOL
REMARK 922        TOTAL FREE ENERGY PREDICTED BY IDOCK:   -7.36 KCAL/MOL
REMARK 923 INTER-LIGAND FREE ENERGY PREDICTED BY IDOCK:   -6.35 KCAL/MOL
REMARK 924 INTRA-LIGAND FREE ENERGY PREDICTED BY IDOCK:   -1.01 KCAL/MOL
REMARK 927      BINDING AFFINITY PREDICTED BY RF-SCORE:    0.00 PKD
ROOT
HETATM    1  C   UNL     1     -10.936   8.267  69.777  1.00  0.00    -0.129 C  
HETATM    2  C   UNL     1     -11.022   9.612  69.041  1.00  0.00    -0.161 C  
HETATM    3  C   UNL     1      -9.838   9.541  68.101  1.00  0.00    -0.155 C  
HETATM    4  C   UNL     1     -11.044  10.766  70.036  1.00  0.00    -0.327 C  
HETATM    5  O   UNL     1      -7.198   7.001  68.125  1.00  0.00    -0.085 OA 
HETATM    6  C   UNL     1      -9.171   8.376  68.251  1.00  0.00    -0.134 C  
HETATM    7  N   UNL     1      -9.786   7.538  69.172  1.00  0.00    -0.164 N  
HETATM    8  O   UNL     1      -8.146   6.697  70.592  1.00  0.00    -0.109 OA 
HETATM    9  C   UNL     1      -7.928   7.962  67.517  1.00  0.00    -0.123 C  
HETATM   10  C   UNL     1     -10.243   8.043  71.159  1.00  0.00    -0.225 C  
HETATM   11  O   UNL     1      -7.585   8.412  66.434  1.00  0.00    -0.082 OA 
HETATM   12  C   UNL     1      -9.208   7.232  70.373  1.00  0.00    -0.158 C  
ENDROOT
BRANCH   3  13
HETATM   13  S   UNL     1      -9.377  10.829  67.053  1.00  0.00    -0.156 SA 
BRANCH  13  14
HETATM   14  C   UNL     1     -10.454  10.693  65.583  1.00  0.00    -0.165 C  
HETATM   15  N   UNL     1      -9.750  12.361  64.025  1.00  0.00    -0.585 NA 
HETATM   16  C   UNL     1      -9.792  10.913  64.222  1.00  0.00    -0.310 C  
HETATM   17  C   UNL     1     -11.479  11.831  65.636  1.00  0.00    -0.249 C  
HETATM   18  C   UNL     1     -10.993  12.885  64.635  1.00  0.00    -0.332 C  
HETATM   19  H   UNL     1      -9.624  12.637  63.051  1.00  0.00     0.000 HD 
BRANCH  18  20
HETATM   20  C   UNL     1     -10.739  14.282  65.241  1.00  0.00    -0.366 C  
BRANCH  20  21
HETATM   21  N   UNL     1      -9.509  14.259  66.107  1.00  0.00    -0.460 N  
HETATM   22  H   UNL     1      -8.696  13.686  65.883  1.00  0.00     0.000 HD 
BRANCH  21  23
HETATM   23  S   UNL     1      -9.566  15.235  67.460  1.00  0.00    -0.207 S  
HETATM   24  O   UNL     1      -8.314  15.946  67.556  1.00  0.00    -0.154 OA 
HETATM   25  N   UNL     1      -9.513  14.034  68.590  1.00  0.00    -0.323 N  
HETATM   26  O   UNL     1     -10.854  15.870  67.526  1.00  0.00    -0.315 OA 
HETATM   27  H2  UNL     1      -9.461  13.021  68.493  1.00  0.00     0.000 HD 
HETATM   28  H1  UNL     1      -9.547  14.631  69.416  1.00  0.00     0.000 HD 
ENDBRANCH  21  23
ENDBRANCH  20  21
ENDBRANCH  18  20
ENDBRANCH  13  14
ENDBRANCH   3  13
BRANCH  10  29
HETATM   29  C   UNL     1     -11.117   7.340  72.178  1.00  0.00    -0.246 C  
HETATM   30  H   UNL     1     -11.992   5.624  72.261  1.00  0.00     0.000 HD 
HETATM   31  O   UNL     1     -11.444   6.065  71.622  1.00  0.00    -0.282 OA 
HETATM   32  C   UNL     1     -12.395   8.116  72.449  1.00  0.00    -0.345 C  
ENDBRANCH  10  29
TORSDOF 6
ENDMDL
MODEL      144
REMARK 921   NORMALIZED FREE ENERGY PREDICTED BY IDOCK:   -4.74 KCAL/MOL
REMARK 922        TOTAL FREE ENERGY PREDICTED BY IDOCK:   -7.29 KCAL/MOL
REMARK 923 INTER-LIGAND FREE ENERGY PREDICTED BY IDOCK:   -6.35 KCAL/MOL
REMARK 924 INTRA-LIGAND FREE ENERGY PREDICTED BY IDOCK:   -0.94 KCAL/MOL
REMARK 927      BINDING AFFINITY PREDICTED BY RF-SCORE:    0.00 PKD
ROOT
HETATM    1  C   UNL     1      -9.160   4.954  67.162  1.00  0.00    -0.119 C  
HETATM    2  C   UNL     1      -9.965   6.047  67.879  1.00  0.00    -0.151 C  
HETATM    3  C   UNL     1     -10.177   5.444  69.250  1.00  0.00    -0.245 C  
HETATM    4  C   UNL     1     -11.214   6.404  67.081  1.00  0.00    -0.298 C  
HETATM    5  O   UNL     1      -9.421   2.000  70.245  1.00  0.00    -0.115 OA 
HETATM    6  C   UNL     1      -9.610   4.221  69.333  1.00  0.00    -0.197 C  
HETATM    7  N   UNL     1      -8.934   3.880  68.168  1.00  0.00    -0.112 N  
HETATM    8  O   UNL     1      -9.521   1.700  67.604  1.00  0.00    -0.133 OA 
HETATM    9  C   UNL     1      -9.642   3.304  70.523  1.00  0.00    -0.148 C  
HETATM   10  C   UNL     1      -9.771   3.848  66.242  1.00  0.00    -0.176 C  
HETATM   11  O   UNL     1      -9.819   3.675  71.673  1.00  0.00    -0.166 OA 
HETATM   12  C   UNL     1      -9.362   2.872  67.350  1.00  0.00    -0.161 C  
ENDROOT
BRANCH   3  13
HETATM   13  S   UNL     1     -11.101   6.204  70.491  1.00  0.00    -0.331 SA 
BRANCH  13  14
HETATM   14  C   UNL     1      -9.895   7.058  71.566  1.00  0.00    -0.172 C  
HETATM   15  N   UNL     1     -10.447   9.382  71.553  1.00  0.00    -0.310 NA 
HETATM   16  C   UNL     1     -10.428   8.207  72.423  1.00  0.00    -0.319 C  
HETATM   17  C   UNL     1      -8.874   7.767  70.668  1.00  0.00    -0.144 C  
HETATM   18  C   UNL     1      -9.263   9.249  70.674  1.00  0.00    -0.264 C  
HETATM   19  H   UNL     1     -10.482  10.265  72.061  1.00  0.00     0.000 HD 
BRANCH  18  20
HETATM   20  C   UNL     1      -9.566   9.843  69.282  1.00  0.00    -0.205 C  
BRANCH  20  21
HETATM   21  N   UNL     1      -9.973  11.286  69.408  1.00  0.00    -0.419 N  
HETATM   22  H   UNL     1      -9.303  12.024  69.621  1.00  0.00     0.000 HD 
BRANCH  21  23
HETATM   23  S   UNL     1     -11.597  11.597  69.175  1.00  0.00    -0.343 S  
HETATM   24  O   UNL     1     -11.802  11.902  67.780  1.00  0.00    -0.518 OA 
HETATM   25  N   UNL     1     -11.654  13.034  69.984  1.00  0.00    -0.525 N  
HETATM   26  O   UNL     1     -12.369  10.629  69.905  1.00  0.00    -0.309 OA 
HETATM   27  H2  UNL     1     -10.931  13.562  70.470  1.00  0.00     0.000 HD 
HETATM   28  H1  UNL     1     -12.646  13.224  69.842  1.00  0.00     0.000 HD 
ENDBRANCH  21  23
ENDBRANCH  20  21
ENDBRANCH  18  20
ENDBRANCH  13  14
ENDBRANCH   3  13
BRANCH  10  29
HETATM   29  C   UNL     1      -9.109   3.745  64.883  1.00  0.00    -0.140 C  
HETATM   30  H   UNL     1      -8.175   4.976  63.731  1.00  0.00     0.000 HD 
HETATM   31  O   UNL     1      -8.590   5.042  64.583  1.00  0.00    -0.144 OA 
HETATM   32  C   UNL     1     -10.102   3.337  63.807  1.00  0.00    -0.187 C  
ENDBRANCH  10  29
TORSDOF 6
ENDMDL
MODEL      145
REMARK 921   NORMALIZED FREE ENERGY PREDICTED BY IDOCK:   -4.73 KCAL/MOL
REMARK 922        TOTAL FREE ENERGY PREDICTED BY IDOCK:   -7.27 KCAL/MOL
REMARK 923 INTER-LIGAND FREE ENERGY PREDICTED BY IDOCK:   -6.25 KCAL/MOL
REMARK 924 INTRA-LIGAND FREE ENERGY PREDICTED BY IDOCK:   -1.02 KCAL/MOL
REMARK 927      BINDING AFFINITY PREDICTED BY RF-SCORE:    0.00 PKD
ROOT
HETATM    1  C   UNL     1     -10.446  12.180  66.655  1.00  0.00    -0.220 C  
HETATM    2  C   UNL     1     -10.126  10.970  67.545  1.00  0.00    -0.208 C  
HETATM    3  C   UNL     1      -9.627   9.955  66.540  1.00  0.00    -0.190 C  
HETATM    4  C   UNL     1     -11.342  10.579  68.376  1.00  0.00    -0.328 C  
HETATM    5  O   UNL     1      -9.778  10.257  62.893  1.00  0.00    -0.298 OA 
HETATM    6  C   UNL     1      -9.650  10.462  65.288  1.00  0.00    -0.259 C  
HETATM    7  N   UNL     1     -10.059  11.789  65.271  1.00  0.00    -0.254 N  
HETATM    8  O   UNL     1     -11.632  12.039  63.575  1.00  0.00    -0.439 OA 
HETATM    9  C   UNL     1      -9.263   9.740  64.029  1.00  0.00    -0.215 C  
HETATM   10  C   UNL     1     -11.857  12.518  66.075  1.00  0.00    -0.478 C  
HETATM   11  O   UNL     1      -8.514   8.776  63.991  1.00  0.00    -0.172 OA 
HETATM   12  C   UNL     1     -11.246  12.176  64.713  1.00  0.00    -0.323 C  
ENDROOT
BRANCH   3  13
HETATM   13  S   UNL     1      -9.180   8.344  66.958  1.00  0.00    -0.159 SA 
BRANCH  13  14
HETATM   14  C   UNL     1     -10.746   7.437  67.213  1.00  0.00    -0.308 C  
HETATM   15  N   UNL     1     -10.302   5.659  68.745  1.00  0.00    -0.207 NA 
HETATM   16  C   UNL     1     -11.024   6.925  68.627  1.00  0.00    -0.145 C  
HETATM   17  C   UNL     1     -10.682   6.137  66.401  1.00  0.00    -0.081 C  
HETATM   18  C   UNL     1     -10.386   5.023  67.410  1.00  0.00    -0.112 C  
HETATM   19  H   UNL     1     -10.639   5.066  69.503  1.00  0.00     0.000 HD 
BRANCH  18  20
HETATM   20  C   UNL     1      -9.101   4.217  67.125  1.00  0.00    -0.137 C  
BRANCH  20  21
HETATM   21  N   UNL     1      -8.278   4.087  68.377  1.00  0.00    -0.082 N  
HETATM   22  H   UNL     1      -8.546   3.471  69.144  1.00  0.00     0.000 HD 
BRANCH  21  23
HETATM   23  S   UNL     1      -6.894   5.020  68.427  1.00  0.00    -0.057 S  
HETATM   24  O   UNL     1      -7.193   6.231  69.152  1.00  0.00    -0.081 OA 
HETATM   25  N   UNL     1      -6.855   5.425  66.829  1.00  0.00    -0.062 N  
HETATM   26  O   UNL     1      -5.768   4.174  68.713  1.00  0.00    -0.019 OA 
HETATM   27  H2  UNL     1      -7.476   5.184  66.057  1.00  0.00     0.000 HD 
HETATM   28  H1  UNL     1      -6.010   5.995  66.860  1.00  0.00     0.000 HD 
ENDBRANCH  21  23
ENDBRANCH  20  21
ENDBRANCH  18  20
ENDBRANCH  13  14
ENDBRANCH   3  13
BRANCH  10  29
HETATM   29  C   UNL     1     -12.309  13.938  66.348  1.00  0.00    -0.426 C  
HETATM   30  H   UNL     1     -13.582  15.137  65.536  1.00  0.00     0.000 HD 
HETATM   31  O   UNL     1     -13.299  14.246  65.365  1.00  0.00    -0.649 OA 
HETATM   32  C   UNL     1     -11.157  14.923  66.231  1.00  0.00    -0.340 C  
ENDBRANCH  10  29
TORSDOF 6
ENDMDL
MODEL      146
REMARK 921   NORMALIZED FREE ENERGY PREDICTED BY IDOCK:   -4.73 KCAL/MOL
REMARK 922        TOTAL FREE ENERGY PREDICTED BY IDOCK:   -7.27 KCAL/MOL
REMARK 923 INTER-LIGAND FREE ENERGY PREDICTED BY IDOCK:   -6.72 KCAL/MOL
REMARK 924 INTRA-LIGAND FREE ENERGY PREDICTED BY IDOCK:   -0.55 KCAL/MOL
REMARK 927      BINDING AFFINITY PREDICTED BY RF-SCORE:    0.00 PKD
ROOT
HETATM    1  C   UNL     1     -11.268  13.668  68.122  1.00  0.00    -0.275 C  
HETATM    2  C   UNL     1     -10.489  12.345  68.141  1.00  0.00    -0.228 C  
HETATM    3  C   UNL     1     -11.097  11.631  69.329  1.00  0.00    -0.233 C  
HETATM    4  C   UNL     1      -8.988  12.607  68.187  1.00  0.00    -0.199 C  
HETATM    5  O   UNL     1     -13.401  13.077  71.782  1.00  0.00    -0.416 OA 
HETATM    6  C   UNL     1     -12.053  12.388  69.909  1.00  0.00    -0.247 C  
HETATM    7  N   UNL     1     -12.264  13.577  69.225  1.00  0.00    -0.272 N  
HETATM    8  O   UNL     1     -12.344  15.304  70.783  1.00  0.00    -0.321 OA 
HETATM    9  C   UNL     1     -12.851  12.028  71.131  1.00  0.00    -0.235 C  
HETATM   10  C   UNL     1     -10.787  15.002  68.779  1.00  0.00    -0.249 C  
HETATM   11  O   UNL     1     -13.040  10.885  71.518  1.00  0.00    -0.406 OA 
HETATM   12  C   UNL     1     -11.941  14.792  69.764  1.00  0.00    -0.321 C  
ENDROOT
BRANCH   3  13
HETATM   13  S   UNL     1     -10.556  10.095  69.893  1.00  0.00    -0.288 SA 
BRANCH  13  14
HETATM   14  C   UNL     1      -9.671   9.326  68.492  1.00  0.00    -0.150 C  
HETATM   15  N   UNL     1     -11.122   7.681  67.547  1.00  0.00    -0.511 NA 
HETATM   16  C   UNL     1     -10.506   8.975  67.259  1.00  0.00    -0.273 C  
HETATM   17  C   UNL     1      -9.163   7.952  68.944  1.00  0.00    -0.144 C  
HETATM   18  C   UNL     1     -10.120   6.924  68.331  1.00  0.00    -0.168 C  
HETATM   19  H   UNL     1     -11.447   7.189  66.714  1.00  0.00     0.000 HD 
BRANCH  18  20
HETATM   20  C   UNL     1     -10.827   6.009  69.353  1.00  0.00    -0.363 C  
BRANCH  20  21
HETATM   21  N   UNL     1      -9.863   5.582  70.426  1.00  0.00    -0.185 N  
HETATM   22  H   UNL     1      -9.402   6.252  71.042  1.00  0.00     0.000 HD 
BRANCH  21  23
HETATM   23  S   UNL     1      -9.596   3.938  70.540  1.00  0.00    -0.183 S  
HETATM   24  O   UNL     1     -10.142   3.479  71.794  1.00  0.00    -0.163 OA 
HETATM   25  N   UNL     1      -7.960   4.002  70.734  1.00  0.00    -0.058 N  
HETATM   26  O   UNL     1      -9.884   3.328  69.270  1.00  0.00    -0.005 OA 
HETATM   27  H2  UNL     1      -7.316   4.792  70.772  1.00  0.00     0.000 HD 
HETATM   28  H1  UNL     1      -7.798   2.998  70.803  1.00  0.00     0.000 HD 
ENDBRANCH  21  23
ENDBRANCH  20  21
ENDBRANCH  18  20
ENDBRANCH  13  14
ENDBRANCH   3  13
BRANCH  10  29
HETATM   29  C   UNL     1     -10.819  16.194  67.844  1.00  0.00    -0.332 C  
HETATM   30  H   UNL     1     -11.176  16.436  65.965  1.00  0.00     0.000 HD 
HETATM   31  O   UNL     1     -11.156  15.688  66.551  1.00  0.00    -0.263 OA 
HETATM   32  C   UNL     1      -9.470  16.890  67.779  1.00  0.00    -0.237 C  
ENDBRANCH  10  29
TORSDOF 6
ENDMDL
MODEL      147
REMARK 921   NORMALIZED FREE ENERGY PREDICTED BY IDOCK:   -4.69 KCAL/MOL
REMARK 922        TOTAL FREE ENERGY PREDICTED BY IDOCK:   -7.21 KCAL/MOL
REMARK 923 INTER-LIGAND FREE ENERGY PREDICTED BY IDOCK:   -6.78 KCAL/MOL
REMARK 924 INTRA-LIGAND FREE ENERGY PREDICTED BY IDOCK:   -0.43 KCAL/MOL
REMARK 927      BINDING AFFINITY PREDICTED BY RF-SCORE:    0.00 PKD
ROOT
HETATM    1  C   UNL     1     -11.969  13.398  69.492  1.00  0.00    -0.319 C  
HETATM    2  C   UNL     1     -11.017  14.597  69.377  1.00  0.00    -0.279 C  
HETATM    3  C   UNL     1      -9.890  14.035  68.537  1.00  0.00    -0.225 C  
HETATM    4  C   UNL     1     -10.649  15.123  70.760  1.00  0.00    -0.010 C  
HETATM    5  O   UNL     1      -9.424  10.523  67.605  1.00  0.00    -0.148 OA 
HETATM    6  C   UNL     1     -10.126  12.744  68.215  1.00  0.00    -0.237 C  
HETATM    7  N   UNL     1     -11.358  12.307  68.682  1.00  0.00    -0.266 N  
HETATM    8  O   UNL     1     -11.055  10.229  69.686  1.00  0.00    -0.240 OA 
HETATM    9  C   UNL     1      -9.219  11.847  67.423  1.00  0.00    -0.177 C  
HETATM   10  C   UNL     1     -11.998  12.386  70.681  1.00  0.00    -0.202 C  
HETATM   11  O   UNL     1      -8.371  12.243  66.638  1.00  0.00    -0.129 OA 
HETATM   12  C   UNL     1     -11.468  11.366  69.669  1.00  0.00    -0.309 C  
ENDROOT
BRANCH   3  13
HETATM   13  S   UNL     1      -8.469  14.923  68.136  1.00  0.00    -0.153 SA 
BRANCH  13  14
HETATM   14  C   UNL     1      -9.011  16.270  67.028  1.00  0.00    -0.206 C  
HETATM   15  N   UNL     1     -11.334  15.937  66.581  1.00  0.00     0.069 NA 
HETATM   16  C   UNL     1     -10.411  16.839  67.268  1.00  0.00    -0.304 C  
HETATM   17  C   UNL     1      -9.129  15.702  65.608  1.00  0.00     0.023 C  
HETATM   18  C   UNL     1     -10.626  15.491  65.360  1.00  0.00    -0.408 C  
HETATM   19  H   UNL     1     -12.248  16.350  66.397  1.00  0.00     0.000 HD 
BRANCH  18  20
HETATM   20  C   UNL     1     -11.026  14.040  65.015  1.00  0.00    -0.375 C  
BRANCH  20  21
HETATM   21  N   UNL     1      -9.842  13.289  64.468  1.00  0.00    -0.611 N  
HETATM   22  H   UNL     1      -8.884  13.609  64.605  1.00  0.00     0.000 HD 
BRANCH  21  23
HETATM   23  S   UNL     1     -10.204  11.896  63.622  1.00  0.00    -0.463 S  
HETATM   24  O   UNL     1      -9.256  11.766  62.542  1.00  0.00    -0.236 OA 
HETATM   25  N   UNL     1     -11.616  12.419  62.949  1.00  0.00    -0.580 N  
HETATM   26  O   UNL     1     -10.503  10.845  64.556  1.00  0.00    -0.346 OA 
HETATM   27  H2  UNL     1     -12.110  13.308  63.025  1.00  0.00     0.000 HD 
HETATM   28  H1  UNL     1     -11.837  11.568  62.432  1.00  0.00     0.000 HD 
ENDBRANCH  21  23
ENDBRANCH  20  21
ENDBRANCH  18  20
ENDBRANCH  13  14
ENDBRANCH   3  13
BRANCH  10  29
HETATM   29  C   UNL     1     -13.374  12.185  71.283  1.00  0.00     0.204 C  
HETATM   30  H   UNL     1     -14.391  13.058  72.668  1.00  0.00     0.000 HD 
HETATM   31  O   UNL     1     -13.528  13.184  72.291  1.00  0.00    -0.527 OA 
HETATM   32  C   UNL     1     -13.514  10.808  71.910  1.00  0.00    -0.327 C  
ENDBRANCH  10  29
TORSDOF 6
ENDMDL
MODEL      148
REMARK 921   NORMALIZED FREE ENERGY PREDICTED BY IDOCK:   -4.68 KCAL/MOL
REMARK 922        TOTAL FREE ENERGY PREDICTED BY IDOCK:   -7.21 KCAL/MOL
REMARK 923 INTER-LIGAND FREE ENERGY PREDICTED BY IDOCK:   -5.91 KCAL/MOL
REMARK 924 INTRA-LIGAND FREE ENERGY PREDICTED BY IDOCK:   -1.30 KCAL/MOL
REMARK 927      BINDING AFFINITY PREDICTED BY RF-SCORE:    0.00 PKD
ROOT
HETATM    1  C   UNL     1      -7.320   7.325  66.350  1.00  0.00    -0.080 C  
HETATM    2  C   UNL     1      -7.202   8.776  66.839  1.00  0.00    -0.079 C  
HETATM    3  C   UNL     1      -8.175   8.805  67.998  1.00  0.00    -0.118 C  
HETATM    4  C   UNL     1      -7.463   9.749  65.695  1.00  0.00    -0.110 C  
HETATM    5  O   UNL     1     -10.560   6.173  68.894  1.00  0.00    -0.215 OA 
HETATM    6  C   UNL     1      -8.763   7.600  68.165  1.00  0.00    -0.122 C  
HETATM    7  N   UNL     1      -8.271   6.652  67.278  1.00  0.00    -0.120 N  
HETATM    8  O   UNL     1     -10.080   5.510  66.363  1.00  0.00    -0.175 OA 
HETATM    9  C   UNL     1      -9.807   7.255  69.189  1.00  0.00    -0.166 C  
HETATM   10  C   UNL     1      -8.243   6.843  65.186  1.00  0.00    -0.115 C  
HETATM   11  O   UNL     1      -9.971   7.862  70.236  1.00  0.00    -0.188 OA 
HETATM   12  C   UNL     1      -9.041   6.124  66.279  1.00  0.00    -0.154 C  
ENDROOT
BRANCH   3  13
HETATM   13  S   UNL     1      -8.528  10.225  68.907  1.00  0.00    -0.147 SA 
BRANCH  13  14
HETATM   14  C   UNL     1      -9.763  11.153  67.931  1.00  0.00    -0.174 C  
HETATM   15  N   UNL     1     -10.813  12.713  69.405  1.00  0.00    -0.446 NA 
HETATM   16  C   UNL     1      -9.918  12.641  68.251  1.00  0.00    -0.229 C  
HETATM   17  C   UNL     1     -11.153  10.600  68.270  1.00  0.00    -0.334 C  
HETATM   18  C   UNL     1     -11.792  11.617  69.222  1.00  0.00    -0.331 C  
HETATM   19  H   UNL     1     -11.243  13.629  69.532  1.00  0.00     0.000 HD 
BRANCH  18  20
HETATM   20  C   UNL     1     -12.209  11.044  70.593  1.00  0.00    -0.385 C  
BRANCH  20  21
HETATM   21  N   UNL     1     -13.054   9.813  70.409  1.00  0.00    -0.492 N  
HETATM   22  H   UNL     1     -13.552   9.619  69.541  1.00  0.00     0.000 HD 
BRANCH  21  23
HETATM   23  S   UNL     1     -13.122   8.785  71.723  1.00  0.00    -0.383 S  
HETATM   24  O   UNL     1     -14.050   9.337  72.680  1.00  0.00    -0.477 OA 
HETATM   25  N   UNL     1     -11.609   9.088  72.306  1.00  0.00    -0.273 N  
HETATM   26  O   UNL     1     -13.169   7.427  71.254  1.00  0.00    -0.348 OA 
HETATM   27  H2  UNL     1     -10.869   9.705  71.972  1.00  0.00     0.000 HD 
HETATM   28  H1  UNL     1     -11.650   8.460  73.109  1.00  0.00     0.000 HD 
ENDBRANCH  21  23
ENDBRANCH  20  21
ENDBRANCH  18  20
ENDBRANCH  13  14
ENDBRANCH   3  13
BRANCH  10  29
HETATM   29  C   UNL     1      -7.527   6.023  64.132  1.00  0.00    -0.079 C  
HETATM   30  H   UNL     1      -8.085   4.787  62.762  1.00  0.00     0.000 HD 
HETATM   31  O   UNL     1      -8.535   5.302  63.422  1.00  0.00    -0.130 OA 
HETATM   32  C   UNL     1      -6.549   5.041  64.758  1.00  0.00    -0.040 C  
ENDBRANCH  10  29
TORSDOF 6
ENDMDL
MODEL      149
REMARK 921   NORMALIZED FREE ENERGY PREDICTED BY IDOCK:   -4.67 KCAL/MOL
REMARK 922        TOTAL FREE ENERGY PREDICTED BY IDOCK:   -7.19 KCAL/MOL
REMARK 923 INTER-LIGAND FREE ENERGY PREDICTED BY IDOCK:   -6.31 KCAL/MOL
REMARK 924 INTRA-LIGAND FREE ENERGY PREDICTED BY IDOCK:   -0.88 KCAL/MOL
REMARK 927      BINDING AFFINITY PREDICTED BY RF-SCORE:    0.00 PKD
ROOT
HETATM    1  C   UNL     1      -7.509   8.452  65.830  1.00  0.00    -0.081 C  
HETATM    2  C   UNL     1      -7.493   9.970  65.597  1.00  0.00    -0.137 C  
HETATM    3  C   UNL     1      -8.410  10.473  66.691  1.00  0.00    -0.131 C  
HETATM    4  C   UNL     1      -7.887  10.296  64.162  1.00  0.00    -0.111 C  
HETATM    5  O   UNL     1     -10.520   8.417  68.868  1.00  0.00    -0.218 OA 
HETATM    6  C   UNL     1      -8.886   9.448  67.432  1.00  0.00    -0.128 C  
HETATM    7  N   UNL     1      -8.356   8.228  67.035  1.00  0.00    -0.121 N  
HETATM    8  O   UNL     1     -10.102   6.696  66.884  1.00  0.00    -0.170 OA 
HETATM    9  C   UNL     1      -9.849   9.554  68.580  1.00  0.00    -0.162 C  
HETATM   10  C   UNL     1      -8.441   7.441  65.089  1.00  0.00    -0.033 C  
HETATM   11  O   UNL     1     -10.015  10.562  69.249  1.00  0.00    -0.212 OA 
HETATM   12  C   UNL     1      -9.124   7.259  66.449  1.00  0.00    -0.158 C  
ENDROOT
BRANCH   3  13
HETATM   13  S   UNL     1      -8.841  12.130  66.882  1.00  0.00    -0.199 SA 
BRANCH  13  14
HETATM   14  C   UNL     1     -10.379  12.365  65.923  1.00  0.00    -0.257 C  
HETATM   15  N   UNL     1     -10.904  14.695  65.973  1.00  0.00    -0.310 NA 
HETATM   16  C   UNL     1     -10.472  13.631  65.069  1.00  0.00    -0.391 C  
HETATM   17  C   UNL     1     -11.535  12.554  66.913  1.00  0.00    -0.416 C  
HETATM   18  C   UNL     1     -11.837  14.056  66.928  1.00  0.00    -0.430 C  
HETATM   19  H   UNL     1     -11.299  15.503  65.494  1.00  0.00     0.000 HD 
BRANCH  18  20
HETATM   20  C   UNL     1     -11.719  14.724  68.314  1.00  0.00    -0.311 C  
BRANCH  20  21
HETATM   21  N   UNL     1     -12.469  13.925  69.345  1.00  0.00    -0.394 N  
HETATM   22  H   UNL     1     -12.924  13.040  69.122  1.00  0.00     0.000 HD 
BRANCH  21  23
HETATM   23  S   UNL     1     -12.507  14.586  70.878  1.00  0.00    -0.370 S  
HETATM   24  O   UNL     1     -13.295  15.794  70.829  1.00  0.00    -0.539 OA 
HETATM   25  N   UNL     1     -10.928  15.056  70.944  1.00  0.00    -0.544 N  
HETATM   26  O   UNL     1     -12.714  13.534  71.836  1.00  0.00    -0.281 OA 
HETATM   27  H2  UNL     1     -10.171  14.971  70.267  1.00  0.00     0.000 HD 
HETATM   28  H1  UNL     1     -10.951  15.459  71.881  1.00  0.00     0.000 HD 
ENDBRANCH  21  23
ENDBRANCH  20  21
ENDBRANCH  18  20
ENDBRANCH  13  14
ENDBRANCH   3  13
BRANCH  10  29
HETATM   29  C   UNL     1      -7.706   6.270  64.468  1.00  0.00    -0.106 C  
HETATM   30  H   UNL     1      -6.220   5.163  65.000  1.00  0.00     0.000 HD 
HETATM   31  O   UNL     1      -6.681   5.897  65.390  1.00  0.00    -0.045 OA 
HETATM   32  C   UNL     1      -7.076   6.647  63.137  1.00  0.00    -0.055 C  
ENDBRANCH  10  29
TORSDOF 6
ENDMDL
MODEL      150
REMARK 921   NORMALIZED FREE ENERGY PREDICTED BY IDOCK:   -4.67 KCAL/MOL
REMARK 922        TOTAL FREE ENERGY PREDICTED BY IDOCK:   -7.19 KCAL/MOL
REMARK 923 INTER-LIGAND FREE ENERGY PREDICTED BY IDOCK:   -5.99 KCAL/MOL
REMARK 924 INTRA-LIGAND FREE ENERGY PREDICTED BY IDOCK:   -1.20 KCAL/MOL
REMARK 927      BINDING AFFINITY PREDICTED BY RF-SCORE:    0.00 PKD
ROOT
HETATM    1  C   UNL     1     -11.466  12.453  65.712  1.00  0.00    -0.370 C  
HETATM    2  C   UNL     1     -10.809  11.346  66.549  1.00  0.00    -0.334 C  
HETATM    3  C   UNL     1      -9.976  12.138  67.533  1.00  0.00    -0.197 C  
HETATM    4  C   UNL     1     -10.066  10.364  65.650  1.00  0.00    -0.337 C  
HETATM    5  O   UNL     1      -9.335  15.743  67.425  1.00  0.00    -0.207 OA 
HETATM    6  C   UNL     1     -10.109  13.465  67.321  1.00  0.00    -0.238 C  
HETATM    7  N   UNL     1     -11.018  13.743  66.308  1.00  0.00    -0.296 N  
HETATM    8  O   UNL     1     -10.070  15.335  64.902  1.00  0.00    -0.286 OA 
HETATM    9  C   UNL     1      -9.411  14.561  68.075  1.00  0.00    -0.201 C  
HETATM   10  C   UNL     1     -10.923  12.990  64.349  1.00  0.00    -0.400 C  
HETATM   11  O   UNL     1      -8.962  14.441  69.205  1.00  0.00    -0.055 OA 
HETATM   12  C   UNL     1     -10.631  14.285  65.114  1.00  0.00    -0.406 C  
ENDROOT
BRANCH   3  13
HETATM   13  S   UNL     1      -8.937  11.411  68.701  1.00  0.00    -0.085 SA 
BRANCH  13  14
HETATM   14  C   UNL     1      -7.243  11.569  68.036  1.00  0.00    -0.085 C  
HETATM   15  N   UNL     1      -6.476   9.371  67.503  1.00  0.00    -0.062 NA 
HETATM   16  C   UNL     1      -6.865  10.637  66.884  1.00  0.00    -0.099 C  
HETATM   17  C   UNL     1      -6.258  11.149  69.133  1.00  0.00    -0.055 C  
HETATM   18  C   UNL     1      -5.795   9.735  68.767  1.00  0.00    -0.038 C  
HETATM   19  H   UNL     1      -5.916   8.774  66.894  1.00  0.00     0.000 HD 
BRANCH  18  20
HETATM   20  C   UNL     1      -6.071   8.665  69.845  1.00  0.00    -0.034 C  
BRANCH  20  21
HETATM   21  N   UNL     1      -6.966   9.224  70.917  1.00  0.00    -0.104 N  
HETATM   22  H   UNL     1      -6.727  10.066  71.441  1.00  0.00     0.000 HD 
BRANCH  21  23
HETATM   23  S   UNL     1      -8.376   8.374  71.193  1.00  0.00    -0.151 S  
HETATM   24  O   UNL     1      -8.046   7.182  71.937  1.00  0.00    -0.097 OA 
HETATM   25  N   UNL     1      -8.642   7.898  69.636  1.00  0.00    -0.132 N  
HETATM   26  O   UNL     1      -9.412   9.294  71.574  1.00  0.00    -0.266 OA 
HETATM   27  H2  UNL     1      -8.115   8.068  68.780  1.00  0.00     0.000 HD 
HETATM   28  H1  UNL     1      -9.504   7.378  69.804  1.00  0.00     0.000 HD 
ENDBRANCH  21  23
ENDBRANCH  20  21
ENDBRANCH  18  20
ENDBRANCH  13  14
ENDBRANCH   3  13
BRANCH  10  29
HETATM   29  C   UNL     1     -11.954  13.002  63.239  1.00  0.00    -0.421 C  
HETATM   30  H   UNL     1     -13.303  14.249  62.654  1.00  0.00     0.000 HD 
HETATM   31  O   UNL     1     -12.656  14.242  63.350  1.00  0.00    -0.777 OA 
HETATM   32  C   UNL     1     -12.936  11.851  63.376  1.00  0.00    -0.258 C  
ENDBRANCH  10  29
TORSDOF 6
ENDMDL
MODEL      151
REMARK 921   NORMALIZED FREE ENERGY PREDICTED BY IDOCK:   -4.66 KCAL/MOL
REMARK 922        TOTAL FREE ENERGY PREDICTED BY IDOCK:   -7.17 KCAL/MOL
REMARK 923 INTER-LIGAND FREE ENERGY PREDICTED BY IDOCK:   -6.42 KCAL/MOL
REMARK 924 INTRA-LIGAND FREE ENERGY PREDICTED BY IDOCK:   -0.75 KCAL/MOL
REMARK 927      BINDING AFFINITY PREDICTED BY RF-SCORE:    0.00 PKD
ROOT
HETATM    1  C   UNL     1     -10.909   7.321  69.726  1.00  0.00    -0.235 C  
HETATM    2  C   UNL     1     -10.097   8.370  68.952  1.00  0.00    -0.209 C  
HETATM    3  C   UNL     1      -9.660   7.597  67.726  1.00  0.00    -0.144 C  
HETATM    4  C   UNL     1      -8.996   8.951  69.831  1.00  0.00    -0.160 C  
HETATM    5  O   UNL     1     -10.022   3.991  67.191  1.00  0.00    -0.164 OA 
HETATM    6  C   UNL     1     -10.120   6.328  67.766  1.00  0.00    -0.149 C  
HETATM    7  N   UNL     1     -10.919   6.097  68.877  1.00  0.00    -0.342 N  
HETATM    8  O   UNL     1     -10.257   4.085  69.839  1.00  0.00     0.049 OA 
HETATM    9  C   UNL     1      -9.861   5.257  66.745  1.00  0.00    -0.176 C  
HETATM   10  C   UNL     1     -10.349   6.421  70.873  1.00  0.00    -0.246 C  
HETATM   11  O   UNL     1      -9.559   5.473  65.581  1.00  0.00    -0.084 OA 
HETATM   12  C   UNL     1     -10.533   5.261  69.888  1.00  0.00    -0.281 C  
ENDROOT
BRANCH   3  13
HETATM   13  S   UNL     1      -8.635   8.253  66.505  1.00  0.00    -0.139 SA 
BRANCH  13  14
HETATM   14  C   UNL     1      -9.687   9.368  65.511  1.00  0.00    -0.230 C  
HETATM   15  N   UNL     1      -8.633  11.511  65.486  1.00  0.00    -0.391 NA 
HETATM   16  C   UNL     1      -8.967  10.381  64.620  1.00  0.00    -0.209 C  
HETATM   17  C   UNL     1     -10.466  10.273  66.472  1.00  0.00    -0.241 C  
HETATM   18  C   UNL     1      -9.758  11.632  66.440  1.00  0.00    -0.214 C  
HETATM   19  H   UNL     1      -8.434  12.371  64.976  1.00  0.00     0.000 HD 
BRANCH  18  20
HETATM   20  C   UNL     1      -9.243  12.125  67.809  1.00  0.00    -0.189 C  
BRANCH  20  21
HETATM   21  N   UNL     1      -9.665  13.550  68.043  1.00  0.00    -0.221 N  
HETATM   22  H   UNL     1      -9.048  14.338  67.850  1.00  0.00     0.000 HD 
BRANCH  21  23
HETATM   23  S   UNL     1     -11.211  13.752  68.640  1.00  0.00    -0.297 S  
HETATM   24  O   UNL     1     -11.197  14.866  69.557  1.00  0.00    -0.252 OA 
HETATM   25  N   UNL     1     -11.262  12.385  69.561  1.00  0.00    -0.461 N  
HETATM   26  O   UNL     1     -12.151  13.614  67.562  1.00  0.00    -0.369 OA 
HETATM   27  H2  UNL     1     -10.571  11.651  69.717  1.00  0.00     0.000 HD 
HETATM   28  H1  UNL     1     -12.206  12.509  69.926  1.00  0.00     0.000 HD 
ENDBRANCH  21  23
ENDBRANCH  20  21
ENDBRANCH  18  20
ENDBRANCH  13  14
ENDBRANCH   3  13
BRANCH  10  29
HETATM   29  C   UNL     1     -11.178   6.453  72.140  1.00  0.00    -0.279 C  
HETATM   30  H   UNL     1     -13.060   6.610  72.528  1.00  0.00     0.000 HD 
HETATM   31  O   UNL     1     -12.541   6.590  71.732  1.00  0.00    -0.335 OA 
HETATM   32  C   UNL     1     -10.797   7.626  73.028  1.00  0.00    -0.457 C  
ENDBRANCH  10  29
TORSDOF 6
ENDMDL
MODEL      152
REMARK 921   NORMALIZED FREE ENERGY PREDICTED BY IDOCK:   -4.65 KCAL/MOL
REMARK 922        TOTAL FREE ENERGY PREDICTED BY IDOCK:   -7.17 KCAL/MOL
REMARK 923 INTER-LIGAND FREE ENERGY PREDICTED BY IDOCK:   -6.28 KCAL/MOL
REMARK 924 INTRA-LIGAND FREE ENERGY PREDICTED BY IDOCK:   -0.89 KCAL/MOL
REMARK 927      BINDING AFFINITY PREDICTED BY RF-SCORE:    0.00 PKD
ROOT
HETATM    1  C   UNL     1     -10.132  12.093  67.314  1.00  0.00    -0.202 C  
HETATM    2  C   UNL     1     -10.443  11.766  68.782  1.00  0.00    -0.221 C  
HETATM    3  C   UNL     1      -9.759  10.428  68.965  1.00  0.00    -0.206 C  
HETATM    4  C   UNL     1     -11.945  11.813  69.035  1.00  0.00    -0.341 C  
HETATM    5  O   UNL     1      -8.297   8.359  66.319  1.00  0.00    -0.112 OA 
HETATM    6  C   UNL     1      -9.159  10.032  67.822  1.00  0.00    -0.131 C  
HETATM    7  N   UNL     1      -9.274  10.982  66.816  1.00  0.00    -0.158 N  
HETATM    8  O   UNL     1      -9.908   9.892  64.860  1.00  0.00    -0.315 OA 
HETATM    9  C   UNL     1      -8.414   8.745  67.609  1.00  0.00    -0.125 C  
HETATM   10  C   UNL     1     -11.079  11.791  66.108  1.00  0.00    -0.358 C  
HETATM   11  O   UNL     1      -7.908   8.086  68.505  1.00  0.00    -0.110 OA 
HETATM   12  C   UNL     1     -10.022  10.763  65.692  1.00  0.00    -0.260 C  
ENDROOT
BRANCH   3  13
HETATM   13  S   UNL     1      -9.832   9.515  70.425  1.00  0.00    -0.265 SA 
BRANCH  13  14
HETATM   14  C   UNL     1     -11.397   8.575  70.354  1.00  0.00    -0.182 C  
HETATM   15  N   UNL     1     -11.465   7.155  72.273  1.00  0.00    -0.264 NA 
HETATM   16  C   UNL     1     -12.112   8.325  71.683  1.00  0.00    -0.306 C  
HETATM   17  C   UNL     1     -11.078   7.152  69.882  1.00  0.00    -0.264 C  
HETATM   18  C   UNL     1     -11.120   6.272  71.136  1.00  0.00    -0.298 C  
HETATM   19  H   UNL     1     -12.026   6.696  72.991  1.00  0.00     0.000 HD 
BRANCH  18  20
HETATM   20  C   UNL     1      -9.811   5.510  71.434  1.00  0.00    -0.166 C  
BRANCH  20  21
HETATM   21  N   UNL     1     -10.082   4.035  71.558  1.00  0.00    -0.144 N  
HETATM   22  H   UNL     1     -10.045   3.406  70.757  1.00  0.00     0.000 HD 
BRANCH  21  23
HETATM   23  S   UNL     1     -10.447   3.499  73.097  1.00  0.00    -0.177 S  
HETATM   24  O   UNL     1     -11.569   4.264  73.586  1.00  0.00    -0.204 OA 
HETATM   25  N   UNL     1      -9.107   4.094  73.851  1.00  0.00    -0.094 N  
HETATM   26  O   UNL     1     -10.387   2.063  73.119  1.00  0.00    -0.107 OA 
HETATM   27  H2  UNL     1      -8.310   4.621  73.494  1.00  0.00     0.000 HD 
HETATM   28  H1  UNL     1      -9.330   3.767  74.791  1.00  0.00     0.000 HD 
ENDBRANCH  21  23
ENDBRANCH  20  21
ENDBRANCH  18  20
ENDBRANCH  13  14
ENDBRANCH   3  13
BRANCH  10  29
HETATM   29  C   UNL     1     -11.337  12.988  65.216  1.00  0.00    -0.295 C  
HETATM   30  H   UNL     1     -12.354  14.617  65.390  1.00  0.00     0.000 HD 
HETATM   31  O   UNL     1     -12.192  13.866  65.950  1.00  0.00    -0.412 OA 
HETATM   32  C   UNL     1     -12.022  12.582  63.921  1.00  0.00    -0.563 C  
ENDBRANCH  10  29
TORSDOF 6
ENDMDL
MODEL      153
REMARK 921   NORMALIZED FREE ENERGY PREDICTED BY IDOCK:   -4.65 KCAL/MOL
REMARK 922        TOTAL FREE ENERGY PREDICTED BY IDOCK:   -7.16 KCAL/MOL
REMARK 923 INTER-LIGAND FREE ENERGY PREDICTED BY IDOCK:   -6.11 KCAL/MOL
REMARK 924 INTRA-LIGAND FREE ENERGY PREDICTED BY IDOCK:   -1.05 KCAL/MOL
REMARK 927      BINDING AFFINITY PREDICTED BY RF-SCORE:    0.00 PKD
ROOT
HETATM    1  C   UNL     1      -8.645   7.012  65.826  1.00  0.00    -0.130 C  
HETATM    2  C   UNL     1      -9.550   8.030  66.536  1.00  0.00    -0.295 C  
HETATM    3  C   UNL     1      -8.610   8.638  67.555  1.00  0.00    -0.135 C  
HETATM    4  C   UNL     1     -10.803   7.349  67.073  1.00  0.00    -0.307 C  
HETATM    5  O   UNL     1      -5.246   7.451  68.384  1.00  0.00    -0.022 OA 
HETATM    6  C   UNL     1      -7.381   8.085  67.470  1.00  0.00    -0.089 C  
HETATM    7  N   UNL     1      -7.295   7.163  66.435  1.00  0.00    -0.078 N  
HETATM    8  O   UNL     1      -6.235   5.258  67.250  1.00  0.00    -0.029 OA 
HETATM    9  C   UNL     1      -6.199   8.408  68.339  1.00  0.00    -0.054 C  
HETATM   10  C   UNL     1      -8.547   5.495  66.185  1.00  0.00    -0.129 C  
HETATM   11  O   UNL     1      -6.057   9.458  68.947  1.00  0.00    -0.043 OA 
HETATM   12  C   UNL     1      -7.130   5.825  66.667  1.00  0.00    -0.069 C  
ENDROOT
BRANCH   3  13
HETATM   13  S   UNL     1      -9.099   9.815  68.715  1.00  0.00    -0.141 SA 
BRANCH  13  14
HETATM   14  C   UNL     1     -10.126  11.023  67.806  1.00  0.00    -0.177 C  
HETATM   15  N   UNL     1     -10.711  12.760  69.337  1.00  0.00    -0.431 NA 
HETATM   16  C   UNL     1      -9.912  12.500  68.141  1.00  0.00    -0.224 C  
HETATM   17  C   UNL     1     -11.589  10.805  68.209  1.00  0.00    -0.297 C  
HETATM   18  C   UNL     1     -11.927  11.926  69.196  1.00  0.00    -0.276 C  
HETATM   19  H   UNL     1     -10.909  13.749  69.489  1.00  0.00     0.000 HD 
BRANCH  18  20
HETATM   20  C   UNL     1     -12.403  11.445  70.583  1.00  0.00    -0.373 C  
BRANCH  20  21
HETATM   21  N   UNL     1     -13.006  10.070  70.480  1.00  0.00    -0.583 N  
HETATM   22  H   UNL     1     -13.610   9.798  69.705  1.00  0.00     0.000 HD 
BRANCH  21  23
HETATM   23  S   UNL     1     -12.619   9.021  71.719  1.00  0.00    -0.394 S  
HETATM   24  O   UNL     1     -11.205   9.137  71.983  1.00  0.00    -0.364 OA 
HETATM   25  N   UNL     1     -12.827   7.616  70.880  1.00  0.00    -0.557 N  
HETATM   26  O   UNL     1     -13.632   9.102  72.736  1.00  0.00    -0.430 OA 
HETATM   27  H2  UNL     1     -13.104   7.444  69.914  1.00  0.00     0.000 HD 
HETATM   28  H1  UNL     1     -12.591   6.976  71.637  1.00  0.00     0.000 HD 
ENDBRANCH  21  23
ENDBRANCH  20  21
ENDBRANCH  18  20
ENDBRANCH  13  14
ENDBRANCH   3  13
BRANCH  10  29
HETATM   29  C   UNL     1      -8.728   4.570  64.999  1.00  0.00    -0.138 C  
HETATM   30  H   UNL     1      -8.491   4.742  63.094  1.00  0.00     0.000 HD 
HETATM   31  O   UNL     1      -8.377   5.323  63.837  1.00  0.00    -0.128 OA 
HETATM   32  C   UNL     1     -10.167   4.093  64.877  1.00  0.00    -0.218 C  
ENDBRANCH  10  29
TORSDOF 6
ENDMDL
MODEL      154
REMARK 921   NORMALIZED FREE ENERGY PREDICTED BY IDOCK:   -4.65 KCAL/MOL
REMARK 922        TOTAL FREE ENERGY PREDICTED BY IDOCK:   -7.16 KCAL/MOL
REMARK 923 INTER-LIGAND FREE ENERGY PREDICTED BY IDOCK:   -5.85 KCAL/MOL
REMARK 924 INTRA-LIGAND FREE ENERGY PREDICTED BY IDOCK:   -1.30 KCAL/MOL
REMARK 927      BINDING AFFINITY PREDICTED BY RF-SCORE:    0.00 PKD
ROOT
HETATM    1  C   UNL     1     -11.549  12.691  70.399  1.00  0.00     0.169 C  
HETATM    2  C   UNL     1     -11.802  11.299  70.995  1.00  0.00    -0.046 C  
HETATM    3  C   UNL     1     -11.554  10.391  69.809  1.00  0.00    -0.269 C  
HETATM    4  C   UNL     1     -13.183  11.233  71.637  1.00  0.00    -0.431 C  
HETATM    5  O   UNL     1     -11.072  11.446  66.335  1.00  0.00    -0.295 OA 
HETATM    6  C   UNL     1     -11.221  11.108  68.714  1.00  0.00    -0.253 C  
HETATM    7  N   UNL     1     -11.132  12.467  68.987  1.00  0.00    -0.246 N  
HETATM    8  O   UNL     1     -12.260  13.617  67.308  1.00  0.00    -0.366 OA 
HETATM    9  C   UNL     1     -10.937  10.559  67.345  1.00  0.00    -0.288 C  
HETATM   10  C   UNL     1     -12.655  13.639  69.834  1.00  0.00    -0.116 C  
HETATM   11  O   UNL     1     -10.576   9.413  67.124  1.00  0.00    -0.260 OA 
HETATM   12  C   UNL     1     -12.016  13.371  68.467  1.00  0.00    -0.328 C  
ENDROOT
BRANCH   3  13
HETATM   13  S   UNL     1     -11.765   8.682  69.860  1.00  0.00     0.556 SA 
BRANCH  13  14
HETATM   14  C   UNL     1     -10.814   8.100  71.308  1.00  0.00    -0.237 C  
HETATM   15  N   UNL     1      -8.500   8.446  70.830  1.00  0.00    -0.129 NA 
HETATM   16  C   UNL     1      -9.580   8.916  71.696  1.00  0.00    -0.293 C  
HETATM   17  C   UNL     1     -10.207   6.734  70.963  1.00  0.00    -0.217 C  
HETATM   18  C   UNL     1      -8.730   6.994  70.653  1.00  0.00    -0.149 C  
HETATM   19  H   UNL     1      -7.569   8.674  71.178  1.00  0.00     0.000 HD 
BRANCH  18  20
HETATM   20  C   UNL     1      -8.279   6.554  69.244  1.00  0.00    -0.123 C  
BRANCH  20  21
HETATM   21  N   UNL     1      -9.295   6.972  68.216  1.00  0.00    -0.127 N  
HETATM   22  H   UNL     1      -9.701   7.907  68.201  1.00  0.00     0.000 HD 
BRANCH  21  23
HETATM   23  S   UNL     1      -9.712   5.801  67.101  1.00  0.00    -0.148 S  
HETATM   24  O   UNL     1      -8.923   6.009  65.912  1.00  0.00    -0.156 OA 
HETATM   25  N   UNL     1     -11.227   6.360  66.765  1.00  0.00    -0.742 N  
HETATM   26  O   UNL     1      -9.830   4.535  67.773  1.00  0.00    -0.159 OA 
HETATM   27  H2  UNL     1     -11.743   7.164  67.122  1.00  0.00     0.000 HD 
HETATM   28  H1  UNL     1     -11.482   5.645  66.084  1.00  0.00     0.000 HD 
ENDBRANCH  21  23
ENDBRANCH  20  21
ENDBRANCH  18  20
ENDBRANCH  13  14
ENDBRANCH   3  13
BRANCH  10  29
HETATM   29  C   UNL     1     -12.614  15.041  70.407  1.00  0.00    -0.350 C  
HETATM   30  H   UNL     1     -11.441  15.980  71.615  1.00  0.00     0.000 HD 
HETATM   31  O   UNL     1     -11.466  15.101  71.255  1.00  0.00    -0.327 OA 
HETATM   32  C   UNL     1     -13.861  15.348  71.221  1.00  0.00    -0.523 C  
ENDBRANCH  10  29
TORSDOF 6
ENDMDL
MODEL      155
REMARK 921   NORMALIZED FREE ENERGY PREDICTED BY IDOCK:   -4.64 KCAL/MOL
REMARK 922        TOTAL FREE ENERGY PREDICTED BY IDOCK:   -7.16 KCAL/MOL
REMARK 923 INTER-LIGAND FREE ENERGY PREDICTED BY IDOCK:   -5.65 KCAL/MOL
REMARK 924 INTRA-LIGAND FREE ENERGY PREDICTED BY IDOCK:   -1.51 KCAL/MOL
REMARK 927      BINDING AFFINITY PREDICTED BY RF-SCORE:    0.00 PKD
ROOT
HETATM    1  C   UNL     1      -9.269  13.743  66.378  1.00  0.00    -0.137 C  
HETATM    2  C   UNL     1      -8.312  12.584  66.689  1.00  0.00     0.040 C  
HETATM    3  C   UNL     1      -9.185  11.654  67.504  1.00  0.00    -0.172 C  
HETATM    4  C   UNL     1      -7.043  13.101  67.357  1.00  0.00    -0.116 C  
HETATM    5  O   UNL     1     -12.521  12.407  68.816  1.00  0.00     0.098 OA 
HETATM    6  C   UNL     1     -10.426  12.165  67.654  1.00  0.00    -0.206 C  
HETATM    7  N   UNL     1     -10.583  13.363  66.969  1.00  0.00    -0.263 N  
HETATM    8  O   UNL     1     -11.631  14.877  68.391  1.00  0.00    -0.301 OA 
HETATM    9  C   UNL     1     -11.555  11.546  68.428  1.00  0.00    -0.308 C  
HETATM   10  C   UNL     1      -9.375  15.065  67.204  1.00  0.00    -0.225 C  
HETATM   11  O   UNL     1     -11.646  10.354  68.678  1.00  0.00    -0.220 OA 
HETATM   12  C   UNL     1     -10.758  14.553  67.619  1.00  0.00    -0.254 C  
ENDROOT
BRANCH   3  13
HETATM   13  S   UNL     1      -8.615  10.188  68.209  1.00  0.00    -0.118 SA 
BRANCH  13  14
HETATM   14  C   UNL     1      -8.791   8.907  66.918  1.00  0.00    -0.127 C  
HETATM   15  N   UNL     1     -11.030   8.082  67.031  1.00  0.00    -0.385 NA 
HETATM   16  C   UNL     1     -10.129   8.854  66.178  1.00  0.00    -0.139 C  
HETATM   17  C   UNL     1      -8.740   7.534  67.599  1.00  0.00    -0.122 C  
HETATM   18  C   UNL     1     -10.189   7.040  67.664  1.00  0.00    -0.193 C  
HETATM   19  H   UNL     1     -11.841   7.709  66.538  1.00  0.00     0.000 HD 
BRANCH  18  20
HETATM   20  C   UNL     1     -10.704   6.735  69.087  1.00  0.00    -0.253 C  
BRANCH  20  21
HETATM   21  N   UNL     1      -9.792   7.348  70.115  1.00  0.00    -0.180 N  
HETATM   22  H   UNL     1      -8.777   7.344  70.014  1.00  0.00     0.000 HD 
BRANCH  21  23
HETATM   23  S   UNL     1     -10.553   8.037  71.432  1.00  0.00    -0.221 S  
HETATM   24  O   UNL     1     -10.591   7.059  72.492  1.00  0.00    -0.206 OA 
HETATM   25  N   UNL     1     -12.072   8.095  70.791  1.00  0.00    -0.491 N  
HETATM   26  O   UNL     1     -10.074   9.382  71.599  1.00  0.00    -0.256 OA 
HETATM   27  H2  UNL     1     -12.431   7.804  69.882  1.00  0.00     0.000 HD 
HETATM   28  H1  UNL     1     -12.537   8.516  71.595  1.00  0.00     0.000 HD 
ENDBRANCH  21  23
ENDBRANCH  20  21
ENDBRANCH  18  20
ENDBRANCH  13  14
ENDBRANCH   3  13
BRANCH  10  29
HETATM   29  C   UNL     1      -9.273  16.323  66.365  1.00  0.00    -0.299 C  
HETATM   30  H   UNL     1      -7.831  17.489  65.837  1.00  0.00     0.000 HD 
HETATM   31  O   UNL     1      -7.895  16.700  66.363  1.00  0.00    -0.277 OA 
HETATM   32  C   UNL     1     -10.105  17.453  66.948  1.00  0.00    -0.314 C  
ENDBRANCH  10  29
TORSDOF 6
ENDMDL
MODEL      156
REMARK 921   NORMALIZED FREE ENERGY PREDICTED BY IDOCK:   -4.63 KCAL/MOL
REMARK 922        TOTAL FREE ENERGY PREDICTED BY IDOCK:   -7.14 KCAL/MOL
REMARK 923 INTER-LIGAND FREE ENERGY PREDICTED BY IDOCK:   -6.81 KCAL/MOL
REMARK 924 INTRA-LIGAND FREE ENERGY PREDICTED BY IDOCK:   -0.32 KCAL/MOL
REMARK 927      BINDING AFFINITY PREDICTED BY RF-SCORE:    0.00 PKD
ROOT
HETATM    1  C   UNL     1      -8.669   7.417  68.784  1.00  0.00    -0.128 C  
HETATM    2  C   UNL     1      -8.898   8.019  67.390  1.00  0.00    -0.134 C  
HETATM    3  C   UNL     1      -8.208   9.362  67.502  1.00  0.00    -0.117 C  
HETATM    4  C   UNL     1     -10.384   8.033  67.051  1.00  0.00    -0.414 C  
HETATM    5  O   UNL     1      -6.899  10.878  70.569  1.00  0.00    -0.241 OA 
HETATM    6  C   UNL     1      -7.673   9.528  68.731  1.00  0.00    -0.080 C  
HETATM    7  N   UNL     1      -7.841   8.406  69.530  1.00  0.00    -0.100 N  
HETATM    8  O   UNL     1      -8.585   9.110  71.619  1.00  0.00    -0.342 OA 
HETATM    9  C   UNL     1      -6.943  10.745  69.225  1.00  0.00    -0.102 C  
HETATM   10  C   UNL     1      -9.681   7.492  69.971  1.00  0.00    -0.172 C  
HETATM   11  O   UNL     1      -6.389  11.557  68.500  1.00  0.00    -0.050 OA 
HETATM   12  C   UNL     1      -8.651   8.414  70.632  1.00  0.00    -0.141 C  
ENDROOT
BRANCH   3  13
HETATM   13  S   UNL     1      -8.201  10.535  66.240  1.00  0.00    -0.153 SA 
BRANCH  13  14
HETATM   14  C   UNL     1      -9.916  10.610  65.613  1.00  0.00    -0.268 C  
HETATM   15  N   UNL     1     -10.122  12.617  64.334  1.00  0.00    -0.541 NA 
HETATM   16  C   UNL     1     -10.109  11.161  64.199  1.00  0.00    -0.333 C  
HETATM   17  C   UNL     1     -10.692  11.620  66.466  1.00  0.00    -0.313 C  
HETATM   18  C   UNL     1     -10.797  12.894  65.622  1.00  0.00    -0.273 C  
HETATM   19  H   UNL     1     -10.543  13.097  63.539  1.00  0.00     0.000 HD 
BRANCH  18  20
HETATM   20  C   UNL     1     -10.192  14.154  66.277  1.00  0.00    -0.295 C  
BRANCH  20  21
HETATM   21  N   UNL     1     -11.285  15.063  66.769  1.00  0.00    -0.339 N  
HETATM   22  H   UNL     1     -12.182  15.144  66.291  1.00  0.00     0.000 HD 
BRANCH  21  23
HETATM   23  S   UNL     1     -10.931  15.931  68.150  1.00  0.00    -0.342 S  
HETATM   24  O   UNL     1      -9.843  15.271  68.830  1.00  0.00    -0.202 OA 
HETATM   25  N   UNL     1     -12.302  15.562  68.989  1.00  0.00    -0.611 N  
HETATM   26  O   UNL     1     -10.947  17.334  67.839  1.00  0.00    -0.336 OA 
HETATM   27  H2  UNL     1     -13.108  14.988  68.743  1.00  0.00     0.000 HD 
HETATM   28  H1  UNL     1     -12.086  16.092  69.833  1.00  0.00     0.000 HD 
ENDBRANCH  21  23
ENDBRANCH  20  21
ENDBRANCH  18  20
ENDBRANCH  13  14
ENDBRANCH   3  13
BRANCH  10  29
HETATM   29  C   UNL     1      -9.986   6.150  70.604  1.00  0.00    -0.188 C  
HETATM   30  H   UNL     1     -10.483   4.413  69.931  1.00  0.00     0.000 HD 
HETATM   31  O   UNL     1     -10.291   5.255  69.533  1.00  0.00    -0.253 OA 
HETATM   32  C   UNL     1     -11.176   6.234  71.546  1.00  0.00    -0.344 C  
ENDBRANCH  10  29
TORSDOF 6
ENDMDL
MODEL      157
REMARK 921   NORMALIZED FREE ENERGY PREDICTED BY IDOCK:   -4.62 KCAL/MOL
REMARK 922        TOTAL FREE ENERGY PREDICTED BY IDOCK:   -7.13 KCAL/MOL
REMARK 923 INTER-LIGAND FREE ENERGY PREDICTED BY IDOCK:   -6.59 KCAL/MOL
REMARK 924 INTRA-LIGAND FREE ENERGY PREDICTED BY IDOCK:   -0.54 KCAL/MOL
REMARK 927      BINDING AFFINITY PREDICTED BY RF-SCORE:    0.00 PKD
ROOT
HETATM    1  C   UNL     1      -9.117   8.122  67.189  1.00  0.00    -0.140 C  
HETATM    2  C   UNL     1      -9.182   9.572  66.687  1.00  0.00    -0.190 C  
HETATM    3  C   UNL     1      -9.975  10.256  67.779  1.00  0.00    -0.173 C  
HETATM    4  C   UNL     1      -9.760   9.625  65.278  1.00  0.00    -0.330 C  
HETATM    5  O   UNL     1     -11.730   8.609  70.541  1.00  0.00    -0.212 OA 
HETATM    6  C   UNL     1     -10.321   9.379  68.747  1.00  0.00    -0.209 C  
HETATM    7  N   UNL     1      -9.802   8.112  68.512  1.00  0.00    -0.173 N  
HETATM    8  O   UNL     1     -11.498   6.559  68.862  1.00  0.00    -0.266 OA 
HETATM    9  C   UNL     1     -11.139   9.681  69.970  1.00  0.00    -0.255 C  
HETATM   10  C   UNL     1     -10.097   6.982  66.767  1.00  0.00    -0.270 C  
HETATM   11  O   UNL     1     -11.257  10.793  70.461  1.00  0.00    -0.282 OA 
HETATM   12  C   UNL     1     -10.601   7.044  68.212  1.00  0.00    -0.196 C  
ENDROOT
BRANCH   3  13
HETATM   13  S   UNL     1     -10.437  11.915  67.722  1.00  0.00    -0.208 SA 
BRANCH  13  14
HETATM   14  C   UNL     1      -8.915  12.848  67.332  1.00  0.00    -0.199 C  
HETATM   15  N   UNL     1      -8.772  14.662  68.879  1.00  0.00    -0.268 NA 
HETATM   16  C   UNL     1      -8.123  13.403  68.517  1.00  0.00    -0.105 C  
HETATM   17  C   UNL     1      -9.316  14.123  66.581  1.00  0.00    -0.299 C  
HETATM   18  C   UNL     1      -9.224  15.262  67.603  1.00  0.00    -0.187 C  
HETATM   19  H   UNL     1      -8.182  15.281  69.435  1.00  0.00     0.000 HD 
BRANCH  18  20
HETATM   20  C   UNL     1     -10.537  16.043  67.819  1.00  0.00    -0.309 C  
BRANCH  20  21
HETATM   21  N   UNL     1     -10.255  17.516  67.937  1.00  0.00    -0.332 N  
HETATM   22  H   UNL     1     -10.231  17.996  68.836  1.00  0.00     0.000 HD 
BRANCH  21  23
HETATM   23  S   UNL     1      -9.984  18.313  66.495  1.00  0.00    -0.389 S  
HETATM   24  O   UNL     1     -10.669  19.582  66.545  1.00  0.00    -0.449 OA 
HETATM   25  N   UNL     1     -10.891  17.326  65.534  1.00  0.00    -0.159 N  
HETATM   26  O   UNL     1      -8.601  18.164  66.130  1.00  0.00    -0.456 OA 
HETATM   27  H2  UNL     1     -11.441  16.495  65.751  1.00  0.00     0.000 HD 
HETATM   28  H1  UNL     1     -10.725  17.813  64.654  1.00  0.00     0.000 HD 
ENDBRANCH  21  23
ENDBRANCH  20  21
ENDBRANCH  18  20
ENDBRANCH  13  14
ENDBRANCH   3  13
BRANCH  10  29
HETATM   29  C   UNL     1      -9.404   5.726  66.279  1.00  0.00    -0.156 C  
HETATM   30  H   UNL     1      -9.972   3.924  65.895  1.00  0.00     0.000 HD 
HETATM   31  O   UNL     1     -10.407   4.711  66.201  1.00  0.00    -0.269 OA 
HETATM   32  C   UNL     1      -8.310   5.283  67.237  1.00  0.00    -0.107 C  
ENDBRANCH  10  29
TORSDOF 6
ENDMDL
MODEL      158
REMARK 921   NORMALIZED FREE ENERGY PREDICTED BY IDOCK:   -4.62 KCAL/MOL
REMARK 922        TOTAL FREE ENERGY PREDICTED BY IDOCK:   -7.13 KCAL/MOL
REMARK 923 INTER-LIGAND FREE ENERGY PREDICTED BY IDOCK:   -5.39 KCAL/MOL
REMARK 924 INTRA-LIGAND FREE ENERGY PREDICTED BY IDOCK:   -1.74 KCAL/MOL
REMARK 927      BINDING AFFINITY PREDICTED BY RF-SCORE:    0.00 PKD
ROOT
HETATM    1  C   UNL     1      -7.726   8.190  65.853  1.00  0.00    -0.091 C  
HETATM    2  C   UNL     1      -8.521   9.396  66.372  1.00  0.00    -0.131 C  
HETATM    3  C   UNL     1      -9.626   8.735  67.167  1.00  0.00    -0.175 C  
HETATM    4  C   UNL     1      -8.946  10.296  65.217  1.00  0.00    -0.214 C  
HETATM    5  O   UNL     1     -10.408   5.157  67.235  1.00  0.00    -0.199 OA 
HETATM    6  C   UNL     1      -9.513   7.390  67.126  1.00  0.00    -0.149 C  
HETATM    7  N   UNL     1      -8.385   6.983  66.426  1.00  0.00    -0.119 N  
HETATM    8  O   UNL     1      -9.010   5.275  64.975  1.00  0.00    -0.149 OA 
HETATM    9  C   UNL     1     -10.444   6.400  67.766  1.00  0.00    -0.226 C  
HETATM   10  C   UNL     1      -7.917   7.526  64.452  1.00  0.00    -0.117 C  
HETATM   11  O   UNL     1     -11.169   6.650  68.716  1.00  0.00    -0.248 OA 
HETATM   12  C   UNL     1      -8.470   6.327  65.230  1.00  0.00    -0.111 C  
ENDROOT
BRANCH   3  13
HETATM   13  S   UNL     1     -10.897   9.609  67.937  1.00  0.00    -0.149 SA 
BRANCH  13  14
HETATM   14  C   UNL     1     -10.151  10.389  69.411  1.00  0.00    -0.229 C  
HETATM   15  N   UNL     1      -9.458   8.635  70.876  1.00  0.00    -0.179 NA 
HETATM   16  C   UNL     1      -8.931   9.693  70.017  1.00  0.00    -0.237 C  
HETATM   17  C   UNL     1     -11.169  10.319  70.556  1.00  0.00    -0.408 C  
HETATM   18  C   UNL     1     -10.701   9.180  71.468  1.00  0.00    -0.367 C  
HETATM   19  H   UNL     1      -8.789   8.299  71.568  1.00  0.00     0.000 HD 
BRANCH  18  20
HETATM   20  C   UNL     1     -11.733   8.049  71.670  1.00  0.00    -0.283 C  
BRANCH  20  21
HETATM   21  N   UNL     1     -11.563   7.424  73.027  1.00  0.00    -0.597 N  
HETATM   22  H   UNL     1     -12.017   7.799  73.860  1.00  0.00     0.000 HD 
BRANCH  21  23
HETATM   23  S   UNL     1     -10.579   6.077  73.080  1.00  0.00    -0.254 S  
HETATM   24  O   UNL     1      -9.206   6.521  73.105  1.00  0.00    -0.129 OA 
HETATM   25  N   UNL     1     -10.872   5.542  71.547  1.00  0.00    -0.227 N  
HETATM   26  O   UNL     1     -11.130   5.130  74.009  1.00  0.00    -0.250 OA 
HETATM   27  H2  UNL     1     -11.464   5.914  70.805  1.00  0.00     0.000 HD 
HETATM   28  H1  UNL     1     -10.271   4.719  71.580  1.00  0.00     0.000 HD 
ENDBRANCH  21  23
ENDBRANCH  20  21
ENDBRANCH  18  20
ENDBRANCH  13  14
ENDBRANCH   3  13
BRANCH  10  29
HETATM   29  C   UNL     1      -6.631   7.368  63.667  1.00  0.00    -0.053 C  
HETATM   30  H   UNL     1      -5.077   6.237  63.818  1.00  0.00     0.000 HD 
HETATM   31  O   UNL     1      -5.884   6.335  64.311  1.00  0.00    -0.022 OA 
HETATM   32  C   UNL     1      -5.818   8.652  63.663  1.00  0.00    -0.072 C  
ENDBRANCH  10  29
TORSDOF 6
ENDMDL
MODEL      159
REMARK 921   NORMALIZED FREE ENERGY PREDICTED BY IDOCK:   -4.59 KCAL/MOL
REMARK 922        TOTAL FREE ENERGY PREDICTED BY IDOCK:   -7.08 KCAL/MOL
REMARK 923 INTER-LIGAND FREE ENERGY PREDICTED BY IDOCK:   -6.22 KCAL/MOL
REMARK 924 INTRA-LIGAND FREE ENERGY PREDICTED BY IDOCK:   -0.87 KCAL/MOL
REMARK 927      BINDING AFFINITY PREDICTED BY RF-SCORE:    0.00 PKD
ROOT
HETATM    1  C   UNL     1     -11.655  14.168  66.384  1.00  0.00    -0.369 C  
HETATM    2  C   UNL     1     -11.642  12.636  66.491  1.00  0.00    -0.441 C  
HETATM    3  C   UNL     1     -11.723  12.418  67.986  1.00  0.00    -0.356 C  
HETATM    4  C   UNL     1     -10.427  12.060  65.774  1.00  0.00    -0.290 C  
HETATM    5  O   UNL     1     -11.414  14.992  70.575  1.00  0.00    -0.264 OA 
HETATM    6  C   UNL     1     -11.771  13.596  68.645  1.00  0.00    -0.354 C  
HETATM    7  N   UNL     1     -11.800  14.679  67.776  1.00  0.00    -0.353 N  
HETATM    8  O   UNL     1     -10.269  16.257  68.535  1.00  0.00    -0.229 OA 
HETATM    9  C   UNL     1     -11.821  13.780  70.135  1.00  0.00    -0.290 C  
HETATM   10  C   UNL     1     -10.385  15.070  66.274  1.00  0.00    -0.304 C  
HETATM   11  O   UNL     1     -12.223  12.936  70.920  1.00  0.00    -0.347 OA 
HETATM   12  C   UNL     1     -10.758  15.559  67.677  1.00  0.00    -0.302 C  
ENDROOT
BRANCH   3  13
HETATM   13  S   UNL     1     -11.668  10.861  68.724  1.00  0.00    -0.230 SA 
BRANCH  13  14
HETATM   14  C   UNL     1     -10.023  10.733  69.509  1.00  0.00    -0.054 C  
HETATM   15  N   UNL     1      -8.559   9.693  67.934  1.00  0.00    -0.122 NA 
HETATM   16  C   UNL     1      -8.810  10.966  68.608  1.00  0.00    -0.158 C  
HETATM   17  C   UNL     1      -9.822   9.281  69.959  1.00  0.00    -0.232 C  
HETATM   18  C   UNL     1      -8.889   8.643  68.924  1.00  0.00    -0.138 C  
HETATM   19  H   UNL     1      -7.618   9.613  67.550  1.00  0.00     0.000 HD 
BRANCH  18  20
HETATM   20  C   UNL     1      -9.468   7.403  68.210  1.00  0.00    -0.142 C  
BRANCH  20  21
HETATM   21  N   UNL     1      -8.370   6.634  67.527  1.00  0.00    -0.121 N  
HETATM   22  H   UNL     1      -7.815   5.930  68.014  1.00  0.00     0.000 HD 
BRANCH  21  23
HETATM   23  S   UNL     1      -8.122   7.010  65.920  1.00  0.00    -0.125 S  
HETATM   24  O   UNL     1      -9.203   7.859  65.483  1.00  0.00     0.017 OA 
HETATM   25  N   UNL     1      -8.423   5.510  65.303  1.00  0.00    -0.144 N  
HETATM   26  O   UNL     1      -6.732   7.316  65.720  1.00  0.00    -0.050 OA 
HETATM   27  H2  UNL     1      -8.680   4.634  65.758  1.00  0.00     0.000 HD 
HETATM   28  H1  UNL     1      -8.272   5.740  64.322  1.00  0.00     0.000 HD 
ENDBRANCH  21  23
ENDBRANCH  20  21
ENDBRANCH  18  20
ENDBRANCH  13  14
ENDBRANCH   3  13
BRANCH  10  29
HETATM   29  C   UNL     1     -10.423  16.047  65.116  1.00  0.00    -0.303 C  
HETATM   30  H   UNL     1     -10.729  17.943  64.949  1.00  0.00     0.000 HD 
HETATM   31  O   UNL     1     -10.705  17.331  65.675  1.00  0.00    -0.434 OA 
HETATM   32  C   UNL     1     -11.506  15.683  64.114  1.00  0.00    -0.080 C  
ENDBRANCH  10  29
TORSDOF 6
ENDMDL
MODEL      160
REMARK 921   NORMALIZED FREE ENERGY PREDICTED BY IDOCK:   -4.54 KCAL/MOL
REMARK 922        TOTAL FREE ENERGY PREDICTED BY IDOCK:   -7.02 KCAL/MOL
REMARK 923 INTER-LIGAND FREE ENERGY PREDICTED BY IDOCK:   -5.94 KCAL/MOL
REMARK 924 INTRA-LIGAND FREE ENERGY PREDICTED BY IDOCK:   -1.08 KCAL/MOL
REMARK 927      BINDING AFFINITY PREDICTED BY RF-SCORE:    0.00 PKD
ROOT
HETATM    1  C   UNL     1     -11.625  12.355  68.667  1.00  0.00    -0.319 C  
HETATM    2  C   UNL     1     -10.321  11.808  68.068  1.00  0.00    -0.212 C  
HETATM    3  C   UNL     1     -10.188  10.468  68.757  1.00  0.00    -0.190 C  
HETATM    4  C   UNL     1      -9.182  12.802  68.266  1.00  0.00    -0.186 C  
HETATM    5  O   UNL     1     -12.219   9.255  71.554  1.00  0.00    -0.318 OA 
HETATM    6  C   UNL     1     -11.215  10.258  69.609  1.00  0.00    -0.269 C  
HETATM    7  N   UNL     1     -12.142  11.291  69.571  1.00  0.00    -0.328 N  
HETATM    8  O   UNL     1     -12.671  11.868  71.763  1.00  0.00    -0.285 OA 
HETATM    9  C   UNL     1     -11.406   9.058  70.493  1.00  0.00    -0.243 C  
HETATM   10  C   UNL     1     -11.713  13.322  69.891  1.00  0.00    -0.330 C  
HETATM   11  O   UNL     1     -10.910   7.962  70.283  1.00  0.00    -0.238 OA 
HETATM   12  C   UNL     1     -12.334  12.133  70.632  1.00  0.00    -0.295 C  
ENDROOT
BRANCH   3  13
HETATM   13  S   UNL     1      -8.845   9.412  68.531  1.00  0.00    -0.128 SA 
BRANCH  13  14
HETATM   14  C   UNL     1      -8.490   9.425  66.739  1.00  0.00    -0.127 C  
HETATM   15  N   UNL     1      -9.207   7.326  65.852  1.00  0.00    -0.379 NA 
HETATM   16  C   UNL     1      -9.518   8.754  65.827  1.00  0.00    -0.169 C  
HETATM   17  C   UNL     1      -7.235   8.577  66.495  1.00  0.00    -0.080 C  
HETATM   18  C   UNL     1      -7.732   7.239  65.938  1.00  0.00    -0.097 C  
HETATM   19  H   UNL     1      -9.603   6.808  65.068  1.00  0.00     0.000 HD 
BRANCH  18  20
HETATM   20  C   UNL     1      -7.320   6.003  66.766  1.00  0.00    -0.079 C  
BRANCH  20  21
HETATM   21  N   UNL     1      -8.301   5.774  67.883  1.00  0.00    -0.104 N  
HETATM   22  H   UNL     1      -8.479   6.474  68.603  1.00  0.00     0.000 HD 
BRANCH  21  23
HETATM   23  S   UNL     1      -9.078   4.296  67.866  1.00  0.00    -0.141 S  
HETATM   24  O   UNL     1     -10.139   4.356  66.891  1.00  0.00    -0.209 OA 
HETATM   25  N   UNL     1      -9.792   4.416  69.348  1.00  0.00    -0.199 N  
HETATM   26  O   UNL     1      -8.094   3.249  67.915  1.00  0.00    -0.077 OA 
HETATM   27  H2  UNL     1      -9.768   5.155  70.050  1.00  0.00     0.000 HD 
HETATM   28  H1  UNL     1     -10.267   3.513  69.337  1.00  0.00     0.000 HD 
ENDBRANCH  21  23
ENDBRANCH  20  21
ENDBRANCH  18  20
ENDBRANCH  13  14
ENDBRANCH   3  13
BRANCH  10  29
HETATM   29  C   UNL     1     -12.554  14.557  69.639  1.00  0.00    -0.070 C  
HETATM   30  H   UNL     1     -12.373  16.117  68.521  1.00  0.00     0.000 HD 
HETATM   31  O   UNL     1     -11.846  15.343  68.679  1.00  0.00    -0.346 OA 
HETATM   32  C   UNL     1     -12.750  15.368  70.909  1.00  0.00    -0.520 C  
ENDBRANCH  10  29
TORSDOF 6
ENDMDL
MODEL      161
REMARK 921   NORMALIZED FREE ENERGY PREDICTED BY IDOCK:   -4.54 KCAL/MOL
REMARK 922        TOTAL FREE ENERGY PREDICTED BY IDOCK:   -7.02 KCAL/MOL
REMARK 923 INTER-LIGAND FREE ENERGY PREDICTED BY IDOCK:   -6.51 KCAL/MOL
REMARK 924 INTRA-LIGAND FREE ENERGY PREDICTED BY IDOCK:   -0.51 KCAL/MOL
REMARK 927      BINDING AFFINITY PREDICTED BY RF-SCORE:    0.00 PKD
ROOT
HETATM    1  C   UNL     1      -8.184  17.229  66.820  1.00  0.00    -0.247 C  
HETATM    2  C   UNL     1      -7.808  15.740  66.807  1.00  0.00    -0.248 C  
HETATM    3  C   UNL     1      -9.029  15.095  67.427  1.00  0.00    -0.183 C  
HETATM    4  C   UNL     1      -6.476  15.517  67.514  1.00  0.00    -0.186 C  
HETATM    5  O   UNL     1     -11.819  16.835  69.040  1.00  0.00     0.200 OA 
HETATM    6  C   UNL     1      -9.954  16.024  67.751  1.00  0.00    -0.234 C  
HETATM    7  N   UNL     1      -9.566  17.301  67.371  1.00  0.00    -0.249 N  
HETATM    8  O   UNL     1      -9.967  18.740  69.154  1.00  0.00    -0.359 OA 
HETATM    9  C   UNL     1     -11.277  15.766  68.416  1.00  0.00    -0.362 C  
HETATM   10  C   UNL     1      -7.777  18.247  67.933  1.00  0.00    -0.249 C  
HETATM   11  O   UNL     1     -11.865  14.696  68.388  1.00  0.00    -0.315 OA 
HETATM   12  C   UNL     1      -9.267  18.272  68.286  1.00  0.00    -0.309 C  
ENDROOT
BRANCH   3  13
HETATM   13  S   UNL     1      -9.153  13.405  67.745  1.00  0.00    -0.213 SA 
BRANCH  13  14
HETATM   14  C   UNL     1      -9.909  12.666  66.254  1.00  0.00    -0.262 C  
HETATM   15  N   UNL     1     -11.827  11.433  66.962  1.00  0.00    -0.468 NA 
HETATM   16  C   UNL     1     -11.437  12.621  66.206  1.00  0.00    -0.364 C  
HETATM   17  C   UNL     1      -9.537  11.179  66.218  1.00  0.00    -0.234 C  
HETATM   18  C   UNL     1     -10.783  10.420  66.686  1.00  0.00    -0.128 C  
HETATM   19  H   UNL     1     -12.773  11.111  66.757  1.00  0.00     0.000 HD 
BRANCH  18  20
HETATM   20  C   UNL     1     -10.567   9.529  67.927  1.00  0.00    -0.244 C  
BRANCH  20  21
HETATM   21  N   UNL     1     -11.004   8.118  67.639  1.00  0.00    -0.502 N  
HETATM   22  H   UNL     1     -11.986   7.860  67.547  1.00  0.00     0.000 HD 
BRANCH  21  23
HETATM   23  S   UNL     1      -9.771   7.003  67.479  1.00  0.00    -0.143 S  
HETATM   24  O   UNL     1     -10.193   5.772  68.101  1.00  0.00    -0.159 OA 
HETATM   25  N   UNL     1      -8.706   7.715  68.517  1.00  0.00    -0.128 N  
HETATM   26  O   UNL     1      -9.236   7.084  66.147  1.00  0.00    -0.152 OA 
HETATM   27  H2  UNL     1      -8.777   8.564  69.078  1.00  0.00     0.000 HD 
HETATM   28  H1  UNL     1      -7.954   7.034  68.419  1.00  0.00     0.000 HD 
ENDBRANCH  21  23
ENDBRANCH  20  21
ENDBRANCH  18  20
ENDBRANCH  13  14
ENDBRANCH   3  13
BRANCH  10  29
HETATM   29  C   UNL     1      -7.120  19.506  67.404  1.00  0.00    -0.213 C  
HETATM   30  H   UNL     1      -6.402  21.103  68.208  1.00  0.00     0.000 HD 
HETATM   31  O   UNL     1      -6.814  20.314  68.541  1.00  0.00    -0.292 OA 
HETATM   32  C   UNL     1      -8.048  20.271  66.474  1.00  0.00    -0.269 C  
ENDBRANCH  10  29
TORSDOF 6
ENDMDL
MODEL      162
REMARK 921   NORMALIZED FREE ENERGY PREDICTED BY IDOCK:   -4.54 KCAL/MOL
REMARK 922        TOTAL FREE ENERGY PREDICTED BY IDOCK:   -7.02 KCAL/MOL
REMARK 923 INTER-LIGAND FREE ENERGY PREDICTED BY IDOCK:   -6.32 KCAL/MOL
REMARK 924 INTRA-LIGAND FREE ENERGY PREDICTED BY IDOCK:   -0.70 KCAL/MOL
REMARK 927      BINDING AFFINITY PREDICTED BY RF-SCORE:    0.00 PKD
ROOT
HETATM    1  C   UNL     1     -10.300   5.041  70.065  1.00  0.00    -0.233 C  
HETATM    2  C   UNL     1     -11.090   6.256  69.557  1.00  0.00    -0.476 C  
HETATM    3  C   UNL     1     -10.196   6.782  68.455  1.00  0.00    -0.178 C  
HETATM    4  C   UNL     1     -11.404   7.208  70.704  1.00  0.00    -0.327 C  
HETATM    5  O   UNL     1      -6.780   5.682  67.721  1.00  0.00    -0.055 OA 
HETATM    6  C   UNL     1      -9.083   6.027  68.333  1.00  0.00    -0.112 C  
HETATM    7  N   UNL     1      -9.092   4.941  69.199  1.00  0.00    -0.098 N  
HETATM    8  O   UNL     1      -7.008   4.818  70.226  1.00  0.00    -0.045 OA 
HETATM    9  C   UNL     1      -7.951   6.260  67.374  1.00  0.00    -0.109 C  
HETATM   10  C   UNL     1      -9.323   5.052  71.284  1.00  0.00    -0.197 C  
HETATM   11  O   UNL     1      -8.050   6.890  66.331  1.00  0.00    -0.106 OA 
HETATM   12  C   UNL     1      -8.217   4.840  70.245  1.00  0.00    -0.079 C  
ENDROOT
BRANCH   3  13
HETATM   13  S   UNL     1     -10.538   8.211  67.554  1.00  0.00    -0.168 SA 
BRANCH  13  14
HETATM   14  C   UNL     1     -10.272   9.607  68.703  1.00  0.00    -0.189 C  
HETATM   15  N   UNL     1     -11.485  11.478  67.848  1.00  0.00    -0.384 NA 
HETATM   16  C   UNL     1     -11.466  10.527  68.958  1.00  0.00    -0.237 C  
HETATM   17  C   UNL     1      -9.254  10.561  68.067  1.00  0.00    -0.143 C  
HETATM   18  C   UNL     1     -10.065  11.741  67.521  1.00  0.00    -0.192 C  
HETATM   19  H   UNL     1     -12.024  12.322  68.042  1.00  0.00     0.000 HD 
BRANCH  18  20
HETATM   20  C   UNL     1      -9.907  11.988  66.005  1.00  0.00    -0.237 C  
BRANCH  20  21
HETATM   21  N   UNL     1     -11.137  11.528  65.271  1.00  0.00    -0.237 N  
HETATM   22  H   UNL     1     -11.819  10.898  65.692  1.00  0.00     0.000 HD 
BRANCH  21  23
HETATM   23  S   UNL     1     -11.310  12.120  63.719  1.00  0.00    -0.486 S  
HETATM   24  O   UNL     1     -10.284  11.529  62.895  1.00  0.00    -0.276 OA 
HETATM   25  N   UNL     1     -10.832  13.668  64.029  1.00  0.00    -0.534 N  
HETATM   26  O   UNL     1     -12.706  12.131  63.375  1.00  0.00    -0.722 OA 
HETATM   27  H2  UNL     1     -10.529  14.119  64.891  1.00  0.00     0.000 HD 
HETATM   28  H1  UNL     1     -10.938  14.029  63.081  1.00  0.00     0.000 HD 
ENDBRANCH  21  23
ENDBRANCH  20  21
ENDBRANCH  18  20
ENDBRANCH  13  14
ENDBRANCH   3  13
BRANCH  10  29
HETATM   29  C   UNL     1      -9.600   3.964  72.302  1.00  0.00    -0.142 C  
HETATM   30  H   UNL     1     -10.356   2.193  72.225  1.00  0.00     0.000 HD 
HETATM   31  O   UNL     1     -10.182   2.874  71.586  1.00  0.00    -0.073 OA 
HETATM   32  C   UNL     1     -10.565   4.437  73.377  1.00  0.00    -0.286 C  
ENDBRANCH  10  29
TORSDOF 6
ENDMDL
MODEL      163
REMARK 921   NORMALIZED FREE ENERGY PREDICTED BY IDOCK:   -4.53 KCAL/MOL
REMARK 922        TOTAL FREE ENERGY PREDICTED BY IDOCK:   -7.01 KCAL/MOL
REMARK 923 INTER-LIGAND FREE ENERGY PREDICTED BY IDOCK:   -6.00 KCAL/MOL
REMARK 924 INTRA-LIGAND FREE ENERGY PREDICTED BY IDOCK:   -1.01 KCAL/MOL
REMARK 927      BINDING AFFINITY PREDICTED BY RF-SCORE:    0.00 PKD
ROOT
HETATM    1  C   UNL     1     -12.072   7.174  70.895  1.00  0.00    -0.326 C  
HETATM    2  C   UNL     1     -11.477   6.602  69.600  1.00  0.00    -0.358 C  
HETATM    3  C   UNL     1     -10.589   5.491  70.117  1.00  0.00    -0.297 C  
HETATM    4  C   UNL     1     -10.805   7.702  68.788  1.00  0.00    -0.025 C  
HETATM    5  O   UNL     1      -9.726   4.855  73.619  1.00  0.00    -0.134 OA 
HETATM    6  C   UNL     1     -10.641   5.419  71.464  1.00  0.00    -0.216 C  
HETATM    7  N   UNL     1     -11.539   6.331  72.002  1.00  0.00    -0.311 N  
HETATM    8  O   UNL     1     -10.505   7.392  73.796  1.00  0.00    -0.346 OA 
HETATM    9  C   UNL     1      -9.869   4.466  72.333  1.00  0.00    -0.167 C  
HETATM   10  C   UNL     1     -11.507   8.405  71.674  1.00  0.00    -0.349 C  
HETATM   11  O   UNL     1      -9.419   3.396  71.952  1.00  0.00    -0.118 OA 
HETATM   12  C   UNL     1     -11.129   7.393  72.760  1.00  0.00    -0.346 C  
ENDROOT
BRANCH   3  13
HETATM   13  S   UNL     1      -9.588   4.525  69.100  1.00  0.00    -0.178 SA 
BRANCH  13  14
HETATM   14  C   UNL     1      -7.874   5.079  69.406  1.00  0.00    -0.075 C  
HETATM   15  N   UNL     1      -7.779   7.414  68.910  1.00  0.00    -0.113 NA 
HETATM   16  C   UNL     1      -7.698   6.468  70.022  1.00  0.00    -0.102 C  
HETATM   17  C   UNL     1      -7.173   5.232  68.051  1.00  0.00    -0.071 C  
HETATM   18  C   UNL     1      -7.138   6.736  67.760  1.00  0.00    -0.085 C  
HETATM   19  H   UNL     1      -7.378   8.328  69.121  1.00  0.00     0.000 HD 
BRANCH  18  20
HETATM   20  C   UNL     1      -7.829   7.155  66.445  1.00  0.00    -0.109 C  
BRANCH  20  21
HETATM   21  N   UNL     1      -7.422   8.552  66.063  1.00  0.00    -0.084 N  
HETATM   22  H   UNL     1      -6.502   8.764  65.676  1.00  0.00     0.000 HD 
BRANCH  21  23
HETATM   23  S   UNL     1      -8.576   9.731  66.315  1.00  0.00    -0.129 S  
HETATM   24  O   UNL     1      -9.803   9.302  65.689  1.00  0.00    -0.289 OA 
HETATM   25  N   UNL     1      -7.922  10.881  65.329  1.00  0.00    -0.359 N  
HETATM   26  O   UNL     1      -8.489  10.189  67.675  1.00  0.00    -0.118 OA 
HETATM   27  H2  UNL     1      -7.082  10.874  64.751  1.00  0.00     0.000 HD 
HETATM   28  H1  UNL     1      -8.627  11.601  65.484  1.00  0.00     0.000 HD 
ENDBRANCH  21  23
ENDBRANCH  20  21
ENDBRANCH  18  20
ENDBRANCH  13  14
ENDBRANCH   3  13
BRANCH  10  29
HETATM   29  C   UNL     1     -12.545   9.466  71.981  1.00  0.00    -0.384 C  
HETATM   30  H   UNL     1     -14.471   9.498  72.061  1.00  0.00     0.000 HD 
HETATM   31  O   UNL     1     -13.820   8.833  71.869  1.00  0.00    -0.396 OA 
HETATM   32  C   UNL     1     -12.468  10.624  70.999  1.00  0.00    -0.515 C  
ENDBRANCH  10  29
TORSDOF 6
ENDMDL
MODEL      164
REMARK 921   NORMALIZED FREE ENERGY PREDICTED BY IDOCK:   -4.49 KCAL/MOL
REMARK 922        TOTAL FREE ENERGY PREDICTED BY IDOCK:   -6.95 KCAL/MOL
REMARK 923 INTER-LIGAND FREE ENERGY PREDICTED BY IDOCK:   -5.46 KCAL/MOL
REMARK 924 INTRA-LIGAND FREE ENERGY PREDICTED BY IDOCK:   -1.49 KCAL/MOL
REMARK 927      BINDING AFFINITY PREDICTED BY RF-SCORE:    0.00 PKD
ROOT
HETATM    1  C   UNL     1     -12.360  13.035  69.235  1.00  0.00     0.065 C  
HETATM    2  C   UNL     1     -11.553  14.257  68.774  1.00  0.00    -0.357 C  
HETATM    3  C   UNL     1     -10.573  13.644  67.797  1.00  0.00    -0.242 C  
HETATM    4  C   UNL     1     -10.964  14.993  69.971  1.00  0.00    -0.268 C  
HETATM    5  O   UNL     1     -10.010  10.067  67.244  1.00  0.00    -0.179 OA 
HETATM    6  C   UNL     1     -10.759  12.310  67.698  1.00  0.00    -0.220 C  
HETATM    7  N   UNL     1     -11.833  11.875  68.463  1.00  0.00    -0.319 N  
HETATM    8  O   UNL     1     -11.165   9.982  69.638  1.00  0.00    -0.244 OA 
HETATM    9  C   UNL     1      -9.955  11.360  66.856  1.00  0.00    -0.206 C  
HETATM   10  C   UNL     1     -12.069  12.202  70.525  1.00  0.00    -0.383 C  
HETATM   11  O   UNL     1      -9.316  11.688  65.868  1.00  0.00    -0.225 OA 
HETATM   12  C   UNL     1     -11.666  11.079  69.563  1.00  0.00    -0.329 C  
ENDROOT
BRANCH   3  13
HETATM   13  S   UNL     1      -9.337  14.544  67.000  1.00  0.00    -0.249 SA 
BRANCH  13  14
HETATM   14  C   UNL     1      -8.196  15.103  68.311  1.00  0.00    -0.144 C  
HETATM   15  N   UNL     1      -5.979  14.984  67.429  1.00  0.00    -0.326 NA 
HETATM   16  C   UNL     1      -6.994  15.940  67.869  1.00  0.00    -0.139 C  
HETATM   17  C   UNL     1      -7.525  13.866  68.921  1.00  0.00    -0.080 C  
HETATM   18  C   UNL     1      -6.114  13.815  68.327  1.00  0.00    -0.111 C  
HETATM   19  H   UNL     1      -5.037  15.373  67.401  1.00  0.00     0.000 HD 
BRANCH  18  20
HETATM   20  C   UNL     1      -5.782  12.516  67.560  1.00  0.00    -0.139 C  
BRANCH  20  21
HETATM   21  N   UNL     1      -6.897  11.519  67.717  1.00  0.00    -0.073 N  
HETATM   22  H   UNL     1      -7.809  11.647  67.278  1.00  0.00     0.000 HD 
BRANCH  21  23
HETATM   23  S   UNL     1      -6.542  10.187  68.660  1.00  0.00    -0.053 S  
HETATM   24  O   UNL     1      -6.735   9.003  67.857  1.00  0.00    -0.067 OA 
HETATM   25  N   UNL     1      -7.843  10.289  69.668  1.00  0.00    -0.199 N  
HETATM   26  O   UNL     1      -5.351  10.455  69.419  1.00  0.00    -0.038 OA 
HETATM   27  H2  UNL     1      -8.617  10.952  69.705  1.00  0.00     0.000 HD 
HETATM   28  H1  UNL     1      -7.626   9.475  70.243  1.00  0.00     0.000 HD 
ENDBRANCH  21  23
ENDBRANCH  20  21
ENDBRANCH  18  20
ENDBRANCH  13  14
ENDBRANCH   3  13
BRANCH  10  29
HETATM   29  C   UNL     1     -13.277  12.012  71.419  1.00  0.00    -0.075 C  
HETATM   30  H   UNL     1     -14.011  12.961  72.928  1.00  0.00     0.000 HD 
HETATM   31  O   UNL     1     -13.254  13.081  72.367  1.00  0.00    -0.480 OA 
HETATM   32  C   UNL     1     -13.223  10.683  72.155  1.00  0.00    -0.379 C  
ENDBRANCH  10  29
TORSDOF 6
ENDMDL
MODEL      165
REMARK 921   NORMALIZED FREE ENERGY PREDICTED BY IDOCK:   -4.48 KCAL/MOL
REMARK 922        TOTAL FREE ENERGY PREDICTED BY IDOCK:   -6.94 KCAL/MOL
REMARK 923 INTER-LIGAND FREE ENERGY PREDICTED BY IDOCK:   -5.96 KCAL/MOL
REMARK 924 INTRA-LIGAND FREE ENERGY PREDICTED BY IDOCK:   -0.98 KCAL/MOL
REMARK 927      BINDING AFFINITY PREDICTED BY RF-SCORE:    0.00 PKD
ROOT
HETATM    1  C   UNL     1     -11.668  11.911  68.471  1.00  0.00    -0.330 C  
HETATM    2  C   UNL     1     -10.629  10.810  68.211  1.00  0.00    -0.233 C  
HETATM    3  C   UNL     1     -10.952   9.801  69.292  1.00  0.00    -0.193 C  
HETATM    4  C   UNL     1      -9.220  11.392  68.209  1.00  0.00    -0.183 C  
HETATM    5  O   UNL     1     -13.255  10.291  72.098  1.00  0.00    -0.452 OA 
HETATM    6  C   UNL     1     -11.984  10.224  70.054  1.00  0.00    -0.197 C  
HETATM    7  N   UNL     1     -12.508  11.427  69.601  1.00  0.00    -0.142 N  
HETATM    8  O   UNL     1     -12.797  12.826  71.438  1.00  0.00    -0.370 OA 
HETATM    9  C   UNL     1     -12.564   9.508  71.241  1.00  0.00    -0.339 C  
HETATM   10  C   UNL     1     -11.416  13.199  69.318  1.00  0.00    -0.348 C  
HETATM   11  O   UNL     1     -12.468   8.306  71.434  1.00  0.00    -0.307 OA 
HETATM   12  C   UNL     1     -12.397  12.584  70.322  1.00  0.00    -0.190 C  
ENDROOT
BRANCH   3  13
HETATM   13  S   UNL     1     -10.046   8.358  69.546  1.00  0.00    -0.205 SA 
BRANCH  13  14
HETATM   14  C   UNL     1      -9.859   7.584  67.901  1.00  0.00    -0.154 C  
HETATM   15  N   UNL     1     -10.202   5.236  68.173  1.00  0.00    -0.162 NA 
HETATM   16  C   UNL     1     -10.803   6.426  67.573  1.00  0.00    -0.354 C  
HETATM   17  C   UNL     1      -8.483   6.910  67.845  1.00  0.00    -0.120 C  
HETATM   18  C   UNL     1      -8.739   5.411  68.032  1.00  0.00    -0.106 C  
HETATM   19  H   UNL     1     -10.549   4.361  67.781  1.00  0.00     0.000 HD 
BRANCH  18  20
HETATM   20  C   UNL     1      -8.010   4.777  69.237  1.00  0.00    -0.070 C  
BRANCH  20  21
HETATM   21  N   UNL     1      -7.583   5.843  70.208  1.00  0.00    -0.092 N  
HETATM   22  H   UNL     1      -6.976   6.616  69.936  1.00  0.00     0.000 HD 
BRANCH  21  23
HETATM   23  S   UNL     1      -8.171   5.676  71.762  1.00  0.00    -0.120 S  
HETATM   24  O   UNL     1      -7.435   6.572  72.621  1.00  0.00    -0.092 OA 
HETATM   25  N   UNL     1      -7.585   4.162  72.048  1.00  0.00    -0.069 N  
HETATM   26  O   UNL     1      -9.607   5.611  71.715  1.00  0.00    -0.155 OA 
HETATM   27  H2  UNL     1      -7.038   3.530  71.464  1.00  0.00     0.000 HD 
HETATM   28  H1  UNL     1      -7.944   4.060  72.997  1.00  0.00     0.000 HD 
ENDBRANCH  21  23
ENDBRANCH  20  21
ENDBRANCH  18  20
ENDBRANCH  13  14
ENDBRANCH   3  13
BRANCH  10  29
HETATM   29  C   UNL     1     -11.792  14.484  68.609  1.00  0.00    -0.320 C  
HETATM   30  H   UNL     1     -11.122  15.432  67.070  1.00  0.00     0.000 HD 
HETATM   31  O   UNL     1     -10.886  14.625  67.515  1.00  0.00    -0.274 OA 
HETATM   32  C   UNL     1     -11.666  15.687  69.529  1.00  0.00    -0.382 C  
ENDBRANCH  10  29
TORSDOF 6
ENDMDL
MODEL      166
REMARK 921   NORMALIZED FREE ENERGY PREDICTED BY IDOCK:   -4.48 KCAL/MOL
REMARK 922        TOTAL FREE ENERGY PREDICTED BY IDOCK:   -6.93 KCAL/MOL
REMARK 923 INTER-LIGAND FREE ENERGY PREDICTED BY IDOCK:   -6.30 KCAL/MOL
REMARK 924 INTRA-LIGAND FREE ENERGY PREDICTED BY IDOCK:   -0.62 KCAL/MOL
REMARK 927      BINDING AFFINITY PREDICTED BY RF-SCORE:    0.00 PKD
ROOT
HETATM    1  C   UNL     1     -10.285  12.023  66.762  1.00  0.00    -0.202 C  
HETATM    2  C   UNL     1     -10.098  11.065  67.948  1.00  0.00    -0.199 C  
HETATM    3  C   UNL     1      -9.141  10.037  67.384  1.00  0.00    -0.134 C  
HETATM    4  C   UNL     1     -11.447  10.554  68.441  1.00  0.00    -0.285 C  
HETATM    5  O   UNL     1      -8.107   9.727  63.884  1.00  0.00    -0.132 OA 
HETATM    6  C   UNL     1      -8.822  10.326  66.104  1.00  0.00    -0.151 C  
HETATM    7  N   UNL     1      -9.401  11.514  65.677  1.00  0.00    -0.222 N  
HETATM    8  O   UNL     1     -10.333  11.151  63.576  1.00  0.00    -0.354 OA 
HETATM    9  C   UNL     1      -7.928   9.517  65.206  1.00  0.00    -0.112 C  
HETATM   10  C   UNL     1     -11.454  11.953  65.728  1.00  0.00    -0.326 C  
HETATM   11  O   UNL     1      -7.071   8.744  65.604  1.00  0.00    -0.081 OA 
HETATM   12  C   UNL     1     -10.376  11.543  64.719  1.00  0.00    -0.289 C  
ENDROOT
BRANCH   3  13
HETATM   13  S   UNL     1      -8.618   8.646  68.256  1.00  0.00    -0.139 SA 
BRANCH  13  14
HETATM   14  C   UNL     1      -9.289   7.205  67.356  1.00  0.00    -0.127 C  
HETATM   15  N   UNL     1     -11.368   6.627  68.380  1.00  0.00    -0.571 NA 
HETATM   16  C   UNL     1     -10.804   7.168  67.145  1.00  0.00    -0.333 C  
HETATM   17  C   UNL     1      -9.048   5.954  68.209  1.00  0.00    -0.118 C  
HETATM   18  C   UNL     1     -10.395   5.618  68.858  1.00  0.00    -0.225 C  
HETATM   19  H   UNL     1     -12.315   6.263  68.271  1.00  0.00     0.000 HD 
BRANCH  18  20
HETATM   20  C   UNL     1     -10.379   5.587  70.401  1.00  0.00    -0.276 C  
BRANCH  20  21
HETATM   21  N   UNL     1     -10.062   4.200  70.891  1.00  0.00    -0.128 N  
HETATM   22  H   UNL     1     -10.637   3.393  70.651  1.00  0.00     0.000 HD 
BRANCH  21  23
HETATM   23  S   UNL     1      -8.704   4.071  71.854  1.00  0.00    -0.106 S  
HETATM   24  O   UNL     1      -8.875   2.933  72.724  1.00  0.00    -0.081 OA 
HETATM   25  N   UNL     1      -8.970   5.413  72.775  1.00  0.00    -0.122 N  
HETATM   26  O   UNL     1      -7.535   4.293  71.047  1.00  0.00    -0.046 OA 
HETATM   27  H2  UNL     1      -9.723   6.101  72.762  1.00  0.00     0.000 HD 
HETATM   28  H1  UNL     1      -8.141   5.334  73.363  1.00  0.00     0.000 HD 
ENDBRANCH  21  23
ENDBRANCH  20  21
ENDBRANCH  18  20
ENDBRANCH  13  14
ENDBRANCH   3  13
BRANCH  10  29
HETATM   29  C   UNL     1     -12.184  13.267  65.538  1.00  0.00    -0.457 C  
HETATM   30  H   UNL     1     -13.866  13.783  64.750  1.00  0.00     0.000 HD 
HETATM   31  O   UNL     1     -13.409  12.959  64.869  1.00  0.00    -0.716 OA 
HETATM   32  C   UNL     1     -11.377  14.237  64.691  1.00  0.00    -0.375 C  
ENDBRANCH  10  29
TORSDOF 6
ENDMDL
MODEL      167
REMARK 921   NORMALIZED FREE ENERGY PREDICTED BY IDOCK:   -4.47 KCAL/MOL
REMARK 922        TOTAL FREE ENERGY PREDICTED BY IDOCK:   -6.92 KCAL/MOL
REMARK 923 INTER-LIGAND FREE ENERGY PREDICTED BY IDOCK:   -5.91 KCAL/MOL
REMARK 924 INTRA-LIGAND FREE ENERGY PREDICTED BY IDOCK:   -1.01 KCAL/MOL
REMARK 927      BINDING AFFINITY PREDICTED BY RF-SCORE:    0.00 PKD
ROOT
HETATM    1  C   UNL     1     -11.250  12.496  65.838  1.00  0.00    -0.320 C  
HETATM    2  C   UNL     1     -10.618  11.334  66.618  1.00  0.00    -0.309 C  
HETATM    3  C   UNL     1      -9.667  12.052  67.551  1.00  0.00    -0.187 C  
HETATM    4  C   UNL     1     -10.010  10.315  65.662  1.00  0.00    -0.347 C  
HETATM    5  O   UNL     1      -8.780  15.604  67.431  1.00  0.00    -0.168 OA 
HETATM    6  C   UNL     1      -9.719  13.388  67.359  1.00  0.00    -0.221 C  
HETATM    7  N   UNL     1     -10.672  13.743  66.413  1.00  0.00    -0.280 N  
HETATM    8  O   UNL     1      -9.710  15.283  64.959  1.00  0.00    -0.155 OA 
HETATM    9  C   UNL     1      -8.896  14.422  68.074  1.00  0.00    -0.178 C  
HETATM   10  C   UNL     1     -10.763  13.012  64.446  1.00  0.00    -0.414 C  
HETATM   11  O   UNL     1      -8.382  14.255  69.169  1.00  0.00    -0.029 OA 
HETATM   12  C   UNL     1     -10.329  14.273  65.200  1.00  0.00    -0.415 C  
ENDROOT
BRANCH   3  13
HETATM   13  S   UNL     1      -8.606  11.238  68.638  1.00  0.00    -0.106 SA 
BRANCH  13  14
HETATM   14  C   UNL     1      -6.948  11.313  67.875  1.00  0.00    -0.073 C  
HETATM   15  N   UNL     1      -6.840   9.585  66.230  1.00  0.00    -0.085 NA 
HETATM   16  C   UNL     1      -6.868  11.039  66.372  1.00  0.00    -0.118 C  
HETATM   17  C   UNL     1      -6.102  10.175  68.459  1.00  0.00    -0.044 C  
HETATM   18  C   UNL     1      -6.063   9.083  67.386  1.00  0.00    -0.054 C  
HETATM   19  H   UNL     1      -6.482   9.270  65.328  1.00  0.00     0.000 HD 
BRANCH  18  20
HETATM   20  C   UNL     1      -6.610   7.712  67.838  1.00  0.00    -0.059 C  
BRANCH  20  21
HETATM   21  N   UNL     1      -7.255   7.829  69.191  1.00  0.00    -0.080 N  
HETATM   22  H   UNL     1      -6.754   8.184  70.005  1.00  0.00     0.000 HD 
BRANCH  21  23
HETATM   23  S   UNL     1      -8.849   7.338  69.272  1.00  0.00    -0.135 S  
HETATM   24  O   UNL     1      -8.878   5.896  69.259  1.00  0.00    -0.117 OA 
HETATM   25  N   UNL     1      -9.298   7.831  67.763  1.00  0.00    -0.142 N  
HETATM   26  O   UNL     1      -9.539   8.145  70.242  1.00  0.00    -0.169 OA 
HETATM   27  H2  UNL     1      -8.771   8.289  67.019  1.00  0.00     0.000 HD 
HETATM   28  H1  UNL     1     -10.271   7.532  67.813  1.00  0.00     0.000 HD 
ENDBRANCH  21  23
ENDBRANCH  20  21
ENDBRANCH  18  20
ENDBRANCH  13  14
ENDBRANCH   3  13
BRANCH  10  29
HETATM   29  C   UNL     1     -11.863  13.112  63.409  1.00  0.00    -0.427 C  
HETATM   30  H   UNL     1     -13.209  14.423  62.980  1.00  0.00     0.000 HD 
HETATM   31  O   UNL     1     -12.520  14.361  63.631  1.00  0.00    -0.805 OA 
HETATM   32  C   UNL     1     -12.868  11.980  63.549  1.00  0.00    -0.472 C  
ENDBRANCH  10  29
TORSDOF 6
ENDMDL
MODEL      168
REMARK 921   NORMALIZED FREE ENERGY PREDICTED BY IDOCK:   -4.46 KCAL/MOL
REMARK 922        TOTAL FREE ENERGY PREDICTED BY IDOCK:   -6.91 KCAL/MOL
REMARK 923 INTER-LIGAND FREE ENERGY PREDICTED BY IDOCK:   -5.93 KCAL/MOL
REMARK 924 INTRA-LIGAND FREE ENERGY PREDICTED BY IDOCK:   -0.98 KCAL/MOL
REMARK 927      BINDING AFFINITY PREDICTED BY RF-SCORE:    0.00 PKD
ROOT
HETATM    1  C   UNL     1     -10.808  11.838  65.301  1.00  0.00    -0.290 C  
HETATM    2  C   UNL     1      -9.880  10.616  65.344  1.00  0.00    -0.325 C  
HETATM    3  C   UNL     1      -8.939  10.966  66.477  1.00  0.00    -0.168 C  
HETATM    4  C   UNL     1      -9.252  10.372  63.977  1.00  0.00    -0.300 C  
HETATM    5  O   UNL     1      -8.702  14.202  68.177  1.00  0.00    -0.165 OA 
HETATM    6  C   UNL     1      -9.247  12.170  67.005  1.00  0.00    -0.202 C  
HETATM    7  N   UNL     1     -10.375  12.726  66.415  1.00  0.00    -0.254 N  
HETATM    8  O   UNL     1      -9.914  14.955  65.932  1.00  0.00    -0.292 OA 
HETATM    9  C   UNL     1      -8.517  12.865  68.120  1.00  0.00    -0.176 C  
HETATM   10  C   UNL     1     -10.626  13.071  64.359  1.00  0.00    -0.429 C  
HETATM   11  O   UNL     1      -7.828  12.295  68.952  1.00  0.00    -0.043 OA 
HETATM   12  C   UNL     1     -10.309  13.850  65.639  1.00  0.00    -0.325 C  
ENDROOT
BRANCH   3  13
HETATM   13  S   UNL     1      -7.607   9.979  66.946  1.00  0.00    -0.096 SA 
BRANCH  13  14
HETATM   14  C   UNL     1      -8.332   8.468  67.675  1.00  0.00    -0.129 C  
HETATM   15  N   UNL     1      -9.230   9.063  69.807  1.00  0.00    -0.160 NA 
HETATM   16  C   UNL     1      -9.630   8.639  68.466  1.00  0.00    -0.154 C  
HETATM   17  C   UNL     1      -7.366   7.942  68.743  1.00  0.00    -0.086 C  
HETATM   18  C   UNL     1      -7.965   8.349  70.093  1.00  0.00    -0.102 C  
HETATM   19  H   UNL     1      -9.951   8.917  70.513  1.00  0.00     0.000 HD 
BRANCH  18  20
HETATM   20  C   UNL     1      -7.047   9.227  70.969  1.00  0.00    -0.078 C  
BRANCH  20  21
HETATM   21  N   UNL     1      -6.114   8.365  71.775  1.00  0.00    -0.047 N  
HETATM   22  H   UNL     1      -5.247   7.993  71.390  1.00  0.00     0.000 HD 
BRANCH  21  23
HETATM   23  S   UNL     1      -6.595   8.058  73.344  1.00  0.00    -0.102 S  
HETATM   24  O   UNL     1      -5.414   7.961  74.167  1.00  0.00    -0.059 OA 
HETATM   25  N   UNL     1      -7.130   6.517  73.104  1.00  0.00    -0.077 N  
HETATM   26  O   UNL     1      -7.723   8.891  73.660  1.00  0.00    -0.386 OA 
HETATM   27  H2  UNL     1      -7.158   5.937  72.266  1.00  0.00     0.000 HD 
HETATM   28  H1  UNL     1      -7.424   6.330  74.062  1.00  0.00     0.000 HD 
ENDBRANCH  21  23
ENDBRANCH  20  21
ENDBRANCH  18  20
ENDBRANCH  13  14
ENDBRANCH   3  13
BRANCH  10  29
HETATM   29  C   UNL     1     -11.867  13.426  63.565  1.00  0.00    -0.344 C  
HETATM   30  H   UNL     1     -13.323  14.666  63.804  1.00  0.00     0.000 HD 
HETATM   31  O   UNL     1     -12.545  14.444  64.303  1.00  0.00    -0.676 OA 
HETATM   32  C   UNL     1     -12.785  12.227  63.397  1.00  0.00    -0.461 C  
ENDBRANCH  10  29
TORSDOF 6
ENDMDL
MODEL      169
REMARK 921   NORMALIZED FREE ENERGY PREDICTED BY IDOCK:   -4.44 KCAL/MOL
REMARK 922        TOTAL FREE ENERGY PREDICTED BY IDOCK:   -6.88 KCAL/MOL
REMARK 923 INTER-LIGAND FREE ENERGY PREDICTED BY IDOCK:   -6.28 KCAL/MOL
REMARK 924 INTRA-LIGAND FREE ENERGY PREDICTED BY IDOCK:   -0.60 KCAL/MOL
REMARK 927      BINDING AFFINITY PREDICTED BY RF-SCORE:    0.00 PKD
ROOT
HETATM    1  C   UNL     1      -7.607  13.690  68.441  1.00  0.00    -0.132 C  
HETATM    2  C   UNL     1      -8.672  14.232  67.477  1.00  0.00    -0.204 C  
HETATM    3  C   UNL     1      -8.958  13.029  66.604  1.00  0.00    -0.124 C  
HETATM    4  C   UNL     1      -8.170  15.489  66.776  1.00  0.00    -0.277 C  
HETATM    5  O   UNL     1      -7.073   9.889  66.553  1.00  0.00    -0.090 OA 
HETATM    6  C   UNL     1      -8.204  11.973  66.976  1.00  0.00    -0.169 C  
HETATM    7  N   UNL     1      -7.425  12.254  68.091  1.00  0.00    -0.103 N  
HETATM    8  O   UNL     1      -5.268  11.486  67.679  1.00  0.00    -0.046 OA 
HETATM    9  C   UNL     1      -8.186  10.620  66.323  1.00  0.00    -0.153 C  
HETATM   10  C   UNL     1      -6.064  13.846  68.253  1.00  0.00    -0.112 C  
HETATM   11  O   UNL     1      -9.104  10.165  65.657  1.00  0.00    -0.162 OA 
HETATM   12  C   UNL     1      -6.062  12.331  68.023  1.00  0.00    -0.070 C  
ENDROOT
BRANCH   3  13
HETATM   13  S   UNL     1     -10.043  13.063  65.266  1.00  0.00    -0.186 SA 
BRANCH  13  14
HETATM   14  C   UNL     1     -11.661  12.516  65.915  1.00  0.00    -0.426 C  
HETATM   15  N   UNL     1     -12.748  14.434  66.834  1.00  0.00    -0.310 NA 
HETATM   16  C   UNL     1     -12.837  13.477  65.733  1.00  0.00    -0.264 C  
HETATM   17  C   UNL     1     -11.554  12.416  67.441  1.00  0.00    -0.433 C  
HETATM   18  C   UNL     1     -12.250  13.663  67.996  1.00  0.00    -0.140 C  
HETATM   19  H   UNL     1     -13.620  14.931  67.016  1.00  0.00     0.000 HD 
BRANCH  18  20
HETATM   20  C   UNL     1     -11.359  14.558  68.884  1.00  0.00    -0.274 C  
BRANCH  20  21
HETATM   21  N   UNL     1     -11.501  14.166  70.329  1.00  0.00    -0.476 N  
HETATM   22  H   UNL     1     -11.335  13.213  70.654  1.00  0.00     0.000 HD 
BRANCH  21  23
HETATM   23  S   UNL     1     -11.949  15.395  71.367  1.00  0.00    -0.427 S  
HETATM   24  O   UNL     1     -12.034  14.850  72.700  1.00  0.00    -0.317 OA 
HETATM   25  N   UNL     1     -13.498  15.570  70.830  1.00  0.00    -0.782 N  
HETATM   26  O   UNL     1     -11.210  16.582  71.033  1.00  0.00    -0.256 OA 
HETATM   27  H2  UNL     1     -14.017  15.084  70.099  1.00  0.00     0.000 HD 
HETATM   28  H1  UNL     1     -13.771  16.321  71.464  1.00  0.00     0.000 HD 
ENDBRANCH  21  23
ENDBRANCH  20  21
ENDBRANCH  18  20
ENDBRANCH  13  14
ENDBRANCH   3  13
BRANCH  10  29
HETATM   29  C   UNL     1      -5.352  14.411  69.465  1.00  0.00    -0.090 C  
HETATM   30  H   UNL     1      -4.946  13.754  71.231  1.00  0.00     0.000 HD 
HETATM   31  O   UNL     1      -5.393  13.398  70.471  1.00  0.00    -0.111 OA 
HETATM   32  C   UNL     1      -6.038  15.665  69.982  1.00  0.00    -0.149 C  
ENDBRANCH  10  29
TORSDOF 6
ENDMDL
MODEL      170
REMARK 921   NORMALIZED FREE ENERGY PREDICTED BY IDOCK:   -4.44 KCAL/MOL
REMARK 922        TOTAL FREE ENERGY PREDICTED BY IDOCK:   -6.88 KCAL/MOL
REMARK 923 INTER-LIGAND FREE ENERGY PREDICTED BY IDOCK:   -6.45 KCAL/MOL
REMARK 924 INTRA-LIGAND FREE ENERGY PREDICTED BY IDOCK:   -0.43 KCAL/MOL
REMARK 927      BINDING AFFINITY PREDICTED BY RF-SCORE:    0.00 PKD
ROOT
HETATM    1  C   UNL     1      -8.815  16.132  68.189  1.00  0.00    -0.184 C  
HETATM    2  C   UNL     1      -9.973  15.309  67.606  1.00  0.00    -0.222 C  
HETATM    3  C   UNL     1      -9.335  13.951  67.407  1.00  0.00    -0.228 C  
HETATM    4  C   UNL     1     -10.545  15.991  66.369  1.00  0.00    -0.284 C  
HETATM    5  O   UNL     1      -5.772  13.162  67.721  1.00  0.00    -0.120 OA 
HETATM    6  C   UNL     1      -8.041  13.964  67.794  1.00  0.00    -0.172 C  
HETATM    7  N   UNL     1      -7.668  15.191  68.327  1.00  0.00    -0.113 N  
HETATM    8  O   UNL     1      -5.627  15.797  67.389  1.00  0.00    -0.280 OA 
HETATM    9  C   UNL     1      -7.078  12.814  67.713  1.00  0.00    -0.132 C  
HETATM   10  C   UNL     1      -7.858  17.045  67.359  1.00  0.00    -0.191 C  
HETATM   11  O   UNL     1      -7.410  11.639  67.675  1.00  0.00    -0.095 OA 
HETATM   12  C   UNL     1      -6.776  16.015  67.698  1.00  0.00    -0.163 C  
ENDROOT
BRANCH   3  13
HETATM   13  S   UNL     1     -10.154  12.612  66.695  1.00  0.00    -0.245 SA 
BRANCH  13  14
HETATM   14  C   UNL     1     -11.736  12.452  67.595  1.00  0.00    -0.346 C  
HETATM   15  N   UNL     1     -11.222  12.288  69.922  1.00  0.00    -0.485 NA 
HETATM   16  C   UNL     1     -11.841  13.175  68.938  1.00  0.00    -0.320 C  
HETATM   17  C   UNL     1     -11.908  10.983  68.001  1.00  0.00    -0.152 C  
HETATM   18  C   UNL     1     -11.561  10.913  69.492  1.00  0.00    -0.313 C  
HETATM   19  H   UNL     1     -11.491  12.494  70.884  1.00  0.00     0.000 HD 
BRANCH  18  20
HETATM   20  C   UNL     1     -10.408   9.948  69.842  1.00  0.00    -0.258 C  
BRANCH  20  21
HETATM   21  N   UNL     1     -10.781   9.099  71.027  1.00  0.00    -0.266 N  
HETATM   22  H   UNL     1     -10.888   9.489  71.963  1.00  0.00     0.000 HD 
BRANCH  21  23
HETATM   23  S   UNL     1     -11.005   7.476  70.706  1.00  0.00    -0.256 S  
HETATM   24  O   UNL     1     -11.016   7.297  69.274  1.00  0.00    -0.192 OA 
HETATM   25  N   UNL     1     -12.574   7.378  71.204  1.00  0.00    -0.492 N  
HETATM   26  O   UNL     1     -10.190   6.704  71.603  1.00  0.00    -0.192 OA 
HETATM   27  H2  UNL     1     -13.206   8.082  71.586  1.00  0.00     0.000 HD 
HETATM   28  H1  UNL     1     -12.711   6.387  71.008  1.00  0.00     0.000 HD 
ENDBRANCH  21  23
ENDBRANCH  20  21
ENDBRANCH  18  20
ENDBRANCH  13  14
ENDBRANCH   3  13
BRANCH  10  29
HETATM   29  C   UNL     1      -7.732  18.455  67.900  1.00  0.00    -0.251 C  
HETATM   30  H   UNL     1      -7.247  20.161  67.143  1.00  0.00     0.000 HD 
HETATM   31  O   UNL     1      -7.326  19.277  66.804  1.00  0.00    -0.210 OA 
HETATM   32  C   UNL     1      -6.693  18.538  69.006  1.00  0.00    -0.288 C  
ENDBRANCH  10  29
TORSDOF 6
ENDMDL
MODEL      171
REMARK 921   NORMALIZED FREE ENERGY PREDICTED BY IDOCK:   -4.42 KCAL/MOL
REMARK 922        TOTAL FREE ENERGY PREDICTED BY IDOCK:   -6.86 KCAL/MOL
REMARK 923 INTER-LIGAND FREE ENERGY PREDICTED BY IDOCK:   -5.84 KCAL/MOL
REMARK 924 INTRA-LIGAND FREE ENERGY PREDICTED BY IDOCK:   -1.02 KCAL/MOL
REMARK 927      BINDING AFFINITY PREDICTED BY RF-SCORE:    0.00 PKD
ROOT
HETATM    1  C   UNL     1      -8.088   7.506  66.643  1.00  0.00    -0.123 C  
HETATM    2  C   UNL     1      -9.006   7.580  67.871  1.00  0.00    -0.131 C  
HETATM    3  C   UNL     1      -9.412   6.134  68.058  1.00  0.00    -0.113 C  
HETATM    4  C   UNL     1     -10.126   8.587  67.643  1.00  0.00    -0.271 C  
HETATM    5  O   UNL     1      -8.765   3.382  65.728  1.00  0.00    -0.113 OA 
HETATM    6  C   UNL     1      -8.846   5.348  67.116  1.00  0.00    -0.109 C  
HETATM    7  N   UNL     1      -8.000   6.064  66.279  1.00  0.00    -0.104 N  
HETATM    8  O   UNL     1      -8.465   5.451  64.084  1.00  0.00    -0.136 OA 
HETATM    9  C   UNL     1      -9.044   3.867  66.958  1.00  0.00    -0.152 C  
HETATM   10  C   UNL     1      -8.539   7.764  65.170  1.00  0.00    -0.023 C  
HETATM   11  O   UNL     1      -9.395   3.120  67.858  1.00  0.00    -0.188 OA 
HETATM   12  C   UNL     1      -8.287   6.267  64.958  1.00  0.00    -0.099 C  
ENDROOT
BRANCH   3  13
HETATM   13  S   UNL     1     -10.521   5.606  69.267  1.00  0.00    -0.284 SA 
BRANCH  13  14
HETATM   14  C   UNL     1      -9.509   5.170  70.724  1.00  0.00    -0.167 C  
HETATM   15  N   UNL     1     -10.779   5.724  72.669  1.00  0.00    -0.225 NA 
HETATM   16  C   UNL     1     -10.248   4.582  71.926  1.00  0.00    -0.171 C  
HETATM   17  C   UNL     1      -8.922   6.463  71.302  1.00  0.00    -0.142 C  
HETATM   18  C   UNL     1      -9.764   6.794  72.538  1.00  0.00    -0.153 C  
HETATM   19  H   UNL     1     -11.021   5.506  73.635  1.00  0.00     0.000 HD 
BRANCH  18  20
HETATM   20  C   UNL     1     -10.452   8.176  72.500  1.00  0.00    -0.339 C  
BRANCH  20  21
HETATM   21  N   UNL     1     -11.898   8.049  72.897  1.00  0.00    -0.587 N  
HETATM   22  H   UNL     1     -12.191   7.552  73.737  1.00  0.00     0.000 HD 
BRANCH  21  23
HETATM   23  S   UNL     1     -12.991   8.778  71.867  1.00  0.00    -0.401 S  
HETATM   24  O   UNL     1     -14.262   8.864  72.545  1.00  0.00    -0.527 OA 
HETATM   25  N   UNL     1     -13.118   7.541  70.784  1.00  0.00    -0.537 N  
HETATM   26  O   UNL     1     -12.354   9.892  71.219  1.00  0.00    -0.326 OA 
HETATM   27  H2  UNL     1     -12.672   6.625  70.752  1.00  0.00     0.000 HD 
HETATM   28  H1  UNL     1     -13.786   7.987  70.155  1.00  0.00     0.000 HD 
ENDBRANCH  21  23
ENDBRANCH  20  21
ENDBRANCH  18  20
ENDBRANCH  13  14
ENDBRANCH   3  13
BRANCH  10  29
HETATM   29  C   UNL     1      -7.680   8.770  64.431  1.00  0.00    -0.123 C  
HETATM   30  H   UNL     1      -7.329  10.656  64.625  1.00  0.00     0.000 HD 
HETATM   31  O   UNL     1      -7.867  10.025  65.088  1.00  0.00    -0.125 OA 
HETATM   32  C   UNL     1      -8.094   8.895  62.974  1.00  0.00    -0.172 C  
ENDBRANCH  10  29
TORSDOF 6
ENDMDL
MODEL      172
REMARK 921   NORMALIZED FREE ENERGY PREDICTED BY IDOCK:   -4.42 KCAL/MOL
REMARK 922        TOTAL FREE ENERGY PREDICTED BY IDOCK:   -6.85 KCAL/MOL
REMARK 923 INTER-LIGAND FREE ENERGY PREDICTED BY IDOCK:   -6.17 KCAL/MOL
REMARK 924 INTRA-LIGAND FREE ENERGY PREDICTED BY IDOCK:   -0.68 KCAL/MOL
REMARK 927      BINDING AFFINITY PREDICTED BY RF-SCORE:    0.00 PKD
ROOT
HETATM    1  C   UNL     1      -9.565   6.069  66.342  1.00  0.00    -0.137 C  
HETATM    2  C   UNL     1     -10.356   7.149  67.094  1.00  0.00    -0.359 C  
HETATM    3  C   UNL     1      -9.259   8.071  67.581  1.00  0.00    -0.133 C  
HETATM    4  C   UNL     1     -11.248   6.518  68.157  1.00  0.00    -0.250 C  
HETATM    5  O   UNL     1      -5.656   7.424  67.432  1.00  0.00    -0.027 OA 
HETATM    6  C   UNL     1      -8.045   7.623  67.195  1.00  0.00    -0.118 C  
HETATM    7  N   UNL     1      -8.136   6.484  66.407  1.00  0.00    -0.109 N  
HETATM    8  O   UNL     1      -6.576   4.941  67.182  1.00  0.00    -0.047 OA 
HETATM    9  C   UNL     1      -6.720   8.253  67.520  1.00  0.00    -0.063 C  
HETATM   10  C   UNL     1      -9.110   4.704  66.950  1.00  0.00    -0.123 C  
HETATM   11  O   UNL     1      -6.570   9.430  67.813  1.00  0.00    -0.062 OA 
HETATM   12  C   UNL     1      -7.689   5.265  66.838  1.00  0.00    -0.096 C  
ENDROOT
BRANCH   3  13
HETATM   13  S   UNL     1      -9.547   9.453  68.570  1.00  0.00    -0.148 SA 
BRANCH  13  14
HETATM   14  C   UNL     1      -9.927  10.823  67.423  1.00  0.00    -0.184 C  
HETATM   15  N   UNL     1      -9.825  12.854  68.676  1.00  0.00    -0.401 NA 
HETATM   16  C   UNL     1      -9.140  12.121  67.614  1.00  0.00    -0.181 C  
HETATM   17  C   UNL     1     -11.369  11.276  67.681  1.00  0.00    -0.352 C  
HETATM   18  C   UNL     1     -11.267  12.571  68.493  1.00  0.00    -0.283 C  
HETATM   19  H   UNL     1      -9.603  13.849  68.695  1.00  0.00     0.000 HD 
BRANCH  18  20
HETATM   20  C   UNL     1     -11.978  12.532  69.862  1.00  0.00    -0.301 C  
BRANCH  20  21
HETATM   21  N   UNL     1     -11.878  13.872  70.540  1.00  0.00    -0.477 N  
HETATM   22  H   UNL     1     -11.208  14.582  70.247  1.00  0.00     0.000 HD 
BRANCH  21  23
HETATM   23  S   UNL     1     -12.939  14.117  71.806  1.00  0.00    -0.366 S  
HETATM   24  O   UNL     1     -13.634  12.878  72.058  1.00  0.00    -0.478 OA 
HETATM   25  N   UNL     1     -13.998  15.097  71.007  1.00  0.00    -0.712 N  
HETATM   26  O   UNL     1     -12.282  14.888  72.825  1.00  0.00    -0.331 OA 
HETATM   27  H2  UNL     1     -14.004  15.442  70.047  1.00  0.00     0.000 HD 
HETATM   28  H1  UNL     1     -14.646  15.246  71.780  1.00  0.00     0.000 HD 
ENDBRANCH  21  23
ENDBRANCH  20  21
ENDBRANCH  18  20
ENDBRANCH  13  14
ENDBRANCH   3  13
BRANCH  10  29
HETATM   29  C   UNL     1      -9.498   3.500  66.115  1.00  0.00    -0.138 C  
HETATM   30  H   UNL     1      -8.554   1.972  65.416  1.00  0.00     0.000 HD 
HETATM   31  O   UNL     1      -8.311   2.727  65.940  1.00  0.00    -0.087 OA 
HETATM   32  C   UNL     1     -10.038   3.914  64.756  1.00  0.00    -0.203 C  
ENDBRANCH  10  29
TORSDOF 6
ENDMDL
MODEL      173
REMARK 921   NORMALIZED FREE ENERGY PREDICTED BY IDOCK:   -4.41 KCAL/MOL
REMARK 922        TOTAL FREE ENERGY PREDICTED BY IDOCK:   -6.85 KCAL/MOL
REMARK 923 INTER-LIGAND FREE ENERGY PREDICTED BY IDOCK:   -5.86 KCAL/MOL
REMARK 924 INTRA-LIGAND FREE ENERGY PREDICTED BY IDOCK:   -0.99 KCAL/MOL
REMARK 927      BINDING AFFINITY PREDICTED BY RF-SCORE:    0.00 PKD
ROOT
HETATM    1  C   UNL     1      -7.932  10.540  68.160  1.00  0.00    -0.111 C  
HETATM    2  C   UNL     1      -9.057   9.788  68.885  1.00  0.00    -0.148 C  
HETATM    3  C   UNL     1      -9.149   8.503  68.091  1.00  0.00    -0.138 C  
HETATM    4  C   UNL     1     -10.315  10.646  68.957  1.00  0.00    -0.237 C  
HETATM    5  O   UNL     1      -7.461   7.787  64.919  1.00  0.00    -0.082 OA 
HETATM    6  C   UNL     1      -8.251   8.493  67.082  1.00  0.00    -0.108 C  
HETATM    7  N   UNL     1      -7.449   9.627  67.087  1.00  0.00    -0.088 N  
HETATM    8  O   UNL     1      -7.338  10.444  64.912  1.00  0.00    -0.134 OA 
HETATM    9  C   UNL     1      -8.071   7.404  66.063  1.00  0.00    -0.124 C  
HETATM   10  C   UNL     1      -8.143  11.608  67.040  1.00  0.00    -0.164 C  
HETATM   11  O   UNL     1      -8.405   6.241  66.231  1.00  0.00    -0.113 OA 
HETATM   12  C   UNL     1      -7.520  10.571  66.101  1.00  0.00    -0.136 C  
ENDROOT
BRANCH   3  13
HETATM   13  S   UNL     1     -10.316   7.274  68.403  1.00  0.00    -0.183 SA 
BRANCH  13  14
HETATM   14  C   UNL     1      -9.535   6.129  69.595  1.00  0.00    -0.145 C  
HETATM   15  N   UNL     1     -11.031   5.891  71.442  1.00  0.00    -0.272 NA 
HETATM   16  C   UNL     1     -10.461   5.150  70.318  1.00  0.00    -0.226 C  
HETATM   17  C   UNL     1      -8.970   6.960  70.753  1.00  0.00    -0.150 C  
HETATM   18  C   UNL     1      -9.956   6.793  71.914  1.00  0.00    -0.176 C  
HETATM   19  H   UNL     1     -11.414   5.292  72.173  1.00  0.00     0.000 HD 
BRANCH  18  20
HETATM   20  C   UNL     1     -10.563   8.111  72.440  1.00  0.00    -0.323 C  
BRANCH  20  21
HETATM   21  N   UNL     1     -11.964   7.879  72.937  1.00  0.00    -0.619 N  
HETATM   22  H   UNL     1     -12.157   7.432  73.833  1.00  0.00     0.000 HD 
BRANCH  21  23
HETATM   23  S   UNL     1     -13.182   8.402  71.923  1.00  0.00    -0.357 S  
HETATM   24  O   UNL     1     -12.663   9.476  71.111  1.00  0.00    -0.317 OA 
HETATM   25  N   UNL     1     -14.132   9.101  73.076  1.00  0.00    -0.801 N  
HETATM   26  O   UNL     1     -13.873   7.259  71.391  1.00  0.00    -0.394 OA 
HETATM   27  H2  UNL     1     -14.013   9.187  74.085  1.00  0.00     0.000 HD 
HETATM   28  H1  UNL     1     -14.876   9.421  72.456  1.00  0.00     0.000 HD 
ENDBRANCH  21  23
ENDBRANCH  20  21
ENDBRANCH  18  20
ENDBRANCH  13  14
ENDBRANCH   3  13
BRANCH  10  29
HETATM   29  C   UNL     1      -7.414  12.913  67.290  1.00  0.00    -0.085 C  
HETATM   30  H   UNL     1      -5.855  13.424  68.301  1.00  0.00     0.000 HD 
HETATM   31  O   UNL     1      -6.312  12.606  68.145  1.00  0.00    -0.065 OA 
HETATM   32  C   UNL     1      -8.312  13.934  67.970  1.00  0.00    -0.166 C  
ENDBRANCH  10  29
TORSDOF 6
ENDMDL
MODEL      174
REMARK 921   NORMALIZED FREE ENERGY PREDICTED BY IDOCK:   -4.41 KCAL/MOL
REMARK 922        TOTAL FREE ENERGY PREDICTED BY IDOCK:   -6.84 KCAL/MOL
REMARK 923 INTER-LIGAND FREE ENERGY PREDICTED BY IDOCK:   -5.63 KCAL/MOL
REMARK 924 INTRA-LIGAND FREE ENERGY PREDICTED BY IDOCK:   -1.21 KCAL/MOL
REMARK 927      BINDING AFFINITY PREDICTED BY RF-SCORE:    0.00 PKD
ROOT
HETATM    1  C   UNL     1     -11.559  11.837  68.138  1.00  0.00    -0.323 C  
HETATM    2  C   UNL     1     -10.494  10.741  67.988  1.00  0.00    -0.225 C  
HETATM    3  C   UNL     1     -10.741   9.883  69.210  1.00  0.00    -0.224 C  
HETATM    4  C   UNL     1      -9.107  11.357  67.847  1.00  0.00    -0.164 C  
HETATM    5  O   UNL     1     -12.952  10.691  72.017  1.00  0.00    -0.461 OA 
HETATM    6  C   UNL     1     -11.758  10.377  69.949  1.00  0.00    -0.264 C  
HETATM    7  N   UNL     1     -12.339  11.491  69.358  1.00  0.00    -0.176 N  
HETATM    8  O   UNL     1     -12.605  13.122  70.996  1.00  0.00    -0.361 OA 
HETATM    9  C   UNL     1     -12.267   9.817  71.247  1.00  0.00    -0.374 C  
HETATM   10  C   UNL     1     -11.319  13.237  68.789  1.00  0.00    -0.331 C  
HETATM   11  O   UNL     1     -12.123   8.656  71.599  1.00  0.00    -0.292 OA 
HETATM   12  C   UNL     1     -12.240  12.739  69.908  1.00  0.00    -0.175 C  
ENDROOT
BRANCH   3  13
HETATM   13  S   UNL     1      -9.778   8.515  69.621  1.00  0.00    -0.182 SA 
BRANCH  13  14
HETATM   14  C   UNL     1      -8.592   9.095  70.884  1.00  0.00    -0.206 C  
HETATM   15  N   UNL     1      -6.420   8.358  70.218  1.00  0.00    -0.035 NA 
HETATM   16  C   UNL     1      -7.227   9.566  70.383  1.00  0.00    -0.127 C  
HETATM   17  C   UNL     1      -8.219   7.901  71.772  1.00  0.00    -0.139 C  
HETATM   18  C   UNL     1      -6.830   7.449  71.312  1.00  0.00    -0.050 C  
HETATM   19  H   UNL     1      -5.416   8.538  70.189  1.00  0.00     0.000 HD 
BRANCH  18  20
HETATM   20  C   UNL     1      -6.751   5.982  70.840  1.00  0.00    -0.061 C  
BRANCH  20  21
HETATM   21  N   UNL     1      -8.022   5.591  70.137  1.00  0.00    -0.088 N  
HETATM   22  H   UNL     1      -8.893   5.421  70.640  1.00  0.00     0.000 HD 
BRANCH  21  23
HETATM   23  S   UNL     1      -7.912   5.456  68.476  1.00  0.00    -0.091 S  
HETATM   24  O   UNL     1      -9.169   4.949  67.981  1.00  0.00    -0.114 OA 
HETATM   25  N   UNL     1      -6.848   4.197  68.437  1.00  0.00    -0.047 N  
HETATM   26  O   UNL     1      -7.259   6.625  67.953  1.00  0.00    -0.085 OA 
HETATM   27  H2  UNL     1      -6.401   3.669  69.187  1.00  0.00     0.000 HD 
HETATM   28  H1  UNL     1      -6.781   4.114  67.423  1.00  0.00     0.000 HD 
ENDBRANCH  21  23
ENDBRANCH  20  21
ENDBRANCH  18  20
ENDBRANCH  13  14
ENDBRANCH   3  13
BRANCH  10  29
HETATM   29  C   UNL     1     -11.765  14.400  67.927  1.00  0.00    -0.356 C  
HETATM   30  H   UNL     1     -12.586  14.567  66.190  1.00  0.00     0.000 HD 
HETATM   31  O   UNL     1     -12.306  13.837  66.731  1.00  0.00    -0.403 OA 
HETATM   32  C   UNL     1     -10.602  15.313  67.575  1.00  0.00    -0.273 C  
ENDBRANCH  10  29
TORSDOF 6
ENDMDL
MODEL      175
REMARK 921   NORMALIZED FREE ENERGY PREDICTED BY IDOCK:   -4.38 KCAL/MOL
REMARK 922        TOTAL FREE ENERGY PREDICTED BY IDOCK:   -6.80 KCAL/MOL
REMARK 923 INTER-LIGAND FREE ENERGY PREDICTED BY IDOCK:   -6.03 KCAL/MOL
REMARK 924 INTRA-LIGAND FREE ENERGY PREDICTED BY IDOCK:   -0.78 KCAL/MOL
REMARK 927      BINDING AFFINITY PREDICTED BY RF-SCORE:    0.00 PKD
ROOT
HETATM    1  C   UNL     1      -8.795   7.330  66.778  1.00  0.00    -0.134 C  
HETATM    2  C   UNL     1      -9.365   8.664  66.274  1.00  0.00    -0.282 C  
HETATM    3  C   UNL     1      -8.318   9.655  66.734  1.00  0.00    -0.117 C  
HETATM    4  C   UNL     1     -10.784   8.869  66.792  1.00  0.00    -0.098 C  
HETATM    5  O   UNL     1      -5.510   8.959  68.980  1.00  0.00    -0.036 OA 
HETATM    6  C   UNL     1      -7.316   9.030  67.390  1.00  0.00    -0.084 C  
HETATM    7  N   UNL     1      -7.484   7.652  67.407  1.00  0.00    -0.098 N  
HETATM    8  O   UNL     1      -7.088   6.902  69.574  1.00  0.00    -0.070 OA 
HETATM    9  C   UNL     1      -6.121   9.687  68.020  1.00  0.00    -0.051 C  
HETATM   10  C   UNL     1      -9.179   6.642  68.127  1.00  0.00    -0.117 C  
HETATM   11  O   UNL     1      -5.683  10.780  67.693  1.00  0.00    -0.043 OA 
HETATM   12  C   UNL     1      -7.746   6.967  68.561  1.00  0.00    -0.113 C  
ENDROOT
BRANCH   3  13
HETATM   13  S   UNL     1      -8.459  11.358  66.511  1.00  0.00    -0.153 SA 
BRANCH  13  14
HETATM   14  C   UNL     1      -8.802  12.056  68.165  1.00  0.00    -0.182 C  
HETATM   15  N   UNL     1     -11.137  11.778  68.587  1.00  0.00    -0.220 NA 
HETATM   16  C   UNL     1      -9.823  11.313  69.028  1.00  0.00    -0.082 C  
HETATM   17  C   UNL     1      -9.468  13.424  67.977  1.00  0.00    -0.218 C  
HETATM   18  C   UNL     1     -10.961  13.208  68.244  1.00  0.00    -0.253 C  
HETATM   19  H   UNL     1     -11.879  11.609  69.265  1.00  0.00     0.000 HD 
BRANCH  18  20
HETATM   20  C   UNL     1     -11.889  13.590  67.071  1.00  0.00    -0.402 C  
BRANCH  20  21
HETATM   21  N   UNL     1     -11.334  13.065  65.775  1.00  0.00    -0.294 N  
HETATM   22  H   UNL     1     -10.432  12.594  65.720  1.00  0.00     0.000 HD 
BRANCH  21  23
HETATM   23  S   UNL     1     -12.296  13.307  64.431  1.00  0.00    -0.322 S  
HETATM   24  O   UNL     1     -13.303  12.274  64.406  1.00  0.00    -0.786 OA 
HETATM   25  N   UNL     1     -11.175  12.899  63.293  1.00  0.00    -0.677 N  
HETATM   26  O   UNL     1     -12.585  14.710  64.309  1.00  0.00    -0.688 OA 
HETATM   27  H2  UNL     1     -10.205  12.596  63.380  1.00  0.00     0.000 HD 
HETATM   28  H1  UNL     1     -11.763  13.047  62.473  1.00  0.00     0.000 HD 
ENDBRANCH  21  23
ENDBRANCH  20  21
ENDBRANCH  18  20
ENDBRANCH  13  14
ENDBRANCH   3  13
BRANCH  10  29
HETATM   29  C   UNL     1      -9.598   5.193  67.981  1.00  0.00    -0.136 C  
HETATM   30  H   UNL     1      -8.664   3.535  67.675  1.00  0.00     0.000 HD 
HETATM   31  O   UNL     1      -8.401   4.444  67.767  1.00  0.00    -0.098 OA 
HETATM   32  C   UNL     1     -10.534   4.999  66.800  1.00  0.00    -0.273 C  
ENDBRANCH  10  29
TORSDOF 6
ENDMDL
MODEL      176
REMARK 921   NORMALIZED FREE ENERGY PREDICTED BY IDOCK:   -4.38 KCAL/MOL
REMARK 922        TOTAL FREE ENERGY PREDICTED BY IDOCK:   -6.79 KCAL/MOL
REMARK 923 INTER-LIGAND FREE ENERGY PREDICTED BY IDOCK:   -5.88 KCAL/MOL
REMARK 924 INTRA-LIGAND FREE ENERGY PREDICTED BY IDOCK:   -0.92 KCAL/MOL
REMARK 927      BINDING AFFINITY PREDICTED BY RF-SCORE:    0.00 PKD
ROOT
HETATM    1  C   UNL     1      -7.748   6.227  65.290  1.00  0.00    -0.096 C  
HETATM    2  C   UNL     1      -7.775   7.715  64.911  1.00  0.00    -0.107 C  
HETATM    3  C   UNL     1      -8.878   8.253  65.798  1.00  0.00    -0.155 C  
HETATM    4  C   UNL     1      -7.956   7.882  63.407  1.00  0.00    -0.125 C  
HETATM    5  O   UNL     1     -11.193   6.267  67.826  1.00  0.00    -0.325 OA 
HETATM    6  C   UNL     1      -9.410   7.270  66.557  1.00  0.00    -0.170 C  
HETATM    7  N   UNL     1      -8.761   6.057  66.369  1.00  0.00    -0.128 N  
HETATM    8  O   UNL     1     -10.379   4.405  66.110  1.00  0.00    -0.242 OA 
HETATM    9  C   UNL     1     -10.545   7.415  67.530  1.00  0.00    -0.269 C  
HETATM   10  C   UNL     1      -8.498   5.093  64.521  1.00  0.00    -0.141 C  
HETATM   11  O   UNL     1     -10.867   8.467  68.061  1.00  0.00    -0.101 OA 
HETATM   12  C   UNL     1      -9.376   4.990  65.773  1.00  0.00    -0.160 C  
ENDROOT
BRANCH   3  13
HETATM   13  S   UNL     1      -9.420   9.888  65.755  1.00  0.00    -0.242 SA 
BRANCH  13  14
HETATM   14  C   UNL     1      -8.279  10.825  66.831  1.00  0.00    -0.130 C  
HETATM   15  N   UNL     1      -9.538  11.593  68.710  1.00  0.00    -0.372 NA 
HETATM   16  C   UNL     1      -8.469  10.667  68.340  1.00  0.00    -0.132 C  
HETATM   17  C   UNL     1      -8.547  12.321  66.624  1.00  0.00    -0.099 C  
HETATM   18  C   UNL     1      -9.363  12.777  67.838  1.00  0.00    -0.208 C  
HETATM   19  H   UNL     1      -9.558  11.817  69.705  1.00  0.00     0.000 HD 
BRANCH  18  20
HETATM   20  C   UNL     1     -10.737  13.393  67.499  1.00  0.00    -0.254 C  
BRANCH  20  21
HETATM   21  N   UNL     1     -11.231  12.872  66.178  1.00  0.00    -0.283 N  
HETATM   22  H   UNL     1     -11.302  11.874  65.978  1.00  0.00     0.000 HD 
BRANCH  21  23
HETATM   23  S   UNL     1     -11.656  14.036  65.059  1.00  0.00    -0.370 S  
HETATM   24  O   UNL     1     -13.056  14.336  65.230  1.00  0.00    -0.707 OA 
HETATM   25  N   UNL     1     -11.538  13.090  63.714  1.00  0.00    -0.511 N  
HETATM   26  O   UNL     1     -10.623  15.036  65.008  1.00  0.00    -0.384 OA 
HETATM   27  H2  UNL     1     -11.286  12.108  63.601  1.00  0.00     0.000 HD 
HETATM   28  H1  UNL     1     -11.797  13.801  63.031  1.00  0.00     0.000 HD 
ENDBRANCH  21  23
ENDBRANCH  20  21
ENDBRANCH  18  20
ENDBRANCH  13  14
ENDBRANCH   3  13
BRANCH  10  29
HETATM   29  C   UNL     1      -7.615   3.922  64.139  1.00  0.00    -0.078 C  
HETATM   30  H   UNL     1      -5.789   3.423  64.504  1.00  0.00     0.000 HD 
HETATM   31  O   UNL     1      -6.343   4.158  64.744  1.00  0.00    -0.032 OA 
HETATM   32  C   UNL     1      -7.446   3.818  62.632  1.00  0.00    -0.053 C  
ENDBRANCH  10  29
TORSDOF 6
ENDMDL
MODEL      177
REMARK 921   NORMALIZED FREE ENERGY PREDICTED BY IDOCK:   -4.38 KCAL/MOL
REMARK 922        TOTAL FREE ENERGY PREDICTED BY IDOCK:   -6.79 KCAL/MOL
REMARK 923 INTER-LIGAND FREE ENERGY PREDICTED BY IDOCK:   -5.90 KCAL/MOL
REMARK 924 INTRA-LIGAND FREE ENERGY PREDICTED BY IDOCK:   -0.89 KCAL/MOL
REMARK 927      BINDING AFFINITY PREDICTED BY RF-SCORE:    0.00 PKD
ROOT
HETATM    1  C   UNL     1      -8.959   7.169  67.409  1.00  0.00    -0.122 C  
HETATM    2  C   UNL     1      -8.814   8.671  67.128  1.00  0.00    -0.138 C  
HETATM    3  C   UNL     1      -9.331   9.290  68.409  1.00  0.00    -0.138 C  
HETATM    4  C   UNL     1      -9.535   9.048  65.839  1.00  0.00    -0.317 C  
HETATM    5  O   UNL     1     -11.022   7.527  71.139  1.00  0.00    -0.241 OA 
HETATM    6  C   UNL     1      -9.717   8.336  69.284  1.00  0.00    -0.177 C  
HETATM    7  N   UNL     1      -9.473   7.056  68.802  1.00  0.00    -0.137 N  
HETATM    8  O   UNL     1     -11.375   5.769  69.175  1.00  0.00    -0.193 OA 
HETATM    9  C   UNL     1     -10.314   8.566  70.644  1.00  0.00    -0.199 C  
HETATM   10  C   UNL     1     -10.177   6.290  66.978  1.00  0.00    -0.256 C  
HETATM   11  O   UNL     1     -10.165   9.587  71.297  1.00  0.00    -0.296 OA 
HETATM   12  C   UNL     1     -10.486   6.199  68.476  1.00  0.00    -0.237 C  
ENDROOT
BRANCH   3  13
HETATM   13  S   UNL     1      -9.481  10.989  68.651  1.00  0.00    -0.185 SA 
BRANCH  13  14
HETATM   14  C   UNL     1      -8.000  11.739  67.887  1.00  0.00    -0.141 C  
HETATM   15  N   UNL     1      -7.433  13.671  69.171  1.00  0.00    -0.307 NA 
HETATM   16  C   UNL     1      -6.958  12.330  68.837  1.00  0.00    -0.098 C  
HETATM   17  C   UNL     1      -8.447  12.969  67.087  1.00  0.00    -0.176 C  
HETATM   18  C   UNL     1      -8.079  14.186  67.942  1.00  0.00    -0.154 C  
HETATM   19  H   UNL     1      -6.704  14.283  69.538  1.00  0.00     0.000 HD 
BRANCH  18  20
HETATM   20  C   UNL     1      -9.267  15.100  68.310  1.00  0.00    -0.188 C  
BRANCH  20  21
HETATM   21  N   UNL     1     -10.238  14.364  69.193  1.00  0.00    -0.382 N  
HETATM   22  H   UNL     1      -9.936  13.827  70.005  1.00  0.00     0.000 HD 
BRANCH  21  23
HETATM   23  S   UNL     1     -11.844  14.486  68.752  1.00  0.00    -0.295 S  
HETATM   24  O   UNL     1     -12.100  13.519  67.713  1.00  0.00    -0.349 OA 
HETATM   25  N   UNL     1     -11.749  15.957  68.014  1.00  0.00    -0.222 N  
HETATM   26  O   UNL     1     -12.646  14.619  69.938  1.00  0.00    -0.284 OA 
HETATM   27  H2  UNL     1     -10.962  16.590  67.871  1.00  0.00     0.000 HD 
HETATM   28  H1  UNL     1     -12.730  16.032  67.745  1.00  0.00     0.000 HD 
ENDBRANCH  21  23
ENDBRANCH  20  21
ENDBRANCH  18  20
ENDBRANCH  13  14
ENDBRANCH   3  13
BRANCH  10  29
HETATM   29  C   UNL     1      -9.791   5.033  66.224  1.00  0.00    -0.200 C  
HETATM   30  H   UNL     1     -10.716   3.819  65.046  1.00  0.00     0.000 HD 
HETATM   31  O   UNL     1     -10.958   4.608  65.519  1.00  0.00    -0.255 OA 
HETATM   32  C   UNL     1      -9.342   3.931  67.169  1.00  0.00    -0.216 C  
ENDBRANCH  10  29
TORSDOF 6
ENDMDL
MODEL      178
REMARK 921   NORMALIZED FREE ENERGY PREDICTED BY IDOCK:   -4.37 KCAL/MOL
REMARK 922        TOTAL FREE ENERGY PREDICTED BY IDOCK:   -6.79 KCAL/MOL
REMARK 923 INTER-LIGAND FREE ENERGY PREDICTED BY IDOCK:   -6.10 KCAL/MOL
REMARK 924 INTRA-LIGAND FREE ENERGY PREDICTED BY IDOCK:   -0.69 KCAL/MOL
REMARK 927      BINDING AFFINITY PREDICTED BY RF-SCORE:    0.00 PKD
ROOT
HETATM    1  C   UNL     1      -9.717   7.792  70.388  1.00  0.00    -0.179 C  
HETATM    2  C   UNL     1      -8.549   8.708  69.996  1.00  0.00    -0.132 C  
HETATM    3  C   UNL     1      -8.546   8.598  68.487  1.00  0.00    -0.135 C  
HETATM    4  C   UNL     1      -7.275   8.292  70.721  1.00  0.00    -0.055 C  
HETATM    5  O   UNL     1     -10.502   6.240  66.480  1.00  0.00    -0.182 OA 
HETATM    6  C   UNL     1      -9.524   7.770  68.061  1.00  0.00    -0.144 C  
HETATM    7  N   UNL     1     -10.303   7.300  69.110  1.00  0.00    -0.201 N  
HETATM    8  O   UNL     1     -10.579   5.007  68.836  1.00  0.00    -0.079 OA 
HETATM    9  C   UNL     1      -9.807   7.388  66.636  1.00  0.00    -0.193 C  
HETATM   10  C   UNL     1      -9.581   6.293  70.806  1.00  0.00    -0.193 C  
HETATM   11  O   UNL     1      -9.481   8.055  65.666  1.00  0.00     0.027 OA 
HETATM   12  C   UNL     1     -10.298   5.986  69.487  1.00  0.00    -0.233 C  
ENDROOT
BRANCH   3  13
HETATM   13  S   UNL     1      -7.379   9.369  67.480  1.00  0.00    -0.083 SA 
BRANCH  13  14
HETATM   14  C   UNL     1      -7.601  11.165  67.736  1.00  0.00    -0.100 C  
HETATM   15  N   UNL     1      -9.943  11.618  67.631  1.00  0.00    -0.186 NA 
HETATM   16  C   UNL     1      -8.814  11.599  68.559  1.00  0.00    -0.131 C  
HETATM   17  C   UNL     1      -7.882  11.809  66.373  1.00  0.00     0.099 C  
HETATM   18  C   UNL     1      -9.391  12.076  66.336  1.00  0.00    -0.228 C  
HETATM   19  H   UNL     1     -10.733  12.174  67.959  1.00  0.00     0.000 HD 
BRANCH  18  20
HETATM   20  C   UNL     1     -10.138  11.396  65.169  1.00  0.00    -0.271 C  
BRANCH  20  21
HETATM   21  N   UNL     1     -10.527  12.415  64.133  1.00  0.00    -0.361 N  
HETATM   22  H   UNL     1     -10.029  12.508  63.248  1.00  0.00     0.000 HD 
BRANCH  21  23
HETATM   23  S   UNL     1     -11.827  13.384  64.530  1.00  0.00    -0.420 S  
HETATM   24  O   UNL     1     -12.795  12.574  65.230  1.00  0.00    -0.613 OA 
HETATM   25  N   UNL     1     -12.408  13.595  63.001  1.00  0.00    -1.004 N  
HETATM   26  O   UNL     1     -11.340  14.646  65.014  1.00  0.00    -0.355 OA 
HETATM   27  H2  UNL     1     -12.079  13.246  62.101  1.00  0.00     0.000 HD 
HETATM   28  H1  UNL     1     -13.202  14.186  63.244  1.00  0.00     0.000 HD 
ENDBRANCH  21  23
ENDBRANCH  20  21
ENDBRANCH  18  20
ENDBRANCH  13  14
ENDBRANCH   3  13
BRANCH  10  29
HETATM   29  C   UNL     1     -10.264   5.955  72.115  1.00  0.00    -0.195 C  
HETATM   30  H   UNL     1     -10.517   4.340  73.137  1.00  0.00     0.000 HD 
HETATM   31  O   UNL     1     -10.089   4.552  72.316  1.00  0.00    -0.178 OA 
HETATM   32  C   UNL     1     -11.748   6.278  72.070  1.00  0.00    -0.374 C  
ENDBRANCH  10  29
TORSDOF 6
ENDMDL
MODEL      179
REMARK 921   NORMALIZED FREE ENERGY PREDICTED BY IDOCK:   -4.31 KCAL/MOL
REMARK 922        TOTAL FREE ENERGY PREDICTED BY IDOCK:   -6.70 KCAL/MOL
REMARK 923 INTER-LIGAND FREE ENERGY PREDICTED BY IDOCK:   -5.57 KCAL/MOL
REMARK 924 INTRA-LIGAND FREE ENERGY PREDICTED BY IDOCK:   -1.13 KCAL/MOL
REMARK 927      BINDING AFFINITY PREDICTED BY RF-SCORE:    0.00 PKD
ROOT
HETATM    1  C   UNL     1     -10.473  13.709  66.485  1.00  0.00    -0.281 C  
HETATM    2  C   UNL     1     -10.283  12.186  66.539  1.00  0.00    -0.230 C  
HETATM    3  C   UNL     1      -9.023  12.048  67.367  1.00  0.00    -0.176 C  
HETATM    4  C   UNL     1     -10.252  11.600  65.133  1.00  0.00    -0.319 C  
HETATM    5  O   UNL     1      -6.791  14.766  68.390  1.00  0.00    -0.093 OA 
HETATM    6  C   UNL     1      -8.550  13.259  67.732  1.00  0.00    -0.184 C  
HETATM    7  N   UNL     1      -9.377  14.291  67.310  1.00  0.00    -0.205 N  
HETATM    8  O   UNL     1      -8.044  15.945  66.361  1.00  0.00    -0.265 OA 
HETATM    9  C   UNL     1      -7.303  13.523  68.527  1.00  0.00    -0.114 C  
HETATM   10  C   UNL     1      -9.979  14.634  65.327  1.00  0.00    -0.329 C  
HETATM   11  O   UNL     1      -6.781  12.714  69.278  1.00  0.00    -0.101 OA 
HETATM   12  C   UNL     1      -8.988  15.189  66.355  1.00  0.00    -0.279 C  
ENDROOT
BRANCH   3  13
HETATM   13  S   UNL     1      -8.269  10.536  67.704  1.00  0.00    -0.110 SA 
BRANCH  13  14
HETATM   14  C   UNL     1      -9.193   9.813  69.104  1.00  0.00    -0.176 C  
HETATM   15  N   UNL     1      -9.117   7.438  68.861  1.00  0.00    -0.137 NA 
HETATM   16  C   UNL     1      -8.632   8.525  69.710  1.00  0.00    -0.131 C  
HETATM   17  C   UNL     1     -10.564   9.360  68.588  1.00  0.00    -0.230 C  
HETATM   18  C   UNL     1     -10.477   7.838  68.434  1.00  0.00    -0.166 C  
HETATM   19  H   UNL     1      -9.082   6.523  69.310  1.00  0.00     0.000 HD 
BRANCH  18  20
HETATM   20  C   UNL     1     -10.761   7.316  67.010  1.00  0.00    -0.336 C  
BRANCH  20  21
HETATM   21  N   UNL     1      -9.474   6.948  66.323  1.00  0.00    -0.348 N  
HETATM   22  H   UNL     1      -8.791   7.649  66.036  1.00  0.00     0.000 HD 
BRANCH  21  23
HETATM   23  S   UNL     1      -9.240   5.316  66.061  1.00  0.00    -0.158 S  
HETATM   24  O   UNL     1     -10.400   4.610  66.550  1.00  0.00    -0.252 OA 
HETATM   25  N   UNL     1      -8.048   5.092  67.178  1.00  0.00    -0.104 N  
HETATM   26  O   UNL     1      -8.682   5.127  64.750  1.00  0.00    -0.152 OA 
HETATM   27  H2  UNL     1      -7.598   5.742  67.823  1.00  0.00     0.000 HD 
HETATM   28  H1  UNL     1      -7.905   4.095  67.018  1.00  0.00     0.000 HD 
ENDBRANCH  21  23
ENDBRANCH  20  21
ENDBRANCH  18  20
ENDBRANCH  13  14
ENDBRANCH   3  13
BRANCH  10  29
HETATM   29  C   UNL     1     -11.053  15.544  64.767  1.00  0.00    -0.407 C  
HETATM   30  H   UNL     1     -11.850  17.207  65.328  1.00  0.00     0.000 HD 
HETATM   31  O   UNL     1     -11.176  16.637  65.679  1.00  0.00     0.058 OA 
HETATM   32  C   UNL     1     -12.389  14.828  64.653  1.00  0.00    -0.346 C  
ENDBRANCH  10  29
TORSDOF 6
ENDMDL
MODEL      180
REMARK 921   NORMALIZED FREE ENERGY PREDICTED BY IDOCK:   -4.30 KCAL/MOL
REMARK 922        TOTAL FREE ENERGY PREDICTED BY IDOCK:   -6.69 KCAL/MOL
REMARK 923 INTER-LIGAND FREE ENERGY PREDICTED BY IDOCK:   -6.02 KCAL/MOL
REMARK 924 INTRA-LIGAND FREE ENERGY PREDICTED BY IDOCK:   -0.67 KCAL/MOL
REMARK 927      BINDING AFFINITY PREDICTED BY RF-SCORE:    0.00 PKD
ROOT
HETATM    1  C   UNL     1      -9.028   6.523  69.370  1.00  0.00    -0.132 C  
HETATM    2  C   UNL     1      -9.287   7.734  68.463  1.00  0.00    -0.147 C  
HETATM    3  C   UNL     1     -10.125   8.628  69.351  1.00  0.00    -0.204 C  
HETATM    4  C   UNL     1      -9.910   7.293  67.144  1.00  0.00    -0.242 C  
HETATM    5  O   UNL     1     -11.577   7.721  72.589  1.00  0.00    -0.354 OA 
HETATM    6  C   UNL     1     -10.329   8.055  70.557  1.00  0.00    -0.202 C  
HETATM    7  N   UNL     1      -9.665   6.842  70.678  1.00  0.00    -0.172 N  
HETATM    8  O   UNL     1     -11.146   5.295  71.588  1.00  0.00    -0.126 OA 
HETATM    9  C   UNL     1     -11.141   8.626  71.686  1.00  0.00    -0.305 C  
HETATM   10  C   UNL     1      -9.872   5.209  69.373  1.00  0.00    -0.269 C  
HETATM   11  O   UNL     1     -11.380   9.815  71.829  1.00  0.00    -0.298 OA 
HETATM   12  C   UNL     1     -10.336   5.653  70.764  1.00  0.00    -0.243 C  
ENDROOT
BRANCH   3  13
HETATM   13  S   UNL     1     -10.789  10.131  68.832  1.00  0.00    -0.222 SA 
BRANCH  13  14
HETATM   14  C   UNL     1      -9.860  10.601  67.330  1.00  0.00    -0.176 C  
HETATM   15  N   UNL     1      -9.104  12.846  67.629  1.00  0.00    -0.184 NA 
HETATM   16  C   UNL     1      -8.619  11.471  67.531  1.00  0.00    -0.143 C  
HETATM   17  C   UNL     1     -10.758  11.505  66.477  1.00  0.00    -0.318 C  
HETATM   18  C   UNL     1     -10.253  12.934  66.700  1.00  0.00    -0.247 C  
HETATM   19  H   UNL     1      -8.383  13.547  67.456  1.00  0.00     0.000 HD 
BRANCH  18  20
HETATM   20  C   UNL     1     -11.310  13.913  67.254  1.00  0.00    -0.323 C  
BRANCH  20  21
HETATM   21  N   UNL     1     -11.322  15.181  66.444  1.00  0.00    -0.281 N  
HETATM   22  H   UNL     1     -11.888  15.283  65.602  1.00  0.00     0.000 HD 
BRANCH  21  23
HETATM   23  S   UNL     1     -10.347  16.409  67.017  1.00  0.00    -0.287 S  
HETATM   24  O   UNL     1     -11.079  17.130  68.030  1.00  0.00    -0.313 OA 
HETATM   25  N   UNL     1     -10.372  17.348  65.661  1.00  0.00    -0.229 N  
HETATM   26  O   UNL     1      -9.015  15.902  67.200  1.00  0.00    -0.195 OA 
HETATM   27  H2  UNL     1     -10.834  17.220  64.762  1.00  0.00     0.000 HD 
HETATM   28  H1  UNL     1      -9.776  18.098  66.012  1.00  0.00     0.000 HD 
ENDBRANCH  21  23
ENDBRANCH  20  21
ENDBRANCH  18  20
ENDBRANCH  13  14
ENDBRANCH   3  13
BRANCH  10  29
HETATM   29  C   UNL     1      -9.044   3.946  69.238  1.00  0.00    -0.132 C  
HETATM   30  H   UNL     1      -7.175   3.573  68.946  1.00  0.00     0.000 HD 
HETATM   31  O   UNL     1      -7.694   4.365  69.031  1.00  0.00    -0.059 OA 
HETATM   32  C   UNL     1      -9.499   3.104  68.058  1.00  0.00    -0.218 C  
ENDBRANCH  10  29
TORSDOF 6
ENDMDL
MODEL      181
REMARK 921   NORMALIZED FREE ENERGY PREDICTED BY IDOCK:   -4.28 KCAL/MOL
REMARK 922        TOTAL FREE ENERGY PREDICTED BY IDOCK:   -6.66 KCAL/MOL
REMARK 923 INTER-LIGAND FREE ENERGY PREDICTED BY IDOCK:   -5.52 KCAL/MOL
REMARK 924 INTRA-LIGAND FREE ENERGY PREDICTED BY IDOCK:   -1.14 KCAL/MOL
REMARK 927      BINDING AFFINITY PREDICTED BY RF-SCORE:    0.00 PKD
ROOT
HETATM    1  C   UNL     1      -9.182  14.948  67.625  1.00  0.00    -0.187 C  
HETATM    2  C   UNL     1      -9.997  13.799  67.014  1.00  0.00    -0.251 C  
HETATM    3  C   UNL     1      -8.967  12.695  66.906  1.00  0.00    -0.213 C  
HETATM    4  C   UNL     1     -10.668  14.246  65.720  1.00  0.00    -0.308 C  
HETATM    5  O   UNL     1      -5.360  13.035  67.446  1.00  0.00    -0.298 OA 
HETATM    6  C   UNL     1      -7.765  13.110  67.362  1.00  0.00    -0.145 C  
HETATM    7  N   UNL     1      -7.816  14.404  67.864  1.00  0.00    -0.135 N  
HETATM    8  O   UNL     1      -5.998  15.581  67.015  1.00  0.00    -0.270 OA 
HETATM    9  C   UNL     1      -6.496  12.306  67.381  1.00  0.00    -0.157 C  
HETATM   10  C   UNL     1      -8.494  16.091  66.812  1.00  0.00    -0.295 C  
HETATM   11  O   UNL     1      -6.454  11.086  67.373  1.00  0.00    -0.061 OA 
HETATM   12  C   UNL     1      -7.176  15.446  67.252  1.00  0.00    -0.194 C  
ENDROOT
BRANCH   3  13
HETATM   13  S   UNL     1      -9.295  11.155  66.206  1.00  0.00    -0.202 SA 
BRANCH  13  14
HETATM   14  C   UNL     1     -10.075  10.159  67.524  1.00  0.00    -0.201 C  
HETATM   15  N   UNL     1      -8.344   8.912  68.598  1.00  0.00    -0.123 NA 
HETATM   16  C   UNL     1      -9.290  10.003  68.827  1.00  0.00    -0.162 C  
HETATM   17  C   UNL     1     -10.178   8.711  67.030  1.00  0.00    -0.360 C  
HETATM   18  C   UNL     1      -9.051   7.944  67.728  1.00  0.00    -0.134 C  
HETATM   19  H   UNL     1      -7.980   8.500  69.457  1.00  0.00     0.000 HD 
BRANCH  18  20
HETATM   20  C   UNL     1      -8.049   7.258  66.775  1.00  0.00    -0.119 C  
BRANCH  20  21
HETATM   21  N   UNL     1      -8.176   5.762  66.874  1.00  0.00    -0.102 N  
HETATM   22  H   UNL     1      -8.020   5.259  67.747  1.00  0.00     0.000 HD 
BRANCH  21  23
HETATM   23  S   UNL     1      -8.590   4.982  65.457  1.00  0.00    -0.144 S  
HETATM   24  O   UNL     1      -7.422   4.291  64.965  1.00  0.00    -0.071 OA 
HETATM   25  N   UNL     1      -8.770   6.327  64.520  1.00  0.00    -0.332 N  
HETATM   26  O   UNL     1      -9.876   4.362  65.622  1.00  0.00    -0.187 OA 
HETATM   27  H2  UNL     1      -8.663   7.318  64.736  1.00  0.00     0.000 HD 
HETATM   28  H1  UNL     1      -9.023   5.850  63.654  1.00  0.00     0.000 HD 
ENDBRANCH  21  23
ENDBRANCH  20  21
ENDBRANCH  18  20
ENDBRANCH  13  14
ENDBRANCH   3  13
BRANCH  10  29
HETATM   29  C   UNL     1      -8.835  17.484  67.300  1.00  0.00    -0.231 C  
HETATM   30  H   UNL     1      -8.209  18.611  68.733  1.00  0.00     0.000 HD 
HETATM   31  O   UNL     1      -7.995  17.737  68.427  1.00  0.00    -0.273 OA 
HETATM   32  C   UNL     1     -10.292  17.586  67.723  1.00  0.00    -0.367 C  
ENDBRANCH  10  29
TORSDOF 6
ENDMDL
MODEL      182
REMARK 921   NORMALIZED FREE ENERGY PREDICTED BY IDOCK:   -4.20 KCAL/MOL
REMARK 922        TOTAL FREE ENERGY PREDICTED BY IDOCK:   -6.56 KCAL/MOL
REMARK 923 INTER-LIGAND FREE ENERGY PREDICTED BY IDOCK:   -5.50 KCAL/MOL
REMARK 924 INTRA-LIGAND FREE ENERGY PREDICTED BY IDOCK:   -1.06 KCAL/MOL
REMARK 927      BINDING AFFINITY PREDICTED BY RF-SCORE:    0.00 PKD
ROOT
HETATM    1  C   UNL     1     -11.026  12.414  65.881  1.00  0.00    -0.288 C  
HETATM    2  C   UNL     1     -10.864  10.920  65.567  1.00  0.00    -0.106 C  
HETATM    3  C   UNL     1      -9.831  10.488  66.584  1.00  0.00    -0.199 C  
HETATM    4  C   UNL     1     -10.513  10.717  64.098  1.00  0.00    -0.309 C  
HETATM    5  O   UNL     1      -7.878  12.691  68.764  1.00  0.00    -0.075 OA 
HETATM    6  C   UNL     1      -9.447  11.528  67.356  1.00  0.00    -0.165 C  
HETATM    7  N   UNL     1     -10.148  12.688  67.053  1.00  0.00    -0.223 N  
HETATM    8  O   UNL     1      -8.621  14.437  66.900  1.00  0.00    -0.215 OA 
HETATM    9  C   UNL     1      -8.416  11.492  68.447  1.00  0.00    -0.159 C  
HETATM   10  C   UNL     1     -10.273  13.572  65.151  1.00  0.00    -0.334 C  
HETATM   11  O   UNL     1      -8.086  10.483  69.051  1.00  0.00    -0.124 OA 
HETATM   12  C   UNL     1      -9.543  13.774  66.483  1.00  0.00    -0.285 C  
ENDROOT
BRANCH   3  13
HETATM   13  S   UNL     1      -9.184   8.892  66.663  1.00  0.00    -0.184 SA 
BRANCH  13  14
HETATM   14  C   UNL     1     -10.240   7.978  67.842  1.00  0.00    -0.212 C  
HETATM   15  N   UNL     1      -9.236   5.839  68.191  1.00  0.00    -0.110 NA 
HETATM   16  C   UNL     1      -9.525   7.101  68.870  1.00  0.00    -0.142 C  
HETATM   17  C   UNL     1     -11.060   6.952  67.051  1.00  0.00    -0.315 C  
HETATM   18  C   UNL     1     -10.384   5.598  67.288  1.00  0.00    -0.241 C  
HETATM   19  H   UNL     1      -9.046   5.066  68.828  1.00  0.00     0.000 HD 
BRANCH  18  20
HETATM   20  C   UNL     1      -9.910   4.879  66.007  1.00  0.00    -0.203 C  
BRANCH  20  21
HETATM   21  N   UNL     1      -9.007   5.779  65.208  1.00  0.00    -0.340 N  
HETATM   22  H   UNL     1      -9.321   6.675  64.837  1.00  0.00     0.000 HD 
BRANCH  21  23
HETATM   23  S   UNL     1      -7.455   5.211  64.971  1.00  0.00    -0.074 S  
HETATM   24  O   UNL     1      -7.070   4.453  66.136  1.00  0.00    -0.068 OA 
HETATM   25  N   UNL     1      -6.681   6.664  65.078  1.00  0.00    -0.048 N  
HETATM   26  O   UNL     1      -7.335   4.726  63.624  1.00  0.00    -0.052 OA 
HETATM   27  H2  UNL     1      -7.035   7.606  65.238  1.00  0.00     0.000 HD 
HETATM   28  H1  UNL     1      -5.733   6.317  64.933  1.00  0.00     0.000 HD 
ENDBRANCH  21  23
ENDBRANCH  20  21
ENDBRANCH  18  20
ENDBRANCH  13  14
ENDBRANCH   3  13
BRANCH  10  29
HETATM   29  C   UNL     1     -11.183  14.667  64.633  1.00  0.00    -0.346 C  
HETATM   30  H   UNL     1     -11.367  16.555  64.976  1.00  0.00     0.000 HD 
HETATM   31  O   UNL     1     -10.796  15.868  65.301  1.00  0.00    -0.388 OA 
HETATM   32  C   UNL     1     -12.643  14.369  64.933  1.00  0.00    -0.298 C  
ENDBRANCH  10  29
TORSDOF 6
ENDMDL
MODEL      183
REMARK 921   NORMALIZED FREE ENERGY PREDICTED BY IDOCK:   -4.11 KCAL/MOL
REMARK 922        TOTAL FREE ENERGY PREDICTED BY IDOCK:   -6.44 KCAL/MOL
REMARK 923 INTER-LIGAND FREE ENERGY PREDICTED BY IDOCK:   -5.19 KCAL/MOL
REMARK 924 INTRA-LIGAND FREE ENERGY PREDICTED BY IDOCK:   -1.25 KCAL/MOL
REMARK 927      BINDING AFFINITY PREDICTED BY RF-SCORE:    0.00 PKD
ROOT
HETATM    1  C   UNL     1     -10.689   8.096  69.281  1.00  0.00    -0.129 C  
HETATM    2  C   UNL     1     -10.474   9.284  68.332  1.00  0.00    -0.246 C  
HETATM    3  C   UNL     1      -9.057   9.060  67.851  1.00  0.00    -0.135 C  
HETATM    4  C   UNL     1     -10.760  10.599  69.048  1.00  0.00    -0.257 C  
HETATM    5  O   UNL     1      -6.681   6.604  69.171  1.00  0.00    -0.048 OA 
HETATM    6  C   UNL     1      -8.527   7.951  68.411  1.00  0.00    -0.128 C  
HETATM    7  N   UNL     1      -9.441   7.285  69.217  1.00  0.00    -0.153 N  
HETATM    8  O   UNL     1      -8.379   6.738  71.214  1.00  0.00    -0.118 OA 
HETATM    9  C   UNL     1      -7.134   7.428  68.201  1.00  0.00    -0.085 C  
HETATM   10  C   UNL     1     -10.484   8.136  70.829  1.00  0.00    -0.223 C  
HETATM   11  O   UNL     1      -6.444   7.680  67.224  1.00  0.00    -0.055 OA 
HETATM   12  C   UNL     1      -9.291   7.210  70.574  1.00  0.00    -0.158 C  
ENDROOT
BRANCH   3  13
HETATM   13  S   UNL     1      -8.228  10.143  66.798  1.00  0.00    -0.124 SA 
BRANCH  13  14
HETATM   14  C   UNL     1      -6.945  10.952  67.817  1.00  0.00    -0.077 C  
HETATM   15  N   UNL     1      -8.013  12.682  69.071  1.00  0.00    -0.320 NA 
HETATM   16  C   UNL     1      -7.354  11.386  69.225  1.00  0.00    -0.042 C  
HETATM   17  C   UNL     1      -6.583  12.288  67.157  1.00  0.00    -0.109 C  
HETATM   18  C   UNL     1      -7.291  13.371  67.978  1.00  0.00    -0.129 C  
HETATM   19  H   UNL     1      -8.059  13.222  69.935  1.00  0.00     0.000 HD 
BRANCH  18  20
HETATM   20  C   UNL     1      -8.267  14.257  67.174  1.00  0.00    -0.160 C  
BRANCH  20  21
HETATM   21  N   UNL     1      -9.571  13.538  66.963  1.00  0.00    -0.240 N  
HETATM   22  H   UNL     1      -9.627  12.641  66.480  1.00  0.00     0.000 HD 
BRANCH  21  23
HETATM   23  S   UNL     1     -10.922  14.306  67.574  1.00  0.00    -0.297 S  
HETATM   24  O   UNL     1     -10.969  14.072  68.997  1.00  0.00    -0.252 OA 
HETATM   25  N   UNL     1     -12.053  13.315  66.896  1.00  0.00    -0.365 N  
HETATM   26  O   UNL     1     -11.033  15.607  66.973  1.00  0.00    -0.322 OA 
HETATM   27  H2  UNL     1     -11.958  12.495  66.297  1.00  0.00     0.000 HD 
HETATM   28  H1  UNL     1     -12.877  13.784  67.269  1.00  0.00     0.000 HD 
ENDBRANCH  21  23
ENDBRANCH  20  21
ENDBRANCH  18  20
ENDBRANCH  13  14
ENDBRANCH   3  13
BRANCH  10  29
HETATM   29  C   UNL     1     -11.669   7.616  71.619  1.00  0.00    -0.281 C  
HETATM   30  H   UNL     1     -12.985   6.236  71.341  1.00  0.00     0.000 HD 
HETATM   31  O   UNL     1     -12.243   6.561  70.845  1.00  0.00    -0.329 OA 
HETATM   32  C   UNL     1     -12.709   8.701  71.845  1.00  0.00    -0.413 C  
ENDBRANCH  10  29
TORSDOF 6
ENDMDL
MODEL      184
REMARK 921   NORMALIZED FREE ENERGY PREDICTED BY IDOCK:   -4.10 KCAL/MOL
REMARK 922        TOTAL FREE ENERGY PREDICTED BY IDOCK:   -6.43 KCAL/MOL
REMARK 923 INTER-LIGAND FREE ENERGY PREDICTED BY IDOCK:   -5.16 KCAL/MOL
REMARK 924 INTRA-LIGAND FREE ENERGY PREDICTED BY IDOCK:   -1.26 KCAL/MOL
REMARK 927      BINDING AFFINITY PREDICTED BY RF-SCORE:    0.00 PKD
ROOT
HETATM    1  C   UNL     1     -10.230  11.786  67.098  1.00  0.00    -0.212 C  
HETATM    2  C   UNL     1      -8.907  11.038  67.313  1.00  0.00    -0.135 C  
HETATM    3  C   UNL     1      -9.190  10.236  68.564  1.00  0.00    -0.144 C  
HETATM    4  C   UNL     1      -7.741  12.018  67.370  1.00  0.00    -0.162 C  
HETATM    5  O   UNL     1     -12.119  10.568  70.738  1.00  0.00    -0.306 OA 
HETATM    6  C   UNL     1     -10.443  10.466  69.013  1.00  0.00    -0.219 C  
HETATM    7  N   UNL     1     -11.149  11.317  68.173  1.00  0.00    -0.237 N  
HETATM    8  O   UNL     1     -12.209  12.916  69.490  1.00  0.00    -0.233 OA 
HETATM    9  C   UNL     1     -11.068   9.877  70.245  1.00  0.00    -0.308 C  
HETATM   10  C   UNL     1     -10.530  13.238  67.590  1.00  0.00    -0.231 C  
HETATM   11  O   UNL     1     -10.704   8.837  70.772  1.00  0.00    -0.209 OA 
HETATM   12  C   UNL     1     -11.516  12.577  68.559  1.00  0.00    -0.305 C  
ENDROOT
BRANCH   3  13
HETATM   13  S   UNL     1      -8.017   9.239  69.340  1.00  0.00    -0.106 SA 
BRANCH  13  14
HETATM   14  C   UNL     1      -7.914   7.712  68.342  1.00  0.00    -0.123 C  
HETATM   15  N   UNL     1      -9.656   6.256  69.082  1.00  0.00    -0.135 NA 
HETATM   16  C   UNL     1      -9.238   7.063  67.937  1.00  0.00    -0.125 C  
HETATM   17  C   UNL     1      -7.265   6.622  69.204  1.00  0.00    -0.091 C  
HETATM   18  C   UNL     1      -8.409   5.715  69.669  1.00  0.00    -0.107 C  
HETATM   19  H   UNL     1     -10.343   5.539  68.848  1.00  0.00     0.000 HD 
BRANCH  18  20
HETATM   20  C   UNL     1      -8.553   5.591  71.201  1.00  0.00    -0.127 C  
BRANCH  20  21
HETATM   21  N   UNL     1      -7.438   6.328  71.891  1.00  0.00    -0.093 N  
HETATM   22  H   UNL     1      -6.594   6.622  71.400  1.00  0.00     0.000 HD 
BRANCH  21  23
HETATM   23  S   UNL     1      -7.677   6.634  73.515  1.00  0.00    -0.089 S  
HETATM   24  O   UNL     1      -7.409   8.031  73.755  1.00  0.00    -0.128 OA 
HETATM   25  N   UNL     1      -6.370   5.800  74.080  1.00  0.00    -0.068 N  
HETATM   26  O   UNL     1      -8.871   5.962  73.947  1.00  0.00    -0.126 OA 
HETATM   27  H2  UNL     1      -5.648   5.269  73.594  1.00  0.00     0.000 HD 
HETATM   28  H1  UNL     1      -6.516   5.987  75.072  1.00  0.00     0.000 HD 
ENDBRANCH  21  23
ENDBRANCH  20  21
ENDBRANCH  18  20
ENDBRANCH  13  14
ENDBRANCH   3  13
BRANCH  10  29
HETATM   29  C   UNL     1     -11.060  14.157  66.508  1.00  0.00    -0.318 C  
HETATM   30  H   UNL     1     -12.738  14.328  65.575  1.00  0.00     0.000 HD 
HETATM   31  O   UNL     1     -12.406  13.752  66.254  1.00  0.00    -0.444 OA 
HETATM   32  C   UNL     1     -10.247  14.040  65.229  1.00  0.00    -0.383 C  
ENDBRANCH  10  29
TORSDOF 6
ENDMDL
MODEL      185
REMARK 921   NORMALIZED FREE ENERGY PREDICTED BY IDOCK:   -4.09 KCAL/MOL
REMARK 922        TOTAL FREE ENERGY PREDICTED BY IDOCK:   -6.41 KCAL/MOL
REMARK 923 INTER-LIGAND FREE ENERGY PREDICTED BY IDOCK:   -5.78 KCAL/MOL
REMARK 924 INTRA-LIGAND FREE ENERGY PREDICTED BY IDOCK:   -0.63 KCAL/MOL
REMARK 927      BINDING AFFINITY PREDICTED BY RF-SCORE:    0.00 PKD
ROOT
HETATM    1  C   UNL     1     -11.661  12.564  65.794  1.00  0.00    -0.426 C  
HETATM    2  C   UNL     1     -11.014  11.518  66.713  1.00  0.00    -0.347 C  
HETATM    3  C   UNL     1     -10.325  12.382  67.747  1.00  0.00    -0.216 C  
HETATM    4  C   UNL     1     -10.134  10.569  65.909  1.00  0.00    -0.323 C  
HETATM    5  O   UNL     1      -9.903  16.018  67.603  1.00  0.00    -0.231 OA 
HETATM    6  C   UNL     1     -10.521  13.693  67.489  1.00  0.00    -0.241 C  
HETATM    7  N   UNL     1     -11.350  13.891  66.393  1.00  0.00    -0.319 N  
HETATM    8  O   UNL     1     -10.381  15.513  65.036  1.00  0.00    -0.378 OA 
HETATM    9  C   UNL     1      -9.963  14.847  68.274  1.00  0.00    -0.222 C  
HETATM   10  C   UNL     1     -11.032  13.107  64.471  1.00  0.00    -0.392 C  
HETATM   11  O   UNL     1      -9.611  14.779  69.442  1.00  0.00    -0.125 OA 
HETATM   12  C   UNL     1     -10.892  14.434  65.225  1.00  0.00    -0.361 C  
ENDROOT
BRANCH   3  13
HETATM   13  S   UNL     1      -9.352  11.748  69.020  1.00  0.00     0.339 SA 
BRANCH  13  14
HETATM   14  C   UNL     1      -7.639  12.268  68.653  1.00  0.00    -0.089 C  
HETATM   15  N   UNL     1      -7.159  11.615  66.407  1.00  0.00    -0.372 NA 
HETATM   16  C   UNL     1      -7.366  12.796  67.244  1.00  0.00    -0.090 C  
HETATM   17  C   UNL     1      -6.739  11.029  68.719  1.00  0.00    -0.065 C  
HETATM   18  C   UNL     1      -6.460  10.632  67.266  1.00  0.00    -0.072 C  
HETATM   19  H   UNL     1      -6.672  11.814  65.533  1.00  0.00     0.000 HD 
BRANCH  18  20
HETATM   20  C   UNL     1      -6.895   9.198  66.893  1.00  0.00    -0.080 C  
BRANCH  20  21
HETATM   21  N   UNL     1      -6.460   8.869  65.491  1.00  0.00    -0.066 N  
HETATM   22  H   UNL     1      -5.716   9.382  65.017  1.00  0.00     0.000 HD 
BRANCH  21  23
HETATM   23  S   UNL     1      -7.276   7.609  64.762  1.00  0.00    -0.072 S  
HETATM   24  O   UNL     1      -7.706   6.695  65.793  1.00  0.00    -0.085 OA 
HETATM   25  N   UNL     1      -5.975   6.911  64.027  1.00  0.00    -0.035 N  
HETATM   26  O   UNL     1      -8.147   8.138  63.748  1.00  0.00    -0.154 OA 
HETATM   27  H2  UNL     1      -4.988   7.167  64.020  1.00  0.00     0.000 HD 
HETATM   28  H1  UNL     1      -6.475   6.141  63.582  1.00  0.00     0.000 HD 
ENDBRANCH  21  23
ENDBRANCH  20  21
ENDBRANCH  18  20
ENDBRANCH  13  14
ENDBRANCH   3  13
BRANCH  10  29
HETATM   29  C   UNL     1     -11.958  13.031  63.274  1.00  0.00    -0.421 C  
HETATM   30  H   UNL     1     -13.365  14.146  62.573  1.00  0.00     0.000 HD 
HETATM   31  O   UNL     1     -12.785  14.195  63.323  1.00  0.00    -0.714 OA 
HETATM   32  C   UNL     1     -12.832  11.788  63.321  1.00  0.00    -0.224 C  
ENDBRANCH  10  29
TORSDOF 6
ENDMDL
MODEL      186
REMARK 921   NORMALIZED FREE ENERGY PREDICTED BY IDOCK:   -4.07 KCAL/MOL
REMARK 922        TOTAL FREE ENERGY PREDICTED BY IDOCK:   -6.39 KCAL/MOL
REMARK 923 INTER-LIGAND FREE ENERGY PREDICTED BY IDOCK:   -5.67 KCAL/MOL
REMARK 924 INTRA-LIGAND FREE ENERGY PREDICTED BY IDOCK:   -0.72 KCAL/MOL
REMARK 927      BINDING AFFINITY PREDICTED BY RF-SCORE:    0.00 PKD
ROOT
HETATM    1  C   UNL     1      -7.962  15.773  67.350  1.00  0.00    -0.168 C  
HETATM    2  C   UNL     1      -7.471  14.319  67.311  1.00  0.00    -0.082 C  
HETATM    3  C   UNL     1      -8.761  13.539  67.444  1.00  0.00    -0.220 C  
HETATM    4  C   UNL     1      -6.410  14.083  68.380  1.00  0.00    -0.105 C  
HETATM    5  O   UNL     1     -12.057  14.922  68.246  1.00  0.00    -0.246 OA 
HETATM    6  C   UNL     1      -9.820  14.372  67.546  1.00  0.00    -0.220 C  
HETATM    7  N   UNL     1      -9.448  15.705  67.436  1.00  0.00    -0.214 N  
HETATM    8  O   UNL     1     -10.508  16.895  69.131  1.00  0.00    -0.311 OA 
HETATM    9  C   UNL     1     -11.255  13.967  67.726  1.00  0.00    -0.293 C  
HETATM   10  C   UNL     1      -8.012  16.669  68.628  1.00  0.00    -0.236 C  
HETATM   11  O   UNL     1     -11.709  12.878  67.407  1.00  0.00    -0.340 OA 
HETATM   12  C   UNL     1      -9.535  16.573  68.489  1.00  0.00    -0.235 C  
ENDROOT
BRANCH   3  13
HETATM   13  S   UNL     1      -8.828  11.820  67.538  1.00  0.00    -0.169 SA 
BRANCH  13  14
HETATM   14  C   UNL     1      -8.656  11.214  65.823  1.00  0.00    -0.113 C  
HETATM   15  N   UNL     1     -10.106   9.331  65.582  1.00  0.00    -0.359 NA 
HETATM   16  C   UNL     1      -9.929  10.713  65.138  1.00  0.00    -0.303 C  
HETATM   17  C   UNL     1      -7.781   9.955  65.847  1.00  0.00    -0.110 C  
HETATM   18  C   UNL     1      -8.741   8.770  65.701  1.00  0.00    -0.184 C  
HETATM   19  H   UNL     1     -10.722   8.784  64.980  1.00  0.00     0.000 HD 
BRANCH  18  20
HETATM   20  C   UNL     1      -8.686   7.748  66.857  1.00  0.00    -0.132 C  
BRANCH  20  21
HETATM   21  N   UNL     1      -9.737   6.688  66.667  1.00  0.00    -0.214 N  
HETATM   22  H   UNL     1     -10.733   6.889  66.746  1.00  0.00     0.000 HD 
BRANCH  21  23
HETATM   23  S   UNL     1      -9.161   5.161  66.316  1.00  0.00    -0.141 S  
HETATM   24  O   UNL     1      -9.835   4.217  67.174  1.00  0.00    -0.205 OA 
HETATM   25  N   UNL     1      -7.645   5.360  66.935  1.00  0.00    -0.088 N  
HETATM   26  O   UNL     1      -9.058   5.015  64.890  1.00  0.00    -0.149 OA 
HETATM   27  H2  UNL     1      -7.202   6.159  67.388  1.00  0.00     0.000 HD 
HETATM   28  H1  UNL     1      -7.293   4.427  66.721  1.00  0.00     0.000 HD 
ENDBRANCH  21  23
ENDBRANCH  20  21
ENDBRANCH  18  20
ENDBRANCH  13  14
ENDBRANCH   3  13
BRANCH  10  29
HETATM   29  C   UNL     1      -7.338  18.016  68.461  1.00  0.00    -0.273 C  
HETATM   30  H   UNL     1      -7.927  19.849  68.549  1.00  0.00     0.000 HD 
HETATM   31  O   UNL     1      -8.350  19.005  68.654  1.00  0.00    -0.350 OA 
HETATM   32  C   UNL     1      -6.737  18.172  67.074  1.00  0.00    -0.206 C  
ENDBRANCH  10  29
TORSDOF 6
ENDMDL
MODEL      187
REMARK 921   NORMALIZED FREE ENERGY PREDICTED BY IDOCK:   -4.06 KCAL/MOL
REMARK 922        TOTAL FREE ENERGY PREDICTED BY IDOCK:   -6.37 KCAL/MOL
REMARK 923 INTER-LIGAND FREE ENERGY PREDICTED BY IDOCK:   -4.97 KCAL/MOL
REMARK 924 INTRA-LIGAND FREE ENERGY PREDICTED BY IDOCK:   -1.39 KCAL/MOL
REMARK 927      BINDING AFFINITY PREDICTED BY RF-SCORE:    0.00 PKD
ROOT
HETATM    1  C   UNL     1      -7.839   8.860  65.702  1.00  0.00    -0.096 C  
HETATM    2  C   UNL     1      -6.956   9.107  66.934  1.00  0.00    -0.081 C  
HETATM    3  C   UNL     1      -7.961   9.579  67.962  1.00  0.00    -0.091 C  
HETATM    4  C   UNL     1      -5.817  10.061  66.594  1.00  0.00    -0.055 C  
HETATM    5  O   UNL     1     -11.468  10.433  67.333  1.00  0.00    -0.354 OA 
HETATM    6  C   UNL     1      -9.207   9.611  67.440  1.00  0.00    -0.130 C  
HETATM    7  N   UNL     1      -9.237   9.143  66.133  1.00  0.00    -0.187 N  
HETATM    8  O   UNL     1     -10.502  10.625  64.862  1.00  0.00    -0.312 OA 
HETATM    9  C   UNL     1     -10.455  10.059  68.146  1.00  0.00    -0.211 C  
HETATM   10  C   UNL     1      -8.075   9.885  64.548  1.00  0.00    -0.149 C  
HETATM   11  O   UNL     1     -10.595  10.066  69.359  1.00  0.00    -0.204 OA 
HETATM   12  C   UNL     1      -9.512   9.963  65.074  1.00  0.00    -0.280 C  
ENDROOT
BRANCH   3  13
HETATM   13  S   UNL     1      -7.529  10.087  69.551  1.00  0.00    -0.140 SA 
BRANCH  13  14
HETATM   14  C   UNL     1      -6.621   8.688  70.297  1.00  0.00    -0.039 C  
HETATM   15  N   UNL     1      -8.132   6.842  70.424  1.00  0.00    -0.115 NA 
HETATM   16  C   UNL     1      -6.922   7.296  69.740  1.00  0.00    -0.057 C  
HETATM   17  C   UNL     1      -7.064   8.557  71.759  1.00  0.00    -0.106 C  
HETATM   18  C   UNL     1      -8.037   7.374  71.802  1.00  0.00    -0.102 C  
HETATM   19  H   UNL     1      -8.269   5.832  70.384  1.00  0.00     0.000 HD 
BRANCH  18  20
HETATM   20  C   UNL     1      -9.445   7.714  72.337  1.00  0.00    -0.165 C  
BRANCH  20  21
HETATM   21  N   UNL     1     -10.421   7.833  71.199  1.00  0.00    -0.208 N  
HETATM   22  H   UNL     1     -10.395   8.609  70.538  1.00  0.00     0.000 HD 
BRANCH  21  23
HETATM   23  S   UNL     1     -11.550   6.607  71.090  1.00  0.00    -0.347 S  
HETATM   24  O   UNL     1     -10.866   5.348  71.258  1.00  0.00    -0.218 OA 
HETATM   25  N   UNL     1     -11.870   6.758  69.479  1.00  0.00    -0.633 N  
HETATM   26  O   UNL     1     -12.724   6.985  71.828  1.00  0.00    -0.349 OA 
HETATM   27  H2  UNL     1     -11.497   7.395  68.775  1.00  0.00     0.000 HD 
HETATM   28  H1  UNL     1     -12.559   6.009  69.413  1.00  0.00     0.000 HD 
ENDBRANCH  21  23
ENDBRANCH  20  21
ENDBRANCH  18  20
ENDBRANCH  13  14
ENDBRANCH   3  13
BRANCH  10  29
HETATM   29  C   UNL     1      -7.823   9.322  63.164  1.00  0.00    -0.135 C  
HETATM   30  H   UNL     1      -8.942   8.616  61.762  1.00  0.00     0.000 HD 
HETATM   31  O   UNL     1      -9.100   8.970  62.629  1.00  0.00    -0.126 OA 
HETATM   32  C   UNL     1      -6.939   8.087  63.217  1.00  0.00    -0.085 C  
ENDBRANCH  10  29
TORSDOF 6
ENDMDL
MODEL      188
REMARK 921   NORMALIZED FREE ENERGY PREDICTED BY IDOCK:   -4.05 KCAL/MOL
REMARK 922        TOTAL FREE ENERGY PREDICTED BY IDOCK:   -6.36 KCAL/MOL
REMARK 923 INTER-LIGAND FREE ENERGY PREDICTED BY IDOCK:   -5.57 KCAL/MOL
REMARK 924 INTRA-LIGAND FREE ENERGY PREDICTED BY IDOCK:   -0.79 KCAL/MOL
REMARK 927      BINDING AFFINITY PREDICTED BY RF-SCORE:    0.00 PKD
ROOT
HETATM    1  C   UNL     1      -9.838  10.370  69.115  1.00  0.00    -0.223 C  
HETATM    2  C   UNL     1     -10.355   9.754  70.423  1.00  0.00    -0.354 C  
HETATM    3  C   UNL     1     -10.084   8.280  70.214  1.00  0.00    -0.192 C  
HETATM    4  C   UNL     1     -11.803  10.161  70.670  1.00  0.00    -0.431 C  
HETATM    5  O   UNL     1      -9.016   6.693  67.090  1.00  0.00    -0.116 OA 
HETATM    6  C   UNL     1      -9.516   8.060  69.008  1.00  0.00    -0.151 C  
HETATM    7  N   UNL     1      -9.276   9.242  68.320  1.00  0.00    -0.132 N  
HETATM    8  O   UNL     1     -10.009   8.966  66.129  1.00  0.00    -0.291 OA 
HETATM    9  C   UNL     1      -9.136   6.724  68.435  1.00  0.00    -0.125 C  
HETATM   10  C   UNL     1     -10.720  10.699  67.868  1.00  0.00    -0.292 C  
HETATM   11  O   UNL     1      -8.911   5.727  69.104  1.00  0.00    -0.117 OA 
HETATM   12  C   UNL     1      -9.953   9.567  67.177  1.00  0.00    -0.204 C  
ENDROOT
BRANCH   3  13
HETATM   13  S   UNL     1     -10.533   7.061  71.346  1.00  0.00    -0.208 SA 
BRANCH  13  14
HETATM   14  C   UNL     1     -10.201   7.763  73.000  1.00  0.00    -0.330 C  
HETATM   15  N   UNL     1      -8.007   7.073  73.643  1.00  0.00    -0.102 NA 
HETATM   16  C   UNL     1      -8.779   8.256  73.267  1.00  0.00    -0.215 C  
HETATM   17  C   UNL     1     -10.358   6.642  74.034  1.00  0.00    -0.377 C  
HETATM   18  C   UNL     1      -8.936   6.217  74.416  1.00  0.00    -0.150 C  
HETATM   19  H   UNL     1      -7.142   7.289  74.138  1.00  0.00     0.000 HD 
BRANCH  18  20
HETATM   20  C   UNL     1      -8.617   4.728  74.165  1.00  0.00    -0.108 C  
BRANCH  20  21
HETATM   21  N   UNL     1      -9.321   4.245  72.926  1.00  0.00    -0.114 N  
HETATM   22  H   UNL     1      -9.535   4.865  72.145  1.00  0.00     0.000 HD 
BRANCH  21  23
HETATM   23  S   UNL     1      -9.727   2.626  72.915  1.00  0.00    -0.119 S  
HETATM   24  O   UNL     1     -10.270   2.306  71.617  1.00  0.00    -0.098 OA 
HETATM   25  N   UNL     1     -11.006   2.721  73.951  1.00  0.00    -0.197 N  
HETATM   26  O   UNL     1      -8.678   1.875  73.550  1.00  0.00    -0.061 OA 
HETATM   27  H2  UNL     1     -11.418   3.515  74.441  1.00  0.00     0.000 HD 
HETATM   28  H1  UNL     1     -11.254   1.732  73.944  1.00  0.00     0.000 HD 
ENDBRANCH  21  23
ENDBRANCH  20  21
ENDBRANCH  18  20
ENDBRANCH  13  14
ENDBRANCH   3  13
BRANCH  10  29
HETATM   29  C   UNL     1     -10.560  12.118  67.360  1.00  0.00    -0.226 C  
HETATM   30  H   UNL     1      -9.727  13.718  68.040  1.00  0.00     0.000 HD 
HETATM   31  O   UNL     1      -9.826  12.828  68.359  1.00  0.00    -0.223 OA 
HETATM   32  C   UNL     1     -11.907  12.790  67.149  1.00  0.00    -0.415 C  
ENDBRANCH  10  29
TORSDOF 6
ENDMDL
MODEL      189
REMARK 921   NORMALIZED FREE ENERGY PREDICTED BY IDOCK:   -4.05 KCAL/MOL
REMARK 922        TOTAL FREE ENERGY PREDICTED BY IDOCK:   -6.36 KCAL/MOL
REMARK 923 INTER-LIGAND FREE ENERGY PREDICTED BY IDOCK:   -4.70 KCAL/MOL
REMARK 924 INTRA-LIGAND FREE ENERGY PREDICTED BY IDOCK:   -1.66 KCAL/MOL
REMARK 927      BINDING AFFINITY PREDICTED BY RF-SCORE:    0.00 PKD
ROOT
HETATM    1  C   UNL     1     -10.018   5.807  71.135  1.00  0.00    -0.192 C  
HETATM    2  C   UNL     1      -9.260   7.117  70.875  1.00  0.00    -0.152 C  
HETATM    3  C   UNL     1      -9.035   7.067  69.379  1.00  0.00    -0.139 C  
HETATM    4  C   UNL     1      -8.021   7.203  71.758  1.00  0.00    -0.097 C  
HETATM    5  O   UNL     1      -9.664   4.203  67.185  1.00  0.00    -0.202 OA 
HETATM    6  C   UNL     1      -9.555   5.939  68.850  1.00  0.00    -0.132 C  
HETATM    7  N   UNL     1     -10.209   5.169  69.802  1.00  0.00    -0.275 N  
HETATM    8  O   UNL     1      -9.536   2.958  69.532  1.00  0.00    -0.149 OA 
HETATM    9  C   UNL     1      -9.495   5.525  67.407  1.00  0.00    -0.117 C  
HETATM   10  C   UNL     1      -9.359   4.465  71.589  1.00  0.00    -0.199 C  
HETATM   11  O   UNL     1      -9.341   6.298  66.474  1.00  0.00    -0.147 OA 
HETATM   12  C   UNL     1      -9.737   3.948  70.198  1.00  0.00    -0.172 C  
ENDROOT
BRANCH   3  13
HETATM   13  S   UNL     1      -8.149   8.264  68.511  1.00  0.00    -0.125 SA 
BRANCH  13  14
HETATM   14  C   UNL     1      -9.336   9.604  68.147  1.00  0.00    -0.132 C  
HETATM   15  N   UNL     1     -10.280   9.159  65.999  1.00  0.00    -0.326 NA 
HETATM   16  C   UNL     1     -10.621   9.208  67.420  1.00  0.00    -0.244 C  
HETATM   17  C   UNL     1      -8.679  10.565  67.149  1.00  0.00    -0.130 C  
HETATM   18  C   UNL     1      -9.298  10.246  65.785  1.00  0.00    -0.186 C  
HETATM   19  H   UNL     1     -11.091   9.212  65.383  1.00  0.00     0.000 HD 
BRANCH  18  20
HETATM   20  C   UNL     1      -8.285   9.838  64.695  1.00  0.00    -0.150 C  
BRANCH  20  21
HETATM   21  N   UNL     1      -8.677   8.520  64.085  1.00  0.00    -0.406 N  
HETATM   22  H   UNL     1      -9.650   8.265  63.919  1.00  0.00     0.000 HD 
BRANCH  21  23
HETATM   23  S   UNL     1      -7.411   7.503  63.696  1.00  0.00    -0.111 S  
HETATM   24  O   UNL     1      -7.963   6.243  63.259  1.00  0.00    -0.114 OA 
HETATM   25  N   UNL     1      -6.853   7.265  65.229  1.00  0.00    -0.051 N  
HETATM   26  O   UNL     1      -6.425   8.244  62.958  1.00  0.00    -0.084 OA 
HETATM   27  H2  UNL     1      -7.176   7.624  66.127  1.00  0.00     0.000 HD 
HETATM   28  H1  UNL     1      -6.080   6.644  64.992  1.00  0.00     0.000 HD 
ENDBRANCH  21  23
ENDBRANCH  20  21
ENDBRANCH  18  20
ENDBRANCH  13  14
ENDBRANCH   3  13
BRANCH  10  29
HETATM   29  C   UNL     1     -10.008   3.845  72.810  1.00  0.00    -0.151 C  
HETATM   30  H   UNL     1     -10.963   2.207  73.156  1.00  0.00     0.000 HD 
HETATM   31  O   UNL     1     -10.556   2.595  72.390  1.00  0.00    -0.094 OA 
HETATM   32  C   UNL     1     -11.119   4.725  73.360  1.00  0.00    -0.422 C  
ENDBRANCH  10  29
TORSDOF 6
ENDMDL
MODEL      190
REMARK 921   NORMALIZED FREE ENERGY PREDICTED BY IDOCK:   -4.04 KCAL/MOL
REMARK 922        TOTAL FREE ENERGY PREDICTED BY IDOCK:   -6.34 KCAL/MOL
REMARK 923 INTER-LIGAND FREE ENERGY PREDICTED BY IDOCK:   -5.29 KCAL/MOL
REMARK 924 INTRA-LIGAND FREE ENERGY PREDICTED BY IDOCK:   -1.05 KCAL/MOL
REMARK 927      BINDING AFFINITY PREDICTED BY RF-SCORE:    0.00 PKD
ROOT
HETATM    1  C   UNL     1      -9.206   5.451  65.874  1.00  0.00    -0.156 C  
HETATM    2  C   UNL     1      -9.522   6.522  66.928  1.00  0.00    -0.178 C  
HETATM    3  C   UNL     1      -8.913   5.930  68.181  1.00  0.00    -0.115 C  
HETATM    4  C   UNL     1     -11.017   6.817  66.961  1.00  0.00    -0.439 C  
HETATM    5  O   UNL     1      -7.593   2.533  68.554  1.00  0.00    -0.047 OA 
HETATM    6  C   UNL     1      -8.346   4.731  67.922  1.00  0.00    -0.103 C  
HETATM    7  N   UNL     1      -8.416   4.401  66.575  1.00  0.00    -0.112 N  
HETATM    8  O   UNL     1      -9.127   2.192  66.409  1.00  0.00    -0.122 OA 
HETATM    9  C   UNL     1      -7.676   3.831  68.921  1.00  0.00    -0.053 C  
HETATM   10  C   UNL     1     -10.178   4.310  65.436  1.00  0.00    -0.235 C  
HETATM   11  O   UNL     1      -7.200   4.211  69.980  1.00  0.00    -0.044 OA 
HETATM   12  C   UNL     1      -9.185   3.366  66.121  1.00  0.00    -0.163 C  
ENDROOT
BRANCH   3  13
HETATM   13  S   UNL     1      -9.024   6.670  69.734  1.00  0.00    -0.143 SA 
BRANCH  13  14
HETATM   14  C   UNL     1      -7.481   7.624  69.948  1.00  0.00    -0.083 C  
HETATM   15  N   UNL     1      -8.098   9.874  70.461  1.00  0.00    -0.405 NA 
HETATM   16  C   UNL     1      -7.476   8.688  71.047  1.00  0.00    -0.090 C  
HETATM   17  C   UNL     1      -7.258   8.461  68.683  1.00  0.00    -0.080 C  
HETATM   18  C   UNL     1      -7.672   9.891  69.043  1.00  0.00    -0.089 C  
HETATM   19  H   UNL     1      -7.886  10.736  70.963  1.00  0.00     0.000 HD 
BRANCH  18  20
HETATM   20  C   UNL     1      -8.792  10.482  68.160  1.00  0.00    -0.134 C  
BRANCH  20  21
HETATM   21  N   UNL     1      -9.703  11.350  68.984  1.00  0.00    -0.408 N  
HETATM   22  H   UNL     1      -9.399  12.240  69.377  1.00  0.00     0.000 HD 
BRANCH  21  23
HETATM   23  S   UNL     1     -11.247  10.757  69.212  1.00  0.00    -0.295 S  
HETATM   24  O   UNL     1     -12.036  11.096  68.051  1.00  0.00    -0.625 OA 
HETATM   25  N   UNL     1     -11.699  11.799  70.408  1.00  0.00    -0.519 N  
HETATM   26  O   UNL     1     -11.164   9.432  69.764  1.00  0.00    -0.211 OA 
HETATM   27  H2  UNL     1     -11.197  12.561  70.863  1.00  0.00     0.000 HD 
HETATM   28  H1  UNL     1     -12.642  11.436  70.547  1.00  0.00     0.000 HD 
ENDBRANCH  21  23
ENDBRANCH  20  21
ENDBRANCH  18  20
ENDBRANCH  13  14
ENDBRANCH   3  13
BRANCH  10  29
HETATM   29  C   UNL     1     -10.377   4.213  63.937  1.00  0.00    -0.065 C  
HETATM   30  H   UNL     1     -11.395   3.062  62.774  1.00  0.00     0.000 HD 
HETATM   31  O   UNL     1     -11.271   3.122  63.714  1.00  0.00    -0.264 OA 
HETATM   32  C   UNL     1      -9.066   3.948  63.215  1.00  0.00    -0.112 C  
ENDBRANCH  10  29
TORSDOF 6
ENDMDL
MODEL      191
REMARK 921   NORMALIZED FREE ENERGY PREDICTED BY IDOCK:   -4.04 KCAL/MOL
REMARK 922        TOTAL FREE ENERGY PREDICTED BY IDOCK:   -6.34 KCAL/MOL
REMARK 923 INTER-LIGAND FREE ENERGY PREDICTED BY IDOCK:   -5.49 KCAL/MOL
REMARK 924 INTRA-LIGAND FREE ENERGY PREDICTED BY IDOCK:   -0.85 KCAL/MOL
REMARK 927      BINDING AFFINITY PREDICTED BY RF-SCORE:    0.00 PKD
ROOT
HETATM    1  C   UNL     1     -10.090   9.763  65.876  1.00  0.00    -0.243 C  
HETATM    2  C   UNL     1     -10.182   8.657  66.937  1.00  0.00    -0.367 C  
HETATM    3  C   UNL     1     -10.648   9.419  68.158  1.00  0.00    -0.212 C  
HETATM    4  C   UNL     1      -8.856   7.913  67.052  1.00  0.00    -0.140 C  
HETATM    5  O   UNL     1     -10.871  13.061  68.487  1.00  0.00    -0.243 OA 
HETATM    6  C   UNL     1     -10.801  10.732  67.879  1.00  0.00    -0.264 C  
HETATM    7  N   UNL     1     -10.555  11.012  66.541  1.00  0.00    -0.258 N  
HETATM    8  O   UNL     1      -9.186  12.891  66.436  1.00  0.00    -0.221 OA 
HETATM    9  C   UNL     1     -11.215  11.804  68.846  1.00  0.00    -0.253 C  
HETATM   10  C   UNL     1      -8.788  10.544  65.505  1.00  0.00    -0.200 C  
HETATM   11  O   UNL     1     -11.845  11.600  69.872  1.00  0.00    -0.312 OA 
HETATM   12  C   UNL     1      -9.478  11.755  66.141  1.00  0.00    -0.226 C  
ENDROOT
BRANCH   3  13
HETATM   13  S   UNL     1     -10.861   8.695  69.707  1.00  0.00    -0.132 SA 
BRANCH  13  14
HETATM   14  C   UNL     1      -9.528   9.364  70.763  1.00  0.00    -0.241 C  
HETATM   15  N   UNL     1      -7.529   8.168  70.236  1.00  0.00    -0.066 NA 
HETATM   16  C   UNL     1      -8.143   9.490  70.128  1.00  0.00    -0.174 C  
HETATM   17  C   UNL     1      -9.276   8.368  71.902  1.00  0.00    -0.306 C  
HETATM   18  C   UNL     1      -7.996   7.613  71.527  1.00  0.00    -0.094 C  
HETATM   19  H   UNL     1      -6.514   8.179  70.139  1.00  0.00     0.000 HD 
BRANCH  18  20
HETATM   20  C   UNL     1      -8.158   6.082  71.419  1.00  0.00    -0.115 C  
BRANCH  20  21
HETATM   21  N   UNL     1      -8.419   5.684  69.992  1.00  0.00    -0.120 N  
HETATM   22  H   UNL     1      -7.939   6.126  69.207  1.00  0.00     0.000 HD 
BRANCH  21  23
HETATM   23  S   UNL     1      -9.546   4.471  69.778  1.00  0.00    -0.214 S  
HETATM   24  O   UNL     1      -9.412   3.963  68.434  1.00  0.00    -0.156 OA 
HETATM   25  N   UNL     1     -10.890   5.428  69.788  1.00  0.00    -0.230 N  
HETATM   26  O   UNL     1      -9.567   3.639  70.950  1.00  0.00    -0.160 OA 
HETATM   27  H2  UNL     1     -10.998   6.437  69.891  1.00  0.00     0.000 HD 
HETATM   28  H1  UNL     1     -11.578   4.687  69.658  1.00  0.00     0.000 HD 
ENDBRANCH  21  23
ENDBRANCH  20  21
ENDBRANCH  18  20
ENDBRANCH  13  14
ENDBRANCH   3  13
BRANCH  10  29
HETATM   29  C   UNL     1      -8.484  10.561  64.021  1.00  0.00    -0.118 C  
HETATM   30  H   UNL     1      -9.544  10.726  62.420  1.00  0.00     0.000 HD 
HETATM   31  O   UNL     1      -9.736  10.716  63.351  1.00  0.00    -0.296 OA 
HETATM   32  C   UNL     1      -7.827   9.266  63.571  1.00  0.00    -0.129 C  
ENDBRANCH  10  29
TORSDOF 6
ENDMDL
MODEL      192
REMARK 921   NORMALIZED FREE ENERGY PREDICTED BY IDOCK:   -4.03 KCAL/MOL
REMARK 922        TOTAL FREE ENERGY PREDICTED BY IDOCK:   -6.33 KCAL/MOL
REMARK 923 INTER-LIGAND FREE ENERGY PREDICTED BY IDOCK:   -5.91 KCAL/MOL
REMARK 924 INTRA-LIGAND FREE ENERGY PREDICTED BY IDOCK:   -0.42 KCAL/MOL
REMARK 927      BINDING AFFINITY PREDICTED BY RF-SCORE:    0.00 PKD
ROOT
HETATM    1  C   UNL     1      -8.496   9.311  65.018  1.00  0.00    -0.163 C  
HETATM    2  C   UNL     1      -9.144   8.986  66.372  1.00  0.00    -0.213 C  
HETATM    3  C   UNL     1      -8.503  10.007  67.288  1.00  0.00    -0.122 C  
HETATM    4  C   UNL     1      -8.939   7.518  66.726  1.00  0.00    -0.164 C  
HETATM    5  O   UNL     1      -5.703  12.215  66.452  1.00  0.00    -0.162 OA 
HETATM    6  C   UNL     1      -7.636  10.789  66.608  1.00  0.00    -0.134 C  
HETATM    7  N   UNL     1      -7.617  10.490  65.252  1.00  0.00    -0.116 N  
HETATM    8  O   UNL     1      -5.395  10.359  64.572  1.00  0.00    -0.112 OA 
HETATM    9  C   UNL     1      -6.789  11.887  67.186  1.00  0.00    -0.144 C  
HETATM   10  C   UNL     1      -7.239   8.594  64.430  1.00  0.00    -0.097 C  
HETATM   11  O   UNL     1      -7.047  12.485  68.219  1.00  0.00    -0.087 OA 
HETATM   12  C   UNL     1      -6.524   9.932  64.647  1.00  0.00    -0.119 C  
ENDROOT
BRANCH   3  13
HETATM   13  S   UNL     1      -8.797  10.079  68.984  1.00  0.00    -0.170 SA 
BRANCH  13  14
HETATM   14  C   UNL     1     -10.551  10.552  69.173  1.00  0.00    -0.229 C  
HETATM   15  N   UNL     1     -11.427  10.936  66.984  1.00  0.00    -0.357 NA 
HETATM   16  C   UNL     1     -11.525  10.021  68.120  1.00  0.00     0.132 C  
HETATM   17  C   UNL     1     -10.660  12.069  68.982  1.00  0.00    -0.136 C  
HETATM   18  C   UNL     1     -11.213  12.280  67.569  1.00  0.00    -0.297 C  
HETATM   19  H   UNL     1     -12.225  10.888  66.351  1.00  0.00     0.000 HD 
BRANCH  18  20
HETATM   20  C   UNL     1     -10.313  13.124  66.642  1.00  0.00    -0.265 C  
BRANCH  20  21
HETATM   21  N   UNL     1     -10.655  12.860  65.201  1.00  0.00    -0.294 N  
HETATM   22  H   UNL     1     -10.191  12.133  64.656  1.00  0.00     0.000 HD 
BRANCH  21  23
HETATM   23  S   UNL     1     -11.845  13.836  64.554  1.00  0.00    -0.435 S  
HETATM   24  O   UNL     1     -13.113  13.429  65.109  1.00  0.00    -0.724 OA 
HETATM   25  N   UNL     1     -11.792  13.241  63.016  1.00  0.00    -0.730 N  
HETATM   26  O   UNL     1     -11.377  15.195  64.536  1.00  0.00    -0.357 OA 
HETATM   27  H2  UNL     1     -11.217  12.512  62.595  1.00  0.00     0.000 HD 
HETATM   28  H1  UNL     1     -12.518  13.838  62.621  1.00  0.00     0.000 HD 
ENDBRANCH  21  23
ENDBRANCH  20  21
ENDBRANCH  18  20
ENDBRANCH  13  14
ENDBRANCH   3  13
BRANCH  10  29
HETATM   29  C   UNL     1      -7.429   8.077  63.019  1.00  0.00    -0.114 C  
HETATM   30  H   UNL     1      -8.630   8.497  61.570  1.00  0.00     0.000 HD 
HETATM   31  O   UNL     1      -8.511   8.821  62.456  1.00  0.00    -0.197 OA 
HETATM   32  C   UNL     1      -7.774   6.597  63.007  1.00  0.00    -0.102 C  
ENDBRANCH  10  29
TORSDOF 6
ENDMDL
MODEL      193
REMARK 921   NORMALIZED FREE ENERGY PREDICTED BY IDOCK:   -4.03 KCAL/MOL
REMARK 922        TOTAL FREE ENERGY PREDICTED BY IDOCK:   -6.33 KCAL/MOL
REMARK 923 INTER-LIGAND FREE ENERGY PREDICTED BY IDOCK:   -5.51 KCAL/MOL
REMARK 924 INTRA-LIGAND FREE ENERGY PREDICTED BY IDOCK:   -0.82 KCAL/MOL
REMARK 927      BINDING AFFINITY PREDICTED BY RF-SCORE:    0.00 PKD
ROOT
HETATM    1  C   UNL     1     -10.972  12.661  65.946  1.00  0.00    -0.278 C  
HETATM    2  C   UNL     1     -10.436  11.225  65.849  1.00  0.00    -0.314 C  
HETATM    3  C   UNL     1      -9.104  11.329  66.559  1.00  0.00    -0.184 C  
HETATM    4  C   UNL     1     -10.411  10.760  64.398  1.00  0.00    -0.405 C  
HETATM    5  O   UNL     1      -7.459  14.418  67.642  1.00  0.00    -0.145 OA 
HETATM    6  C   UNL     1      -8.885  12.589  66.993  1.00  0.00    -0.212 C  
HETATM    7  N   UNL     1      -9.962  13.426  66.731  1.00  0.00    -0.258 N  
HETATM    8  O   UNL     1      -9.139  15.407  65.832  1.00  0.00    -0.311 OA 
HETATM    9  C   UNL     1      -7.659  13.083  67.707  1.00  0.00    -0.152 C  
HETATM   10  C   UNL     1     -10.816  13.753  64.840  1.00  0.00    -0.398 C  
HETATM   11  O   UNL     1      -6.896  12.369  68.339  1.00  0.00    -0.068 OA 
HETATM   12  C   UNL     1      -9.882  14.453  65.833  1.00  0.00    -0.310 C  
ENDROOT
BRANCH   3  13
HETATM   13  S   UNL     1      -7.996  10.016  66.699  1.00  0.00    -0.116 SA 
BRANCH  13  14
HETATM   14  C   UNL     1      -6.683  10.331  65.468  1.00  0.00    -0.128 C  
HETATM   15  N   UNL     1      -6.985   8.769  63.686  1.00  0.00    -0.088 NA 
HETATM   16  C   UNL     1      -7.073  10.195  63.995  1.00  0.00    -0.103 C  
HETATM   17  C   UNL     1      -5.613   9.245  65.624  1.00  0.00    -0.045 C  
HETATM   18  C   UNL     1      -5.841   8.257  64.475  1.00  0.00    -0.056 C  
HETATM   19  H   UNL     1      -6.915   8.571  62.688  1.00  0.00     0.000 HD 
BRANCH  18  20
HETATM   20  C   UNL     1      -6.110   6.803  64.917  1.00  0.00    -0.036 C  
BRANCH  20  21
HETATM   21  N   UNL     1      -7.023   6.120  63.935  1.00  0.00    -0.041 N  
HETATM   22  H   UNL     1      -6.893   6.196  62.927  1.00  0.00     0.000 HD 
BRANCH  21  23
HETATM   23  S   UNL     1      -8.263   5.227  64.608  1.00  0.00    -0.137 S  
HETATM   24  O   UNL     1      -9.021   4.628  63.536  1.00  0.00    -0.142 OA 
HETATM   25  N   UNL     1      -9.157   6.496  65.166  1.00  0.00    -0.280 N  
HETATM   26  O   UNL     1      -7.754   4.494  65.735  1.00  0.00    -0.091 OA 
HETATM   27  H2  UNL     1      -9.003   7.502  65.115  1.00  0.00     0.000 HD 
HETATM   28  H1  UNL     1      -9.915   5.950  65.577  1.00  0.00     0.000 HD 
ENDBRANCH  21  23
ENDBRANCH  20  21
ENDBRANCH  18  20
ENDBRANCH  13  14
ENDBRANCH   3  13
BRANCH  10  29
HETATM   29  C   UNL     1     -12.119  14.422  64.451  1.00  0.00    -0.470 C  
HETATM   30  H   UNL     1     -13.379  14.205  63.008  1.00  0.00     0.000 HD 
HETATM   31  O   UNL     1     -12.562  13.784  63.252  1.00  0.00    -0.830 OA 
HETATM   32  C   UNL     1     -11.927  15.908  64.192  1.00  0.00     0.090 C  
ENDBRANCH  10  29
TORSDOF 6
ENDMDL
MODEL      194
REMARK 921   NORMALIZED FREE ENERGY PREDICTED BY IDOCK:   -4.02 KCAL/MOL
REMARK 922        TOTAL FREE ENERGY PREDICTED BY IDOCK:   -6.31 KCAL/MOL
REMARK 923 INTER-LIGAND FREE ENERGY PREDICTED BY IDOCK:   -5.24 KCAL/MOL
REMARK 924 INTRA-LIGAND FREE ENERGY PREDICTED BY IDOCK:   -1.07 KCAL/MOL
REMARK 927      BINDING AFFINITY PREDICTED BY RF-SCORE:    0.00 PKD
ROOT
HETATM    1  C   UNL     1      -8.856   5.111  71.913  1.00  0.00    -0.134 C  
HETATM    2  C   UNL     1      -8.221   5.741  70.665  1.00  0.00    -0.119 C  
HETATM    3  C   UNL     1      -8.972   7.050  70.548  1.00  0.00    -0.155 C  
HETATM    4  C   UNL     1      -8.308   4.787  69.480  1.00  0.00    -0.086 C  
HETATM    5  O   UNL     1     -11.928   8.035  72.473  1.00  0.00    -0.358 OA 
HETATM    6  C   UNL     1      -9.884   7.173  71.536  1.00  0.00    -0.171 C  
HETATM    7  N   UNL     1      -9.840   6.106  72.423  1.00  0.00    -0.165 N  
HETATM    8  O   UNL     1     -12.023   5.398  72.811  1.00  0.00    -0.232 OA 
HETATM    9  C   UNL     1     -10.838   8.318  71.726  1.00  0.00    -0.267 C  
HETATM   10  C   UNL     1     -10.031   4.081  71.898  1.00  0.00    -0.246 C  
HETATM   11  O   UNL     1     -10.661   9.443  71.285  1.00  0.00    -0.313 OA 
HETATM   12  C   UNL     1     -10.863   5.204  72.525  1.00  0.00    -0.223 C  
ENDROOT
BRANCH   3  13
HETATM   13  S   UNL     1      -8.732   8.171  69.261  1.00  0.00    -0.140 SA 
BRANCH  13  14
HETATM   14  C   UNL     1     -10.181   7.993  68.162  1.00  0.00    -0.207 C  
HETATM   15  N   UNL     1      -9.381   8.041  65.912  1.00  0.00    -0.404 NA 
HETATM   16  C   UNL     1      -9.989   7.151  66.899  1.00  0.00    -0.224 C  
HETATM   17  C   UNL     1     -10.516   9.374  67.586  1.00  0.00    -0.328 C  
HETATM   18  C   UNL     1      -9.981   9.374  66.150  1.00  0.00    -0.281 C  
HETATM   19  H   UNL     1      -9.480   7.714  64.951  1.00  0.00     0.000 HD 
BRANCH  18  20
HETATM   20  C   UNL     1      -8.950  10.482  65.844  1.00  0.00    -0.166 C  
BRANCH  20  21
HETATM   21  N   UNL     1      -8.949  11.510  66.942  1.00  0.00    -0.173 N  
HETATM   22  H   UNL     1      -9.804  11.965  67.263  1.00  0.00     0.000 HD 
BRANCH  21  23
HETATM   23  S   UNL     1      -7.455  11.858  67.599  1.00  0.00    -0.139 S  
HETATM   24  O   UNL     1      -7.059  13.171  67.150  1.00  0.00    -0.083 OA 
HETATM   25  N   UNL     1      -6.579  10.775  66.717  1.00  0.00    -0.096 N  
HETATM   26  O   UNL     1      -7.441  11.446  68.976  1.00  0.00    -0.117 OA 
HETATM   27  H2  UNL     1      -6.860  10.107  65.999  1.00  0.00     0.000 HD 
HETATM   28  H1  UNL     1      -5.666  10.987  67.118  1.00  0.00     0.000 HD 
ENDBRANCH  21  23
ENDBRANCH  20  21
ENDBRANCH  18  20
ENDBRANCH  13  14
ENDBRANCH   3  13
BRANCH  10  29
HETATM   29  C   UNL     1      -9.758   2.826  72.703  1.00  0.00    -0.127 C  
HETATM   30  H   UNL     1      -8.170   1.957  73.366  1.00  0.00     0.000 HD 
HETATM   31  O   UNL     1      -8.341   2.745  72.861  1.00  0.00    -0.069 OA 
HETATM   32  C   UNL     1     -10.259   1.583  71.986  1.00  0.00    -0.223 C  
ENDBRANCH  10  29
TORSDOF 6
ENDMDL
MODEL      195
REMARK 921   NORMALIZED FREE ENERGY PREDICTED BY IDOCK:   -4.01 KCAL/MOL
REMARK 922        TOTAL FREE ENERGY PREDICTED BY IDOCK:   -6.30 KCAL/MOL
REMARK 923 INTER-LIGAND FREE ENERGY PREDICTED BY IDOCK:   -5.90 KCAL/MOL
REMARK 924 INTRA-LIGAND FREE ENERGY PREDICTED BY IDOCK:   -0.40 KCAL/MOL
REMARK 927      BINDING AFFINITY PREDICTED BY RF-SCORE:    0.00 PKD
ROOT
HETATM    1  C   UNL     1      -7.411   6.274  71.321  1.00  0.00    -0.081 C  
HETATM    2  C   UNL     1      -8.937   6.122  71.387  1.00  0.00    -0.143 C  
HETATM    3  C   UNL     1      -9.398   7.005  70.247  1.00  0.00    -0.159 C  
HETATM    4  C   UNL     1      -9.451   6.468  72.779  1.00  0.00    -0.150 C  
HETATM    5  O   UNL     1      -7.313   9.314  68.313  1.00  0.00    -0.077 OA 
HETATM    6  C   UNL     1      -8.345   7.578  69.624  1.00  0.00    -0.131 C  
HETATM    7  N   UNL     1      -7.133   7.152  70.151  1.00  0.00    -0.065 N  
HETATM    8  O   UNL     1      -5.788   9.023  70.473  1.00  0.00    -0.033 OA 
HETATM    9  C   UNL     1      -8.410   8.542  68.474  1.00  0.00    -0.123 C  
HETATM   10  C   UNL     1      -6.573   7.281  72.171  1.00  0.00    -0.051 C  
HETATM   11  O   UNL     1      -9.351   8.628  67.700  1.00  0.00    -0.136 OA 
HETATM   12  C   UNL     1      -6.306   7.994  70.842  1.00  0.00    -0.037 C  
ENDROOT
BRANCH   3  13
HETATM   13  S   UNL     1     -11.056   7.292  69.877  1.00  0.00    -0.168 SA 
BRANCH  13  14
HETATM   14  C   UNL     1     -11.899   7.521  71.482  1.00  0.00    -0.295 C  
HETATM   15  N   UNL     1     -13.836   8.862  71.088  1.00  0.00    -0.588 NA 
HETATM   16  C   UNL     1     -13.428   7.510  71.466  1.00  0.00    -0.359 C  
HETATM   17  C   UNL     1     -11.588   8.935  71.987  1.00  0.00    -0.435 C  
HETATM   18  C   UNL     1     -12.843   9.768  71.710  1.00  0.00    -0.434 C  
HETATM   19  H   UNL     1     -14.801   9.081  71.334  1.00  0.00     0.000 HD 
BRANCH  18  20
HETATM   20  C   UNL     1     -12.615  11.002  70.811  1.00  0.00    -0.369 C  
BRANCH  20  21
HETATM   21  N   UNL     1     -12.364  10.573  69.391  1.00  0.00    -0.539 N  
HETATM   22  H   UNL     1     -12.725   9.696  69.015  1.00  0.00     0.000 HD 
BRANCH  21  23
HETATM   23  S   UNL     1     -11.453  11.628  68.472  1.00  0.00    -0.327 S  
HETATM   24  O   UNL     1     -10.077  11.520  68.892  1.00  0.00    -0.199 OA 
HETATM   25  N   UNL     1     -12.035  13.029  69.121  1.00  0.00    -0.296 N  
HETATM   26  O   UNL     1     -11.881  11.545  67.102  1.00  0.00    -0.595 OA 
HETATM   27  H2  UNL     1     -12.728  13.196  69.850  1.00  0.00     0.000 HD 
HETATM   28  H1  UNL     1     -11.479  13.673  68.559  1.00  0.00     0.000 HD 
ENDBRANCH  21  23
ENDBRANCH  20  21
ENDBRANCH  18  20
ENDBRANCH  13  14
ENDBRANCH   3  13
BRANCH  10  29
HETATM   29  C   UNL     1      -5.416   6.644  72.914  1.00  0.00    -0.038 C  
HETATM   30  H   UNL     1      -4.682   4.865  73.014  1.00  0.00     0.000 HD 
HETATM   31  O   UNL     1      -5.407   5.264  72.548  1.00  0.00    -0.015 OA 
HETATM   32  C   UNL     1      -5.583   6.767  74.420  1.00  0.00    -0.055 C  
ENDBRANCH  10  29
TORSDOF 6
ENDMDL
MODEL      196
REMARK 921   NORMALIZED FREE ENERGY PREDICTED BY IDOCK:   -4.01 KCAL/MOL
REMARK 922        TOTAL FREE ENERGY PREDICTED BY IDOCK:   -6.30 KCAL/MOL
REMARK 923 INTER-LIGAND FREE ENERGY PREDICTED BY IDOCK:   -5.51 KCAL/MOL
REMARK 924 INTRA-LIGAND FREE ENERGY PREDICTED BY IDOCK:   -0.78 KCAL/MOL
REMARK 927      BINDING AFFINITY PREDICTED BY RF-SCORE:    0.00 PKD
ROOT
HETATM    1  C   UNL     1      -9.419  16.950  68.014  1.00  0.00    -0.243 C  
HETATM    2  C   UNL     1     -10.190  15.631  68.164  1.00  0.00    -0.228 C  
HETATM    3  C   UNL     1      -9.081  14.602  68.106  1.00  0.00    -0.187 C  
HETATM    4  C   UNL     1     -11.284  15.527  67.109  1.00  0.00    -0.204 C  
HETATM    5  O   UNL     1      -5.582  15.231  67.224  1.00  0.00    -0.332 OA 
HETATM    6  C   UNL     1      -7.879  15.196  67.946  1.00  0.00    -0.135 C  
HETATM    7  N   UNL     1      -7.977  16.581  67.947  1.00  0.00    -0.156 N  
HETATM    8  O   UNL     1      -6.713  17.396  66.171  1.00  0.00    -0.246 OA 
HETATM    9  C   UNL     1      -6.554  14.500  67.812  1.00  0.00    -0.172 C  
HETATM   10  C   UNL     1      -9.200  17.713  66.669  1.00  0.00    -0.284 C  
HETATM   11  O   UNL     1      -6.325  13.372  68.220  1.00  0.00    -0.081 OA 
HETATM   12  C   UNL     1      -7.726  17.327  66.828  1.00  0.00    -0.244 C  
ENDROOT
BRANCH   3  13
HETATM   13  S   UNL     1      -9.359  12.902  68.150  1.00  0.00    -0.202 SA 
BRANCH  13  14
HETATM   14  C   UNL     1      -9.287  12.335  66.414  1.00  0.00    -0.219 C  
HETATM   15  N   UNL     1     -10.655  10.384  66.242  1.00  0.00    -0.159 NA 
HETATM   16  C   UNL     1     -10.580  11.781  65.816  1.00  0.00    -0.268 C  
HETATM   17  C   UNL     1      -8.350  11.122  66.348  1.00  0.00    -0.167 C  
HETATM   18  C   UNL     1      -9.258   9.892  66.248  1.00  0.00    -0.168 C  
HETATM   19  H   UNL     1     -11.286   9.817  65.676  1.00  0.00     0.000 HD 
BRANCH  18  20
HETATM   20  C   UNL     1      -9.066   8.855  67.376  1.00  0.00    -0.132 C  
BRANCH  20  21
HETATM   21  N   UNL     1      -8.312   7.659  66.862  1.00  0.00    -0.122 N  
HETATM   22  H   UNL     1      -8.016   7.579  65.890  1.00  0.00     0.000 HD 
BRANCH  21  23
HETATM   23  S   UNL     1      -7.992   6.472  67.992  1.00  0.00    -0.110 S  
HETATM   24  O   UNL     1      -7.046   7.000  68.945  1.00  0.00    -0.079 OA 
HETATM   25  N   UNL     1      -7.147   5.460  67.001  1.00  0.00    -0.068 N  
HETATM   26  O   UNL     1      -9.225   5.830  68.358  1.00  0.00    -0.117 OA 
HETATM   27  H2  UNL     1      -6.898   5.535  66.015  1.00  0.00     0.000 HD 
HETATM   28  H1  UNL     1      -6.951   4.735  67.691  1.00  0.00     0.000 HD 
ENDBRANCH  21  23
ENDBRANCH  20  21
ENDBRANCH  18  20
ENDBRANCH  13  14
ENDBRANCH   3  13
BRANCH  10  29
HETATM   29  C   UNL     1      -9.592  19.176  66.721  1.00  0.00    -0.331 C  
HETATM   30  H   UNL     1      -8.619  20.840  66.785  1.00  0.00     0.000 HD 
HETATM   31  O   UNL     1      -8.374  19.922  66.752  1.00  0.00    -0.297 OA 
HETATM   32  C   UNL     1     -10.409  19.492  67.963  1.00  0.00    -0.564 C  
ENDBRANCH  10  29
TORSDOF 6
ENDMDL
MODEL      197
REMARK 921   NORMALIZED FREE ENERGY PREDICTED BY IDOCK:   -3.89 KCAL/MOL
REMARK 922        TOTAL FREE ENERGY PREDICTED BY IDOCK:   -6.14 KCAL/MOL
REMARK 923 INTER-LIGAND FREE ENERGY PREDICTED BY IDOCK:   -5.22 KCAL/MOL
REMARK 924 INTRA-LIGAND FREE ENERGY PREDICTED BY IDOCK:   -0.91 KCAL/MOL
REMARK 927      BINDING AFFINITY PREDICTED BY RF-SCORE:    0.00 PKD
ROOT
HETATM    1  C   UNL     1     -10.460  12.784  66.351  1.00  0.00    -0.250 C  
HETATM    2  C   UNL     1      -9.433  11.670  66.596  1.00  0.00    -0.213 C  
HETATM    3  C   UNL     1      -8.211  12.448  67.035  1.00  0.00    -0.141 C  
HETATM    4  C   UNL     1      -9.285  10.795  65.357  1.00  0.00    -0.234 C  
HETATM    5  O   UNL     1      -7.797  16.086  66.909  1.00  0.00    -0.203 OA 
HETATM    6  C   UNL     1      -8.462  13.775  67.045  1.00  0.00    -0.133 C  
HETATM    7  N   UNL     1      -9.781  14.059  66.717  1.00  0.00    -0.269 N  
HETATM    8  O   UNL     1      -9.785  15.793  65.166  1.00  0.00    -0.326 OA 
HETATM    9  C   UNL     1      -7.485  14.862  67.390  1.00  0.00    -0.199 C  
HETATM   10  C   UNL     1     -10.759  13.439  64.965  1.00  0.00    -0.354 C  
HETATM   11  O   UNL     1      -6.489  14.700  68.080  1.00  0.00    -0.122 OA 
HETATM   12  C   UNL     1     -10.120  14.699  65.557  1.00  0.00    -0.377 C  
ENDROOT
BRANCH   3  13
HETATM   13  S   UNL     1      -6.691  11.715  67.382  1.00  0.00    -0.121 SA 
BRANCH  13  14
HETATM   14  C   UNL     1      -6.733  11.283  69.157  1.00  0.00    -0.099 C  
HETATM   15  N   UNL     1      -5.995   9.021  69.360  1.00  0.00    -0.037 NA 
HETATM   16  C   UNL     1      -5.603  10.393  69.677  1.00  0.00    -0.039 C  
HETATM   17  C   UNL     1      -7.973  10.417  69.407  1.00  0.00    -0.161 C  
HETATM   18  C   UNL     1      -7.466   8.976  69.522  1.00  0.00    -0.076 C  
HETATM   19  H   UNL     1      -5.501   8.318  69.909  1.00  0.00     0.000 HD 
BRANCH  18  20
HETATM   20  C   UNL     1      -8.082   7.991  68.504  1.00  0.00    -0.125 C  
BRANCH  20  21
HETATM   21  N   UNL     1      -7.313   8.028  67.212  1.00  0.00    -0.087 N  
HETATM   22  H   UNL     1      -6.917   8.890  66.838  1.00  0.00     0.000 HD 
BRANCH  21  23
HETATM   23  S   UNL     1      -7.151   6.561  66.431  1.00  0.00    -0.069 S  
HETATM   24  O   UNL     1      -8.129   6.505  65.371  1.00  0.00    -0.117 OA 
HETATM   25  N   UNL     1      -7.722   5.609  67.650  1.00  0.00    -0.096 N  
HETATM   26  O   UNL     1      -5.754   6.281  66.246  1.00  0.00    -0.016 OA 
HETATM   27  H2  UNL     1      -8.065   5.840  68.582  1.00  0.00     0.000 HD 
HETATM   28  H1  UNL     1      -7.623   4.713  67.172  1.00  0.00     0.000 HD 
ENDBRANCH  21  23
ENDBRANCH  20  21
ENDBRANCH  18  20
ENDBRANCH  13  14
ENDBRANCH   3  13
BRANCH  10  29
HETATM   29  C   UNL     1     -12.230  13.457  64.599  1.00  0.00    -0.407 C  
HETATM   30  H   UNL     1     -13.237  14.019  63.054  1.00  0.00     0.000 HD 
HETATM   31  O   UNL     1     -12.315  14.007  63.283  1.00  0.00    -0.718 OA 
HETATM   32  C   UNL     1     -13.033  14.319  65.559  1.00  0.00    -0.236 C  
ENDBRANCH  10  29
TORSDOF 6
ENDMDL
MODEL      198
REMARK 921   NORMALIZED FREE ENERGY PREDICTED BY IDOCK:   -3.85 KCAL/MOL
REMARK 922        TOTAL FREE ENERGY PREDICTED BY IDOCK:   -6.09 KCAL/MOL
REMARK 923 INTER-LIGAND FREE ENERGY PREDICTED BY IDOCK:   -5.00 KCAL/MOL
REMARK 924 INTRA-LIGAND FREE ENERGY PREDICTED BY IDOCK:   -1.09 KCAL/MOL
REMARK 927      BINDING AFFINITY PREDICTED BY RF-SCORE:    0.00 PKD
ROOT
HETATM    1  C   UNL     1      -8.654   5.254  65.531  1.00  0.00    -0.146 C  
HETATM    2  C   UNL     1      -9.420   6.178  66.489  1.00  0.00    -0.178 C  
HETATM    3  C   UNL     1      -8.562   6.133  67.735  1.00  0.00    -0.114 C  
HETATM    4  C   UNL     1     -10.867   5.721  66.631  1.00  0.00    -0.290 C  
HETATM    5  O   UNL     1      -5.741   3.878  68.345  1.00  0.00    -0.020 OA 
HETATM    6  C   UNL     1      -7.490   5.331  67.554  1.00  0.00    -0.084 C  
HETATM    7  N   UNL     1      -7.431   4.822  66.264  1.00  0.00    -0.085 N  
HETATM    8  O   UNL     1      -6.977   2.545  66.404  1.00  0.00    -0.046 OA 
HETATM    9  C   UNL     1      -6.436   5.013  68.577  1.00  0.00    -0.037 C  
HETATM   10  C   UNL     1      -8.957   3.738  65.313  1.00  0.00    -0.133 C  
HETATM   11  O   UNL     1      -6.174   5.719  69.538  1.00  0.00    -0.029 OA 
HETATM   12  C   UNL     1      -7.609   3.493  65.998  1.00  0.00    -0.081 C  
ENDROOT
BRANCH   3  13
HETATM   13  S   UNL     1      -8.973   6.938  69.202  1.00  0.00    -0.132 SA 
BRANCH  13  14
HETATM   14  C   UNL     1      -8.343   8.645  69.034  1.00  0.00    -0.119 C  
HETATM   15  N   UNL     1      -9.232   9.917  70.849  1.00  0.00    -0.280 NA 
HETATM   16  C   UNL     1      -7.978   9.376  70.327  1.00  0.00    -0.161 C  
HETATM   17  C   UNL     1      -9.472   9.518  68.473  1.00  0.00    -0.146 C  
HETATM   18  C   UNL     1     -10.025  10.310  69.662  1.00  0.00    -0.207 C  
HETATM   19  H   UNL     1      -9.101  10.673  71.522  1.00  0.00     0.000 HD 
BRANCH  18  20
HETATM   20  C   UNL     1     -11.529  10.099  69.935  1.00  0.00    -0.254 C  
BRANCH  20  21
HETATM   21  N   UNL     1     -11.791  10.073  71.416  1.00  0.00    -0.377 N  
HETATM   22  H   UNL     1     -11.685  10.900  72.003  1.00  0.00     0.000 HD 
BRANCH  21  23
HETATM   23  S   UNL     1     -12.268   8.597  72.035  1.00  0.00    -0.394 S  
HETATM   24  O   UNL     1     -11.154   8.029  72.756  1.00  0.00    -0.373 OA 
HETATM   25  N   UNL     1     -12.363   7.787  70.601  1.00  0.00    -0.508 N  
HETATM   26  O   UNL     1     -13.593   8.723  72.579  1.00  0.00    -0.404 OA 
HETATM   27  H2  UNL     1     -12.187   8.090  69.644  1.00  0.00     0.000 HD 
HETATM   28  H1  UNL     1     -12.654   6.886  70.979  1.00  0.00     0.000 HD 
ENDBRANCH  21  23
ENDBRANCH  20  21
ENDBRANCH  18  20
ENDBRANCH  13  14
ENDBRANCH   3  13
BRANCH  10  29
HETATM   29  C   UNL     1      -9.129   3.348  63.859  1.00  0.00    -0.102 C  
HETATM   30  H   UNL     1     -10.480   3.662  62.520  1.00  0.00     0.000 HD 
HETATM   31  O   UNL     1     -10.373   3.906  63.432  1.00  0.00    -0.197 OA 
HETATM   32  C   UNL     1      -9.166   1.839  63.685  1.00  0.00    -0.099 C  
ENDBRANCH  10  29
TORSDOF 6
ENDMDL
MODEL      199
REMARK 921   NORMALIZED FREE ENERGY PREDICTED BY IDOCK:   -3.85 KCAL/MOL
REMARK 922        TOTAL FREE ENERGY PREDICTED BY IDOCK:   -6.09 KCAL/MOL
REMARK 923 INTER-LIGAND FREE ENERGY PREDICTED BY IDOCK:   -5.24 KCAL/MOL
REMARK 924 INTRA-LIGAND FREE ENERGY PREDICTED BY IDOCK:   -0.84 KCAL/MOL
REMARK 927      BINDING AFFINITY PREDICTED BY RF-SCORE:    0.00 PKD
ROOT
HETATM    1  C   UNL     1      -7.669   7.384  70.634  1.00  0.00    -0.091 C  
HETATM    2  C   UNL     1      -9.058   6.765  70.847  1.00  0.00    -0.153 C  
HETATM    3  C   UNL     1      -9.948   7.688  70.043  1.00  0.00    -0.190 C  
HETATM    4  C   UNL     1      -9.364   6.634  72.334  1.00  0.00    -0.147 C  
HETATM    5  O   UNL     1      -8.966  10.878  68.533  1.00  0.00    -0.144 OA 
HETATM    6  C   UNL     1      -9.227   8.673  69.465  1.00  0.00    -0.150 C  
HETATM    7  N   UNL     1      -7.867   8.534  69.708  1.00  0.00    -0.092 N  
HETATM    8  O   UNL     1      -7.029  10.612  70.337  1.00  0.00    -0.276 OA 
HETATM    9  C   UNL     1      -9.767   9.793  68.622  1.00  0.00    -0.155 C  
HETATM   10  C   UNL     1      -6.979   8.394  71.607  1.00  0.00    -0.088 C  
HETATM   11  O   UNL     1     -10.829   9.751  68.020  1.00  0.00    -0.250 OA 
HETATM   12  C   UNL     1      -7.174   9.420  70.486  1.00  0.00    -0.123 C  
ENDROOT
BRANCH   3  13
HETATM   13  S   UNL     1     -11.663   7.528  69.968  1.00  0.00     0.249 SA 
BRANCH  13  14
HETATM   14  C   UNL     1     -12.294   8.111  71.580  1.00  0.00    -0.314 C  
HETATM   15  N   UNL     1     -14.127   9.578  71.142  1.00  0.00    -0.269 NA 
HETATM   16  C   UNL     1     -13.809   8.270  71.711  1.00  0.00    -0.396 C  
HETATM   17  C   UNL     1     -11.796   9.545  71.797  1.00  0.00    -0.430 C  
HETATM   18  C   UNL     1     -12.990  10.457  71.498  1.00  0.00    -0.458 C  
HETATM   19  H   UNL     1     -15.033   9.942  71.436  1.00  0.00     0.000 HD 
BRANCH  18  20
HETATM   20  C   UNL     1     -12.748  11.492  70.379  1.00  0.00    -0.059 C  
BRANCH  20  21
HETATM   21  N   UNL     1     -11.990  12.675  70.916  1.00  0.00    -0.389 N  
HETATM   22  H   UNL     1     -10.992  12.802  70.751  1.00  0.00     0.000 HD 
BRANCH  21  23
HETATM   23  S   UNL     1     -12.892  13.765  71.802  1.00  0.00    -0.303 S  
HETATM   24  O   UNL     1     -13.857  14.374  70.918  1.00  0.00    -0.198 OA 
HETATM   25  N   UNL     1     -11.701  14.881  72.039  1.00  0.00    -0.389 N  
HETATM   26  O   UNL     1     -13.227  13.176  73.069  1.00  0.00    -0.322 OA 
HETATM   27  H2  UNL     1     -10.726  14.900  71.741  1.00  0.00     0.000 HD 
HETATM   28  H1  UNL     1     -12.253  15.547  72.580  1.00  0.00     0.000 HD 
ENDBRANCH  21  23
ENDBRANCH  20  21
ENDBRANCH  18  20
ENDBRANCH  13  14
ENDBRANCH   3  13
BRANCH  10  29
HETATM   29  C   UNL     1      -5.573   7.996  72.009  1.00  0.00    -0.036 C  
HETATM   30  H   UNL     1      -4.358   6.594  71.488  1.00  0.00     0.000 HD 
HETATM   31  O   UNL     1      -5.239   6.843  71.235  1.00  0.00    -0.026 OA 
HETATM   32  C   UNL     1      -5.491   7.654  73.488  1.00  0.00    -0.045 C  
ENDBRANCH  10  29
TORSDOF 6
ENDMDL
MODEL      200
REMARK 921   NORMALIZED FREE ENERGY PREDICTED BY IDOCK:   -3.83 KCAL/MOL
REMARK 922        TOTAL FREE ENERGY PREDICTED BY IDOCK:   -6.05 KCAL/MOL
REMARK 923 INTER-LIGAND FREE ENERGY PREDICTED BY IDOCK:   -4.99 KCAL/MOL
REMARK 924 INTRA-LIGAND FREE ENERGY PREDICTED BY IDOCK:   -1.07 KCAL/MOL
REMARK 927      BINDING AFFINITY PREDICTED BY RF-SCORE:    0.00 PKD
ROOT
HETATM    1  C   UNL     1      -7.874  14.929  66.897  1.00  0.00     0.030 C  
HETATM    2  C   UNL     1      -7.430  13.697  67.698  1.00  0.00    -0.191 C  
HETATM    3  C   UNL     1      -8.609  12.763  67.532  1.00  0.00    -0.187 C  
HETATM    4  C   UNL     1      -7.057  14.090  69.123  1.00  0.00    -0.085 C  
HETATM    5  O   UNL     1     -11.858  13.610  66.067  1.00  0.00    -0.349 OA 
HETATM    6  C   UNL     1      -9.574  13.333  66.778  1.00  0.00    -0.258 C  
HETATM    7  N   UNL     1      -9.198  14.584  66.308  1.00  0.00    -0.242 N  
HETATM    8  O   UNL     1     -10.972  16.049  66.653  1.00  0.00    -0.234 OA 
HETATM    9  C   UNL     1     -10.902  12.725  66.426  1.00  0.00    -0.271 C  
HETATM   10  C   UNL     1      -8.566  16.192  67.503  1.00  0.00    -0.189 C  
HETATM   11  O   UNL     1     -11.131  11.525  66.420  1.00  0.00    -0.296 OA 
HETATM   12  C   UNL     1      -9.808  15.732  66.732  1.00  0.00    -0.245 C  
ENDROOT
BRANCH   3  13
HETATM   13  S   UNL     1      -8.713  11.219  68.290  1.00  0.00    -0.162 SA 
BRANCH  13  14
HETATM   14  C   UNL     1      -7.270  10.268  67.699  1.00  0.00    -0.087 C  
HETATM   15  N   UNL     1      -7.608   7.989  68.329  1.00  0.00    -0.106 NA 
HETATM   16  C   UNL     1      -7.544   8.864  67.159  1.00  0.00    -0.092 C  
HETATM   17  C   UNL     1      -6.360   9.985  68.900  1.00  0.00    -0.044 C  
HETATM   18  C   UNL     1      -6.609   8.522  69.283  1.00  0.00    -0.046 C  
HETATM   19  H   UNL     1      -7.477   7.002  68.109  1.00  0.00     0.000 HD 
BRANCH  18  20
HETATM   20  C   UNL     1      -7.094   8.308  70.733  1.00  0.00    -0.044 C  
BRANCH  20  21
HETATM   21  N   UNL     1      -8.399   9.022  70.957  1.00  0.00    -0.188 N  
HETATM   22  H   UNL     1      -8.461  10.038  71.017  1.00  0.00     0.000 HD 
BRANCH  21  23
HETATM   23  S   UNL     1      -9.740   8.038  71.104  1.00  0.00    -0.162 S  
HETATM   24  O   UNL     1     -10.918   8.865  71.007  1.00  0.00    -0.241 OA 
HETATM   25  N   UNL     1      -9.555   7.665  72.699  1.00  0.00    -0.165 N  
HETATM   26  O   UNL     1      -9.533   6.846  70.327  1.00  0.00    -0.162 OA 
HETATM   27  H2  UNL     1      -8.849   7.946  73.380  1.00  0.00     0.000 HD 
HETATM   28  H1  UNL     1     -10.375   7.065  72.788  1.00  0.00     0.000 HD 
ENDBRANCH  21  23
ENDBRANCH  20  21
ENDBRANCH  18  20
ENDBRANCH  13  14
ENDBRANCH   3  13
BRANCH  10  29
HETATM   29  C   UNL     1      -7.901  17.499  67.122  1.00  0.00    -0.207 C  
HETATM   30  H   UNL     1      -8.257  18.874  65.819  1.00  0.00     0.000 HD 
HETATM   31  O   UNL     1      -8.674  18.054  66.057  1.00  0.00    -0.498 OA 
HETATM   32  C   UNL     1      -6.472  17.283  66.651  1.00  0.00    -0.263 C  
ENDBRANCH  10  29
TORSDOF 6
ENDMDL
MODEL      201
REMARK 921   NORMALIZED FREE ENERGY PREDICTED BY IDOCK:   -3.79 KCAL/MOL
REMARK 922        TOTAL FREE ENERGY PREDICTED BY IDOCK:   -6.00 KCAL/MOL
REMARK 923 INTER-LIGAND FREE ENERGY PREDICTED BY IDOCK:   -4.94 KCAL/MOL
REMARK 924 INTRA-LIGAND FREE ENERGY PREDICTED BY IDOCK:   -1.07 KCAL/MOL
REMARK 927      BINDING AFFINITY PREDICTED BY RF-SCORE:    0.00 PKD
ROOT
HETATM    1  C   UNL     1     -10.520  11.648  68.440  1.00  0.00    -0.213 C  
HETATM    2  C   UNL     1     -10.955  10.951  69.737  1.00  0.00    -0.290 C  
HETATM    3  C   UNL     1     -10.410   9.551  69.548  1.00  0.00    -0.217 C  
HETATM    4  C   UNL     1     -12.460  11.084  69.938  1.00  0.00    -0.286 C  
HETATM    5  O   UNL     1      -8.974   8.180  66.470  1.00  0.00    -0.141 OA 
HETATM    6  C   UNL     1      -9.775   9.436  68.361  1.00  0.00    -0.149 C  
HETATM    7  N   UNL     1      -9.736  10.641  67.671  1.00  0.00    -0.164 N  
HETATM    8  O   UNL     1     -10.339  10.229  65.462  1.00  0.00    -0.258 OA 
HETATM    9  C   UNL     1      -9.139   8.192  67.811  1.00  0.00    -0.135 C  
HETATM   10  C   UNL     1     -11.409  11.806  67.165  1.00  0.00    -0.387 C  
HETATM   11  O   UNL     1      -8.755   7.255  68.494  1.00  0.00    -0.124 OA 
HETATM   12  C   UNL     1     -10.426  10.833  66.506  1.00  0.00    -0.240 C  
ENDROOT
BRANCH   3  13
HETATM   13  S   UNL     1     -10.662   8.273  70.676  1.00  0.00    -0.224 SA 
BRANCH  13  14
HETATM   14  C   UNL     1      -9.424   8.517  71.997  1.00  0.00    -0.294 C  
HETATM   15  N   UNL     1      -7.488   7.249  71.406  1.00  0.00    -0.081 NA 
HETATM   16  C   UNL     1      -7.962   8.623  71.561  1.00  0.00    -0.136 C  
HETATM   17  C   UNL     1      -9.411   7.261  72.877  1.00  0.00    -0.200 C  
HETATM   18  C   UNL     1      -8.166   6.468  72.465  1.00  0.00    -0.104 C  
HETATM   19  H   UNL     1      -6.471   7.163  71.421  1.00  0.00     0.000 HD 
BRANCH  18  20
HETATM   20  C   UNL     1      -8.448   5.034  71.969  1.00  0.00    -0.125 C  
BRANCH  20  21
HETATM   21  N   UNL     1      -7.227   4.173  72.140  1.00  0.00    -0.055 N  
HETATM   22  H   UNL     1      -6.315   4.441  71.770  1.00  0.00     0.000 HD 
BRANCH  21  23
HETATM   23  S   UNL     1      -7.464   2.748  72.977  1.00  0.00    -0.046 S  
HETATM   24  O   UNL     1      -7.580   3.064  74.380  1.00  0.00    -0.053 OA 
HETATM   25  N   UNL     1      -5.954   2.121  72.759  1.00  0.00    -0.008 N  
HETATM   26  O   UNL     1      -8.406   1.934  72.259  1.00  0.00    -0.052 OA 
HETATM   27  H2  UNL     1      -5.137   2.487  72.270  1.00  0.00     0.000 HD 
HETATM   28  H1  UNL     1      -6.099   1.251  73.270  1.00  0.00     0.000 HD 
ENDBRANCH  21  23
ENDBRANCH  20  21
ENDBRANCH  18  20
ENDBRANCH  13  14
ENDBRANCH   3  13
BRANCH  10  29
HETATM   29  C   UNL     1     -11.498  13.229  66.650  1.00  0.00    -0.347 C  
HETATM   30  H   UNL     1     -10.517  14.268  65.357  1.00  0.00     0.000 HD 
HETATM   31  O   UNL     1     -10.461  13.376  65.679  1.00  0.00    -0.279 OA 
HETATM   32  C   UNL     1     -11.293  14.240  67.766  1.00  0.00    -0.329 C  
ENDBRANCH  10  29
TORSDOF 6
ENDMDL
MODEL      202
REMARK 921   NORMALIZED FREE ENERGY PREDICTED BY IDOCK:   -3.71 KCAL/MOL
REMARK 922        TOTAL FREE ENERGY PREDICTED BY IDOCK:   -5.90 KCAL/MOL
REMARK 923 INTER-LIGAND FREE ENERGY PREDICTED BY IDOCK:   -4.95 KCAL/MOL
REMARK 924 INTRA-LIGAND FREE ENERGY PREDICTED BY IDOCK:   -0.95 KCAL/MOL
REMARK 927      BINDING AFFINITY PREDICTED BY RF-SCORE:    0.00 PKD
ROOT
HETATM    1  C   UNL     1     -11.718   7.802  69.875  1.00  0.00     0.337 C  
HETATM    2  C   UNL     1     -10.987   8.374  68.652  1.00  0.00     0.153 C  
HETATM    3  C   UNL     1     -10.228   7.169  68.138  1.00  0.00    -0.188 C  
HETATM    4  C   UNL     1     -10.162   9.594  69.043  1.00  0.00    -0.209 C  
HETATM    5  O   UNL     1      -9.864   3.947  69.841  1.00  0.00    -0.199 OA 
HETATM    6  C   UNL     1     -10.460   6.087  68.911  1.00  0.00    -0.248 C  
HETATM    7  N   UNL     1     -11.376   6.353  69.921  1.00  0.00    -0.413 N  
HETATM    8  O   UNL     1     -10.537   5.481  71.908  1.00  0.00    -0.222 OA 
HETATM    9  C   UNL     1      -9.856   4.722  68.735  1.00  0.00    -0.148 C  
HETATM   10  C   UNL     1     -11.202   7.884  71.348  1.00  0.00    -0.280 C  
HETATM   11  O   UNL     1      -9.412   4.297  67.679  1.00  0.00    -0.154 OA 
HETATM   12  C   UNL     1     -11.018   6.367  71.240  1.00  0.00    -0.271 C  
ENDROOT
BRANCH   3  13
HETATM   13  S   UNL     1      -9.150   7.227  66.795  1.00  0.00    -0.154 SA 
BRANCH  13  14
HETATM   14  C   UNL     1      -7.498   7.579  67.490  1.00  0.00    -0.104 C  
HETATM   15  N   UNL     1      -6.904   9.798  66.835  1.00  0.00    -0.082 NA 
HETATM   16  C   UNL     1      -7.255   8.997  68.007  1.00  0.00    -0.080 C  
HETATM   17  C   UNL     1      -6.470   7.464  66.358  1.00  0.00    -0.048 C  
HETATM   18  C   UNL     1      -6.120   8.900  65.957  1.00  0.00    -0.052 C  
HETATM   19  H   UNL     1      -6.424  10.668  67.064  1.00  0.00     0.000 HD 
BRANCH  18  20
HETATM   20  C   UNL     1      -6.389   9.241  64.475  1.00  0.00    -0.077 C  
BRANCH  20  21
HETATM   21  N   UNL     1      -7.194  10.507  64.369  1.00  0.00    -0.350 N  
HETATM   22  H   UNL     1      -6.780  11.429  64.508  1.00  0.00     0.000 HD 
BRANCH  21  23
HETATM   23  S   UNL     1      -8.811  10.302  64.008  1.00  0.00    -0.239 S  
HETATM   24  O   UNL     1      -9.549  10.274  65.248  1.00  0.00    -0.220 OA 
HETATM   25  N   UNL     1      -8.714   8.741  63.483  1.00  0.00    -0.427 N  
HETATM   26  O   UNL     1      -9.152  11.141  62.892  1.00  0.00    -0.291 OA 
HETATM   27  H2  UNL     1      -7.921   8.105  63.404  1.00  0.00     0.000 HD 
HETATM   28  H1  UNL     1      -9.702   8.616  63.263  1.00  0.00     0.000 HD 
ENDBRANCH  21  23
ENDBRANCH  20  21
ENDBRANCH  18  20
ENDBRANCH  13  14
ENDBRANCH   3  13
BRANCH  10  29
HETATM   29  C   UNL     1     -12.218   8.439  72.325  1.00  0.00    -0.387 C  
HETATM   30  H   UNL     1     -14.034   7.993  72.794  1.00  0.00     0.000 HD 
HETATM   31  O   UNL     1     -13.397   7.645  72.181  1.00  0.00    -0.189 OA 
HETATM   32  C   UNL     1     -12.548   9.892  72.023  1.00  0.00    -0.410 C  
ENDBRANCH  10  29
TORSDOF 6
ENDMDL
MODEL      203
REMARK 921   NORMALIZED FREE ENERGY PREDICTED BY IDOCK:   -3.71 KCAL/MOL
REMARK 922        TOTAL FREE ENERGY PREDICTED BY IDOCK:   -5.89 KCAL/MOL
REMARK 923 INTER-LIGAND FREE ENERGY PREDICTED BY IDOCK:   -5.14 KCAL/MOL
REMARK 924 INTRA-LIGAND FREE ENERGY PREDICTED BY IDOCK:   -0.75 KCAL/MOL
REMARK 927      BINDING AFFINITY PREDICTED BY RF-SCORE:    0.00 PKD
ROOT
HETATM    1  C   UNL     1      -7.335   7.541  65.703  1.00  0.00    -0.067 C  
HETATM    2  C   UNL     1      -8.114   8.843  65.940  1.00  0.00    -0.109 C  
HETATM    3  C   UNL     1      -9.406   8.339  66.546  1.00  0.00    -0.206 C  
HETATM    4  C   UNL     1      -8.224   9.644  64.648  1.00  0.00    -0.149 C  
HETATM    5  O   UNL     1     -10.482   4.844  66.763  1.00  0.00    -0.243 OA 
HETATM    6  C   UNL     1      -9.399   6.992  66.646  1.00  0.00    -0.165 C  
HETATM    7  N   UNL     1      -8.193   6.444  66.232  1.00  0.00    -0.114 N  
HETATM    8  O   UNL     1      -8.658   4.640  64.838  1.00  0.00    -0.128 OA 
HETATM    9  C   UNL     1     -10.518   6.134  67.164  1.00  0.00    -0.264 C  
HETATM   10  C   UNL     1      -7.298   6.750  64.356  1.00  0.00    -0.087 C  
HETATM   11  O   UNL     1     -11.394   6.527  67.920  1.00  0.00    -0.245 OA 
HETATM   12  C   UNL     1      -8.093   5.675  65.105  1.00  0.00    -0.127 C  
ENDROOT
BRANCH   3  13
HETATM   13  S   UNL     1     -10.727   9.366  66.958  1.00  0.00    -0.042 SA 
BRANCH  13  14
HETATM   14  C   UNL     1     -10.195  10.302  68.435  1.00  0.00    -0.167 C  
HETATM   15  N   UNL     1     -11.105  12.502  68.254  1.00  0.00    -0.240 NA 
HETATM   16  C   UNL     1     -11.210  11.273  69.038  1.00  0.00    -0.258 C  
HETATM   17  C   UNL     1      -9.053  11.238  68.022  1.00  0.00    -0.156 C  
HETATM   18  C   UNL     1      -9.672  12.634  67.905  1.00  0.00    -0.216 C  
HETATM   19  H   UNL     1     -11.489  13.322  68.725  1.00  0.00     0.000 HD 
BRANCH  18  20
HETATM   20  C   UNL     1      -9.523  13.293  66.517  1.00  0.00    -0.245 C  
BRANCH  20  21
HETATM   21  N   UNL     1      -9.266  14.768  66.664  1.00  0.00    -0.262 N  
HETATM   22  H   UNL     1      -8.341  15.140  66.876  1.00  0.00     0.000 HD 
BRANCH  21  23
HETATM   23  S   UNL     1     -10.597  15.753  66.457  1.00  0.00    -0.285 S  
HETATM   24  O   UNL     1     -10.966  16.289  67.746  1.00  0.00    -0.330 OA 
HETATM   25  N   UNL     1     -11.688  14.565  66.112  1.00  0.00    -0.367 N  
HETATM   26  O   UNL     1     -10.407  16.557  65.281  1.00  0.00    -0.596 OA 
HETATM   27  H2  UNL     1     -11.583  13.553  66.046  1.00  0.00     0.000 HD 
HETATM   28  H1  UNL     1     -12.501  15.168  65.986  1.00  0.00     0.000 HD 
ENDBRANCH  21  23
ENDBRANCH  20  21
ENDBRANCH  18  20
ENDBRANCH  13  14
ENDBRANCH   3  13
BRANCH  10  29
HETATM   29  C   UNL     1      -5.900   6.431  63.869  1.00  0.00    -0.023 C  
HETATM   30  H   UNL     1      -4.451   7.465  63.128  1.00  0.00     0.000 HD 
HETATM   31  O   UNL     1      -5.328   7.666  63.434  1.00  0.00    -0.037 OA 
HETATM   32  C   UNL     1      -5.923   5.448  62.709  1.00  0.00    -0.014 C  
ENDBRANCH  10  29
TORSDOF 6
ENDMDL
MODEL      204
REMARK 921   NORMALIZED FREE ENERGY PREDICTED BY IDOCK:   -3.70 KCAL/MOL
REMARK 922        TOTAL FREE ENERGY PREDICTED BY IDOCK:   -5.88 KCAL/MOL
REMARK 923 INTER-LIGAND FREE ENERGY PREDICTED BY IDOCK:   -5.41 KCAL/MOL
REMARK 924 INTRA-LIGAND FREE ENERGY PREDICTED BY IDOCK:   -0.48 KCAL/MOL
REMARK 927      BINDING AFFINITY PREDICTED BY RF-SCORE:    0.00 PKD
ROOT
HETATM    1  C   UNL     1      -6.806   4.860  67.691  1.00  0.00    -0.060 C  
HETATM    2  C   UNL     1      -6.899   6.391  67.613  1.00  0.00    -0.076 C  
HETATM    3  C   UNL     1      -7.926   6.706  68.679  1.00  0.00    -0.118 C  
HETATM    4  C   UNL     1      -7.221   6.836  66.192  1.00  0.00    -0.067 C  
HETATM    5  O   UNL     1     -10.002   4.280  70.475  1.00  0.00    -0.209 OA 
HETATM    6  C   UNL     1      -8.365   5.576  69.276  1.00  0.00    -0.101 C  
HETATM    7  N   UNL     1      -7.712   4.447  68.800  1.00  0.00    -0.066 N  
HETATM    8  O   UNL     1      -9.311   2.815  68.366  1.00  0.00    -0.180 OA 
HETATM    9  C   UNL     1      -9.408   5.488  70.353  1.00  0.00    -0.159 C  
HETATM   10  C   UNL     1      -7.600   3.866  66.785  1.00  0.00    -0.084 C  
HETATM   11  O   UNL     1      -9.702   6.405  71.105  1.00  0.00    -0.174 OA 
HETATM   12  C   UNL     1      -8.356   3.492  68.064  1.00  0.00    -0.084 C  
ENDROOT
BRANCH   3  13
HETATM   13  S   UNL     1      -8.504   8.297  69.002  1.00  0.00    -0.132 SA 
BRANCH  13  14
HETATM   14  C   UNL     1     -10.257   8.311  68.489  1.00  0.00    -0.208 C  
HETATM   15  N   UNL     1     -10.312   8.757  66.144  1.00  0.00    -0.295 NA 
HETATM   16  C   UNL     1     -10.580   7.705  67.123  1.00  0.00    -0.340 C  
HETATM   17  C   UNL     1     -10.691   9.770  68.310  1.00  0.00    -0.277 C  
HETATM   18  C   UNL     1     -10.705  10.025  66.799  1.00  0.00    -0.101 C  
HETATM   19  H   UNL     1     -10.768   8.603  65.244  1.00  0.00     0.000 HD 
BRANCH  18  20
HETATM   20  C   UNL     1      -9.786  11.173  66.329  1.00  0.00    -0.214 C  
BRANCH  20  21
HETATM   21  N   UNL     1     -10.024  11.468  64.873  1.00  0.00    -0.250 N  
HETATM   22  H   UNL     1      -9.475  11.033  64.132  1.00  0.00     0.000 HD 
BRANCH  21  23
HETATM   23  S   UNL     1     -11.249  12.556  64.552  1.00  0.00    -0.347 S  
HETATM   24  O   UNL     1     -12.232  12.451  65.602  1.00  0.00    -0.599 OA 
HETATM   25  N   UNL     1     -11.878  11.784  63.238  1.00  0.00    -0.849 N  
HETATM   26  O   UNL     1     -10.669  13.799  64.119  1.00  0.00    -0.289 OA 
HETATM   27  H2  UNL     1     -11.608  10.919  62.771  1.00  0.00     0.000 HD 
HETATM   28  H1  UNL     1     -12.626  12.449  63.042  1.00  0.00     0.000 HD 
ENDBRANCH  21  23
ENDBRANCH  20  21
ENDBRANCH  18  20
ENDBRANCH  13  14
ENDBRANCH   3  13
BRANCH  10  29
HETATM   29  C   UNL     1      -6.732   2.825  66.107  1.00  0.00    -0.043 C  
HETATM   30  H   UNL     1      -7.048   1.088  65.334  1.00  0.00     0.000 HD 
HETATM   31  O   UNL     1      -7.593   1.740  65.759  1.00  0.00    -0.064 OA 
HETATM   32  C   UNL     1      -5.636   2.323  67.033  1.00  0.00    -0.018 C  
ENDBRANCH  10  29
TORSDOF 6
ENDMDL
MODEL      205
REMARK 921   NORMALIZED FREE ENERGY PREDICTED BY IDOCK:   -3.58 KCAL/MOL
REMARK 922        TOTAL FREE ENERGY PREDICTED BY IDOCK:   -5.72 KCAL/MOL
REMARK 923 INTER-LIGAND FREE ENERGY PREDICTED BY IDOCK:   -5.78 KCAL/MOL
REMARK 924 INTRA-LIGAND FREE ENERGY PREDICTED BY IDOCK:    0.06 KCAL/MOL
REMARK 927      BINDING AFFINITY PREDICTED BY RF-SCORE:    0.00 PKD
ROOT
HETATM    1  C   UNL     1      -8.055   8.864  70.237  1.00  0.00    -0.123 C  
HETATM    2  C   UNL     1      -8.117  10.100  69.328  1.00  0.00    -0.149 C  
HETATM    3  C   UNL     1      -9.542  10.571  69.522  1.00  0.00    -0.098 C  
HETATM    4  C   UNL     1      -7.696   9.743  67.908  1.00  0.00    -0.087 C  
HETATM    5  O   UNL     1     -12.203   8.765  71.276  1.00  0.00    -0.295 OA 
HETATM    6  C   UNL     1     -10.204   9.765  70.381  1.00  0.00    -0.281 C  
HETATM    7  N   UNL     1      -9.386   8.771  70.900  1.00  0.00    -0.194 N  
HETATM    8  O   UNL     1     -10.536   6.752  70.781  1.00  0.00    -0.215 OA 
HETATM    9  C   UNL     1     -11.644   9.895  70.791  1.00  0.00    -0.349 C  
HETATM   10  C   UNL     1      -8.280   7.392  69.765  1.00  0.00    -0.129 C  
HETATM   11  O   UNL     1     -12.284  10.934  70.738  1.00  0.00    -0.323 OA 
HETATM   12  C   UNL     1      -9.566   7.450  70.595  1.00  0.00    -0.171 C  
ENDROOT
BRANCH   3  13
HETATM   13  S   UNL     1     -10.225  11.909  68.677  1.00  0.00    -0.152 SA 
BRANCH  13  14
HETATM   14  C   UNL     1      -9.530  11.846  66.989  1.00  0.00    -0.188 C  
HETATM   15  N   UNL     1      -8.721  14.032  66.467  1.00  0.00    -0.453 NA 
HETATM   16  C   UNL     1      -8.266  12.668  66.732  1.00  0.00     0.037 C  
HETATM   17  C   UNL     1     -10.540  12.493  66.033  1.00  0.00    -0.289 C  
HETATM   18  C   UNL     1      -9.996  13.892  65.728  1.00  0.00    -0.284 C  
HETATM   19  H   UNL     1      -8.029  14.606  65.985  1.00  0.00     0.000 HD 
BRANCH  18  20
HETATM   20  C   UNL     1     -10.950  15.049  66.094  1.00  0.00    -0.334 C  
BRANCH  20  21
HETATM   21  N   UNL     1     -10.163  16.276  66.467  1.00  0.00    -0.290 N  
HETATM   22  H   UNL     1      -9.372  16.604  65.914  1.00  0.00     0.000 HD 
BRANCH  21  23
HETATM   23  S   UNL     1     -10.673  17.065  67.847  1.00  0.00    -0.310 S  
HETATM   24  O   UNL     1     -10.738  18.477  67.562  1.00  0.00    -0.427 OA 
HETATM   25  N   UNL     1      -9.308  16.828  68.742  1.00  0.00    -0.251 N  
HETATM   26  O   UNL     1     -11.747  16.318  68.444  1.00  0.00    -0.271 OA 
HETATM   27  H2  UNL     1      -8.432  16.352  68.522  1.00  0.00     0.000 HD 
HETATM   28  H1  UNL     1      -9.619  17.309  69.585  1.00  0.00     0.000 HD 
ENDBRANCH  21  23
ENDBRANCH  20  21
ENDBRANCH  18  20
ENDBRANCH  13  14
ENDBRANCH   3  13
BRANCH  10  29
HETATM   29  C   UNL     1      -7.176   6.440  70.177  1.00  0.00    -0.084 C  
HETATM   30  H   UNL     1      -5.714   6.517  71.431  1.00  0.00     0.000 HD 
HETATM   31  O   UNL     1      -6.406   7.115  71.173  1.00  0.00    -0.036 OA 
HETATM   32  C   UNL     1      -6.280   6.081  69.002  1.00  0.00    -0.036 C  
ENDBRANCH  10  29
TORSDOF 6
ENDMDL
MODEL      206
REMARK 921   NORMALIZED FREE ENERGY PREDICTED BY IDOCK:   -3.57 KCAL/MOL
REMARK 922        TOTAL FREE ENERGY PREDICTED BY IDOCK:   -5.70 KCAL/MOL
REMARK 923 INTER-LIGAND FREE ENERGY PREDICTED BY IDOCK:   -5.08 KCAL/MOL
REMARK 924 INTRA-LIGAND FREE ENERGY PREDICTED BY IDOCK:   -0.62 KCAL/MOL
REMARK 927      BINDING AFFINITY PREDICTED BY RF-SCORE:    0.00 PKD
ROOT
HETATM    1  C   UNL     1      -8.698   4.554  71.187  1.00  0.00    -0.115 C  
HETATM    2  C   UNL     1      -8.409   5.426  69.957  1.00  0.00    -0.107 C  
HETATM    3  C   UNL     1      -8.809   6.804  70.438  1.00  0.00    -0.152 C  
HETATM    4  C   UNL     1      -9.137   4.885  68.733  1.00  0.00    -0.147 C  
HETATM    5  O   UNL     1     -10.563   7.588  73.557  1.00  0.00    -0.373 OA 
HETATM    6  C   UNL     1      -9.256   6.760  71.712  1.00  0.00    -0.147 C  
HETATM    7  N   UNL     1      -9.165   5.484  72.253  1.00  0.00    -0.142 N  
HETATM    8  O   UNL     1     -11.173   5.009  73.327  1.00  0.00    -0.309 OA 
HETATM    9  C   UNL     1      -9.771   7.921  72.514  1.00  0.00    -0.227 C  
HETATM   10  C   UNL     1     -10.016   3.751  71.427  1.00  0.00    -0.178 C  
HETATM   11  O   UNL     1      -9.492   9.090  72.292  1.00  0.00    -0.315 OA 
HETATM   12  C   UNL     1     -10.274   4.746  72.562  1.00  0.00    -0.190 C  
ENDROOT
BRANCH   3  13
HETATM   13  S   UNL     1      -8.772   8.208  69.439  1.00  0.00    -0.143 SA 
BRANCH  13  14
HETATM   14  C   UNL     1     -10.440   8.351  68.708  1.00  0.00    -0.178 C  
HETATM   15  N   UNL     1     -10.264   9.771  66.796  1.00  0.00    -0.232 NA 
HETATM   16  C   UNL     1     -10.523   8.385  67.181  1.00  0.00    -0.310 C  
HETATM   17  C   UNL     1     -11.016   9.718  69.097  1.00  0.00    -0.205 C  
HETATM   18  C   UNL     1     -10.878  10.604  67.855  1.00  0.00    -0.277 C  
HETATM   19  H   UNL     1     -10.586  10.001  65.856  1.00  0.00     0.000 HD 
BRANCH  18  20
HETATM   20  C   UNL     1     -10.049  11.889  68.067  1.00  0.00    -0.195 C  
BRANCH  20  21
HETATM   21  N   UNL     1     -10.560  12.991  67.180  1.00  0.00    -0.245 N  
HETATM   22  H   UNL     1     -10.627  12.889  66.168  1.00  0.00     0.000 HD 
BRANCH  21  23
HETATM   23  S   UNL     1     -11.011  14.394  67.965  1.00  0.00    -0.266 S  
HETATM   24  O   UNL     1     -12.333  14.757  67.515  1.00  0.00    -0.108 OA 
HETATM   25  N   UNL     1      -9.959  15.410  67.203  1.00  0.00    -0.232 N  
HETATM   26  O   UNL     1     -10.635  14.298  69.349  1.00  0.00    -0.192 OA 
HETATM   27  H2  UNL     1      -9.258  15.237  66.483  1.00  0.00     0.000 HD 
HETATM   28  H1  UNL     1     -10.235  16.267  67.683  1.00  0.00     0.000 HD 
ENDBRANCH  21  23
ENDBRANCH  20  21
ENDBRANCH  18  20
ENDBRANCH  13  14
ENDBRANCH   3  13
BRANCH  10  29
HETATM   29  C   UNL     1      -9.792   2.290  71.761  1.00  0.00    -0.152 C  
HETATM   30  H   UNL     1     -10.207   0.620  70.891  1.00  0.00     0.000 HD 
HETATM   31  O   UNL     1     -10.347   1.536  70.681  1.00  0.00     0.276 OA 
HETATM   32  C   UNL     1     -10.485   1.901  73.057  1.00  0.00    -0.223 C  
ENDBRANCH  10  29
TORSDOF 6
ENDMDL
MODEL      207
REMARK 921   NORMALIZED FREE ENERGY PREDICTED BY IDOCK:   -3.57 KCAL/MOL
REMARK 922        TOTAL FREE ENERGY PREDICTED BY IDOCK:   -5.70 KCAL/MOL
REMARK 923 INTER-LIGAND FREE ENERGY PREDICTED BY IDOCK:   -4.75 KCAL/MOL
REMARK 924 INTRA-LIGAND FREE ENERGY PREDICTED BY IDOCK:   -0.95 KCAL/MOL
REMARK 927      BINDING AFFINITY PREDICTED BY RF-SCORE:    0.00 PKD
ROOT
HETATM    1  C   UNL     1     -10.406  10.110  65.704  1.00  0.00    -0.140 C  
HETATM    2  C   UNL     1      -9.195   9.173  65.822  1.00  0.00    -0.294 C  
HETATM    3  C   UNL     1      -9.269   8.733  67.268  1.00  0.00    -0.139 C  
HETATM    4  C   UNL     1      -7.921   9.886  65.382  1.00  0.00    -0.134 C  
HETATM    5  O   UNL     1     -11.478  10.111  69.845  1.00  0.00    -0.253 OA 
HETATM    6  C   UNL     1     -10.322   9.303  67.894  1.00  0.00    -0.227 C  
HETATM    7  N   UNL     1     -11.083  10.079  67.030  1.00  0.00    -0.061 N  
HETATM    8  O   UNL     1     -11.534  12.104  68.084  1.00  0.00    -0.271 OA 
HETATM    9  C   UNL     1     -10.697   9.132  69.338  1.00  0.00    -0.198 C  
HETATM   10  C   UNL     1     -10.357  11.663  65.858  1.00  0.00    -0.289 C  
HETATM   11  O   UNL     1     -10.369   8.178  70.027  1.00  0.00    -0.206 OA 
HETATM   12  C   UNL     1     -11.153  11.440  67.148  1.00  0.00    -0.305 C  
ENDROOT
BRANCH   3  13
HETATM   13  S   UNL     1      -8.098   7.710  68.012  1.00  0.00    -0.124 SA 
BRANCH  13  14
HETATM   14  C   UNL     1      -8.514   6.008  67.494  1.00  0.00    -0.107 C  
HETATM   15  N   UNL     1      -9.144   4.798  69.454  1.00  0.00    -0.098 NA 
HETATM   16  C   UNL     1      -9.688   5.337  68.209  1.00  0.00    -0.140 C  
HETATM   17  C   UNL     1      -7.340   5.095  67.866  1.00  0.00    -0.075 C  
HETATM   18  C   UNL     1      -7.772   4.344  69.129  1.00  0.00    -0.055 C  
HETATM   19  H   UNL     1      -9.726   4.073  69.874  1.00  0.00     0.000 HD 
BRANCH  18  20
HETATM   20  C   UNL     1      -6.845   4.542  70.348  1.00  0.00    -0.037 C  
BRANCH  20  21
HETATM   21  N   UNL     1      -7.549   4.128  71.611  1.00  0.00    -0.063 N  
HETATM   22  H   UNL     1      -7.742   3.151  71.832  1.00  0.00     0.000 HD 
BRANCH  21  23
HETATM   23  S   UNL     1      -7.994   5.375  72.628  1.00  0.00    -0.103 S  
HETATM   24  O   UNL     1      -8.978   6.182  71.949  1.00  0.00    -0.140 OA 
HETATM   25  N   UNL     1      -6.574   6.213  72.568  1.00  0.00    -0.066 N  
HETATM   26  O   UNL     1      -8.164   4.857  73.958  1.00  0.00    -0.103 OA 
HETATM   27  H2  UNL     1      -5.704   6.029  72.069  1.00  0.00     0.000 HD 
HETATM   28  H1  UNL     1      -6.846   6.974  73.189  1.00  0.00     0.000 HD 
ENDBRANCH  21  23
ENDBRANCH  20  21
ENDBRANCH  18  20
ENDBRANCH  13  14
ENDBRANCH   3  13
BRANCH  10  29
HETATM   29  C   UNL     1     -11.001  12.416  64.712  1.00  0.00    -0.301 C  
HETATM   30  H   UNL     1     -10.760  12.441  62.799  1.00  0.00     0.000 HD 
HETATM   31  O   UNL     1     -10.356  11.968  63.518  1.00  0.00    -0.404 OA 
HETATM   32  C   UNL     1     -10.815  13.918  64.854  1.00  0.00    -0.413 C  
ENDBRANCH  10  29
TORSDOF 6
ENDMDL
MODEL      208
REMARK 921   NORMALIZED FREE ENERGY PREDICTED BY IDOCK:   -3.51 KCAL/MOL
REMARK 922        TOTAL FREE ENERGY PREDICTED BY IDOCK:   -5.63 KCAL/MOL
REMARK 923 INTER-LIGAND FREE ENERGY PREDICTED BY IDOCK:   -4.02 KCAL/MOL
REMARK 924 INTRA-LIGAND FREE ENERGY PREDICTED BY IDOCK:   -1.61 KCAL/MOL
REMARK 927      BINDING AFFINITY PREDICTED BY RF-SCORE:    0.00 PKD
ROOT
HETATM    1  C   UNL     1      -7.205   7.293  65.769  1.00  0.00    -0.070 C  
HETATM    2  C   UNL     1      -7.514   8.322  66.867  1.00  0.00    -0.088 C  
HETATM    3  C   UNL     1      -8.277   7.494  67.878  1.00  0.00    -0.123 C  
HETATM    4  C   UNL     1      -8.233   9.531  66.281  1.00  0.00    -0.115 C  
HETATM    5  O   UNL     1      -9.509   4.078  67.399  1.00  0.00    -0.170 OA 
HETATM    6  C   UNL     1      -8.403   6.216  67.460  1.00  0.00    -0.109 C  
HETATM    7  N   UNL     1      -7.746   5.993  66.257  1.00  0.00    -0.100 N  
HETATM    8  O   UNL     1      -9.176   4.802  64.861  1.00  0.00    -0.156 OA 
HETATM    9  C   UNL     1      -9.127   5.113  68.179  1.00  0.00    -0.112 C  
HETATM   10  C   UNL     1      -8.061   7.071  64.482  1.00  0.00    -0.069 C  
HETATM   11  O   UNL     1      -9.342   5.100  69.381  1.00  0.00    -0.113 OA 
HETATM   12  C   UNL     1      -8.421   5.716  65.101  1.00  0.00    -0.144 C  
ENDROOT
BRANCH   3  13
HETATM   13  S   UNL     1      -8.960   8.147  69.319  1.00  0.00    -0.148 SA 
BRANCH  13  14
HETATM   14  C   UNL     1      -7.578   8.303  70.505  1.00  0.00    -0.076 C  
HETATM   15  N   UNL     1      -7.249   6.159  71.505  1.00  0.00    -0.085 NA 
HETATM   16  C   UNL     1      -6.616   7.118  70.602  1.00  0.00    -0.048 C  
HETATM   17  C   UNL     1      -8.168   8.361  71.920  1.00  0.00    -0.210 C  
HETATM   18  C   UNL     1      -7.949   6.971  72.526  1.00  0.00    -0.097 C  
HETATM   19  H   UNL     1      -6.599   5.478  71.898  1.00  0.00     0.000 HD 
BRANCH  18  20
HETATM   20  C   UNL     1      -9.239   6.254  72.980  1.00  0.00    -0.132 C  
BRANCH  20  21
HETATM   21  N   UNL     1     -10.133   5.991  71.799  1.00  0.00    -0.185 N  
HETATM   22  H   UNL     1      -9.830   5.436  71.000  1.00  0.00     0.000 HD 
BRANCH  21  23
HETATM   23  S   UNL     1     -11.656   6.671  71.886  1.00  0.00    -0.317 S  
HETATM   24  O   UNL     1     -11.578   7.847  72.719  1.00  0.00    -0.383 OA 
HETATM   25  N   UNL     1     -12.361   5.493  72.799  1.00  0.00    -0.423 N  
HETATM   26  O   UNL     1     -12.251   6.655  70.578  1.00  0.00    -0.364 OA 
HETATM   27  H2  UNL     1     -11.988   4.627  73.187  1.00  0.00     0.000 HD 
HETATM   28  H1  UNL     1     -13.291   5.908  72.852  1.00  0.00     0.000 HD 
ENDBRANCH  21  23
ENDBRANCH  20  21
ENDBRANCH  18  20
ENDBRANCH  13  14
ENDBRANCH   3  13
BRANCH  10  29
HETATM   29  C   UNL     1      -7.259   7.107  63.197  1.00  0.00    -0.071 C  
HETATM   30  H   UNL     1      -6.036   5.898  62.326  1.00  0.00     0.000 HD 
HETATM   31  O   UNL     1      -6.539   5.875  63.132  1.00  0.00    -0.031 OA 
HETATM   32  C   UNL     1      -6.278   8.268  63.183  1.00  0.00    -0.081 C  
ENDBRANCH  10  29
TORSDOF 6
ENDMDL
MODEL      209
REMARK 921   NORMALIZED FREE ENERGY PREDICTED BY IDOCK:   -3.49 KCAL/MOL
REMARK 922        TOTAL FREE ENERGY PREDICTED BY IDOCK:   -5.59 KCAL/MOL
REMARK 923 INTER-LIGAND FREE ENERGY PREDICTED BY IDOCK:   -4.75 KCAL/MOL
REMARK 924 INTRA-LIGAND FREE ENERGY PREDICTED BY IDOCK:   -0.84 KCAL/MOL
REMARK 927      BINDING AFFINITY PREDICTED BY RF-SCORE:    0.00 PKD
ROOT
HETATM    1  C   UNL     1      -9.375   7.493  69.611  1.00  0.00    -0.153 C  
HETATM    2  C   UNL     1      -8.464   8.647  70.054  1.00  0.00    -0.130 C  
HETATM    3  C   UNL     1      -7.290   8.512  69.108  1.00  0.00    -0.079 C  
HETATM    4  C   UNL     1      -8.163   8.550  71.545  1.00  0.00    -0.199 C  
HETATM    5  O   UNL     1      -6.664   5.727  66.813  1.00  0.00    -0.054 OA 
HETATM    6  C   UNL     1      -7.467   7.472  68.265  1.00  0.00    -0.109 C  
HETATM    7  N   UNL     1      -8.697   6.855  68.448  1.00  0.00    -0.125 N  
HETATM    8  O   UNL     1      -8.352   4.555  68.501  1.00  0.00    -0.085 OA 
HETATM    9  C   UNL     1      -6.501   7.008  67.212  1.00  0.00    -0.053 C  
HETATM   10  C   UNL     1      -9.407   6.075  70.265  1.00  0.00    -0.176 C  
HETATM   11  O   UNL     1      -5.643   7.714  66.705  1.00  0.00    -0.026 OA 
HETATM   12  C   UNL     1      -8.806   5.585  68.943  1.00  0.00    -0.107 C  
ENDROOT
BRANCH   3  13
HETATM   13  S   UNL     1      -5.889   9.513  69.183  1.00  0.00    -0.034 SA 
BRANCH  13  14
HETATM   14  C   UNL     1      -6.446  11.193  68.729  1.00  0.00    -0.052 C  
HETATM   15  N   UNL     1      -8.429  10.960  67.419  1.00  0.00    -0.120 NA 
HETATM   16  C   UNL     1      -7.955  11.439  68.716  1.00  0.00    -0.122 C  
HETATM   17  C   UNL     1      -6.061  11.445  67.266  1.00  0.00    -0.085 C  
HETATM   18  C   UNL     1      -7.350  11.277  66.455  1.00  0.00    -0.101 C  
HETATM   19  H   UNL     1      -9.339  11.335  67.153  1.00  0.00     0.000 HD 
BRANCH  18  20
HETATM   20  C   UNL     1      -7.286  10.196  65.356  1.00  0.00    -0.144 C  
BRANCH  20  21
HETATM   21  N   UNL     1      -7.805  10.744  64.054  1.00  0.00    -0.346 N  
HETATM   22  H   UNL     1      -7.197  11.202  63.376  1.00  0.00     0.000 HD 
BRANCH  21  23
HETATM   23  S   UNL     1      -9.443  10.551  63.795  1.00  0.00    -0.319 S  
HETATM   24  O   UNL     1      -9.640  10.174  62.417  1.00  0.00    -0.276 OA 
HETATM   25  N   UNL     1      -9.863  12.142  63.912  1.00  0.00    -0.555 N  
HETATM   26  O   UNL     1     -10.013   9.843  64.908  1.00  0.00    -0.306 OA 
HETATM   27  H2  UNL     1      -9.303  12.976  64.087  1.00  0.00     0.000 HD 
HETATM   28  H1  UNL     1     -10.864  12.024  63.754  1.00  0.00     0.000 HD 
ENDBRANCH  21  23
ENDBRANCH  20  21
ENDBRANCH  18  20
ENDBRANCH  13  14
ENDBRANCH   3  13
BRANCH  10  29
HETATM   29  C   UNL     1     -10.794   5.613  70.662  1.00  0.00    -0.234 C  
HETATM   30  H   UNL     1     -12.585   6.059  70.105  1.00  0.00     0.000 HD 
HETATM   31  O   UNL     1     -11.715   6.349  69.856  1.00  0.00    -0.426 OA 
HETATM   32  C   UNL     1     -11.076   5.889  72.130  1.00  0.00    -0.333 C  
ENDBRANCH  10  29
TORSDOF 6
ENDMDL
MODEL      210
REMARK 921   NORMALIZED FREE ENERGY PREDICTED BY IDOCK:   -3.48 KCAL/MOL
REMARK 922        TOTAL FREE ENERGY PREDICTED BY IDOCK:   -5.59 KCAL/MOL
REMARK 923 INTER-LIGAND FREE ENERGY PREDICTED BY IDOCK:   -5.09 KCAL/MOL
REMARK 924 INTRA-LIGAND FREE ENERGY PREDICTED BY IDOCK:   -0.49 KCAL/MOL
REMARK 927      BINDING AFFINITY PREDICTED BY RF-SCORE:    0.00 PKD
ROOT
HETATM    1  C   UNL     1      -6.424   6.538  68.297  1.00  0.00    -0.049 C  
HETATM    2  C   UNL     1      -6.679   7.944  67.734  1.00  0.00    -0.068 C  
HETATM    3  C   UNL     1      -7.742   8.477  68.669  1.00  0.00    -0.103 C  
HETATM    4  C   UNL     1      -7.034   7.872  66.254  1.00  0.00    -0.063 C  
HETATM    5  O   UNL     1      -9.564   6.557  71.202  1.00  0.00    -0.170 OA 
HETATM    6  C   UNL     1      -8.064   7.560  69.608  1.00  0.00    -0.127 C  
HETATM    7  N   UNL     1      -7.290   6.412  69.502  1.00  0.00    -0.085 N  
HETATM    8  O   UNL     1      -8.704   4.571  69.657  1.00  0.00    -0.079 OA 
HETATM    9  C   UNL     1      -9.101   7.716  70.683  1.00  0.00    -0.158 C  
HETATM   10  C   UNL     1      -7.100   5.228  67.778  1.00  0.00    -0.067 C  
HETATM   11  O   UNL     1      -9.496   8.791  71.108  1.00  0.00    -0.194 OA 
HETATM   12  C   UNL     1      -7.823   5.210  69.129  1.00  0.00    -0.081 C  
ENDROOT
BRANCH   3  13
HETATM   13  S   UNL     1      -8.488  10.019  68.480  1.00  0.00    -0.119 SA 
BRANCH  13  14
HETATM   14  C   UNL     1     -10.205   9.687  67.950  1.00  0.00    -0.198 C  
HETATM   15  N   UNL     1     -10.418  10.450  65.697  1.00  0.00    -0.172 NA 
HETATM   16  C   UNL     1     -10.404   9.231  66.503  1.00  0.00    -0.200 C  
HETATM   17  C   UNL     1     -10.980  11.009  67.985  1.00  0.00    -0.312 C  
HETATM   18  C   UNL     1     -11.089  11.475  66.529  1.00  0.00    -0.282 C  
HETATM   19  H   UNL     1     -10.843  10.327  64.778  1.00  0.00     0.000 HD 
BRANCH  18  20
HETATM   20  C   UNL     1     -10.483  12.866  66.249  1.00  0.00    -0.270 C  
BRANCH  20  21
HETATM   21  N   UNL     1     -10.684  13.242  64.806  1.00  0.00    -0.355 N  
HETATM   22  H   UNL     1      -9.946  13.144  64.110  1.00  0.00     0.000 HD 
BRANCH  21  23
HETATM   23  S   UNL     1     -12.198  13.832  64.422  1.00  0.00    -0.371 S  
HETATM   24  O   UNL     1     -12.032  15.102  63.759  1.00  0.00    -0.333 OA 
HETATM   25  N   UNL     1     -12.692  14.164  65.961  1.00  0.00    -0.478 N  
HETATM   26  O   UNL     1     -13.002  12.758  63.905  1.00  0.00    -0.679 OA 
HETATM   27  H2  UNL     1     -12.223  14.048  66.859  1.00  0.00     0.000 HD 
HETATM   28  H1  UNL     1     -13.616  14.524  65.726  1.00  0.00     0.000 HD 
ENDBRANCH  21  23
ENDBRANCH  20  21
ENDBRANCH  18  20
ENDBRANCH  13  14
ENDBRANCH   3  13
BRANCH  10  29
HETATM   29  C   UNL     1      -6.121   4.120  67.447  1.00  0.00    -0.028 C  
HETATM   30  H   UNL     1      -4.633   3.941  66.234  1.00  0.00     0.000 HD 
HETATM   31  O   UNL     1      -5.247   4.636  66.441  1.00  0.00    -0.008 OA 
HETATM   32  C   UNL     1      -6.831   2.886  66.917  1.00  0.00    -0.048 C  
ENDBRANCH  10  29
TORSDOF 6
ENDMDL
MODEL      211
REMARK 921   NORMALIZED FREE ENERGY PREDICTED BY IDOCK:   -3.48 KCAL/MOL
REMARK 922        TOTAL FREE ENERGY PREDICTED BY IDOCK:   -5.58 KCAL/MOL
REMARK 923 INTER-LIGAND FREE ENERGY PREDICTED BY IDOCK:   -4.78 KCAL/MOL
REMARK 924 INTRA-LIGAND FREE ENERGY PREDICTED BY IDOCK:   -0.80 KCAL/MOL
REMARK 927      BINDING AFFINITY PREDICTED BY RF-SCORE:    0.00 PKD
ROOT
HETATM    1  C   UNL     1      -7.148   5.800  67.663  1.00  0.00    -0.074 C  
HETATM    2  C   UNL     1      -7.184   7.334  67.593  1.00  0.00    -0.091 C  
HETATM    3  C   UNL     1      -8.297   7.674  68.561  1.00  0.00    -0.129 C  
HETATM    4  C   UNL     1      -7.355   7.800  66.152  1.00  0.00    -0.078 C  
HETATM    5  O   UNL     1     -10.610   5.304  70.126  1.00  0.00    -0.290 OA 
HETATM    6  C   UNL     1      -8.826   6.555  69.101  1.00  0.00    -0.128 C  
HETATM    7  N   UNL     1      -8.167   5.409  68.677  1.00  0.00    -0.094 N  
HETATM    8  O   UNL     1      -9.769   3.833  68.076  1.00  0.00    -0.152 OA 
HETATM    9  C   UNL     1      -9.969   6.492  70.074  1.00  0.00    -0.169 C  
HETATM   10  C   UNL     1      -7.883   4.840  66.675  1.00  0.00    -0.099 C  
HETATM   11  O   UNL     1     -10.302   7.413  70.804  1.00  0.00    -0.202 OA 
HETATM   12  C   UNL     1      -8.768   4.480  67.873  1.00  0.00    -0.104 C  
ENDROOT
BRANCH   3  13
HETATM   13  S   UNL     1      -8.851   9.281  68.845  1.00  0.00    -0.137 SA 
BRANCH  13  14
HETATM   14  C   UNL     1     -10.474   9.408  68.015  1.00  0.00    -0.228 C  
HETATM   15  N   UNL     1     -10.134  10.568  65.955  1.00  0.00    -0.248 NA 
HETATM   16  C   UNL     1     -10.484   9.254  66.494  1.00  0.00    -0.134 C  
HETATM   17  C   UNL     1     -10.994  10.838  68.203  1.00  0.00    -0.308 C  
HETATM   18  C   UNL     1     -10.752  11.554  66.870  1.00  0.00    -0.263 C  
HETATM   19  H   UNL     1     -10.400  10.693  64.979  1.00  0.00     0.000 HD 
BRANCH  18  20
HETATM   20  C   UNL     1      -9.868  12.816  66.966  1.00  0.00    -0.231 C  
BRANCH  20  21
HETATM   21  N   UNL     1     -10.724  14.044  67.104  1.00  0.00    -0.282 N  
HETATM   22  H   UNL     1     -11.286  14.406  66.333  1.00  0.00     0.000 HD 
BRANCH  21  23
HETATM   23  S   UNL     1     -10.694  14.776  68.604  1.00  0.00    -0.262 S  
HETATM   24  O   UNL     1     -10.501  16.193  68.411  1.00  0.00    -0.252 OA 
HETATM   25  N   UNL     1      -9.246  14.168  69.107  1.00  0.00    -0.391 N  
HETATM   26  O   UNL     1     -11.736  14.215  69.421  1.00  0.00    -0.271 OA 
HETATM   27  H2  UNL     1      -8.581  13.545  68.649  1.00  0.00     0.000 HD 
HETATM   28  H1  UNL     1      -9.228  14.615  70.023  1.00  0.00     0.000 HD 
ENDBRANCH  21  23
ENDBRANCH  20  21
ENDBRANCH  18  20
ENDBRANCH  13  14
ENDBRANCH   3  13
BRANCH  10  29
HETATM   29  C   UNL     1      -6.989   3.776  66.071  1.00  0.00    -0.062 C  
HETATM   30  H   UNL     1      -7.290   2.089  65.188  1.00  0.00     0.000 HD 
HETATM   31  O   UNL     1      -7.852   2.756  65.567  1.00  0.00    -0.077 OA 
HETATM   32  C   UNL     1      -6.052   3.179  67.108  1.00  0.00    -0.024 C  
ENDBRANCH  10  29
TORSDOF 6
ENDMDL
MODEL      212
REMARK 921   NORMALIZED FREE ENERGY PREDICTED BY IDOCK:   -3.46 KCAL/MOL
REMARK 922        TOTAL FREE ENERGY PREDICTED BY IDOCK:   -5.56 KCAL/MOL
REMARK 923 INTER-LIGAND FREE ENERGY PREDICTED BY IDOCK:   -4.52 KCAL/MOL
REMARK 924 INTRA-LIGAND FREE ENERGY PREDICTED BY IDOCK:   -1.05 KCAL/MOL
REMARK 927      BINDING AFFINITY PREDICTED BY RF-SCORE:    0.00 PKD
ROOT
HETATM    1  C   UNL     1      -8.941   7.321  70.126  1.00  0.00    -0.148 C  
HETATM    2  C   UNL     1      -8.135   8.410  69.403  1.00  0.00    -0.114 C  
HETATM    3  C   UNL     1      -7.252   7.599  68.480  1.00  0.00    -0.086 C  
HETATM    4  C   UNL     1      -7.434   9.315  70.410  1.00  0.00    -0.124 C  
HETATM    5  O   UNL     1      -6.840   3.959  68.518  1.00  0.00    -0.045 OA 
HETATM    6  C   UNL     1      -7.485   6.276  68.628  1.00  0.00    -0.088 C  
HETATM    7  N   UNL     1      -8.509   6.025  69.531  1.00  0.00    -0.118 N  
HETATM    8  O   UNL     1      -7.809   4.333  70.966  1.00  0.00    -0.064 OA 
HETATM    9  C   UNL     1      -6.777   5.163  67.909  1.00  0.00    -0.055 C  
HETATM   10  C   UNL     1      -8.576   6.709  71.516  1.00  0.00    -0.124 C  
HETATM   11  O   UNL     1      -6.206   5.290  66.836  1.00  0.00    -0.029 OA 
HETATM   12  C   UNL     1      -8.282   5.422  70.737  1.00  0.00    -0.115 C  
ENDROOT
BRANCH   3  13
HETATM   13  S   UNL     1      -6.056   8.295  67.454  1.00  0.00    -0.053 SA 
BRANCH  13  14
HETATM   14  C   UNL     1      -6.835   8.455  65.809  1.00  0.00    -0.067 C  
HETATM   15  N   UNL     1      -7.270  10.776  65.447  1.00  0.00    -0.351 NA 
HETATM   16  C   UNL     1      -6.436   9.673  64.973  1.00  0.00    -0.090 C  
HETATM   17  C   UNL     1      -8.338   8.677  66.012  1.00  0.00    -0.135 C  
HETATM   18  C   UNL     1      -8.580  10.173  65.784  1.00  0.00    -0.149 C  
HETATM   19  H   UNL     1      -7.334  11.552  64.789  1.00  0.00     0.000 HD 
BRANCH  18  20
HETATM   20  C   UNL     1      -9.214  10.914  66.980  1.00  0.00    -0.152 C  
BRANCH  20  21
HETATM   21  N   UNL     1     -10.673  10.567  67.095  1.00  0.00    -0.268 N  
HETATM   22  H   UNL     1     -11.015   9.611  66.993  1.00  0.00     0.000 HD 
BRANCH  21  23
HETATM   23  S   UNL     1     -11.696  11.851  67.401  1.00  0.00    -0.181 S  
HETATM   24  O   UNL     1     -12.207  12.330  66.140  1.00  0.00    -0.647 OA 
HETATM   25  N   UNL     1     -10.543  12.928  67.883  1.00  0.00    -0.217 N  
HETATM   26  O   UNL     1     -12.524  11.530  68.532  1.00  0.00    -0.328 OA 
HETATM   27  H2  UNL     1      -9.531  12.839  67.966  1.00  0.00     0.000 HD 
HETATM   28  H1  UNL     1     -11.168  13.712  68.070  1.00  0.00     0.000 HD 
ENDBRANCH  21  23
ENDBRANCH  20  21
ENDBRANCH  18  20
ENDBRANCH  13  14
ENDBRANCH   3  13
BRANCH  10  29
HETATM   29  C   UNL     1      -9.716   6.726  72.513  1.00  0.00    -0.153 C  
HETATM   30  H   UNL     1     -11.389   5.782  72.679  1.00  0.00     0.000 HD 
HETATM   31  O   UNL     1     -10.674   5.771  72.053  1.00  0.00    -0.218 OA 
HETATM   32  C   UNL     1     -10.368   8.097  72.593  1.00  0.00    -0.398 C  
ENDBRANCH  10  29
TORSDOF 6
ENDMDL
MODEL      213
REMARK 921   NORMALIZED FREE ENERGY PREDICTED BY IDOCK:   -3.38 KCAL/MOL
REMARK 922        TOTAL FREE ENERGY PREDICTED BY IDOCK:   -5.45 KCAL/MOL
REMARK 923 INTER-LIGAND FREE ENERGY PREDICTED BY IDOCK:   -4.89 KCAL/MOL
REMARK 924 INTRA-LIGAND FREE ENERGY PREDICTED BY IDOCK:   -0.56 KCAL/MOL
REMARK 927      BINDING AFFINITY PREDICTED BY RF-SCORE:    0.00 PKD
ROOT
HETATM    1  C   UNL     1      -8.425   9.231  64.888  1.00  0.00    -0.168 C  
HETATM    2  C   UNL     1      -9.295   9.343  66.148  1.00  0.00    -0.262 C  
HETATM    3  C   UNL     1      -8.567  10.401  66.948  1.00  0.00    -0.127 C  
HETATM    4  C   UNL     1      -9.465   7.978  66.804  1.00  0.00    -0.259 C  
HETATM    5  O   UNL     1      -5.266  11.800  66.199  1.00  0.00    -0.323 OA 
HETATM    6  C   UNL     1      -7.470  10.835  66.291  1.00  0.00    -0.138 C  
HETATM    7  N   UNL     1      -7.344  10.245  65.040  1.00  0.00    -0.137 N  
HETATM    8  O   UNL     1      -5.138   9.550  64.786  1.00  0.00    -0.046 OA 
HETATM    9  C   UNL     1      -6.482  11.853  66.785  1.00  0.00    -0.029 C  
HETATM   10  C   UNL     1      -7.291   8.178  64.671  1.00  0.00    -0.087 C  
HETATM   11  O   UNL     1      -6.732  12.703  67.626  1.00  0.00    -0.112 OA 
HETATM   12  C   UNL     1      -6.334   9.371  64.748  1.00  0.00    -0.078 C  
ENDROOT
BRANCH   3  13
HETATM   13  S   UNL     1      -9.051  10.901  68.525  1.00  0.00    -0.179 SA 
BRANCH  13  14
HETATM   14  C   UNL     1     -10.759  11.526  68.353  1.00  0.00    -0.208 C  
HETATM   15  N   UNL     1     -10.938  12.537  66.197  1.00  0.00    -0.275 NA 
HETATM   16  C   UNL     1     -11.407  11.392  66.975  1.00  0.00    -0.236 C  
HETATM   17  C   UNL     1     -10.734  13.045  68.556  1.00  0.00    -0.275 C  
HETATM   18  C   UNL     1     -10.840  13.660  67.157  1.00  0.00    -0.285 C  
HETATM   19  H   UNL     1     -11.517  12.743  65.383  1.00  0.00     0.000 HD 
BRANCH  18  20
HETATM   20  C   UNL     1      -9.669  14.588  66.769  1.00  0.00    -0.260 C  
BRANCH  20  21
HETATM   21  N   UNL     1      -9.994  16.014  67.122  1.00  0.00    -0.244 N  
HETATM   22  H   UNL     1     -10.768  16.519  66.691  1.00  0.00     0.000 HD 
BRANCH  21  23
HETATM   23  S   UNL     1      -9.002  16.715  68.268  1.00  0.00    -0.221 S  
HETATM   24  O   UNL     1      -9.639  16.585  69.556  1.00  0.00    -0.164 OA 
HETATM   25  N   UNL     1      -9.209  18.282  67.796  1.00  0.00    -0.267 N  
HETATM   26  O   UNL     1      -7.641  16.333  68.005  1.00  0.00    -0.132 OA 
HETATM   27  H2  UNL     1      -9.765  18.692  67.046  1.00  0.00     0.000 HD 
HETATM   28  H1  UNL     1      -8.603  18.709  68.496  1.00  0.00     0.000 HD 
ENDBRANCH  21  23
ENDBRANCH  20  21
ENDBRANCH  18  20
ENDBRANCH  13  14
ENDBRANCH   3  13
BRANCH  10  29
HETATM   29  C   UNL     1      -7.410   7.407  63.371  1.00  0.00    -0.087 C  
HETATM   30  H   UNL     1      -8.438   7.621  61.755  1.00  0.00     0.000 HD 
HETATM   31  O   UNL     1      -8.364   8.105  62.569  1.00  0.00    -0.178 OA 
HETATM   32  C   UNL     1      -7.892   5.985  63.608  1.00  0.00    -0.112 C  
ENDBRANCH  10  29
TORSDOF 6
ENDMDL
MODEL      214
REMARK 921   NORMALIZED FREE ENERGY PREDICTED BY IDOCK:   -3.37 KCAL/MOL
REMARK 922        TOTAL FREE ENERGY PREDICTED BY IDOCK:   -5.44 KCAL/MOL
REMARK 923 INTER-LIGAND FREE ENERGY PREDICTED BY IDOCK:   -4.53 KCAL/MOL
REMARK 924 INTRA-LIGAND FREE ENERGY PREDICTED BY IDOCK:   -0.91 KCAL/MOL
REMARK 927      BINDING AFFINITY PREDICTED BY RF-SCORE:    0.00 PKD
ROOT
HETATM    1  C   UNL     1      -7.175   6.126  70.796  1.00  0.00    -0.074 C  
HETATM    2  C   UNL     1      -6.873   5.864  69.313  1.00  0.00    -0.062 C  
HETATM    3  C   UNL     1      -6.888   7.261  68.730  1.00  0.00    -0.073 C  
HETATM    4  C   UNL     1      -7.865   4.863  68.733  1.00  0.00    -0.077 C  
HETATM    5  O   UNL     1      -7.978  10.312  70.438  1.00  0.00    -0.111 OA 
HETATM    6  C   UNL     1      -7.154   8.179  69.684  1.00  0.00    -0.057 C  
HETATM    7  N   UNL     1      -7.274   7.605  70.943  1.00  0.00    -0.061 N  
HETATM    8  O   UNL     1      -9.170   8.487  71.963  1.00  0.00    -0.213 OA 
HETATM    9  C   UNL     1      -7.284   9.662  69.479  1.00  0.00    -0.080 C  
HETATM   10  C   UNL     1      -8.592   6.050  71.449  1.00  0.00    -0.129 C  
HETATM   11  O   UNL     1      -6.786  10.274  68.546  1.00  0.00    -0.060 OA 
HETATM   12  C   UNL     1      -8.465   7.568  71.614  1.00  0.00    -0.111 C  
ENDROOT
BRANCH   3  13
HETATM   13  S   UNL     1      -6.679   7.593  67.052  1.00  0.00    -0.069 SA 
BRANCH  13  14
HETATM   14  C   UNL     1      -8.230   7.072  66.239  1.00  0.00    -0.120 C  
HETATM   15  N   UNL     1      -8.901   8.840  64.780  1.00  0.00    -0.396 NA 
HETATM   16  C   UNL     1      -8.405   7.465  64.771  1.00  0.00     0.008 C  
HETATM   17  C   UNL     1      -9.394   7.807  66.915  1.00  0.00    -0.212 C  
HETATM   18  C   UNL     1      -9.791   8.937  65.960  1.00  0.00    -0.207 C  
HETATM   19  H   UNL     1      -9.348   9.119  63.907  1.00  0.00     0.000 HD 
BRANCH  18  20
HETATM   20  C   UNL     1      -9.713  10.354  66.568  1.00  0.00    -0.194 C  
BRANCH  20  21
HETATM   21  N   UNL     1     -11.050  10.756  67.127  1.00  0.00    -0.274 N  
HETATM   22  H   UNL     1     -11.612  10.127  67.700  1.00  0.00     0.000 HD 
BRANCH  21  23
HETATM   23  S   UNL     1     -11.552  12.302  66.747  1.00  0.00    -0.345 S  
HETATM   24  O   UNL     1     -12.309  12.241  65.520  1.00  0.00    -0.602 OA 
HETATM   25  N   UNL     1     -10.071  12.915  66.357  1.00  0.00    -0.263 N  
HETATM   26  O   UNL     1     -12.016  12.952  67.942  1.00  0.00    -0.349 OA 
HETATM   27  H2  UNL     1      -9.146  12.488  66.349  1.00  0.00     0.000 HD 
HETATM   28  H1  UNL     1     -10.378  13.860  66.124  1.00  0.00     0.000 HD 
ENDBRANCH  21  23
ENDBRANCH  20  21
ENDBRANCH  18  20
ENDBRANCH  13  14
ENDBRANCH   3  13
BRANCH  10  29
HETATM   29  C   UNL     1      -8.654   5.175  72.684  1.00  0.00    -0.117 C  
HETATM   30  H   UNL     1      -8.347   3.305  73.039  1.00  0.00     0.000 HD 
HETATM   31  O   UNL     1      -8.308   3.854  72.264  1.00  0.00    -0.090 OA 
HETATM   32  C   UNL     1     -10.047   5.164  73.292  1.00  0.00    -0.198 C  
ENDBRANCH  10  29
TORSDOF 6
ENDMDL
MODEL      215
REMARK 921   NORMALIZED FREE ENERGY PREDICTED BY IDOCK:   -3.35 KCAL/MOL
REMARK 922        TOTAL FREE ENERGY PREDICTED BY IDOCK:   -5.40 KCAL/MOL
REMARK 923 INTER-LIGAND FREE ENERGY PREDICTED BY IDOCK:   -4.43 KCAL/MOL
REMARK 924 INTRA-LIGAND FREE ENERGY PREDICTED BY IDOCK:   -0.97 KCAL/MOL
REMARK 927      BINDING AFFINITY PREDICTED BY RF-SCORE:    0.00 PKD
ROOT
HETATM    1  C   UNL     1      -9.790   7.798  69.620  1.00  0.00    -0.182 C  
HETATM    2  C   UNL     1      -9.729   9.286  69.248  1.00  0.00    -0.169 C  
HETATM    3  C   UNL     1      -8.274   9.621  69.494  1.00  0.00    -0.136 C  
HETATM    4  C   UNL     1     -10.763  10.079  70.039  1.00  0.00    -0.348 C  
HETATM    5  O   UNL     1      -5.801   7.470  71.131  1.00  0.00    -0.035 OA 
HETATM    6  C   UNL     1      -7.597   8.537  69.934  1.00  0.00    -0.071 C  
HETATM    7  N   UNL     1      -8.398   7.404  69.976  1.00  0.00    -0.135 N  
HETATM    8  O   UNL     1      -8.042   6.343  72.016  1.00  0.00    -0.108 OA 
HETATM    9  C   UNL     1      -6.145   8.492  70.316  1.00  0.00    -0.030 C  
HETATM   10  C   UNL     1     -10.217   7.239  71.014  1.00  0.00    -0.198 C  
HETATM   11  O   UNL     1      -5.302   9.279  69.915  1.00  0.00    -0.032 OA 
HETATM   12  C   UNL     1      -8.753   6.809  71.156  1.00  0.00    -0.136 C  
ENDROOT
BRANCH   3  13
HETATM   13  S   UNL     1      -7.618  11.204  69.314  1.00  0.00     0.005 SA 
BRANCH  13  14
HETATM   14  C   UNL     1      -7.538  11.515  67.515  1.00  0.00    -0.121 C  
HETATM   15  N   UNL     1      -7.668  13.877  67.191  1.00  0.00    -0.362 NA 
HETATM   16  C   UNL     1      -6.751  12.746  67.063  1.00  0.00     0.219 C  
HETATM   17  C   UNL     1      -8.954  11.832  67.022  1.00  0.00    -0.186 C  
HETATM   18  C   UNL     1      -9.006  13.352  66.835  1.00  0.00    -0.209 C  
HETATM   19  H   UNL     1      -7.390  14.692  66.645  1.00  0.00     0.000 HD 
BRANCH  18  20
HETATM   20  C   UNL     1     -10.094  14.068  67.662  1.00  0.00    -0.241 C  
BRANCH  20  21
HETATM   21  N   UNL     1      -9.853  15.553  67.668  1.00  0.00    -0.213 N  
HETATM   22  H   UNL     1      -9.953  16.124  66.829  1.00  0.00     0.000 HD 
BRANCH  21  23
HETATM   23  S   UNL     1      -9.411  16.203  69.141  1.00  0.00    -0.216 S  
HETATM   24  O   UNL     1     -10.605  16.659  69.810  1.00  0.00    -0.302 OA 
HETATM   25  N   UNL     1      -8.655  17.549  68.559  1.00  0.00    -0.275 N  
HETATM   26  O   UNL     1      -8.426  15.352  69.752  1.00  0.00    -0.209 OA 
HETATM   27  H2  UNL     1      -8.505  17.879  67.606  1.00  0.00     0.000 HD 
HETATM   28  H1  UNL     1      -8.385  17.946  69.459  1.00  0.00     0.000 HD 
ENDBRANCH  21  23
ENDBRANCH  20  21
ENDBRANCH  18  20
ENDBRANCH  13  14
ENDBRANCH   3  13
BRANCH  10  29
HETATM   29  C   UNL     1     -11.296   6.177  70.947  1.00  0.00    -0.287 C  
HETATM   30  H   UNL     1     -11.776   4.810  69.676  1.00  0.00     0.000 HD 
HETATM   31  O   UNL     1     -11.100   5.475  69.718  1.00  0.00    -0.256 OA 
HETATM   32  C   UNL     1     -12.686   6.791  70.962  1.00  0.00    -0.197 C  
ENDBRANCH  10  29
TORSDOF 6
ENDMDL
MODEL      216
REMARK 921   NORMALIZED FREE ENERGY PREDICTED BY IDOCK:   -3.33 KCAL/MOL
REMARK 922        TOTAL FREE ENERGY PREDICTED BY IDOCK:   -5.38 KCAL/MOL
REMARK 923 INTER-LIGAND FREE ENERGY PREDICTED BY IDOCK:   -4.20 KCAL/MOL
REMARK 924 INTRA-LIGAND FREE ENERGY PREDICTED BY IDOCK:   -1.18 KCAL/MOL
REMARK 927      BINDING AFFINITY PREDICTED BY RF-SCORE:    0.00 PKD
ROOT
HETATM    1  C   UNL     1      -7.206   5.757  70.847  1.00  0.00    -0.080 C  
HETATM    2  C   UNL     1      -7.920   6.028  69.514  1.00  0.00    -0.106 C  
HETATM    3  C   UNL     1      -7.621   7.493  69.281  1.00  0.00    -0.100 C  
HETATM    4  C   UNL     1      -9.388   5.629  69.603  1.00  0.00    -0.171 C  
HETATM    5  O   UNL     1      -6.086   9.801  71.675  1.00  0.00    -0.272 OA 
HETATM    6  C   UNL     1      -6.874   8.000  70.286  1.00  0.00    -0.037 C  
HETATM    7  N   UNL     1      -6.530   7.031  71.219  1.00  0.00    -0.041 N  
HETATM    8  O   UNL     1      -6.915   7.902  73.342  1.00  0.00    -0.085 OA 
HETATM    9  C   UNL     1      -6.412   9.423  70.420  1.00  0.00    -0.071 C  
HETATM   10  C   UNL     1      -7.884   5.803  72.253  1.00  0.00    -0.103 C  
HETATM   11  O   UNL     1      -6.295  10.199  69.484  1.00  0.00    -0.044 OA 
HETATM   12  C   UNL     1      -7.021   7.045  72.495  1.00  0.00    -0.065 C  
ENDROOT
BRANCH   3  13
HETATM   13  S   UNL     1      -8.241   8.389  67.946  1.00  0.00    -0.128 SA 
BRANCH  13  14
HETATM   14  C   UNL     1      -9.927   8.905  68.425  1.00  0.00    -0.178 C  
HETATM   15  N   UNL     1     -10.436  10.898  67.211  1.00  0.00    -0.219 NA 
HETATM   16  C   UNL     1     -10.809   9.489  67.320  1.00  0.00    -0.118 C  
HETATM   17  C   UNL     1      -9.806  10.081  69.402  1.00  0.00    -0.240 C  
HETATM   18  C   UNL     1     -10.128  11.340  68.590  1.00  0.00    -0.208 C  
HETATM   19  H   UNL     1     -11.139  11.472  66.745  1.00  0.00     0.000 HD 
BRANCH  18  20
HETATM   20  C   UNL     1      -9.006  12.400  68.570  1.00  0.00    -0.058 C  
BRANCH  20  21
HETATM   21  N   UNL     1      -9.585  13.777  68.745  1.00  0.00    -0.401 N  
HETATM   22  H   UNL     1      -9.671  14.219  69.660  1.00  0.00     0.000 HD 
BRANCH  21  23
HETATM   23  S   UNL     1     -10.079  14.533  67.341  1.00  0.00    -0.236 S  
HETATM   24  O   UNL     1     -11.367  13.997  66.969  1.00  0.00    -0.306 OA 
HETATM   25  N   UNL     1      -8.973  13.844  66.330  1.00  0.00    -0.470 N  
HETATM   26  O   UNL     1      -9.796  15.938  67.441  1.00  0.00    -0.230 OA 
HETATM   27  H2  UNL     1      -8.227  13.172  66.506  1.00  0.00     0.000 HD 
HETATM   28  H1  UNL     1      -9.275  14.306  65.472  1.00  0.00     0.000 HD 
ENDBRANCH  21  23
ENDBRANCH  20  21
ENDBRANCH  18  20
ENDBRANCH  13  14
ENDBRANCH   3  13
BRANCH  10  29
HETATM   29  C   UNL     1      -7.647   4.562  73.090  1.00  0.00    -0.086 C  
HETATM   30  H   UNL     1      -7.325   2.702  72.699  1.00  0.00     0.000 HD 
HETATM   31  O   UNL     1      -7.473   3.480  72.174  1.00  0.00    -0.053 OA 
HETATM   32  C   UNL     1      -8.827   4.269  74.002  1.00  0.00    -0.095 C  
ENDBRANCH  10  29
TORSDOF 6
ENDMDL
MODEL      217
REMARK 921   NORMALIZED FREE ENERGY PREDICTED BY IDOCK:   -3.31 KCAL/MOL
REMARK 922        TOTAL FREE ENERGY PREDICTED BY IDOCK:   -5.36 KCAL/MOL
REMARK 923 INTER-LIGAND FREE ENERGY PREDICTED BY IDOCK:   -5.63 KCAL/MOL
REMARK 924 INTRA-LIGAND FREE ENERGY PREDICTED BY IDOCK:    0.26 KCAL/MOL
REMARK 927      BINDING AFFINITY PREDICTED BY RF-SCORE:    0.00 PKD
ROOT
HETATM    1  C   UNL     1      -6.786   5.240  65.799  1.00  0.00    -0.064 C  
HETATM    2  C   UNL     1      -6.786   6.681  66.330  1.00  0.00    -0.049 C  
HETATM    3  C   UNL     1      -8.240   6.891  66.693  1.00  0.00    -0.115 C  
HETATM    4  C   UNL     1      -6.188   7.631  65.299  1.00  0.00    -0.038 C  
HETATM    5  O   UNL     1     -11.022   4.648  65.889  1.00  0.00    -0.195 OA 
HETATM    6  C   UNL     1      -8.969   5.785  66.425  1.00  0.00    -0.137 C  
HETATM    7  N   UNL     1      -8.182   4.742  65.956  1.00  0.00    -0.110 N  
HETATM    8  O   UNL     1      -9.237   3.818  64.100  1.00  0.00    -0.127 OA 
HETATM    9  C   UNL     1     -10.450   5.629  66.621  1.00  0.00    -0.279 C  
HETATM   10  C   UNL     1      -6.901   4.838  64.294  1.00  0.00    -0.048 C  
HETATM   11  O   UNL     1     -11.117   6.296  67.397  1.00  0.00    -0.350 OA 
HETATM   12  C   UNL     1      -8.277   4.281  64.672  1.00  0.00    -0.104 C  
ENDROOT
BRANCH   3  13
HETATM   13  S   UNL     1      -8.866   8.384  67.283  1.00  0.00    -0.131 SA 
BRANCH  13  14
HETATM   14  C   UNL     1      -8.169   9.684  66.206  1.00  0.00    -0.116 C  
HETATM   15  N   UNL     1      -8.747  11.793  67.165  1.00  0.00    -0.162 NA 
HETATM   16  C   UNL     1      -7.602  10.924  66.899  1.00  0.00    -0.128 C  
HETATM   17  C   UNL     1      -9.311  10.272  65.368  1.00  0.00    -0.258 C  
HETATM   18  C   UNL     1      -9.662  11.615  66.015  1.00  0.00    -0.232 C  
HETATM   19  H   UNL     1      -8.490  12.765  67.337  1.00  0.00     0.000 HD 
BRANCH  18  20
HETATM   20  C   UNL     1     -11.129  11.745  66.480  1.00  0.00    -0.310 C  
BRANCH  20  21
HETATM   21  N   UNL     1     -11.806  12.877  65.758  1.00  0.00    -0.396 N  
HETATM   22  H   UNL     1     -12.425  13.533  66.234  1.00  0.00     0.000 HD 
BRANCH  21  23
HETATM   23  S   UNL     1     -11.477  12.988  64.125  1.00  0.00    -0.427 S  
HETATM   24  O   UNL     1     -10.118  13.447  63.969  1.00  0.00    -0.286 OA 
HETATM   25  N   UNL     1     -12.451  14.279  63.800  1.00  0.00    -1.040 N  
HETATM   26  O   UNL     1     -12.012  11.831  63.460  1.00  0.00    -0.482 OA 
HETATM   27  H2  UNL     1     -13.059  14.833  64.403  1.00  0.00     0.000 HD 
HETATM   28  H1  UNL     1     -12.249  14.346  62.803  1.00  0.00     0.000 HD 
ENDBRANCH  21  23
ENDBRANCH  20  21
ENDBRANCH  18  20
ENDBRANCH  13  14
ENDBRANCH   3  13
BRANCH  10  29
HETATM   29  C   UNL     1      -5.820   3.884  63.829  1.00  0.00    -0.014 C  
HETATM   30  H   UNL     1      -5.750   2.414  62.584  1.00  0.00     0.000 HD 
HETATM   31  O   UNL     1      -6.429   3.012  62.875  1.00  0.00    -0.017 OA 
HETATM   32  C   UNL     1      -5.264   3.064  64.981  1.00  0.00    -0.009 C  
ENDBRANCH  10  29
TORSDOF 6
ENDMDL
MODEL      218
REMARK 921   NORMALIZED FREE ENERGY PREDICTED BY IDOCK:   -3.28 KCAL/MOL
REMARK 922        TOTAL FREE ENERGY PREDICTED BY IDOCK:   -5.31 KCAL/MOL
REMARK 923 INTER-LIGAND FREE ENERGY PREDICTED BY IDOCK:   -4.31 KCAL/MOL
REMARK 924 INTRA-LIGAND FREE ENERGY PREDICTED BY IDOCK:   -1.00 KCAL/MOL
REMARK 927      BINDING AFFINITY PREDICTED BY RF-SCORE:    0.00 PKD
ROOT
HETATM    1  C   UNL     1     -10.395   5.175  71.264  1.00  0.00    -0.205 C  
HETATM    2  C   UNL     1     -10.930   6.558  70.863  1.00  0.00    -0.325 C  
HETATM    3  C   UNL     1     -10.343   6.741  69.480  1.00  0.00    -0.202 C  
HETATM    4  C   UNL     1     -10.562   7.600  71.912  1.00  0.00    -0.257 C  
HETATM    5  O   UNL     1      -7.826   4.606  67.891  1.00  0.00    -0.081 OA 
HETATM    6  C   UNL     1      -9.597   5.672  69.126  1.00  0.00    -0.135 C  
HETATM    7  N   UNL     1      -9.624   4.675  70.092  1.00  0.00    -0.176 N  
HETATM    8  O   UNL     1      -7.443   3.944  70.438  1.00  0.00    -0.041 OA 
HETATM    9  C   UNL     1      -8.831   5.508  67.844  1.00  0.00    -0.105 C  
HETATM   10  C   UNL     1      -9.107   4.924  72.112  1.00  0.00    -0.148 C  
HETATM   11  O   UNL     1      -9.089   6.100  66.807  1.00  0.00    -0.125 OA 
HETATM   12  C   UNL     1      -8.518   4.342  70.823  1.00  0.00    -0.078 C  
ENDROOT
BRANCH   3  13
HETATM   13  S   UNL     1     -10.547   8.173  68.543  1.00  0.00    -0.034 SA 
BRANCH  13  14
HETATM   14  C   UNL     1      -9.303   9.360  69.161  1.00  0.00    -0.159 C  
HETATM   15  N   UNL     1      -8.764  10.834  67.360  1.00  0.00    -0.126 NA 
HETATM   16  C   UNL     1      -9.421  10.802  68.666  1.00  0.00    -0.188 C  
HETATM   17  C   UNL     1      -7.931   8.940  68.619  1.00  0.00    -0.103 C  
HETATM   18  C   UNL     1      -7.623   9.896  67.462  1.00  0.00    -0.091 C  
HETATM   19  H   UNL     1      -8.498  11.771  67.059  1.00  0.00     0.000 HD 
BRANCH  18  20
HETATM   20  C   UNL     1      -7.379   9.208  66.102  1.00  0.00    -0.095 C  
BRANCH  20  21
HETATM   21  N   UNL     1      -8.448   9.601  65.119  1.00  0.00    -0.141 N  
HETATM   22  H   UNL     1      -9.327  10.027  65.412  1.00  0.00     0.000 HD 
BRANCH  21  23
HETATM   23  S   UNL     1      -8.098   9.293  63.516  1.00  0.00    -0.165 S  
HETATM   24  O   UNL     1      -7.129  10.266  63.071  1.00  0.00    -0.135 OA 
HETATM   25  N   UNL     1      -9.552   9.757  62.890  1.00  0.00    -0.547 N  
HETATM   26  O   UNL     1      -7.951   7.875  63.333  1.00  0.00    -0.147 OA 
HETATM   27  H2  UNL     1     -10.394  10.116  63.338  1.00  0.00     0.000 HD 
HETATM   28  H1  UNL     1      -9.338   9.568  61.911  1.00  0.00     0.000 HD 
ENDBRANCH  21  23
ENDBRANCH  20  21
ENDBRANCH  18  20
ENDBRANCH  13  14
ENDBRANCH   3  13
BRANCH  10  29
HETATM   29  C   UNL     1      -9.325   4.013  73.303  1.00  0.00    -0.111 C  
HETATM   30  H   UNL     1     -10.208   2.321  73.575  1.00  0.00     0.000 HD 
HETATM   31  O   UNL     1     -10.071   2.892  72.827  1.00  0.00    -0.135 OA 
HETATM   32  C   UNL     1     -10.107   4.710  74.405  1.00  0.00    -0.255 C  
ENDBRANCH  10  29
TORSDOF 6
ENDMDL
MODEL      219
REMARK 921   NORMALIZED FREE ENERGY PREDICTED BY IDOCK:   -3.27 KCAL/MOL
REMARK 922        TOTAL FREE ENERGY PREDICTED BY IDOCK:   -5.30 KCAL/MOL
REMARK 923 INTER-LIGAND FREE ENERGY PREDICTED BY IDOCK:   -4.04 KCAL/MOL
REMARK 924 INTRA-LIGAND FREE ENERGY PREDICTED BY IDOCK:   -1.26 KCAL/MOL
REMARK 927      BINDING AFFINITY PREDICTED BY RF-SCORE:    0.00 PKD
ROOT
HETATM    1  C   UNL     1     -11.674   8.114  70.560  1.00  0.00    -0.063 C  
HETATM    2  C   UNL     1     -10.657   8.248  69.417  1.00  0.00    -0.203 C  
HETATM    3  C   UNL     1      -9.926   6.924  69.480  1.00  0.00    -0.164 C  
HETATM    4  C   UNL     1      -9.818   9.508  69.591  1.00  0.00    -0.220 C  
HETATM    5  O   UNL     1     -10.224   4.405  72.123  1.00  0.00    -0.186 OA 
HETATM    6  C   UNL     1     -10.413   6.150  70.475  1.00  0.00    -0.234 C  
HETATM    7  N   UNL     1     -11.487   6.747  71.122  1.00  0.00    -0.296 N  
HETATM    8  O   UNL     1     -11.159   6.534  73.415  1.00  0.00    -0.201 OA 
HETATM    9  C   UNL     1      -9.916   4.787  70.864  1.00  0.00    -0.213 C  
HETATM   10  C   UNL     1     -11.466   8.649  72.013  1.00  0.00    -0.437 C  
HETATM   11  O   UNL     1      -9.307   4.036  70.117  1.00  0.00    -0.133 OA 
HETATM   12  C   UNL     1     -11.408   7.172  72.419  1.00  0.00    -0.274 C  
ENDROOT
BRANCH   3  13
HETATM   13  S   UNL     1      -8.595   6.524  68.462  1.00  0.00    -0.123 SA 
BRANCH  13  14
HETATM   14  C   UNL     1      -7.119   7.260  69.249  1.00  0.00    -0.079 C  
HETATM   15  N   UNL     1      -5.201   6.184  68.318  1.00  0.00    -0.004 NA 
HETATM   16  C   UNL     1      -5.895   7.470  68.357  1.00  0.00    -0.027 C  
HETATM   17  C   UNL     1      -6.594   6.272  70.297  1.00  0.00    -0.045 C  
HETATM   18  C   UNL     1      -5.374   5.594  69.665  1.00  0.00    -0.004 C  
HETATM   19  H   UNL     1      -4.227   6.254  68.024  1.00  0.00     0.000 HD 
BRANCH  18  20
HETATM   20  C   UNL     1      -5.470   4.057  69.562  1.00  0.00    -0.016 C  
BRANCH  20  21
HETATM   21  N   UNL     1      -5.131   3.605  68.168  1.00  0.00    -0.007 N  
HETATM   22  H   UNL     1      -4.175   3.600  67.815  1.00  0.00     0.000 HD 
BRANCH  21  23
HETATM   23  S   UNL     1      -6.427   3.111  67.238  1.00  0.00    -0.037 S  
HETATM   24  O   UNL     1      -7.311   2.334  68.072  1.00  0.00    -0.047 OA 
HETATM   25  N   UNL     1      -5.609   2.037  66.290  1.00  0.00    -0.013 N  
HETATM   26  O   UNL     1      -6.860   4.210  66.418  1.00  0.00    -0.052 OA 
HETATM   27  H2  UNL     1      -4.627   1.762  66.276  1.00  0.00     0.000 HD 
HETATM   28  H1  UNL     1      -6.401   1.736  65.722  1.00  0.00     0.000 HD 
ENDBRANCH  21  23
ENDBRANCH  20  21
ENDBRANCH  18  20
ENDBRANCH  13  14
ENDBRANCH   3  13
BRANCH  10  29
HETATM   29  C   UNL     1     -12.604   9.511  72.519  1.00  0.00    -0.066 C  
HETATM   30  H   UNL     1     -14.513   9.288  72.670  1.00  0.00     0.000 HD 
HETATM   31  O   UNL     1     -13.799   8.746  72.352  1.00  0.00    -0.428 OA 
HETATM   32  C   UNL     1     -12.718  10.805  71.730  1.00  0.00    -0.464 C  
ENDBRANCH  10  29
TORSDOF 6
ENDMDL
MODEL      220
REMARK 921   NORMALIZED FREE ENERGY PREDICTED BY IDOCK:   -3.25 KCAL/MOL
REMARK 922        TOTAL FREE ENERGY PREDICTED BY IDOCK:   -5.27 KCAL/MOL
REMARK 923 INTER-LIGAND FREE ENERGY PREDICTED BY IDOCK:   -4.31 KCAL/MOL
REMARK 924 INTRA-LIGAND FREE ENERGY PREDICTED BY IDOCK:   -0.97 KCAL/MOL
REMARK 927      BINDING AFFINITY PREDICTED BY RF-SCORE:    0.00 PKD
ROOT
HETATM    1  C   UNL     1      -7.926   9.347  68.999  1.00  0.00    -0.091 C  
HETATM    2  C   UNL     1      -6.998  10.556  68.814  1.00  0.00    -0.070 C  
HETATM    3  C   UNL     1      -7.891  11.538  68.085  1.00  0.00    -0.128 C  
HETATM    4  C   UNL     1      -5.711  10.141  68.111  1.00  0.00    -0.038 C  
HETATM    5  O   UNL     1     -11.195  10.828  66.671  1.00  0.00    -0.173 OA 
HETATM    6  C   UNL     1      -9.116  11.011  67.873  1.00  0.00    -0.147 C  
HETATM    7  N   UNL     1      -9.245   9.748  68.435  1.00  0.00    -0.129 N  
HETATM    8  O   UNL     1     -10.239   8.353  66.860  1.00  0.00    -0.265 OA 
HETATM    9  C   UNL     1     -10.256  11.673  67.152  1.00  0.00    -0.213 C  
HETATM   10  C   UNL     1      -7.988   8.110  68.047  1.00  0.00    -0.127 C  
HETATM   11  O   UNL     1     -10.378  12.881  67.019  1.00  0.00    -0.240 OA 
HETATM   12  C   UNL     1      -9.382   8.623  67.670  1.00  0.00    -0.137 C  
ENDROOT
BRANCH   3  13
HETATM   13  S   UNL     1      -7.356  13.080  67.534  1.00  0.00    -0.131 SA 
BRANCH  13  14
HETATM   14  C   UNL     1      -7.334  14.162  69.007  1.00  0.00    -0.102 C  
HETATM   15  N   UNL     1      -8.634  16.098  68.492  1.00  0.00    -0.192 NA 
HETATM   16  C   UNL     1      -8.629  14.905  69.336  1.00  0.00    -0.054 C  
HETATM   17  C   UNL     1      -6.357  15.313  68.739  1.00  0.00    -0.094 C  
HETATM   18  C   UNL     1      -7.221  16.532  68.403  1.00  0.00    -0.169 C  
HETATM   19  H   UNL     1      -9.266  16.828  68.819  1.00  0.00     0.000 HD 
BRANCH  18  20
HETATM   20  C   UNL     1      -6.945  17.158  67.019  1.00  0.00    -0.193 C  
BRANCH  20  21
HETATM   21  N   UNL     1      -8.195  17.794  66.475  1.00  0.00    -0.258 N  
HETATM   22  H   UNL     1      -8.826  17.301  65.843  1.00  0.00     0.000 HD 
BRANCH  21  23
HETATM   23  S   UNL     1      -8.480  19.361  66.975  1.00  0.00    -0.300 S  
HETATM   24  O   UNL     1      -9.393  19.318  68.092  1.00  0.00    -0.315 OA 
HETATM   25  N   UNL     1      -9.361  19.843  65.667  1.00  0.00    -0.202 N  
HETATM   26  O   UNL     1      -7.238  20.084  66.984  1.00  0.00    -0.223 OA 
HETATM   27  H2  UNL     1      -9.642  19.345  64.823  1.00  0.00     0.000 HD 
HETATM   28  H1  UNL     1      -9.535  20.800  65.973  1.00  0.00     0.000 HD 
ENDBRANCH  21  23
ENDBRANCH  20  21
ENDBRANCH  18  20
ENDBRANCH  13  14
ENDBRANCH   3  13
BRANCH  10  29
HETATM   29  C   UNL     1      -7.858   6.779  68.759  1.00  0.00    -0.111 C  
HETATM   30  H   UNL     1      -9.103   5.458  69.406  1.00  0.00     0.000 HD 
HETATM   31  O   UNL     1      -9.186   6.292  68.959  1.00  0.00    -0.128 OA 
HETATM   32  C   UNL     1      -7.167   6.931  70.105  1.00  0.00    -0.076 C  
ENDBRANCH  10  29
TORSDOF 6
ENDMDL
MODEL      221
REMARK 921   NORMALIZED FREE ENERGY PREDICTED BY IDOCK:   -3.25 KCAL/MOL
REMARK 922        TOTAL FREE ENERGY PREDICTED BY IDOCK:   -5.27 KCAL/MOL
REMARK 923 INTER-LIGAND FREE ENERGY PREDICTED BY IDOCK:   -4.40 KCAL/MOL
REMARK 924 INTRA-LIGAND FREE ENERGY PREDICTED BY IDOCK:   -0.87 KCAL/MOL
REMARK 927      BINDING AFFINITY PREDICTED BY RF-SCORE:    0.00 PKD
ROOT
HETATM    1  C   UNL     1     -10.267   5.218  70.618  1.00  0.00    -0.257 C  
HETATM    2  C   UNL     1     -10.192   6.655  70.084  1.00  0.00    -0.215 C  
HETATM    3  C   UNL     1      -9.377   6.486  68.820  1.00  0.00    -0.130 C  
HETATM    4  C   UNL     1      -9.631   7.593  71.146  1.00  0.00    -0.168 C  
HETATM    5  O   UNL     1      -7.606   3.456  67.769  1.00  0.00    -0.064 OA 
HETATM    6  C   UNL     1      -9.029   5.193  68.638  1.00  0.00    -0.105 C  
HETATM    7  N   UNL     1      -9.565   4.367  69.616  1.00  0.00    -0.189 N  
HETATM    8  O   UNL     1      -7.883   2.945  70.365  1.00  0.00    -0.043 OA 
HETATM    9  C   UNL     1      -8.192   4.647  67.516  1.00  0.00    -0.101 C  
HETATM   10  C   UNL     1      -9.306   4.607  71.687  1.00  0.00    -0.195 C  
HETATM   11  O   UNL     1      -8.055   5.191  66.431  1.00  0.00    -0.107 OA 
HETATM   12  C   UNL     1      -8.782   3.734  70.542  1.00  0.00    -0.073 C  
ENDROOT
BRANCH   3  13
HETATM   13  S   UNL     1      -8.897   7.801  67.815  1.00  0.00    -0.125 SA 
BRANCH  13  14
HETATM   14  C   UNL     1     -10.292   8.981  67.829  1.00  0.00    -0.246 C  
HETATM   15  N   UNL     1      -9.708  10.797  66.391  1.00  0.00    -0.192 NA 
HETATM   16  C   UNL     1     -10.628   9.667  66.504  1.00  0.00    -0.072 C  
HETATM   17  C   UNL     1      -9.906  10.166  68.721  1.00  0.00    -0.180 C  
HETATM   18  C   UNL     1      -9.528  11.306  67.770  1.00  0.00    -0.170 C  
HETATM   19  H   UNL     1     -10.014  11.509  65.728  1.00  0.00     0.000 HD 
BRANCH  18  20
HETATM   20  C   UNL     1      -8.095  11.851  67.951  1.00  0.00    -0.147 C  
BRANCH  20  21
HETATM   21  N   UNL     1      -7.546  11.439  69.290  1.00  0.00    -0.334 N  
HETATM   22  H   UNL     1      -8.050  10.810  69.915  1.00  0.00     0.000 HD 
BRANCH  21  23
HETATM   23  S   UNL     1      -6.056  12.081  69.684  1.00  0.00    -0.138 S  
HETATM   24  O   UNL     1      -5.944  13.376  69.059  1.00  0.00    -0.075 OA 
HETATM   25  N   UNL     1      -5.137  11.045  68.789  1.00  0.00    -0.041 N  
HETATM   26  O   UNL     1      -5.795  11.839  71.077  1.00  0.00    -0.375 OA 
HETATM   27  H2  UNL     1      -5.395  10.263  68.187  1.00  0.00     0.000 HD 
HETATM   28  H1  UNL     1      -4.227  11.437  69.029  1.00  0.00     0.000 HD 
ENDBRANCH  21  23
ENDBRANCH  20  21
ENDBRANCH  18  20
ENDBRANCH  13  14
ENDBRANCH   3  13
BRANCH  10  29
HETATM   29  C   UNL     1     -10.019   3.949  72.851  1.00  0.00    -0.146 C  
HETATM   30  H   UNL     1     -10.763   2.201  73.175  1.00  0.00     0.000 HD 
HETATM   31  O   UNL     1     -10.315   2.612  72.445  1.00  0.00    -0.162 OA 
HETATM   32  C   UNL     1     -11.312   4.672  73.194  1.00  0.00    -0.355 C  
ENDBRANCH  10  29
TORSDOF 6
ENDMDL
MODEL      222
REMARK 921   NORMALIZED FREE ENERGY PREDICTED BY IDOCK:   -3.20 KCAL/MOL
REMARK 922        TOTAL FREE ENERGY PREDICTED BY IDOCK:   -5.20 KCAL/MOL
REMARK 923 INTER-LIGAND FREE ENERGY PREDICTED BY IDOCK:   -5.41 KCAL/MOL
REMARK 924 INTRA-LIGAND FREE ENERGY PREDICTED BY IDOCK:    0.21 KCAL/MOL
REMARK 927      BINDING AFFINITY PREDICTED BY RF-SCORE:    0.00 PKD
ROOT
HETATM    1  C   UNL     1      -8.045  13.998  67.433  1.00  0.00    -0.185 C  
HETATM    2  C   UNL     1      -8.563  12.632  66.961  1.00  0.00    -0.181 C  
HETATM    3  C   UNL     1      -9.972  12.613  67.513  1.00  0.00    -0.205 C  
HETATM    4  C   UNL     1      -7.628  11.518  67.418  1.00  0.00    -0.135 C  
HETATM    5  O   UNL     1     -11.415  15.028  69.859  1.00  0.00    -0.256 OA 
HETATM    6  C   UNL     1     -10.241  13.752  68.188  1.00  0.00    -0.253 C  
HETATM    7  N   UNL     1      -9.184  14.651  68.138  1.00  0.00    -0.186 N  
HETATM    8  O   UNL     1      -8.826  15.469  70.286  1.00  0.00     0.318 OA 
HETATM    9  C   UNL     1     -11.521  14.080  68.903  1.00  0.00    -0.294 C  
HETATM   10  C   UNL     1      -7.211  14.242  68.731  1.00  0.00    -0.129 C  
HETATM   11  O   UNL     1     -12.603  13.574  68.645  1.00  0.00     0.124 OA 
HETATM   12  C   UNL     1      -8.453  14.975  69.247  1.00  0.00    -0.167 C  
ENDROOT
BRANCH   3  13
HETATM   13  S   UNL     1     -11.036  11.267  67.358  1.00  0.00    -0.298 SA 
BRANCH  13  14
HETATM   14  C   UNL     1     -10.013   9.781  67.647  1.00  0.00    -0.174 C  
HETATM   15  N   UNL     1     -11.238   8.343  69.109  1.00  0.00    -0.359 NA 
HETATM   16  C   UNL     1     -10.749   8.443  67.735  1.00  0.00    -0.095 C  
HETATM   17  C   UNL     1      -9.383   9.898  69.040  1.00  0.00    -0.175 C  
HETATM   18  C   UNL     1     -10.197   8.974  69.952  1.00  0.00    -0.202 C  
HETATM   19  H   UNL     1     -11.471   7.391  69.391  1.00  0.00     0.000 HD 
BRANCH  18  20
HETATM   20  C   UNL     1     -10.849   9.673  71.164  1.00  0.00    -0.334 C  
BRANCH  20  21
HETATM   21  N   UNL     1     -12.346   9.684  71.018  1.00  0.00    -0.352 N  
HETATM   22  H   UNL     1     -12.823  10.288  70.349  1.00  0.00     0.000 HD 
BRANCH  21  23
HETATM   23  S   UNL     1     -13.174   8.640  72.024  1.00  0.00    -0.401 S  
HETATM   24  O   UNL     1     -12.217   7.748  72.633  1.00  0.00    -0.210 OA 
HETATM   25  N   UNL     1     -13.940   7.776  70.847  1.00  0.00    -0.551 N  
HETATM   26  O   UNL     1     -14.159   9.383  72.762  1.00  0.00    -0.417 OA 
HETATM   27  H2  UNL     1     -13.916   7.853  69.830  1.00  0.00     0.000 HD 
HETATM   28  H1  UNL     1     -14.445   7.138  71.461  1.00  0.00     0.000 HD 
ENDBRANCH  21  23
ENDBRANCH  20  21
ENDBRANCH  18  20
ENDBRANCH  13  14
ENDBRANCH   3  13
BRANCH  10  29
HETATM   29  C   UNL     1      -5.933  15.023  68.502  1.00  0.00    -0.094 C  
HETATM   30  H   UNL     1      -4.924  16.306  69.528  1.00  0.00     0.000 HD 
HETATM   31  O   UNL     1      -5.725  15.816  69.672  1.00  0.00    -0.116 OA 
HETATM   32  C   UNL     1      -6.042  15.931  67.289  1.00  0.00    -0.086 C  
ENDBRANCH  10  29
TORSDOF 6
ENDMDL
MODEL      223
REMARK 921   NORMALIZED FREE ENERGY PREDICTED BY IDOCK:   -3.12 KCAL/MOL
REMARK 922        TOTAL FREE ENERGY PREDICTED BY IDOCK:   -5.10 KCAL/MOL
REMARK 923 INTER-LIGAND FREE ENERGY PREDICTED BY IDOCK:   -3.98 KCAL/MOL
REMARK 924 INTRA-LIGAND FREE ENERGY PREDICTED BY IDOCK:   -1.12 KCAL/MOL
REMARK 927      BINDING AFFINITY PREDICTED BY RF-SCORE:    0.00 PKD
ROOT
HETATM    1  C   UNL     1     -10.978   8.076  70.481  1.00  0.00    -0.247 C  
HETATM    2  C   UNL     1     -10.865   9.255  69.503  1.00  0.00    -0.211 C  
HETATM    3  C   UNL     1      -9.405   9.636  69.626  1.00  0.00    -0.211 C  
HETATM    4  C   UNL     1     -11.890  10.331  69.839  1.00  0.00    -0.267 C  
HETATM    5  O   UNL     1      -7.033   8.365  72.111  1.00  0.00    -0.083 OA 
HETATM    6  C   UNL     1      -8.771   8.839  70.513  1.00  0.00    -0.174 C  
HETATM    7  N   UNL     1      -9.606   7.851  71.017  1.00  0.00    -0.159 N  
HETATM    8  O   UNL     1      -9.325   7.775  73.326  1.00  0.00    -0.217 OA 
HETATM    9  C   UNL     1      -7.329   8.938  70.924  1.00  0.00    -0.097 C  
HETATM   10  C   UNL     1     -11.450   8.186  71.966  1.00  0.00    -0.380 C  
HETATM   11  O   UNL     1      -6.454   9.457  70.247  1.00  0.00    -0.050 OA 
HETATM   12  C   UNL     1     -10.003   7.834  72.326  1.00  0.00    -0.203 C  
ENDROOT
BRANCH   3  13
HETATM   13  S   UNL     1      -8.699  10.973  68.798  1.00  0.00    -0.112 SA 
BRANCH  13  14
HETATM   14  C   UNL     1      -8.351  10.388  67.103  1.00  0.00    -0.126 C  
HETATM   15  N   UNL     1      -6.036   9.807  67.008  1.00  0.00    -0.054 NA 
HETATM   16  C   UNL     1      -7.374   9.220  66.964  1.00  0.00    -0.091 C  
HETATM   17  C   UNL     1      -7.626  11.511  66.350  1.00  0.00     0.027 C  
HETATM   18  C   UNL     1      -6.147  11.112  66.318  1.00  0.00    -0.117 C  
HETATM   19  H   UNL     1      -5.311   9.201  66.624  1.00  0.00     0.000 HD 
BRANCH  18  20
HETATM   20  C   UNL     1      -5.188  12.136  66.960  1.00  0.00    -0.043 C  
BRANCH  20  21
HETATM   21  N   UNL     1      -5.693  12.544  68.317  1.00  0.00    -0.058 N  
HETATM   22  H   UNL     1      -5.713  11.900  69.107  1.00  0.00     0.000 HD 
BRANCH  21  23
HETATM   23  S   UNL     1      -6.220  14.124  68.442  1.00  0.00    -0.115 S  
HETATM   24  O   UNL     1      -5.862  14.816  67.228  1.00  0.00    -0.303 OA 
HETATM   25  N   UNL     1      -5.149  14.613  69.597  1.00  0.00    -0.088 N  
HETATM   26  O   UNL     1      -7.541  14.133  69.009  1.00  0.00    -0.120 OA 
HETATM   27  H2  UNL     1      -4.403  14.112  70.080  1.00  0.00     0.000 HD 
HETATM   28  H1  UNL     1      -5.471  15.577  69.673  1.00  0.00     0.000 HD 
ENDBRANCH  21  23
ENDBRANCH  20  21
ENDBRANCH  18  20
ENDBRANCH  13  14
ENDBRANCH   3  13
BRANCH  10  29
HETATM   29  C   UNL     1     -12.559   7.220  72.331  1.00  0.00     0.093 C  
HETATM   30  H   UNL     1     -12.643   5.332  72.711  1.00  0.00     0.000 HD 
HETATM   31  O   UNL     1     -11.948   5.937  72.483  1.00  0.00    -0.274 OA 
HETATM   32  C   UNL     1     -13.619   7.149  71.244  1.00  0.00    -0.301 C  
ENDBRANCH  10  29
TORSDOF 6
ENDMDL
MODEL      224
REMARK 921   NORMALIZED FREE ENERGY PREDICTED BY IDOCK:   -3.07 KCAL/MOL
REMARK 922        TOTAL FREE ENERGY PREDICTED BY IDOCK:   -5.02 KCAL/MOL
REMARK 923 INTER-LIGAND FREE ENERGY PREDICTED BY IDOCK:   -4.36 KCAL/MOL
REMARK 924 INTRA-LIGAND FREE ENERGY PREDICTED BY IDOCK:   -0.67 KCAL/MOL
REMARK 927      BINDING AFFINITY PREDICTED BY RF-SCORE:    0.00 PKD
ROOT
HETATM    1  C   UNL     1      -9.533   5.588  71.687  1.00  0.00    -0.147 C  
HETATM    2  C   UNL     1      -9.771   7.101  71.578  1.00  0.00    -0.169 C  
HETATM    3  C   UNL     1      -8.996   7.460  70.328  1.00  0.00    -0.147 C  
HETATM    4  C   UNL     1      -9.363   7.802  72.868  1.00  0.00    -0.278 C  
HETATM    5  O   UNL     1      -6.703   5.269  68.495  1.00  0.00    -0.050 OA 
HETATM    6  C   UNL     1      -8.405   6.368  69.797  1.00  0.00    -0.127 C  
HETATM    7  N   UNL     1      -8.721   5.211  70.496  1.00  0.00    -0.117 N  
HETATM    8  O   UNL     1      -6.755   4.014  70.839  1.00  0.00    -0.030 OA 
HETATM    9  C   UNL     1      -7.527   6.337  68.578  1.00  0.00    -0.088 C  
HETATM   10  C   UNL     1      -8.422   4.915  72.554  1.00  0.00    -0.120 C  
HETATM   11  O   UNL     1      -7.550   7.177  67.691  1.00  0.00    -0.105 OA 
HETATM   12  C   UNL     1      -7.786   4.521  71.218  1.00  0.00    -0.077 C  
ENDROOT
BRANCH   3  13
HETATM   13  S   UNL     1      -8.835   9.071  69.739  1.00  0.00    -0.164 SA 
BRANCH  13  14
HETATM   14  C   UNL     1     -10.304   9.375  68.695  1.00  0.00    -0.203 C  
HETATM   15  N   UNL     1      -9.544  10.382  66.667  1.00  0.00    -0.172 NA 
HETATM   16  C   UNL     1     -10.139   9.154  67.191  1.00  0.00    -0.236 C  
HETATM   17  C   UNL     1     -10.641  10.869  68.770  1.00  0.00    -0.231 C  
HETATM   18  C   UNL     1     -10.132  11.484  67.462  1.00  0.00    -0.183 C  
HETATM   19  H   UNL     1      -9.662  10.496  65.661  1.00  0.00     0.000 HD 
BRANCH  18  20
HETATM   20  C   UNL     1      -9.102  12.619  67.640  1.00  0.00    -0.192 C  
BRANCH  20  21
HETATM   21  N   UNL     1      -9.483  13.806  66.799  1.00  0.00    -0.267 N  
HETATM   22  H   UNL     1      -9.605  13.742  65.789  1.00  0.00     0.000 HD 
BRANCH  21  23
HETATM   23  S   UNL     1      -9.694  15.238  67.632  1.00  0.00    -0.207 S  
HETATM   24  O   UNL     1     -10.138  16.243  66.696  1.00  0.00    -0.257 OA 
HETATM   25  N   UNL     1      -8.102  15.545  67.932  1.00  0.00    -0.135 N  
HETATM   26  O   UNL     1     -10.351  14.961  68.880  1.00  0.00    -0.230 OA 
HETATM   27  H2  UNL     1      -7.258  15.027  67.687  1.00  0.00     0.000 HD 
HETATM   28  H1  UNL     1      -8.231  16.419  68.440  1.00  0.00     0.000 HD 
ENDBRANCH  21  23
ENDBRANCH  20  21
ENDBRANCH  18  20
ENDBRANCH  13  14
ENDBRANCH   3  13
BRANCH  10  29
HETATM   29  C   UNL     1      -8.937   3.830  73.478  1.00  0.00    -0.095 C  
HETATM   30  H   UNL     1      -8.871   1.903  73.477  1.00  0.00     0.000 HD 
HETATM   31  O   UNL     1      -8.548   2.584  72.897  1.00  0.00    -0.069 OA 
HETATM   32  C   UNL     1     -10.451   3.877  73.606  1.00  0.00    -0.263 C  
ENDBRANCH  10  29
TORSDOF 6
ENDMDL
MODEL      225
REMARK 921   NORMALIZED FREE ENERGY PREDICTED BY IDOCK:   -3.04 KCAL/MOL
REMARK 922        TOTAL FREE ENERGY PREDICTED BY IDOCK:   -4.99 KCAL/MOL
REMARK 923 INTER-LIGAND FREE ENERGY PREDICTED BY IDOCK:   -3.84 KCAL/MOL
REMARK 924 INTRA-LIGAND FREE ENERGY PREDICTED BY IDOCK:   -1.15 KCAL/MOL
REMARK 927      BINDING AFFINITY PREDICTED BY RF-SCORE:    0.00 PKD
ROOT
HETATM    1  C   UNL     1      -7.913  11.147  68.790  1.00  0.00    -0.144 C  
HETATM    2  C   UNL     1      -8.579  10.087  69.679  1.00  0.00    -0.198 C  
HETATM    3  C   UNL     1      -7.984   8.801  69.149  1.00  0.00    -0.109 C  
HETATM    4  C   UNL     1     -10.097  10.219  69.625  1.00  0.00    -0.257 C  
HETATM    5  O   UNL     1      -5.953   8.437  66.122  1.00  0.00    -0.043 OA 
HETATM    6  C   UNL     1      -7.128   9.048  68.133  1.00  0.00    -0.078 C  
HETATM    7  N   UNL     1      -6.977  10.408  67.897  1.00  0.00    -0.081 N  
HETATM    8  O   UNL     1      -7.131  10.765  65.603  1.00  0.00    -0.113 OA 
HETATM    9  C   UNL     1      -6.375   8.021  67.336  1.00  0.00    -0.056 C  
HETATM   10  C   UNL     1      -8.540  11.752  67.493  1.00  0.00    -0.157 C  
HETATM   11  O   UNL     1      -6.115   6.896  67.734  1.00  0.00    -0.030 OA 
HETATM   12  C   UNL     1      -7.431  11.000  66.751  1.00  0.00    -0.139 C  
ENDROOT
BRANCH   3  13
HETATM   13  S   UNL     1      -8.427   7.239  69.726  1.00  0.00    -0.137 SA 
BRANCH  13  14
HETATM   14  C   UNL     1      -7.176   6.792  70.981  1.00  0.00    -0.077 C  
HETATM   15  N   UNL     1      -8.224   5.320  72.543  1.00  0.00    -0.113 NA 
HETATM   16  C   UNL     1      -7.202   5.353  71.498  1.00  0.00    -0.076 C  
HETATM   17  C   UNL     1      -7.464   7.601  72.251  1.00  0.00    -0.085 C  
HETATM   18  C   UNL     1      -8.144   6.632  73.225  1.00  0.00    -0.107 C  
HETATM   19  H   UNL     1      -8.137   4.524  73.175  1.00  0.00     0.000 HD 
BRANCH  18  20
HETATM   20  C   UNL     1      -9.546   7.070  73.699  1.00  0.00    -0.225 C  
BRANCH  20  21
HETATM   21  N   UNL     1     -10.561   6.007  73.379  1.00  0.00    -0.246 N  
HETATM   22  H   UNL     1     -10.688   5.182  73.964  1.00  0.00     0.000 HD 
BRANCH  21  23
HETATM   23  S   UNL     1     -11.465   6.269  72.000  1.00  0.00    -0.317 S  
HETATM   24  O   UNL     1     -11.494   7.688  71.743  1.00  0.00    -0.251 OA 
HETATM   25  N   UNL     1     -12.936   5.875  72.634  1.00  0.00    -0.184 N  
HETATM   26  O   UNL     1     -11.112   5.284  71.014  1.00  0.00    -0.060 OA 
HETATM   27  H2  UNL     1     -13.207   5.570  73.568  1.00  0.00     0.000 HD 
HETATM   28  H1  UNL     1     -13.488   6.035  71.791  1.00  0.00     0.000 HD 
ENDBRANCH  21  23
ENDBRANCH  20  21
ENDBRANCH  18  20
ENDBRANCH  13  14
ENDBRANCH   3  13
BRANCH  10  29
HETATM   29  C   UNL     1      -8.552  13.267  67.466  1.00  0.00    -0.200 C  
HETATM   30  H   UNL     1      -9.217  14.598  66.240  1.00  0.00     0.000 HD 
HETATM   31  O   UNL     1      -9.210  13.648  66.257  1.00  0.00    -0.186 OA 
HETATM   32  C   UNL     1      -7.144  13.838  67.477  1.00  0.00    -0.172 C  
ENDBRANCH  10  29
TORSDOF 6
ENDMDL
MODEL      226
REMARK 921   NORMALIZED FREE ENERGY PREDICTED BY IDOCK:   -2.98 KCAL/MOL
REMARK 922        TOTAL FREE ENERGY PREDICTED BY IDOCK:   -4.90 KCAL/MOL
REMARK 923 INTER-LIGAND FREE ENERGY PREDICTED BY IDOCK:   -3.92 KCAL/MOL
REMARK 924 INTRA-LIGAND FREE ENERGY PREDICTED BY IDOCK:   -0.99 KCAL/MOL
REMARK 927      BINDING AFFINITY PREDICTED BY RF-SCORE:    0.00 PKD
ROOT
HETATM    1  C   UNL     1      -9.209   9.341  68.626  1.00  0.00    -0.135 C  
HETATM    2  C   UNL     1      -9.116   7.875  68.179  1.00  0.00    -0.133 C  
HETATM    3  C   UNL     1      -8.340   7.240  69.313  1.00  0.00    -0.132 C  
HETATM    4  C   UNL     1      -8.506   7.777  66.785  1.00  0.00    -0.126 C  
HETATM    5  O   UNL     1      -6.666   9.008  72.050  1.00  0.00    -0.251 OA 
HETATM    6  C   UNL     1      -8.026   8.156  70.254  1.00  0.00    -0.103 C  
HETATM    7  N   UNL     1      -8.554   9.407  69.962  1.00  0.00    -0.183 N  
HETATM    8  O   UNL     1      -6.882  10.992  70.292  1.00  0.00    -0.217 OA 
HETATM    9  C   UNL     1      -7.233   7.908  71.506  1.00  0.00    -0.067 C  
HETATM   10  C   UNL     1      -8.232  10.477  68.183  1.00  0.00    -0.114 C  
HETATM   11  O   UNL     1      -7.113   6.816  72.040  1.00  0.00    -0.073 OA 
HETATM   12  C   UNL     1      -7.759  10.473  69.641  1.00  0.00    -0.110 C  
ENDROOT
BRANCH   3  13
HETATM   13  S   UNL     1      -7.859   5.586  69.327  1.00  0.00    -0.092 SA 
BRANCH  13  14
HETATM   14  C   UNL     1      -9.404   4.613  69.388  1.00  0.00    -0.141 C  
HETATM   15  N   UNL     1      -8.817   2.318  69.081  1.00  0.00    -0.083 NA 
HETATM   16  C   UNL     1      -9.334   3.251  70.081  1.00  0.00    -0.172 C  
HETATM   17  C   UNL     1      -9.785   4.230  67.953  1.00  0.00    -0.172 C  
HETATM   18  C   UNL     1      -9.386   2.760  67.788  1.00  0.00    -0.190 C  
HETATM   19  H   UNL     1      -9.006   1.340  69.299  1.00  0.00     0.000 HD 
BRANCH  18  20
HETATM   20  C   UNL     1      -8.383   2.487  66.646  1.00  0.00    -0.091 C  
BRANCH  20  21
HETATM   21  N   UNL     1      -8.299   3.678  65.730  1.00  0.00    -0.104 N  
HETATM   22  H   UNL     1      -8.061   4.610  66.069  1.00  0.00     0.000 HD 
BRANCH  21  23
HETATM   23  S   UNL     1      -8.620   3.370  64.121  1.00  0.00    -0.089 S  
HETATM   24  O   UNL     1      -7.364   3.167  63.441  1.00  0.00    -0.051 OA 
HETATM   25  N   UNL     1      -9.135   4.884  63.716  1.00  0.00    -0.337 N  
HETATM   26  O   UNL     1      -9.735   2.467  64.030  1.00  0.00    -0.136 OA 
HETATM   27  H2  UNL     1      -9.227   5.735  64.270  1.00  0.00     0.000 HD 
HETATM   28  H1  UNL     1      -9.331   4.696  62.733  1.00  0.00     0.000 HD 
ENDBRANCH  21  23
ENDBRANCH  20  21
ENDBRANCH  18  20
ENDBRANCH  13  14
ENDBRANCH   3  13
BRANCH  10  29
HETATM   29  C   UNL     1      -8.928  11.706  67.634  1.00  0.00    -0.166 C  
HETATM   30  H   UNL     1     -10.462  12.747  68.162  1.00  0.00     0.000 HD 
HETATM   31  O   UNL     1     -10.026  11.976  68.507  1.00  0.00    -0.209 OA 
HETATM   32  C   UNL     1      -9.448  11.471  66.225  1.00  0.00    -0.235 C  
ENDBRANCH  10  29
TORSDOF 6
ENDMDL
MODEL      227
REMARK 921   NORMALIZED FREE ENERGY PREDICTED BY IDOCK:   -2.96 KCAL/MOL
REMARK 922        TOTAL FREE ENERGY PREDICTED BY IDOCK:   -4.88 KCAL/MOL
REMARK 923 INTER-LIGAND FREE ENERGY PREDICTED BY IDOCK:   -3.96 KCAL/MOL
REMARK 924 INTRA-LIGAND FREE ENERGY PREDICTED BY IDOCK:   -0.91 KCAL/MOL
REMARK 927      BINDING AFFINITY PREDICTED BY RF-SCORE:    0.00 PKD
ROOT
HETATM    1  C   UNL     1     -10.041   9.012  66.695  1.00  0.00    -0.285 C  
HETATM    2  C   UNL     1      -8.975   8.419  65.762  1.00  0.00    -0.207 C  
HETATM    3  C   UNL     1      -8.133   7.599  66.717  1.00  0.00    -0.115 C  
HETATM    4  C   UNL     1      -8.265   9.523  64.989  1.00  0.00    -0.137 C  
HETATM    5  O   UNL     1      -8.358   7.619  70.373  1.00  0.00    -0.120 OA 
HETATM    6  C   UNL     1      -8.606   7.691  67.979  1.00  0.00    -0.123 C  
HETATM    7  N   UNL     1      -9.765   8.452  68.047  1.00  0.00    -0.154 N  
HETATM    8  O   UNL     1      -9.556   9.931  69.830  1.00  0.00    -0.222 OA 
HETATM    9  C   UNL     1      -8.013   7.046  69.199  1.00  0.00    -0.119 C  
HETATM   10  C   UNL     1      -9.968  10.425  67.356  1.00  0.00    -0.226 C  
HETATM   11  O   UNL     1      -7.296   6.057  69.176  1.00  0.00    -0.079 OA 
HETATM   12  C   UNL     1      -9.802   9.665  68.676  1.00  0.00    -0.161 C  
ENDROOT
BRANCH   3  13
HETATM   13  S   UNL     1      -6.713   6.747  66.240  1.00  0.00    -0.053 SA 
BRANCH  13  14
HETATM   14  C   UNL     1      -7.281   5.390  65.155  1.00  0.00    -0.067 C  
HETATM   15  N   UNL     1      -9.613   5.076  65.564  1.00  0.00    -0.284 NA 
HETATM   16  C   UNL     1      -8.674   5.535  64.542  1.00  0.00     0.016 C  
HETATM   17  C   UNL     1      -7.430   4.126  66.010  1.00  0.00    -0.084 C  
HETATM   18  C   UNL     1      -8.933   3.961  66.262  1.00  0.00    -0.132 C  
HETATM   19  H   UNL     1     -10.531   4.828  65.194  1.00  0.00     0.000 HD 
BRANCH  18  20
HETATM   20  C   UNL     1      -9.340   3.940  67.751  1.00  0.00    -0.183 C  
BRANCH  20  21
HETATM   21  N   UNL     1      -8.260   3.297  68.578  1.00  0.00    -0.068 N  
HETATM   22  H   UNL     1      -7.335   3.092  68.201  1.00  0.00     0.000 HD 
BRANCH  21  23
HETATM   23  S   UNL     1      -8.679   2.941  70.154  1.00  0.00    -0.080 S  
HETATM   24  O   UNL     1      -9.944   3.574  70.439  1.00  0.00    -0.078 OA 
HETATM   25  N   UNL     1      -7.520   3.853  70.892  1.00  0.00    -0.040 N  
HETATM   26  O   UNL     1      -8.403   1.553  70.410  1.00  0.00    -0.041 OA 
HETATM   27  H2  UNL     1      -6.783   4.445  70.508  1.00  0.00     0.000 HD 
HETATM   28  H1  UNL     1      -7.776   3.635  71.854  1.00  0.00     0.000 HD 
ENDBRANCH  21  23
ENDBRANCH  20  21
ENDBRANCH  18  20
ENDBRANCH  13  14
ENDBRANCH   3  13
BRANCH  10  29
HETATM   29  C   UNL     1     -11.207  11.270  67.140  1.00  0.00    -0.275 C  
HETATM   30  H   UNL     1     -11.779  12.519  65.788  1.00  0.00     0.000 HD 
HETATM   31  O   UNL     1     -11.002  11.990  65.923  1.00  0.00    -0.278 OA 
HETATM   32  C   UNL     1     -11.419  12.253  68.280  1.00  0.00    -0.367 C  
ENDBRANCH  10  29
TORSDOF 6
ENDMDL
MODEL      228
REMARK 921   NORMALIZED FREE ENERGY PREDICTED BY IDOCK:   -2.87 KCAL/MOL
REMARK 922        TOTAL FREE ENERGY PREDICTED BY IDOCK:   -4.76 KCAL/MOL
REMARK 923 INTER-LIGAND FREE ENERGY PREDICTED BY IDOCK:   -3.91 KCAL/MOL
REMARK 924 INTRA-LIGAND FREE ENERGY PREDICTED BY IDOCK:   -0.84 KCAL/MOL
REMARK 927      BINDING AFFINITY PREDICTED BY RF-SCORE:    0.00 PKD
ROOT
HETATM    1  C   UNL     1      -8.697   9.232  67.911  1.00  0.00    -0.124 C  
HETATM    2  C   UNL     1      -9.393   8.036  68.575  1.00  0.00    -0.142 C  
HETATM    3  C   UNL     1      -8.749   8.009  69.945  1.00  0.00    -0.139 C  
HETATM    4  C   UNL     1      -9.242   6.784  67.718  1.00  0.00    -0.111 C  
HETATM    5  O   UNL     1      -5.860   9.987  71.022  1.00  0.00    -0.083 OA 
HETATM    6  C   UNL     1      -7.839   9.000  70.070  1.00  0.00    -0.088 C  
HETATM    7  N   UNL     1      -7.789   9.808  68.942  1.00  0.00    -0.084 N  
HETATM    8  O   UNL     1      -5.554  10.134  68.384  1.00  0.00    -0.039 OA 
HETATM    9  C   UNL     1      -6.977   9.268  71.271  1.00  0.00    -0.009 C  
HETATM   10  C   UNL     1      -7.444   9.138  66.981  1.00  0.00    -0.091 C  
HETATM   11  O   UNL     1      -7.247   8.909  72.407  1.00  0.00    -0.329 OA 
HETATM   12  C   UNL     1      -6.697   9.840  68.120  1.00  0.00    -0.061 C  
ENDROOT
BRANCH   3  13
HETATM   13  S   UNL     1      -9.089   6.808  71.132  1.00  0.00    -0.151 SA 
BRANCH  13  14
HETATM   14  C   UNL     1     -10.780   7.154  71.730  1.00  0.00    -0.215 C  
HETATM   15  N   UNL     1     -10.866   6.530  74.034  1.00  0.00    -0.406 NA 
HETATM   16  C   UNL     1     -10.910   7.697  73.154  1.00  0.00    -0.382 C  
HETATM   17  C   UNL     1     -11.538   5.824  71.817  1.00  0.00    -0.137 C  
HETATM   18  C   UNL     1     -11.565   5.449  73.302  1.00  0.00    -0.020 C  
HETATM   19  H   UNL     1     -11.245   6.706  74.965  1.00  0.00     0.000 HD 
BRANCH  18  20
HETATM   20  C   UNL     1     -10.927   4.084  73.636  1.00  0.00    -0.260 C  
BRANCH  20  21
HETATM   21  N   UNL     1      -9.740   3.832  72.746  1.00  0.00    -0.133 N  
HETATM   22  H   UNL     1      -9.109   4.578  72.456  1.00  0.00     0.000 HD 
BRANCH  21  23
HETATM   23  S   UNL     1      -9.528   2.248  72.264  1.00  0.00    -0.110 S  
HETATM   24  O   UNL     1      -8.161   1.873  72.535  1.00  0.00    -0.052 OA 
HETATM   25  N   UNL     1      -9.631   2.506  70.638  1.00  0.00    -0.127 N  
HETATM   26  O   UNL     1     -10.667   1.475  72.678  1.00  0.00    -0.148 OA 
HETATM   27  H2  UNL     1      -9.777   3.360  70.099  1.00  0.00     0.000 HD 
HETATM   28  H1  UNL     1      -9.501   1.538  70.344  1.00  0.00     0.000 HD 
ENDBRANCH  21  23
ENDBRANCH  20  21
ENDBRANCH  18  20
ENDBRANCH  13  14
ENDBRANCH   3  13
BRANCH  10  29
HETATM   29  C   UNL     1      -7.609   9.852  65.655  1.00  0.00    -0.119 C  
HETATM   30  H   UNL     1      -8.141  11.627  65.125  1.00  0.00     0.000 HD 
HETATM   31  O   UNL     1      -8.038  11.180  65.957  1.00  0.00    -0.145 OA 
HETATM   32  C   UNL     1      -8.650   9.171  64.780  1.00  0.00    -0.209 C  
ENDBRANCH  10  29
TORSDOF 6
ENDMDL
MODEL      229
REMARK 921   NORMALIZED FREE ENERGY PREDICTED BY IDOCK:   -2.75 KCAL/MOL
REMARK 922        TOTAL FREE ENERGY PREDICTED BY IDOCK:   -4.59 KCAL/MOL
REMARK 923 INTER-LIGAND FREE ENERGY PREDICTED BY IDOCK:   -3.96 KCAL/MOL
REMARK 924 INTRA-LIGAND FREE ENERGY PREDICTED BY IDOCK:   -0.63 KCAL/MOL
REMARK 927      BINDING AFFINITY PREDICTED BY RF-SCORE:    0.00 PKD
ROOT
HETATM    1  C   UNL     1      -7.454  15.098  67.616  1.00  0.00    -0.181 C  
HETATM    2  C   UNL     1      -7.645  13.618  67.976  1.00  0.00    -0.139 C  
HETATM    3  C   UNL     1      -9.126  13.418  67.738  1.00  0.00    -0.202 C  
HETATM    4  C   UNL     1      -7.128  13.337  69.382  1.00  0.00     0.152 C  
HETATM    5  O   UNL     1     -11.588  16.045  67.060  1.00  0.00     0.166 OA 
HETATM    6  C   UNL     1      -9.707  14.564  67.320  1.00  0.00    -0.232 C  
HETATM    7  N   UNL     1      -8.784  15.588  67.159  1.00  0.00    -0.196 N  
HETATM    8  O   UNL     1      -9.652  17.506  68.150  1.00  0.00    -0.273 OA 
HETATM    9  C   UNL     1     -11.166  14.762  67.018  1.00  0.00    -0.345 C  
HETATM   10  C   UNL     1      -7.464  16.279  68.639  1.00  0.00    -0.185 C  
HETATM   11  O   UNL     1     -11.936  13.862  66.719  1.00  0.00    -0.396 OA 
HETATM   12  C   UNL     1      -8.777  16.692  67.966  1.00  0.00    -0.194 C  
ENDROOT
BRANCH   3  13
HETATM   13  S   UNL     1      -9.949  11.937  68.054  1.00  0.00    -0.195 SA 
BRANCH  13  14
HETATM   14  C   UNL     1      -9.209  10.700  66.930  1.00  0.00    -0.155 C  
HETATM   15  N   UNL     1      -9.631   8.543  67.864  1.00  0.00    -0.149 NA 
HETATM   16  C   UNL     1      -9.985   9.398  66.732  1.00  0.00    -0.239 C  
HETATM   17  C   UNL     1      -7.899  10.208  67.558  1.00  0.00    -0.102 C  
HETATM   18  C   UNL     1      -8.208   8.831  68.155  1.00  0.00    -0.114 C  
HETATM   19  H   UNL     1      -9.824   7.554  67.705  1.00  0.00     0.000 HD 
BRANCH  18  20
HETATM   20  C   UNL     1      -7.941   8.709  69.670  1.00  0.00    -0.096 C  
BRANCH  20  21
HETATM   21  N   UNL     1      -6.929   7.628  69.936  1.00  0.00    -0.053 N  
HETATM   22  H   UNL     1      -6.246   7.338  69.237  1.00  0.00     0.000 HD 
BRANCH  21  23
HETATM   23  S   UNL     1      -7.000   6.935  71.453  1.00  0.00    -0.067 S  
HETATM   24  O   UNL     1      -6.176   5.751  71.447  1.00  0.00    -0.036 OA 
HETATM   25  N   UNL     1      -8.565   6.419  71.376  1.00  0.00    -0.130 N  
HETATM   26  O   UNL     1      -6.907   7.970  72.446  1.00  0.00    -0.067 OA 
HETATM   27  H2  UNL     1      -9.265   6.498  70.639  1.00  0.00     0.000 HD 
HETATM   28  H1  UNL     1      -8.608   5.996  72.303  1.00  0.00     0.000 HD 
ENDBRANCH  21  23
ENDBRANCH  20  21
ENDBRANCH  18  20
ENDBRANCH  13  14
ENDBRANCH   3  13
BRANCH  10  29
HETATM   29  C   UNL     1      -6.259  17.192  68.536  1.00  0.00    -0.151 C  
HETATM   30  H   UNL     1      -6.007  19.071  68.186  1.00  0.00     0.000 HD 
HETATM   31  O   UNL     1      -6.763  18.499  68.251  1.00  0.00    -0.215 OA 
HETATM   32  C   UNL     1      -5.323  16.757  67.420  1.00  0.00    -0.168 C  
ENDBRANCH  10  29
TORSDOF 6
ENDMDL
MODEL      230
REMARK 921   NORMALIZED FREE ENERGY PREDICTED BY IDOCK:   -2.74 KCAL/MOL
REMARK 922        TOTAL FREE ENERGY PREDICTED BY IDOCK:   -4.59 KCAL/MOL
REMARK 923 INTER-LIGAND FREE ENERGY PREDICTED BY IDOCK:   -4.01 KCAL/MOL
REMARK 924 INTRA-LIGAND FREE ENERGY PREDICTED BY IDOCK:   -0.58 KCAL/MOL
REMARK 927      BINDING AFFINITY PREDICTED BY RF-SCORE:    0.00 PKD
ROOT
HETATM    1  C   UNL     1      -7.719   8.051  66.159  1.00  0.00    -0.087 C  
HETATM    2  C   UNL     1      -8.998   8.239  66.986  1.00  0.00    -0.159 C  
HETATM    3  C   UNL     1      -9.438   6.811  67.228  1.00  0.00    -0.135 C  
HETATM    4  C   UNL     1      -9.980   9.148  66.256  1.00  0.00    -0.352 C  
HETATM    5  O   UNL     1      -8.029   3.814  65.662  1.00  0.00    -0.092 OA 
HETATM    6  C   UNL     1      -8.583   5.939  66.650  1.00  0.00    -0.119 C  
HETATM    7  N   UNL     1      -7.507   6.580  66.053  1.00  0.00    -0.080 N  
HETATM    8  O   UNL     1      -7.199   5.661  63.938  1.00  0.00    -0.050 OA 
HETATM    9  C   UNL     1      -8.710   4.441  66.646  1.00  0.00    -0.112 C  
HETATM   10  C   UNL     1      -7.645   8.090  64.599  1.00  0.00    -0.111 C  
HETATM   11  O   UNL     1      -9.342   3.802  67.473  1.00  0.00    -0.168 OA 
HETATM   12  C   UNL     1      -7.330   6.593  64.697  1.00  0.00    -0.085 C  
ENDROOT
BRANCH   3  13
HETATM   13  S   UNL     1     -10.888   6.390  68.057  1.00  0.00    -0.316 SA 
BRANCH  13  14
HETATM   14  C   UNL     1     -10.865   7.332  69.623  1.00  0.00    -0.222 C  
HETATM   15  N   UNL     1      -8.983   6.575  70.884  1.00  0.00    -0.147 NA 
HETATM   16  C   UNL     1      -9.493   7.739  70.162  1.00  0.00    -0.160 C  
HETATM   17  C   UNL     1     -11.395   6.420  70.736  1.00  0.00    -0.411 C  
HETATM   18  C   UNL     1     -10.165   5.946  71.516  1.00  0.00    -0.205 C  
HETATM   19  H   UNL     1      -8.237   6.797  71.542  1.00  0.00     0.000 HD 
BRANCH  18  20
HETATM   20  C   UNL     1      -9.985   4.414  71.570  1.00  0.00    -0.180 C  
BRANCH  20  21
HETATM   21  N   UNL     1     -10.874   3.821  72.630  1.00  0.00    -0.020 N  
HETATM   22  H   UNL     1     -11.580   4.371  73.118  1.00  0.00     0.000 HD 
BRANCH  21  23
HETATM   23  S   UNL     1     -10.626   2.202  72.952  1.00  0.00    -0.132 S  
HETATM   24  O   UNL     1     -11.527   1.809  74.007  1.00  0.00    -0.160 OA 
HETATM   25  N   UNL     1      -9.133   2.350  73.639  1.00  0.00    -0.079 N  
HETATM   26  O   UNL     1     -10.490   1.492  71.709  1.00  0.00    -0.121 OA 
HETATM   27  H2  UNL     1      -8.549   3.168  73.812  1.00  0.00     0.000 HD 
HETATM   28  H1  UNL     1      -8.982   1.361  73.836  1.00  0.00     0.000 HD 
ENDBRANCH  21  23
ENDBRANCH  20  21
ENDBRANCH  18  20
ENDBRANCH  13  14
ENDBRANCH   3  13
BRANCH  10  29
HETATM   29  C   UNL     1      -6.591   9.033  64.056  1.00  0.00    -0.087 C  
HETATM   30  H   UNL     1      -6.034  10.831  64.474  1.00  0.00     0.000 HD 
HETATM   31  O   UNL     1      -6.695  10.239  64.815  1.00  0.00    -0.127 OA 
HETATM   32  C   UNL     1      -6.820   9.340  62.585  1.00  0.00    -0.091 C  
ENDBRANCH  10  29
TORSDOF 6
ENDMDL
MODEL      231
REMARK 921   NORMALIZED FREE ENERGY PREDICTED BY IDOCK:   -2.73 KCAL/MOL
REMARK 922        TOTAL FREE ENERGY PREDICTED BY IDOCK:   -4.57 KCAL/MOL
REMARK 923 INTER-LIGAND FREE ENERGY PREDICTED BY IDOCK:   -3.46 KCAL/MOL
REMARK 924 INTRA-LIGAND FREE ENERGY PREDICTED BY IDOCK:   -1.10 KCAL/MOL
REMARK 927      BINDING AFFINITY PREDICTED BY RF-SCORE:    0.00 PKD
ROOT
HETATM    1  C   UNL     1      -8.508  11.048  68.822  1.00  0.00    -0.144 C  
HETATM    2  C   UNL     1      -9.199  10.022  69.732  1.00  0.00    -0.227 C  
HETATM    3  C   UNL     1      -8.721   8.707  69.155  1.00  0.00    -0.136 C  
HETATM    4  C   UNL     1     -10.705  10.257  69.759  1.00  0.00    -0.328 C  
HETATM    5  O   UNL     1      -6.877   8.256  66.022  1.00  0.00    -0.062 OA 
HETATM    6  C   UNL     1      -7.904   8.912  68.099  1.00  0.00    -0.101 C  
HETATM    7  N   UNL     1      -7.673  10.262  67.872  1.00  0.00    -0.089 N  
HETATM    8  O   UNL     1      -7.919  10.665  65.594  1.00  0.00    -0.160 OA 
HETATM    9  C   UNL     1      -7.264   7.849  67.251  1.00  0.00    -0.090 C  
HETATM   10  C   UNL     1      -9.158  11.715  67.568  1.00  0.00    -0.172 C  
HETATM   11  O   UNL     1      -7.061   6.703  67.621  1.00  0.00    -0.079 OA 
HETATM   12  C   UNL     1      -8.143  10.902  66.759  1.00  0.00    -0.142 C  
ENDROOT
BRANCH   3  13
HETATM   13  S   UNL     1      -9.240   7.170  69.736  1.00  0.00    -0.142 SA 
BRANCH  13  14
HETATM   14  C   UNL     1      -9.690   7.419  71.489  1.00  0.00    -0.159 C  
HETATM   15  N   UNL     1      -8.014   6.355  72.816  1.00  0.00    -0.104 NA 
HETATM   16  C   UNL     1      -8.542   7.672  72.467  1.00  0.00    -0.124 C  
HETATM   17  C   UNL     1     -10.287   6.109  72.019  1.00  0.00    -0.232 C  
HETATM   18  C   UNL     1      -9.185   5.450  72.854  1.00  0.00    -0.134 C  
HETATM   19  H   UNL     1      -7.465   6.350  73.676  1.00  0.00     0.000 HD 
BRANCH  18  20
HETATM   20  C   UNL     1      -8.779   4.036  72.387  1.00  0.00    -0.106 C  
BRANCH  20  21
HETATM   21  N   UNL     1      -7.281   3.923  72.308  1.00  0.00    -0.051 N  
HETATM   22  H   UNL     1      -6.671   4.217  73.071  1.00  0.00     0.000 HD 
BRANCH  21  23
HETATM   23  S   UNL     1      -6.683   3.284  70.886  1.00  0.00    -0.033 S  
HETATM   24  O   UNL     1      -5.262   3.085  71.044  1.00  0.00    -0.003 OA 
HETATM   25  N   UNL     1      -6.869   4.631  69.954  1.00  0.00    -0.043 N  
HETATM   26  O   UNL     1      -7.585   2.270  70.413  1.00  0.00    -0.042 OA 
HETATM   27  H2  UNL     1      -7.233   5.558  70.174  1.00  0.00     0.000 HD 
HETATM   28  H1  UNL     1      -6.504   4.240  69.086  1.00  0.00     0.000 HD 
ENDBRANCH  21  23
ENDBRANCH  20  21
ENDBRANCH  18  20
ENDBRANCH  13  14
ENDBRANCH   3  13
BRANCH  10  29
HETATM   29  C   UNL     1      -9.068  13.228  67.561  1.00  0.00    -0.208 C  
HETATM   30  H   UNL     1      -7.718  14.510  68.060  1.00  0.00     0.000 HD 
HETATM   31  O   UNL     1      -7.774  13.561  68.065  1.00  0.00    -0.115 OA 
HETATM   32  C   UNL     1     -10.132  13.855  68.447  1.00  0.00    -0.237 C  
ENDBRANCH  10  29
TORSDOF 6
ENDMDL
MODEL      232
REMARK 921   NORMALIZED FREE ENERGY PREDICTED BY IDOCK:   -2.63 KCAL/MOL
REMARK 922        TOTAL FREE ENERGY PREDICTED BY IDOCK:   -4.44 KCAL/MOL
REMARK 923 INTER-LIGAND FREE ENERGY PREDICTED BY IDOCK:   -3.70 KCAL/MOL
REMARK 924 INTRA-LIGAND FREE ENERGY PREDICTED BY IDOCK:   -0.74 KCAL/MOL
REMARK 927      BINDING AFFINITY PREDICTED BY RF-SCORE:    0.00 PKD
ROOT
HETATM    1  C   UNL     1      -8.545  13.815  68.178  1.00  0.00    -0.175 C  
HETATM    2  C   UNL     1      -9.411  12.665  67.643  1.00  0.00    -0.190 C  
HETATM    3  C   UNL     1      -8.590  11.447  68.008  1.00  0.00    -0.147 C  
HETATM    4  C   UNL     1      -9.721  12.871  66.165  1.00  0.00    -0.250 C  
HETATM    5  O   UNL     1      -5.161  11.449  69.296  1.00  0.00    -0.045 OA 
HETATM    6  C   UNL     1      -7.449  11.805  68.638  1.00  0.00    -0.120 C  
HETATM    7  N   UNL     1      -7.371  13.177  68.837  1.00  0.00    -0.065 N  
HETATM    8  O   UNL     1      -5.242  13.878  68.213  1.00  0.00    -0.095 OA 
HETATM    9  C   UNL     1      -6.371  10.875  69.118  1.00  0.00    -0.058 C  
HETATM   10  C   UNL     1      -7.519  14.634  67.331  1.00  0.00    -0.212 C  
HETATM   11  O   UNL     1      -6.543   9.693  69.372  1.00  0.00    -0.046 OA 
HETATM   12  C   UNL     1      -6.449  13.952  68.191  1.00  0.00    -0.125 C  
ENDROOT
BRANCH   3  13
HETATM   13  S   UNL     1      -9.037   9.838  67.584  1.00  0.00    -0.130 SA 
BRANCH  13  14
HETATM   14  C   UNL     1     -10.506   9.440  68.595  1.00  0.00    -0.209 C  
HETATM   15  N   UNL     1      -9.821   7.877  70.267  1.00  0.00    -0.184 NA 
HETATM   16  C   UNL     1     -10.280   9.255  70.096  1.00  0.00    -0.215 C  
HETATM   17  C   UNL     1     -11.018   8.058  68.169  1.00  0.00     0.139 C  
HETATM   18  C   UNL     1     -10.553   7.082  69.255  1.00  0.00    -0.224 C  
HETATM   19  H   UNL     1      -9.928   7.526  71.218  1.00  0.00     0.000 HD 
BRANCH  18  20
HETATM   20  C   UNL     1      -9.667   5.925  68.747  1.00  0.00    -0.131 C  
BRANCH  20  21
HETATM   21  N   UNL     1      -8.561   5.645  69.728  1.00  0.00    -0.120 N  
HETATM   22  H   UNL     1      -7.632   6.053  69.631  1.00  0.00     0.000 HD 
BRANCH  21  23
HETATM   23  S   UNL     1      -8.959   4.622  70.986  1.00  0.00    -0.130 S  
HETATM   24  O   UNL     1      -7.736   4.170  71.604  1.00  0.00    -0.066 OA 
HETATM   25  N   UNL     1      -9.515   3.368  70.070  1.00  0.00    -0.182 N  
HETATM   26  O   UNL     1     -10.064   5.183  71.714  1.00  0.00    -0.186 OA 
HETATM   27  H2  UNL     1      -9.591   3.253  69.060  1.00  0.00     0.000 HD 
HETATM   28  H1  UNL     1      -9.758   2.743  70.839  1.00  0.00     0.000 HD 
ENDBRANCH  21  23
ENDBRANCH  20  21
ENDBRANCH  18  20
ENDBRANCH  13  14
ENDBRANCH   3  13
BRANCH  10  29
HETATM   29  C   UNL     1      -7.701  16.135  67.429  1.00  0.00    -0.160 C  
HETATM   30  H   UNL     1      -6.506  17.640  67.587  1.00  0.00     0.000 HD 
HETATM   31  O   UNL     1      -6.391  16.698  67.526  1.00  0.00    -0.134 OA 
HETATM   32  C   UNL     1      -8.509  16.521  68.657  1.00  0.00    -0.243 C  
ENDBRANCH  10  29
TORSDOF 6
ENDMDL
MODEL      233
REMARK 921   NORMALIZED FREE ENERGY PREDICTED BY IDOCK:   -2.53 KCAL/MOL
REMARK 922        TOTAL FREE ENERGY PREDICTED BY IDOCK:   -4.31 KCAL/MOL
REMARK 923 INTER-LIGAND FREE ENERGY PREDICTED BY IDOCK:   -3.57 KCAL/MOL
REMARK 924 INTRA-LIGAND FREE ENERGY PREDICTED BY IDOCK:   -0.73 KCAL/MOL
REMARK 927      BINDING AFFINITY PREDICTED BY RF-SCORE:    0.00 PKD
ROOT
HETATM    1  C   UNL     1      -8.516  13.807  68.373  1.00  0.00    -0.154 C  
HETATM    2  C   UNL     1      -9.296  12.676  67.687  1.00  0.00    -0.190 C  
HETATM    3  C   UNL     1      -8.461  11.460  68.023  1.00  0.00    -0.145 C  
HETATM    4  C   UNL     1      -9.499  12.987  66.208  1.00  0.00    -0.199 C  
HETATM    5  O   UNL     1      -5.143  11.467  69.573  1.00  0.00    -0.045 OA 
HETATM    6  C   UNL     1      -7.386  11.802  68.765  1.00  0.00    -0.114 C  
HETATM    7  N   UNL     1      -7.374  13.156  69.072  1.00  0.00    -0.013 N  
HETATM    8  O   UNL     1      -5.230  13.968  68.674  1.00  0.00    -0.081 OA 
HETATM    9  C   UNL     1      -6.314  10.871  69.258  1.00  0.00    -0.064 C  
HETATM   10  C   UNL     1      -7.459  14.721  67.674  1.00  0.00    -0.203 C  
HETATM   11  O   UNL     1      -6.462   9.668  69.408  1.00  0.00    -0.043 OA 
HETATM   12  C   UNL     1      -6.434  14.007  68.561  1.00  0.00    -0.093 C  
ENDROOT
BRANCH   3  13
HETATM   13  S   UNL     1      -8.815   9.875  67.445  1.00  0.00    -0.131 SA 
BRANCH  13  14
HETATM   14  C   UNL     1     -10.192   9.258  68.475  1.00  0.00    -0.201 C  
HETATM   15  N   UNL     1      -9.308   7.568  69.913  1.00  0.00    -0.151 NA 
HETATM   16  C   UNL     1      -9.866   8.919  69.930  1.00  0.00    -0.182 C  
HETATM   17  C   UNL     1     -10.636   7.901  67.915  1.00  0.00    -0.215 C  
HETATM   18  C   UNL     1     -10.045   6.843  68.852  1.00  0.00    -0.170 C  
HETATM   19  H   UNL     1      -9.334   7.104  70.820  1.00  0.00     0.000 HD 
BRANCH  18  20
HETATM   20  C   UNL     1      -9.116   5.819  68.166  1.00  0.00    -0.110 C  
BRANCH  20  21
HETATM   21  N   UNL     1      -8.685   6.327  66.817  1.00  0.00    -0.115 N  
HETATM   22  H   UNL     1      -8.731   7.315  66.567  1.00  0.00     0.000 HD 
BRANCH  21  23
HETATM   23  S   UNL     1      -8.127   5.165  65.757  1.00  0.00    -0.113 S  
HETATM   24  O   UNL     1      -8.961   5.192  64.579  1.00  0.00    -0.115 OA 
HETATM   25  N   UNL     1      -8.588   3.844  66.630  1.00  0.00    -0.108 N  
HETATM   26  O   UNL     1      -6.691   5.214  65.722  1.00  0.00    -0.050 OA 
HETATM   27  H2  UNL     1      -9.062   3.762  67.529  1.00  0.00     0.000 HD 
HETATM   28  H1  UNL     1      -8.247   3.134  65.982  1.00  0.00     0.000 HD 
ENDBRANCH  21  23
ENDBRANCH  20  21
ENDBRANCH  18  20
ENDBRANCH  13  14
ENDBRANCH   3  13
BRANCH  10  29
HETATM   29  C   UNL     1      -7.703  16.203  67.870  1.00  0.00    -0.137 C  
HETATM   30  H   UNL     1      -7.549  17.764  66.749  1.00  0.00     0.000 HD 
HETATM   31  O   UNL     1      -7.396  16.834  66.625  1.00  0.00    -0.212 OA 
HETATM   32  C   UNL     1      -6.813  16.776  68.960  1.00  0.00    -0.218 C  
ENDBRANCH  10  29
TORSDOF 6
ENDMDL
MODEL      234
REMARK 921   NORMALIZED FREE ENERGY PREDICTED BY IDOCK:   -2.38 KCAL/MOL
REMARK 922        TOTAL FREE ENERGY PREDICTED BY IDOCK:   -4.10 KCAL/MOL
REMARK 923 INTER-LIGAND FREE ENERGY PREDICTED BY IDOCK:   -3.45 KCAL/MOL
REMARK 924 INTRA-LIGAND FREE ENERGY PREDICTED BY IDOCK:   -0.65 KCAL/MOL
REMARK 927      BINDING AFFINITY PREDICTED BY RF-SCORE:    0.00 PKD
ROOT
HETATM    1  C   UNL     1      -7.869   7.710  65.485  1.00  0.00    -0.112 C  
HETATM    2  C   UNL     1      -8.613   9.004  65.845  1.00  0.00    -0.172 C  
HETATM    3  C   UNL     1      -9.679   8.508  66.799  1.00  0.00    -0.236 C  
HETATM    4  C   UNL     1      -9.093   9.715  64.585  1.00  0.00    -0.286 C  
HETATM    5  O   UNL     1     -10.509   5.008  67.493  1.00  0.00    -0.133 OA 
HETATM    6  C   UNL     1      -9.588   7.171  66.971  1.00  0.00    -0.159 C  
HETATM    7  N   UNL     1      -8.511   6.628  66.284  1.00  0.00    -0.124 N  
HETATM    8  O   UNL     1      -9.248   4.725  65.168  1.00  0.00    -0.154 OA 
HETATM    9  C   UNL     1     -10.494   6.320  67.815  1.00  0.00    -0.232 C  
HETATM   10  C   UNL     1      -8.154   6.833  64.224  1.00  0.00    -0.039 C  
HETATM   11  O   UNL     1     -11.157   6.740  68.752  1.00  0.00    -0.227 OA 
HETATM   12  C   UNL     1      -8.678   5.790  65.217  1.00  0.00    -0.096 C  
ENDROOT
BRANCH   3  13
HETATM   13  S   UNL     1     -10.887   9.526  67.487  1.00  0.00    -0.061 SA 
BRANCH  13  14
HETATM   14  C   UNL     1     -10.023  10.584  68.701  1.00  0.00    -0.181 C  
HETATM   15  N   UNL     1      -7.901   9.580  69.141  1.00  0.00    -0.079 NA 
HETATM   16  C   UNL     1      -8.514  10.752  68.518  1.00  0.00    -0.143 C  
HETATM   17  C   UNL     1     -10.112   9.906  70.073  1.00  0.00    -0.308 C  
HETATM   18  C   UNL     1      -8.742   9.266  70.319  1.00  0.00    -0.219 C  
HETATM   19  H   UNL     1      -6.914   9.706  69.365  1.00  0.00     0.000 HD 
BRANCH  18  20
HETATM   20  C   UNL     1      -8.774   7.741  70.556  1.00  0.00    -0.140 C  
BRANCH  20  21
HETATM   21  N   UNL     1      -7.619   7.323  71.424  1.00  0.00    -0.082 N  
HETATM   22  H   UNL     1      -7.570   7.559  72.415  1.00  0.00     0.000 HD 
BRANCH  21  23
HETATM   23  S   UNL     1      -6.423   6.448  70.656  1.00  0.00    -0.045 S  
HETATM   24  O   UNL     1      -5.998   5.392  71.542  1.00  0.00    -0.023 OA 
HETATM   25  N   UNL     1      -5.249   7.605  70.706  1.00  0.00    -0.023 N  
HETATM   26  O   UNL     1      -6.803   6.239  69.285  1.00  0.00    -0.057 OA 
HETATM   27  H2  UNL     1      -5.252   8.552  71.085  1.00  0.00     0.000 HD 
HETATM   28  H1  UNL     1      -4.519   7.070  70.237  1.00  0.00     0.000 HD 
ENDBRANCH  21  23
ENDBRANCH  20  21
ENDBRANCH  18  20
ENDBRANCH  13  14
ENDBRANCH   3  13
BRANCH  10  29
HETATM   29  C   UNL     1      -6.920   6.519  63.403  1.00  0.00    -0.051 C  
HETATM   30  H   UNL     1      -6.570   5.461  61.830  1.00  0.00     0.000 HD 
HETATM   31  O   UNL     1      -7.344   5.658  62.344  1.00  0.00    -0.043 OA 
HETATM   32  C   UNL     1      -5.861   5.814  64.234  1.00  0.00    -0.024 C  
ENDBRANCH  10  29
TORSDOF 6
ENDMDL
MODEL      235
REMARK 921   NORMALIZED FREE ENERGY PREDICTED BY IDOCK:   -1.95 KCAL/MOL
REMARK 922        TOTAL FREE ENERGY PREDICTED BY IDOCK:   -3.52 KCAL/MOL
REMARK 923 INTER-LIGAND FREE ENERGY PREDICTED BY IDOCK:   -3.17 KCAL/MOL
REMARK 924 INTRA-LIGAND FREE ENERGY PREDICTED BY IDOCK:   -0.35 KCAL/MOL
REMARK 927      BINDING AFFINITY PREDICTED BY RF-SCORE:    0.00 PKD
ROOT
HETATM    1  C   UNL     1      -8.077  17.845  67.839  1.00  0.00    -0.244 C  
HETATM    2  C   UNL     1      -7.641  16.373  67.860  1.00  0.00    -0.158 C  
HETATM    3  C   UNL     1      -8.463  15.778  66.737  1.00  0.00    -0.269 C  
HETATM    4  C   UNL     1      -7.836  15.776  69.248  1.00  0.00    -0.233 C  
HETATM    5  O   UNL     1     -11.187  17.432  64.931  1.00  0.00    -0.744 OA 
HETATM    6  C   UNL     1      -9.243  16.717  66.160  1.00  0.00    -0.249 C  
HETATM    7  N   UNL     1      -9.033  17.977  66.704  1.00  0.00    -0.267 N  
HETATM    8  O   UNL     1     -11.109  18.942  67.119  1.00  0.00    -0.321 OA 
HETATM    9  C   UNL     1     -10.218  16.496  65.038  1.00  0.00     0.308 C  
HETATM   10  C   UNL     1      -9.192  18.463  68.741  1.00  0.00    -0.277 C  
HETATM   11  O   UNL     1     -10.155  15.571  64.243  1.00  0.00     0.413 OA 
HETATM   12  C   UNL     1      -9.989  18.618  67.442  1.00  0.00    -0.332 C  
ENDROOT
BRANCH   3  13
HETATM   13  S   UNL     1      -8.448  14.103  66.332  1.00  0.00     0.681 SA 
BRANCH  13  14
HETATM   14  C   UNL     1     -10.073  13.446  66.847  1.00  0.00    -0.255 C  
HETATM   15  N   UNL     1      -9.795  12.463  69.006  1.00  0.00    -0.400 NA 
HETATM   16  C   UNL     1     -10.436  13.587  68.326  1.00  0.00    -0.253 C  
HETATM   17  C   UNL     1     -10.054  11.924  66.659  1.00  0.00    -0.225 C  
HETATM   18  C   UNL     1      -9.864  11.328  68.058  1.00  0.00    -0.178 C  
HETATM   19  H   UNL     1     -10.195  12.256  69.921  1.00  0.00     0.000 HD 
BRANCH  18  20
HETATM   20  C   UNL     1      -8.618  10.430  68.214  1.00  0.00    -0.128 C  
BRANCH  20  21
HETATM   21  N   UNL     1      -8.992   8.983  68.036  1.00  0.00    -0.133 N  
HETATM   22  H   UNL     1      -8.768   8.463  67.188  1.00  0.00     0.000 HD 
BRANCH  21  23
HETATM   23  S   UNL     1      -9.799   8.287  69.321  1.00  0.00    -0.190 S  
HETATM   24  O   UNL     1      -8.819   7.845  70.283  1.00  0.00    -0.138 OA 
HETATM   25  N   UNL     1     -10.326   6.937  68.533  1.00  0.00    -0.177 N  
HETATM   26  O   UNL     1     -10.939   9.097  69.653  1.00  0.00    -0.226 OA 
HETATM   27  H2  UNL     1     -10.199   6.627  67.569  1.00  0.00     0.000 HD 
HETATM   28  H1  UNL     1     -10.818   6.512  69.317  1.00  0.00     0.000 HD 
ENDBRANCH  21  23
ENDBRANCH  20  21
ENDBRANCH  18  20
ENDBRANCH  13  14
ENDBRANCH   3  13
BRANCH  10  29
HETATM   29  C   UNL     1      -8.756  19.704  69.494  1.00  0.00     0.363 C  
HETATM   30  H   UNL     1      -9.159  21.584  69.360  1.00  0.00     0.000 HD 
HETATM   31  O   UNL     1      -9.433  20.806  68.888  1.00  0.00     0.662 OA 
HETATM   32  C   UNL     1      -7.254  19.917  69.397  1.00  0.00    -0.205 C  
ENDBRANCH  10  29
TORSDOF 6
ENDMDL
MODEL      236
REMARK 921   NORMALIZED FREE ENERGY PREDICTED BY IDOCK:   -1.31 KCAL/MOL
REMARK 922        TOTAL FREE ENERGY PREDICTED BY IDOCK:   -2.65 KCAL/MOL
REMARK 923 INTER-LIGAND FREE ENERGY PREDICTED BY IDOCK:   -2.38 KCAL/MOL
REMARK 924 INTRA-LIGAND FREE ENERGY PREDICTED BY IDOCK:   -0.28 KCAL/MOL
REMARK 927      BINDING AFFINITY PREDICTED BY RF-SCORE:    0.00 PKD
ROOT
HETATM    1  C   UNL     1      -9.284  11.290  67.482  1.00  0.00    -0.158 C  
HETATM    2  C   UNL     1      -8.296  10.124  67.334  1.00  0.00    -0.118 C  
HETATM    3  C   UNL     1      -8.974   9.025  68.123  1.00  0.00    -0.133 C  
HETATM    4  C   UNL     1      -6.903  10.541  67.789  1.00  0.00    -0.073 C  
HETATM    5  O   UNL     1     -11.916   9.399  70.273  1.00  0.00    -0.115 OA 
HETATM    6  C   UNL     1     -10.143   9.457  68.646  1.00  0.00    -0.190 C  
HETATM    7  N   UNL     1     -10.435  10.760  68.265  1.00  0.00    -0.171 N  
HETATM    8  O   UNL     1     -11.113  11.931  70.157  1.00  0.00     0.099 OA 
HETATM    9  C   UNL     1     -11.075   8.662  69.515  1.00  0.00     0.033 C  
HETATM   10  C   UNL     1      -9.183  12.421  68.554  1.00  0.00    -0.077 C  
HETATM   11  O   UNL     1     -11.122   7.441  69.538  1.00  0.00    -0.187 OA 
HETATM   12  C   UNL     1     -10.442  11.793  69.160  1.00  0.00    -0.024 C  
ENDROOT
BRANCH   3  13
HETATM   13  S   UNL     1      -8.279   7.469  68.377  1.00  0.00    -0.126 SA 
BRANCH  13  14
HETATM   14  C   UNL     1      -6.473   7.689  68.203  1.00  0.00    -0.054 C  
HETATM   15  N   UNL     1      -5.477   5.520  68.288  1.00  0.00    -0.007 NA 
HETATM   16  C   UNL     1      -5.727   6.638  67.380  1.00  0.00    -0.013 C  
HETATM   17  C   UNL     1      -5.837   7.531  69.589  1.00  0.00    -0.023 C  
HETATM   18  C   UNL     1      -5.219   6.130  69.613  1.00  0.00    -0.012 C  
HETATM   19  H   UNL     1      -4.734   4.896  67.973  1.00  0.00     0.000 HD 
BRANCH  18  20
HETATM   20  C   UNL     1      -5.748   5.209  70.732  1.00  0.00    -0.016 C  
BRANCH  20  21
HETATM   21  N   UNL     1      -6.875   5.879  71.470  1.00  0.00    -0.065 N  
HETATM   22  H   UNL     1      -7.593   6.421  70.991  1.00  0.00     0.000 HD 
BRANCH  21  23
HETATM   23  S   UNL     1      -6.869   5.677  73.128  1.00  0.00    -0.081 S  
HETATM   24  O   UNL     1      -7.843   4.666  73.462  1.00  0.00    -0.092 OA 
HETATM   25  N   UNL     1      -7.544   7.130  73.520  1.00  0.00    -0.088 N  
HETATM   26  O   UNL     1      -5.509   5.663  73.593  1.00  0.00    -0.023 OA 
HETATM   27  H2  UNL     1      -7.863   7.903  72.938  1.00  0.00     0.000 HD 
HETATM   28  H1  UNL     1      -7.540   7.006  74.532  1.00  0.00     0.000 HD 
ENDBRANCH  21  23
ENDBRANCH  20  21
ENDBRANCH  18  20
ENDBRANCH  13  14
ENDBRANCH   3  13
BRANCH  10  29
HETATM   29  C   UNL     1      -9.256  13.821  67.980  1.00  0.00    -0.195 C  
HETATM   30  H   UNL     1      -9.064  15.597  68.704  1.00  0.00     0.000 HD 
HETATM   31  O   UNL     1      -9.017  14.719  69.065  1.00  0.00    -0.186 OA 
HETATM   32  C   UNL     1     -10.623  14.107  67.379  1.00  0.00    -0.279 C  
ENDBRANCH  10  29
TORSDOF 6
ENDMDL
MODEL      237
REMARK 921   NORMALIZED FREE ENERGY PREDICTED BY IDOCK:   -0.23 KCAL/MOL
REMARK 922        TOTAL FREE ENERGY PREDICTED BY IDOCK:   -1.19 KCAL/MOL
REMARK 923 INTER-LIGAND FREE ENERGY PREDICTED BY IDOCK:   -3.17 KCAL/MOL
REMARK 924 INTRA-LIGAND FREE ENERGY PREDICTED BY IDOCK:    1.98 KCAL/MOL
REMARK 927      BINDING AFFINITY PREDICTED BY RF-SCORE:    0.00 PKD
ROOT
HETATM    1  C   UNL     1      -9.630  11.577  66.992  1.00  0.00    -0.185 C  
HETATM    2  C   UNL     1      -8.593  10.530  66.560  1.00  0.00    -0.140 C  
HETATM    3  C   UNL     1      -9.017   9.312  67.352  1.00  0.00    -0.124 C  
HETATM    4  C   UNL     1      -7.179  11.047  66.796  1.00  0.00    -0.139 C  
HETATM    5  O   UNL     1     -11.526   9.225  70.020  1.00  0.00    -0.181 OA 
HETATM    6  C   UNL     1     -10.099   9.584  68.114  1.00  0.00    -0.182 C  
HETATM    7  N   UNL     1     -10.565  10.877  67.915  1.00  0.00    -0.193 N  
HETATM    8  O   UNL     1     -10.973  11.827  70.000  1.00  0.00     0.068 OA 
HETATM    9  C   UNL     1     -10.783   8.636  69.058  1.00  0.00    -0.101 C  
HETATM   10  C   UNL     1      -9.424  12.627  68.130  1.00  0.00    -0.218 C  
HETATM   11  O   UNL     1     -10.723   7.419  68.974  1.00  0.00    -0.209 OA 
HETATM   12  C   UNL     1     -10.491  11.833  68.890  1.00  0.00    -0.154 C  
ENDROOT
BRANCH   3  13
HETATM   13  S   UNL     1      -8.159   7.818  67.330  1.00  0.00    -0.124 SA 
BRANCH  13  14
HETATM   14  C   UNL     1      -6.392   8.254  67.178  1.00  0.00    -0.057 C  
HETATM   15  N   UNL     1      -5.863   8.292  64.849  1.00  0.00    -0.045 NA 
HETATM   16  C   UNL     1      -6.005   9.166  66.012  1.00  0.00    -0.051 C  
HETATM   17  C   UNL     1      -5.610   6.973  66.863  1.00  0.00    -0.018 C  
HETATM   18  C   UNL     1      -5.297   7.025  65.364  1.00  0.00    -0.027 C  
HETATM   19  H   UNL     1      -5.319   8.705  64.091  1.00  0.00     0.000 HD 
BRANCH  18  20
HETATM   20  C   UNL     1      -5.839   5.831  64.550  1.00  0.00    -0.024 C  
BRANCH  20  21
HETATM   21  N   UNL     1      -6.681   4.943  65.424  1.00  0.00    -0.051 N  
HETATM   22  H   UNL     1      -6.587   4.929  66.439  1.00  0.00     0.000 HD 
BRANCH  21  23
HETATM   23  S   UNL     1      -7.783   3.979  64.619  1.00  0.00    -0.081 S  
HETATM   24  O   UNL     1      -9.072   4.150  65.244  1.00  0.00    -0.126 OA 
HETATM   25  N   UNL     1      -7.201   2.523  65.129  1.00  0.00    -0.057 N  
HETATM   26  O   UNL     1      -7.558   4.093  63.204  1.00  0.00    -0.059 OA 
HETATM   27  H2  UNL     1      -6.420   2.286  65.740  1.00  0.00     0.000 HD 
HETATM   28  H1  UNL     1      -7.874   1.935  64.638  1.00  0.00     0.000 HD 
ENDBRANCH  21  23
ENDBRANCH  20  21
ENDBRANCH  18  20
ENDBRANCH  13  14
ENDBRANCH   3  13
BRANCH  10  29
HETATM   29  C   UNL     1      -9.720  14.053  67.713  1.00  0.00    -0.228 C  
HETATM   30  H   UNL     1     -11.326  15.052  67.340  1.00  0.00     0.000 HD 
HETATM   31  O   UNL     1     -11.141  14.158  67.602  1.00  0.00    -0.269 OA 
HETATM   32  C   UNL     1      -9.083  14.387  66.374  1.00  0.00    -0.192 C  
ENDBRANCH  10  29
TORSDOF 6
ENDMDL
MODEL      238
REMARK 921   NORMALIZED FREE ENERGY PREDICTED BY IDOCK:    0.61 KCAL/MOL
REMARK 922        TOTAL FREE ENERGY PREDICTED BY IDOCK:   -0.06 KCAL/MOL
REMARK 923 INTER-LIGAND FREE ENERGY PREDICTED BY IDOCK:   -0.08 KCAL/MOL
REMARK 924 INTRA-LIGAND FREE ENERGY PREDICTED BY IDOCK:    0.02 KCAL/MOL
REMARK 927      BINDING AFFINITY PREDICTED BY RF-SCORE:    0.00 PKD
ROOT
HETATM    1  C   UNL     1      -9.504   3.381  70.088  1.00  0.00    -0.173 C  
HETATM    2  C   UNL     1     -10.220   4.561  69.416  1.00  0.00     0.021 C  
HETATM    3  C   UNL     1      -9.412   4.751  68.150  1.00  0.00    -0.141 C  
HETATM    4  C   UNL     1     -10.303   5.750  70.366  1.00  0.00    -0.310 C  
HETATM    5  O   UNL     1      -6.231   3.121  67.345  1.00  0.00    -0.030 OA 
HETATM    6  C   UNL     1      -8.402   3.856  68.084  1.00  0.00    -0.091 C  
HETATM    7  N   UNL     1      -8.420   2.969  69.153  1.00  0.00    -0.060 N  
HETATM    8  O   UNL     1      -6.254   2.795  69.985  1.00  0.00    -0.023 OA 
HETATM    9  C   UNL     1      -7.371   3.758  66.996  1.00  0.00    -0.071 C  
HETATM   10  C   UNL     1      -8.396   3.510  71.182  1.00  0.00    -0.087 C  
HETATM   11  O   UNL     1      -7.526   4.180  65.860  1.00  0.00    -0.078 OA 
HETATM   12  C   UNL     1      -7.445   2.967  70.111  1.00  0.00    -0.044 C  
ENDROOT
BRANCH   3  13
HETATM   13  S   UNL     1      -9.711   6.008  67.010  1.00  0.00    -0.148 SA 
BRANCH  13  14
HETATM   14  C   UNL     1     -10.548   7.341  67.938  1.00  0.00    -0.202 C  
HETATM   15  N   UNL     1     -10.855   9.173  66.436  1.00  0.00     0.193 NA 
HETATM   16  C   UNL     1     -11.597   8.155  67.178  1.00  0.00     2.379 C  
HETATM   17  C   UNL     1      -9.503   8.405  68.293  1.00  0.00    -0.147 C  
HETATM   18  C   UNL     1      -9.720   9.557  67.307  1.00  0.00    -0.167 C  
HETATM   19  H   UNL     1     -11.429   9.962  66.140  1.00  0.00     0.000 HD 
BRANCH  18  20
HETATM   20  C   UNL     1      -8.489   9.913  66.447  1.00  0.00    -0.124 C  
BRANCH  20  21
HETATM   21  N   UNL     1      -7.814   8.661  65.958  1.00  0.00    -0.099 N  
HETATM   22  H   UNL     1      -7.610   7.875  66.575  1.00  0.00     0.000 HD 
BRANCH  21  23
HETATM   23  S   UNL     1      -7.423   8.643  64.335  1.00  0.00    -0.114 S  
HETATM   24  O   UNL     1      -6.325   7.726  64.146  1.00  0.00    -0.055 OA 
HETATM   25  N   UNL     1      -6.786  10.162  64.255  1.00  0.00    -0.189 N  
HETATM   26  O   UNL     1      -8.634   8.612  63.561  1.00  0.00    -0.126 OA 
HETATM   27  H2  UNL     1      -6.669  10.882  64.968  1.00  0.00     0.000 HD 
HETATM   28  H1  UNL     1      -6.547  10.151  63.264  1.00  0.00     0.000 HD 
ENDBRANCH  21  23
ENDBRANCH  20  21
ENDBRANCH  18  20
ENDBRANCH  13  14
ENDBRANCH   3  13
BRANCH  10  29
HETATM   29  C   UNL     1      -8.661   2.684  72.424  1.00  0.00    -0.070 C  
HETATM   30  H   UNL     1      -8.572   3.017  74.321  1.00  0.00     0.000 HD 
HETATM   31  O   UNL     1      -8.407   3.536  73.542  1.00  0.00    -0.078 OA 
HETATM   32  C   UNL     1      -7.746   1.472  72.494  1.00  0.00    -0.043 C  
ENDBRANCH  10  29
TORSDOF 6
ENDMDL
MODEL      239
REMARK 921   NORMALIZED FREE ENERGY PREDICTED BY IDOCK:    1.68 KCAL/MOL
REMARK 922        TOTAL FREE ENERGY PREDICTED BY IDOCK:    1.38 KCAL/MOL
REMARK 923 INTER-LIGAND FREE ENERGY PREDICTED BY IDOCK:   -2.31 KCAL/MOL
REMARK 924 INTRA-LIGAND FREE ENERGY PREDICTED BY IDOCK:    3.69 KCAL/MOL
REMARK 927      BINDING AFFINITY PREDICTED BY RF-SCORE:    0.00 PKD
ROOT
HETATM    1  C   UNL     1      -8.142  17.871  67.896  1.00  0.00    -0.244 C  
HETATM    2  C   UNL     1      -8.179  16.343  67.750  1.00  0.00    -0.162 C  
HETATM    3  C   UNL     1      -9.246  16.146  66.695  1.00  0.00    -0.246 C  
HETATM    4  C   UNL     1      -8.415  15.681  69.102  1.00  0.00    -0.253 C  
HETATM    5  O   UNL     1     -11.489  18.722  65.371  1.00  0.00     0.521 OA 
HETATM    6  C   UNL     1      -9.751  17.332  66.292  1.00  0.00    -0.266 C  
HETATM    7  N   UNL     1      -9.114  18.405  66.902  1.00  0.00    -0.278 N  
HETATM    8  O   UNL     1     -10.745  19.889  67.643  1.00  0.00    -0.375 OA 
HETATM    9  C   UNL     1     -10.849  17.535  65.287  1.00  0.00     0.125 C  
HETATM   10  C   UNL     1      -8.924  18.688  68.974  1.00  0.00    -0.116 C  
HETATM   11  O   UNL     1     -11.148  16.727  64.421  1.00  0.00    -1.072 OA 
HETATM   12  C   UNL     1      -9.754  19.215  67.799  1.00  0.00    -0.321 C  
ENDROOT
BRANCH   3  13
HETATM   13  S   UNL     1      -9.784  14.597  66.164  1.00  0.00    -0.315 SA 
BRANCH  13  14
HETATM   14  C   UNL     1     -11.536  14.473  66.668  1.00  0.00    -0.366 C  
HETATM   15  N   UNL     1     -12.066  16.446  67.905  1.00  0.00     0.438 NA 
HETATM   16  C   UNL     1     -12.353  15.765  66.644  1.00  0.00     1.614 C  
HETATM   17  C   UNL     1     -11.579  14.086  68.151  1.00  0.00    -0.369 C  
HETATM   18  C   UNL     1     -11.911  15.373  68.914  1.00  0.00    -0.329 C  
HETATM   19  H   UNL     1     -12.761  17.148  68.158  1.00  0.00     0.000 HD 
BRANCH  18  20
HETATM   20  C   UNL     1     -10.863  15.786  69.970  1.00  0.00    -0.342 C  
BRANCH  20  21
HETATM   21  N   UNL     1     -11.218  15.204  71.311  1.00  0.00    -0.518 N  
HETATM   22  H   UNL     1     -10.684  14.444  71.733  1.00  0.00     0.000 HD 
BRANCH  21  23
HETATM   23  S   UNL     1     -12.544  15.885  72.062  1.00  0.00    -0.416 S  
HETATM   24  O   UNL     1     -12.107  17.070  72.760  1.00  0.00     0.010 OA 
HETATM   25  N   UNL     1     -12.761  14.718  73.207  1.00  0.00    -0.490 N  
HETATM   26  O   UNL     1     -13.661  15.855  71.158  1.00  0.00    -0.444 OA 
HETATM   27  H2  UNL     1     -12.250  13.856  73.396  1.00  0.00     0.000 HD 
HETATM   28  H1  UNL     1     -13.571  15.134  73.666  1.00  0.00     0.000 HD 
ENDBRANCH  21  23
ENDBRANCH  20  21
ENDBRANCH  18  20
ENDBRANCH  13  14
ENDBRANCH   3  13
BRANCH  10  29
HETATM   29  C   UNL     1      -8.059  19.652  69.760  1.00  0.00     0.538 C  
HETATM   30  H   UNL     1      -7.888  21.571  69.835  1.00  0.00     0.000 HD 
HETATM   31  O   UNL     1      -8.431  20.967  69.342  1.00  0.00     1.716 OA 
HETATM   32  C   UNL     1      -6.581  19.432  69.482  1.00  0.00    -0.346 C  
ENDBRANCH  10  29
TORSDOF 6
ENDMDL
MODEL      240
REMARK 921   NORMALIZED FREE ENERGY PREDICTED BY IDOCK:    1.77 KCAL/MOL
REMARK 922        TOTAL FREE ENERGY PREDICTED BY IDOCK:    1.51 KCAL/MOL
REMARK 923 INTER-LIGAND FREE ENERGY PREDICTED BY IDOCK:    2.05 KCAL/MOL
REMARK 924 INTRA-LIGAND FREE ENERGY PREDICTED BY IDOCK:   -0.54 KCAL/MOL
REMARK 927      BINDING AFFINITY PREDICTED BY RF-SCORE:    0.00 PKD
ROOT
HETATM    1  C   UNL     1      -8.249  11.156  66.567  1.00  0.00    -0.167 C  
HETATM    2  C   UNL     1      -8.980  10.618  67.806  1.00  0.00    -0.140 C  
HETATM    3  C   UNL     1      -8.983  11.820  68.725  1.00  0.00     0.023 C  
HETATM    4  C   UNL     1      -8.299   9.356  68.323  1.00  0.00    -0.119 C  
HETATM    5  O   UNL     1      -7.148  14.949  68.211  1.00  0.00    -0.099 OA 
HETATM    6  C   UNL     1      -8.368  12.873  68.145  1.00  0.00    -0.168 C  
HETATM    7  N   UNL     1      -7.961  12.590  66.848  1.00  0.00    -0.073 N  
HETATM    8  O   UNL     1      -5.774  13.344  66.594  1.00  0.00     0.797 OA 
HETATM    9  C   UNL     1      -8.147  14.225  68.763  1.00  0.00    -0.109 C  
HETATM   10  C   UNL     1      -6.722  10.990  66.284  1.00  0.00    -0.103 C  
HETATM   11  O   UNL     1      -8.819  14.683  69.674  1.00  0.00     0.121 OA 
HETATM   12  C   UNL     1      -6.640  12.504  66.503  1.00  0.00     1.103 C  
ENDROOT
BRANCH   3  13
HETATM   13  S   UNL     1      -9.617  11.790  70.327  1.00  0.00     4.106 SA 
BRANCH  13  14
HETATM   14  C   UNL     1     -11.424  11.587  70.150  1.00  0.00    -0.170 C  
HETATM   15  N   UNL     1     -11.927  11.658  67.816  1.00  0.00    -0.623 NA 
HETATM   16  C   UNL     1     -11.912  10.754  68.964  1.00  0.00    -0.186 C  
HETATM   17  C   UNL     1     -12.032  12.963  69.853  1.00  0.00    -0.377 C  
HETATM   18  C   UNL     1     -12.332  12.978  68.351  1.00  0.00     0.218 C  
HETATM   19  H   UNL     1     -12.511  11.332  67.046  1.00  0.00     0.000 HD 
BRANCH  18  20
HETATM   20  C   UNL     1     -11.632  14.107  67.564  1.00  0.00    -0.367 C  
BRANCH  20  21
HETATM   21  N   UNL     1     -11.191  13.607  66.215  1.00  0.00    -0.302 N  
HETATM   22  H   UNL     1     -10.586  12.794  66.108  1.00  0.00     0.000 HD 
BRANCH  21  23
HETATM   23  S   UNL     1     -11.760  14.474  64.907  1.00  0.00    -0.419 S  
HETATM   24  O   UNL     1     -11.142  13.947  63.714  1.00  0.00     0.080 OA 
HETATM   25  N   UNL     1     -10.995  15.895  65.246  1.00  0.00    -0.350 N  
HETATM   26  O   UNL     1     -13.177  14.669  65.054  1.00  0.00    -0.358 OA 
HETATM   27  H2  UNL     1     -10.373  16.160  66.009  1.00  0.00     0.000 HD 
HETATM   28  H1  UNL     1     -11.342  16.424  64.446  1.00  0.00     0.000 HD 
ENDBRANCH  21  23
ENDBRANCH  20  21
ENDBRANCH  18  20
ENDBRANCH  13  14
ENDBRANCH   3  13
BRANCH  10  29
HETATM   29  C   UNL     1      -6.408  10.423  64.914  1.00  0.00    -0.086 C  
HETATM   30  H   UNL     1      -7.460   9.678  63.481  1.00  0.00     0.000 HD 
HETATM   31  O   UNL     1      -7.657  10.033  64.340  1.00  0.00    -0.139 OA 
HETATM   32  C   UNL     1      -5.495   9.212  65.007  1.00  0.00    -0.046 C  
ENDBRANCH  10  29
TORSDOF 6
ENDMDL
MODEL      241
REMARK 921   NORMALIZED FREE ENERGY PREDICTED BY IDOCK:    9.59 KCAL/MOL
REMARK 922        TOTAL FREE ENERGY PREDICTED BY IDOCK:   12.07 KCAL/MOL
REMARK 923 INTER-LIGAND FREE ENERGY PREDICTED BY IDOCK:    5.55 KCAL/MOL
REMARK 924 INTRA-LIGAND FREE ENERGY PREDICTED BY IDOCK:    6.51 KCAL/MOL
REMARK 927      BINDING AFFINITY PREDICTED BY RF-SCORE:    0.00 PKD
ROOT
HETATM    1  C   UNL     1     -11.769   8.616  72.453  1.00  0.00    -0.323 C  
HETATM    2  C   UNL     1     -10.517   9.365  71.976  1.00  0.00     0.268 C  
HETATM    3  C   UNL     1     -11.054  10.192  70.828  1.00  0.00    -0.298 C  
HETATM    4  C   UNL     1      -9.396   8.384  71.655  1.00  0.00    -0.280 C  
HETATM    5  O   UNL     1     -14.381   9.906  69.320  1.00  0.00     3.247 OA 
HETATM    6  C   UNL     1     -12.376   9.973  70.652  1.00  0.00    -0.253 C  
HETATM    7  N   UNL     1     -12.892   9.107  71.607  1.00  0.00    -0.342 N  
HETATM    8  O   UNL     1     -14.217   7.536  70.516  1.00  0.00     0.523 OA 
HETATM    9  C   UNL     1     -13.245  10.586  69.591  1.00  0.00     1.031 C  
HETATM   10  C   UNL     1     -12.175   7.174  72.010  1.00  0.00    -0.314 C  
HETATM   11  O   UNL     1     -12.995  11.636  69.018  1.00  0.00     0.547 OA 
HETATM   12  C   UNL     1     -13.340   7.855  71.285  1.00  0.00    -0.162 C  
ENDROOT
BRANCH   3  13
HETATM   13  S   UNL     1     -10.067  11.201  69.840  1.00  0.00     0.908 SA 
BRANCH  13  14
HETATM   14  C   UNL     1     -10.752  12.887  69.998  1.00  0.00     1.114 C  
HETATM   15  N   UNL     1     -12.388  13.159  68.279  1.00  0.00     0.002 NA 
HETATM   16  C   UNL     1     -12.249  13.051  69.730  1.00  0.00    -0.177 C  
HETATM   17  C   UNL     1     -10.127  13.761  68.904  1.00  0.00    -0.075 C  
HETATM   18  C   UNL     1     -11.196  13.906  67.816  1.00  0.00    -0.293 C  
HETATM   19  H   UNL     1     -13.271  13.574  67.983  1.00  0.00     0.000 HD 
BRANCH  18  20
HETATM   20  C   UNL     1     -10.768  13.408  66.419  1.00  0.00    -0.286 C  
BRANCH  20  21
HETATM   21  N   UNL     1     -11.304  14.323  65.352  1.00  0.00    -0.319 N  
HETATM   22  H   UNL     1     -11.275  15.338  65.440  1.00  0.00     0.000 HD 
BRANCH  21  23
HETATM   23  S   UNL     1     -11.952  13.563  64.014  1.00  0.00    -0.416 S  
HETATM   24  O   UNL     1     -12.706  14.538  63.263  1.00  0.00    -0.453 OA 
HETATM   25  N   UNL     1     -13.053  12.631  64.813  1.00  0.00    -0.626 N  
HETATM   26  O   UNL     1     -10.956  12.703  63.436  1.00  0.00    -0.428 OA 
HETATM   27  H2  UNL     1     -13.269  12.545  65.806  1.00  0.00     0.000 HD 
HETATM   28  H1  UNL     1     -13.448  12.167  63.995  1.00  0.00     0.000 HD 
ENDBRANCH  21  23
ENDBRANCH  20  21
ENDBRANCH  18  20
ENDBRANCH  13  14
ENDBRANCH   3  13
BRANCH  10  29
HETATM   29  C   UNL     1     -12.469   6.236  73.163  1.00  0.00     1.394 C  
HETATM   30  H   UNL     1     -11.393   5.149  74.336  1.00  0.00     0.000 HD 
HETATM   31  O   UNL     1     -11.208   5.737  73.613  1.00  0.00    -0.107 OA 
HETATM   32  C   UNL     1     -13.346   5.074  72.728  1.00  0.00     1.671 C  
ENDBRANCH  10  29
TORSDOF 6
ENDMDL
MODEL      242
REMARK 921   NORMALIZED FREE ENERGY PREDICTED BY IDOCK:   16.22 KCAL/MOL
REMARK 922        TOTAL FREE ENERGY PREDICTED BY IDOCK:   21.03 KCAL/MOL
REMARK 923 INTER-LIGAND FREE ENERGY PREDICTED BY IDOCK:   20.36 KCAL/MOL
REMARK 924 INTRA-LIGAND FREE ENERGY PREDICTED BY IDOCK:    0.68 KCAL/MOL
REMARK 927      BINDING AFFINITY PREDICTED BY RF-SCORE:    0.00 PKD
ROOT
HETATM    1  C   UNL     1      -8.330  18.500  68.814  1.00  0.00    -0.246 C  
HETATM    2  C   UNL     1      -7.608  17.204  68.418  1.00  0.00    -0.231 C  
HETATM    3  C   UNL     1      -8.664  16.153  68.685  1.00  0.00    -0.214 C  
HETATM    4  C   UNL     1      -6.294  17.070  69.177  1.00  0.00    -0.211 C  
HETATM    5  O   UNL     1     -11.858  16.675  70.402  1.00  0.00     0.226 OA 
HETATM    6  C   UNL     1      -9.798  16.717  69.155  1.00  0.00    -0.244 C  
HETATM    7  N   UNL     1      -9.712  18.102  69.202  1.00  0.00    -0.172 N  
HETATM    8  O   UNL     1     -10.523  18.807  71.265  1.00  0.00     1.912 OA 
HETATM    9  C   UNL     1     -11.048  15.990  69.564  1.00  0.00    -0.333 C  
HETATM   10  C   UNL     1      -8.228  19.194  70.209  1.00  0.00     1.634 C  
HETATM   11  O   UNL     1     -11.361  14.879  69.165  1.00  0.00    -0.260 OA 
HETATM   12  C   UNL     1      -9.695  18.788  70.384  1.00  0.00     1.840 C  
ENDROOT
BRANCH   3  13
HETATM   13  S   UNL     1      -8.393  14.462  68.491  1.00  0.00    -0.153 SA 
BRANCH  13  14
HETATM   14  C   UNL     1      -8.411  14.153  66.690  1.00  0.00     0.127 C  
HETATM   15  N   UNL     1      -8.066  16.251  65.601  1.00  0.00     0.332 NA 
HETATM   16  C   UNL     1      -7.426  14.959  65.842  1.00  0.00     4.100 C  
HETATM   17  C   UNL     1      -9.767  14.613  66.141  1.00  0.00    -0.344 C  
HETATM   18  C   UNL     1      -9.512  15.962  65.460  1.00  0.00    -0.054 C  
HETATM   19  H   UNL     1      -7.672  16.761  64.811  1.00  0.00     0.000 HD 
BRANCH  18  20
HETATM   20  C   UNL     1     -10.344  17.135  66.019  1.00  0.00    -0.309 C  
BRANCH  20  21
HETATM   21  N   UNL     1     -10.289  18.309  65.079  1.00  0.00     1.070 N  
HETATM   22  H   UNL     1     -10.973  18.443  64.335  1.00  0.00     0.000 HD 
BRANCH  21  23
HETATM   23  S   UNL     1      -9.031  19.376  65.336  1.00  0.00     1.386 S  
HETATM   24  O   UNL     1      -9.366  20.204  66.469  1.00  0.00    -0.371 OA 
HETATM   25  N   UNL     1      -9.262  20.303  63.991  1.00  0.00     4.254 N  
HETATM   26  O   UNL     1      -7.784  18.673  65.199  1.00  0.00     0.126 OA 
HETATM   27  H2  UNL     1      -9.952  20.244  63.243  1.00  0.00     0.000 HD 
HETATM   28  H1  UNL     1      -8.494  20.955  64.149  1.00  0.00     0.000 HD 
ENDBRANCH  21  23
ENDBRANCH  20  21
ENDBRANCH  18  20
ENDBRANCH  13  14
ENDBRANCH   3  13
BRANCH  10  29
HETATM   29  C   UNL     1      -7.870  20.665  70.140  1.00  0.00     1.992 C  
HETATM   30  H   UNL     1      -8.879  22.302  70.007  1.00  0.00     0.000 HD 
HETATM   31  O   UNL     1      -9.103  21.380  70.051  1.00  0.00     3.641 OA 
HETATM   32  C   UNL     1      -7.017  20.975  68.921  1.00  0.00     0.857 C  
ENDBRANCH  10  29
TORSDOF 6
ENDMDL
MODEL      243
REMARK 921   NORMALIZED FREE ENERGY PREDICTED BY IDOCK:   21.25 KCAL/MOL
REMARK 922        TOTAL FREE ENERGY PREDICTED BY IDOCK:   27.82 KCAL/MOL
REMARK 923 INTER-LIGAND FREE ENERGY PREDICTED BY IDOCK:   22.06 KCAL/MOL
REMARK 924 INTRA-LIGAND FREE ENERGY PREDICTED BY IDOCK:    5.75 KCAL/MOL
REMARK 927      BINDING AFFINITY PREDICTED BY RF-SCORE:    0.00 PKD
ROOT
HETATM    1  C   UNL     1     -11.916   8.513  72.443  1.00  0.00    -0.364 C  
HETATM    2  C   UNL     1     -10.704   9.455  72.480  1.00  0.00     1.292 C  
HETATM    3  C   UNL     1     -11.191  10.639  71.674  1.00  0.00     1.610 C  
HETATM    4  C   UNL     1      -9.455   8.742  71.974  1.00  0.00    -0.336 C  
HETATM    5  O   UNL     1     -14.275  10.799  69.704  1.00  0.00     2.658 OA 
HETATM    6  C   UNL     1     -12.453  10.438  71.236  1.00  0.00    -0.415 C  
HETATM    7  N   UNL     1     -12.980   9.239  71.696  1.00  0.00    -0.351 N  
HETATM    8  O   UNL     1     -13.999   8.162  69.904  1.00  0.00     2.681 OA 
HETATM    9  C   UNL     1     -13.256  11.375  70.379  1.00  0.00     0.526 C  
HETATM   10  C   UNL     1     -12.113   7.346  71.424  1.00  0.00    -0.357 C  
HETATM   11  O   UNL     1     -13.055  12.577  70.297  1.00  0.00     0.396 OA 
HETATM   12  C   UNL     1     -13.254   8.196  70.856  1.00  0.00     0.260 C  
ENDROOT
BRANCH   3  13
HETATM   13  S   UNL     1     -10.211  12.008  71.306  1.00  0.00     9.176 SA 
BRANCH  13  14
HETATM   14  C   UNL     1     -11.227  13.475  71.694  1.00  0.00     3.111 C  
HETATM   15  N   UNL     1     -11.701  14.583  69.632  1.00  0.00    -0.289 NA 
HETATM   16  C   UNL     1     -12.340  13.824  70.705  1.00  0.00    -0.379 C  
HETATM   17  C   UNL     1     -10.326  14.714  71.621  1.00  0.00     2.294 C  
HETATM   18  C   UNL     1     -10.647  15.392  70.286  1.00  0.00    -0.277 C  
HETATM   19  H   UNL     1     -12.354  15.134  69.076  1.00  0.00     0.000 HD 
BRANCH  18  20
HETATM   20  C   UNL     1      -9.440  15.556  69.338  1.00  0.00    -0.278 C  
BRANCH  20  21
HETATM   21  N   UNL     1      -9.809  16.427  68.168  1.00  0.00    -0.234 N  
HETATM   22  H   UNL     1     -10.325  17.300  68.281  1.00  0.00     0.000 HD 
BRANCH  21  23
HETATM   23  S   UNL     1      -9.318  15.869  66.673  1.00  0.00    -0.273 S  
HETATM   24  O   UNL     1      -8.841  14.517  66.832  1.00  0.00    -0.228 OA 
HETATM   25  N   UNL     1      -7.982  16.824  66.520  1.00  0.00    -0.270 N  
HETATM   26  O   UNL     1     -10.283  16.267  65.685  1.00  0.00    -0.380 OA 
HETATM   27  H2  UNL     1      -7.584  17.530  67.139  1.00  0.00     0.000 HD 
HETATM   28  H1  UNL     1      -7.683  16.483  65.607  1.00  0.00     0.000 HD 
ENDBRANCH  21  23
ENDBRANCH  20  21
ENDBRANCH  18  20
ENDBRANCH  13  14
ENDBRANCH   3  13
BRANCH  10  29
HETATM   29  C   UNL     1     -12.435   6.014  72.071  1.00  0.00     0.172 C  
HETATM   30  H   UNL     1     -12.155   5.250  73.818  1.00  0.00     0.000 HD 
HETATM   31  O   UNL     1     -11.953   6.086  73.413  1.00  0.00     0.597 OA 
HETATM   32  C   UNL     1     -11.752   4.863  71.349  1.00  0.00     1.723 C  
ENDBRANCH  10  29
TORSDOF 6
ENDMDL
MODEL      244
REMARK 921   NORMALIZED FREE ENERGY PREDICTED BY IDOCK:   27.79 KCAL/MOL
REMARK 922        TOTAL FREE ENERGY PREDICTED BY IDOCK:   36.65 KCAL/MOL
REMARK 923 INTER-LIGAND FREE ENERGY PREDICTED BY IDOCK:   35.15 KCAL/MOL
REMARK 924 INTRA-LIGAND FREE ENERGY PREDICTED BY IDOCK:    1.49 KCAL/MOL
REMARK 927      BINDING AFFINITY PREDICTED BY RF-SCORE:    0.00 PKD
ROOT
HETATM    1  C   UNL     1      -8.812  16.904  67.310  1.00  0.00    -0.195 C  
HETATM    2  C   UNL     1      -9.413  15.511  67.547  1.00  0.00    -0.208 C  
HETATM    3  C   UNL     1      -8.488  14.621  66.745  1.00  0.00    -0.110 C  
HETATM    4  C   UNL     1     -10.889  15.492  67.168  1.00  0.00    -0.316 C  
HETATM    5  O   UNL     1      -5.894  15.733  64.410  1.00  0.00    11.154 OA 
HETATM    6  C   UNL     1      -7.522  15.348  66.142  1.00  0.00     1.924 C  
HETATM    7  N   UNL     1      -7.600  16.694  66.472  1.00  0.00    -0.281 N  
HETATM    8  O   UNL     1      -7.387  17.932  64.513  1.00  0.00     2.555 OA 
HETATM    9  C   UNL     1      -6.447  14.818  65.237  1.00  0.00    12.858 C  
HETATM   10  C   UNL     1      -9.291  17.913  66.218  1.00  0.00    -0.213 C  
HETATM   11  O   UNL     1      -6.050  13.663  65.241  1.00  0.00     9.365 OA 
HETATM   12  C   UNL     1      -7.937  17.649  65.552  1.00  0.00     0.794 C  
ENDROOT
BRANCH   3  13
HETATM   13  S   UNL     1      -8.717  12.922  66.573  1.00  0.00     0.154 SA 
BRANCH  13  14
HETATM   14  C   UNL     1      -7.409  12.133  67.576  1.00  0.00    -0.135 C  
HETATM   15  N   UNL     1      -5.899  11.061  66.067  1.00  0.00    -0.223 NA 
HETATM   16  C   UNL     1      -5.988  12.174  67.011  1.00  0.00    -0.095 C  
HETATM   17  C   UNL     1      -7.694  10.627  67.633  1.00  0.00    -0.097 C  
HETATM   18  C   UNL     1      -6.719   9.974  66.649  1.00  0.00    -0.081 C  
HETATM   19  H   UNL     1      -4.942  10.783  65.853  1.00  0.00     0.000 HD 
BRANCH  18  20
HETATM   20  C   UNL     1      -7.387   9.154  65.525  1.00  0.00    -0.089 C  
BRANCH  20  21
HETATM   21  N   UNL     1      -8.393   8.198  66.105  1.00  0.00    -0.119 N  
HETATM   22  H   UNL     1      -9.397   8.318  65.973  1.00  0.00     0.000 HD 
BRANCH  21  23
HETATM   23  S   UNL     1      -7.755   6.926  66.978  1.00  0.00    -0.105 S  
HETATM   24  O   UNL     1      -7.664   7.330  68.361  1.00  0.00    -0.115 OA 
HETATM   25  N   UNL     1      -6.226   6.995  66.365  1.00  0.00    -0.038 N  
HETATM   26  O   UNL     1      -8.370   5.702  66.541  1.00  0.00    -0.109 OA 
HETATM   27  H2  UNL     1      -5.804   7.616  65.674  1.00  0.00     0.000 HD 
HETATM   28  H1  UNL     1      -5.836   6.219  66.899  1.00  0.00     0.000 HD 
ENDBRANCH  21  23
ENDBRANCH  20  21
ENDBRANCH  18  20
ENDBRANCH  13  14
ENDBRANCH   3  13
BRANCH  10  29
HETATM   29  C   UNL     1      -9.595  19.298  66.752  1.00  0.00    -0.334 C  
HETATM   30  H   UNL     1     -10.164  20.002  68.454  1.00  0.00     0.000 HD 
HETATM   31  O   UNL     1      -9.973  19.133  68.120  1.00  0.00    -0.343 OA 
HETATM   32  C   UNL     1     -10.734  19.954  65.988  1.00  0.00    -0.446 C  
ENDBRANCH  10  29
TORSDOF 6
ENDMDL
