MODEL        1
REMARK 921   NORMALIZED FREE ENERGY PREDICTED BY IDOCK:   -6.61 KCAL/MOL
REMARK 922        TOTAL FREE ENERGY PREDICTED BY IDOCK:   -8.13 KCAL/MOL
REMARK 923 INTER-LIGAND FREE ENERGY PREDICTED BY IDOCK:   -7.77 KCAL/MOL
REMARK 924 INTRA-LIGAND FREE ENERGY PREDICTED BY IDOCK:   -0.35 KCAL/MOL
REMARK 927      BINDING AFFINITY PREDICTED BY RF-SCORE:    0.00 PKD
ROOT
HETATM    1  C   UNL     1     -12.397  14.756  71.865  1.00  0.00    -0.417 C  
HETATM    2  C   UNL     1     -12.085  13.907  70.641  1.00  0.00    -0.347 C  
ENDROOT
BRANCH   2   3
HETATM    3  N   UNL     1     -10.984  14.505  69.870  1.00  0.00    -0.433 NA 
HETATM    4  H   UNL     1     -10.487  13.792  69.337  1.00  0.00     0.000 HD 
BRANCH   3   5
HETATM    5  C   UNL     1     -11.417  15.604  68.993  1.00  0.00    -0.363 C  
HETATM    6  C   UNL     1     -10.771  16.960  69.380  1.00  0.00    -0.258 C  
HETATM    7  C   UNL     1      -9.695  17.709  68.568  1.00  0.00    -0.328 C  
HETATM    8  S   UNL     1      -9.158  17.040  67.007  1.00  0.00    -0.228 S  
HETATM    9  C   UNL     1     -10.104  19.179  68.417  1.00  0.00    -0.498 C  
HETATM   10  C   UNL     1     -10.260  15.708  66.734  1.00  0.00    -0.276 A  
HETATM   11  O   UNL     1      -7.856  16.432  67.174  1.00  0.00    -0.157 OA 
HETATM   12  O   UNL     1      -9.448  17.978  65.944  1.00  0.00    -0.520 OA 
HETATM   13  C   UNL     1     -11.202  15.156  67.570  1.00  0.00    -0.331 A  
HETATM   14  C   UNL     1     -11.942  14.136  66.873  1.00  0.00    -0.479 A  
HETATM   15  C   UNL     1     -11.510  13.955  65.570  1.00  0.00    -0.316 A  
HETATM   16  S   UNL     1     -10.205  14.986  65.196  1.00  0.00    -0.322 SA 
BRANCH  15  17
HETATM   17  S   UNL     1     -12.063  12.909  64.236  1.00  0.00    -0.440 S  
HETATM   18  O   UNL     1     -13.260  12.279  64.744  1.00  0.00    -0.697 OA 
HETATM   19  N   UNL     1     -12.533  13.936  62.991  1.00  0.00    -1.009 N  
HETATM   20  O   UNL     1     -10.904  12.173  63.796  1.00  0.00    -0.352 OA 
HETATM   21  H1  UNL     1     -12.850  13.338  62.228  1.00  0.00     0.000 HD 
HETATM   22  H2  UNL     1     -12.508  14.955  62.997  1.00  0.00     0.000 HD 
ENDBRANCH  15  17
ENDBRANCH   3   5
ENDBRANCH   2   3
TORSDOF 3
ENDMDL
MODEL        2
REMARK 921   NORMALIZED FREE ENERGY PREDICTED BY IDOCK:   -6.54 KCAL/MOL
REMARK 922        TOTAL FREE ENERGY PREDICTED BY IDOCK:   -8.04 KCAL/MOL
REMARK 923 INTER-LIGAND FREE ENERGY PREDICTED BY IDOCK:   -7.59 KCAL/MOL
REMARK 924 INTRA-LIGAND FREE ENERGY PREDICTED BY IDOCK:   -0.45 KCAL/MOL
REMARK 927      BINDING AFFINITY PREDICTED BY RF-SCORE:    0.00 PKD
ROOT
HETATM    1  C   UNL     1     -11.802  16.073  72.063  1.00  0.00    -0.623 C  
HETATM    2  C   UNL     1     -13.112  15.615  71.437  1.00  0.00    -0.487 C  
ENDROOT
BRANCH   2   3
HETATM    3  N   UNL     1     -12.975  15.516  69.976  1.00  0.00    -0.630 NA 
HETATM    4  H   UNL     1     -13.072  16.433  69.541  1.00  0.00     0.000 HD 
BRANCH   3   5
HETATM    5  C   UNL     1     -11.726  14.865  69.551  1.00  0.00    -0.320 C  
HETATM    6  C   UNL     1     -11.909  13.347  69.289  1.00  0.00    -0.385 C  
HETATM    7  C   UNL     1     -11.880  12.661  67.909  1.00  0.00    -0.332 C  
HETATM    8  S   UNL     1     -11.545  13.638  66.457  1.00  0.00    -0.386 S  
HETATM    9  C   UNL     1     -10.955  11.440  67.967  1.00  0.00    -0.290 C  
HETATM   10  C   UNL     1     -11.106  15.201  67.110  1.00  0.00    -0.335 A  
HETATM   11  O   UNL     1     -12.780  13.857  65.736  1.00  0.00    -0.504 OA 
HETATM   12  O   UNL     1     -10.341  13.161  65.811  1.00  0.00    -0.279 OA 
HETATM   13  C   UNL     1     -11.169  15.667  68.403  1.00  0.00    -0.352 A  
HETATM   14  C   UNL     1     -10.606  16.990  68.477  1.00  0.00    -0.370 A  
HETATM   15  C   UNL     1     -10.174  17.460  67.248  1.00  0.00    -0.324 A  
HETATM   16  S   UNL     1     -10.469  16.328  66.009  1.00  0.00    -0.309 SA 
BRANCH  15  17
HETATM   17  S   UNL     1      -9.359  18.960  66.734  1.00  0.00    -0.333 S  
HETATM   18  O   UNL     1      -8.270  18.511  65.897  1.00  0.00    -0.497 OA 
HETATM   19  N   UNL     1     -10.444  19.774  65.740  1.00  0.00    -0.503 N  
HETATM   20  O   UNL     1      -9.171  19.745  67.928  1.00  0.00    -0.327 OA 
HETATM   21  H1  UNL     1      -9.978  20.632  65.446  1.00  0.00     0.000 HD 
HETATM   22  H2  UNL     1     -11.382  19.470  65.482  1.00  0.00     0.000 HD 
ENDBRANCH  15  17
ENDBRANCH   3   5
ENDBRANCH   2   3
TORSDOF 3
ENDMDL
MODEL        3
REMARK 921   NORMALIZED FREE ENERGY PREDICTED BY IDOCK:   -6.51 KCAL/MOL
REMARK 922        TOTAL FREE ENERGY PREDICTED BY IDOCK:   -8.00 KCAL/MOL
REMARK 923 INTER-LIGAND FREE ENERGY PREDICTED BY IDOCK:   -7.58 KCAL/MOL
REMARK 924 INTRA-LIGAND FREE ENERGY PREDICTED BY IDOCK:   -0.43 KCAL/MOL
REMARK 927      BINDING AFFINITY PREDICTED BY RF-SCORE:    0.00 PKD
ROOT
HETATM    1  C   UNL     1     -13.619  15.630  72.467  1.00  0.00    -0.642 C  
HETATM    2  C   UNL     1     -12.184  15.849  72.011  1.00  0.00    -0.490 C  
ENDROOT
BRANCH   2   3
HETATM    3  N   UNL     1     -11.630  14.607  71.450  1.00  0.00    -0.504 NA 
HETATM    4  H   UNL     1     -11.475  13.916  72.184  1.00  0.00     0.000 HD 
BRANCH   3   5
HETATM    5  C   UNL     1     -12.446  14.043  70.365  1.00  0.00    -0.350 C  
HETATM    6  C   UNL     1     -12.120  14.676  68.986  1.00  0.00    -0.270 C  
HETATM    7  C   UNL     1     -11.395  13.973  67.821  1.00  0.00    -0.303 C  
HETATM    8  S   UNL     1     -10.927  12.263  67.991  1.00  0.00    -0.242 S  
HETATM    9  C   UNL     1     -12.183  14.195  66.524  1.00  0.00    -0.463 C  
HETATM   10  C   UNL     1     -11.679  11.782  69.495  1.00  0.00    -0.343 A  
HETATM   11  O   UNL     1      -9.503  12.182  68.231  1.00  0.00    -0.202 OA 
HETATM   12  O   UNL     1     -11.592  11.469  66.979  1.00  0.00    -0.510 OA 
HETATM   13  C   UNL     1     -12.324  12.543  70.443  1.00  0.00    -0.311 A  
HETATM   14  C   UNL     1     -12.868  11.693  71.470  1.00  0.00    -0.469 A  
HETATM   15  C   UNL     1     -12.590  10.353  71.261  1.00  0.00    -0.419 A  
HETATM   16  S   UNL     1     -11.657  10.121  69.854  1.00  0.00    -0.191 SA 
BRANCH  15  17
HETATM   17  S   UNL     1     -13.038   8.863  72.134  1.00  0.00    -0.447 S  
HETATM   18  O   UNL     1     -14.204   9.232  72.903  1.00  0.00    -0.465 OA 
HETATM   19  N   UNL     1     -13.541   7.762  70.968  1.00  0.00    -0.585 N  
HETATM   20  O   UNL     1     -11.822   8.364  72.726  1.00  0.00    -0.371 OA 
HETATM   21  H1  UNL     1     -13.797   6.910  71.467  1.00  0.00     0.000 HD 
HETATM   22  H2  UNL     1     -13.583   7.916  69.961  1.00  0.00     0.000 HD 
ENDBRANCH  15  17
ENDBRANCH   3   5
ENDBRANCH   2   3
TORSDOF 3
ENDMDL
MODEL        4
REMARK 921   NORMALIZED FREE ENERGY PREDICTED BY IDOCK:   -6.38 KCAL/MOL
REMARK 922        TOTAL FREE ENERGY PREDICTED BY IDOCK:   -7.85 KCAL/MOL
REMARK 923 INTER-LIGAND FREE ENERGY PREDICTED BY IDOCK:   -7.53 KCAL/MOL
REMARK 924 INTRA-LIGAND FREE ENERGY PREDICTED BY IDOCK:   -0.32 KCAL/MOL
REMARK 927      BINDING AFFINITY PREDICTED BY RF-SCORE:    0.00 PKD
ROOT
HETATM    1  C   UNL     1     -10.401   8.995  70.954  1.00  0.00    -0.323 C  
HETATM    2  C   UNL     1     -10.666   9.660  69.610  1.00  0.00    -0.240 C  
ENDROOT
BRANCH   2   3
HETATM    3  N   UNL     1     -10.590  11.123  69.739  1.00  0.00    -0.455 NA 
HETATM    4  H   UNL     1      -9.921  11.510  69.075  1.00  0.00     0.000 HD 
BRANCH   3   5
HETATM    5  C   UNL     1     -11.897  11.786  69.611  1.00  0.00    -0.339 C  
HETATM    6  C   UNL     1     -12.523  12.132  70.988  1.00  0.00    -0.369 C  
HETATM    7  C   UNL     1     -12.680  13.548  71.577  1.00  0.00    -0.322 C  
HETATM    8  S   UNL     1     -12.176  14.955  70.609  1.00  0.00    -0.348 S  
HETATM    9  C   UNL     1     -14.112  13.728  72.093  1.00  0.00    -0.604 C  
HETATM   10  C   UNL     1     -11.804  14.262  69.046  1.00  0.00    -0.335 A  
HETATM   11  O   UNL     1     -10.917  15.455  71.117  1.00  0.00    -0.345 OA 
HETATM   12  O   UNL     1     -13.313  15.817  70.365  1.00  0.00    -0.324 OA 
HETATM   13  C   UNL     1     -11.723  12.943  68.661  1.00  0.00    -0.359 A  
HETATM   14  C   UNL     1     -11.482  12.858  67.244  1.00  0.00    -0.388 A  
HETATM   15  C   UNL     1     -11.371  14.100  66.642  1.00  0.00    -0.344 A  
HETATM   16  S   UNL     1     -11.527  15.361  67.779  1.00  0.00    -0.220 SA 
BRANCH  15  17
HETATM   17  S   UNL     1     -11.140  14.621  64.952  1.00  0.00    -0.398 S  
HETATM   18  O   UNL     1     -10.478  15.901  65.056  1.00  0.00    -0.518 OA 
HETATM   19  N   UNL     1     -10.041  13.548  64.270  1.00  0.00    -0.638 N  
HETATM   20  O   UNL     1     -12.412  14.436  64.298  1.00  0.00    -0.659 OA 
HETATM   21  H1  UNL     1      -9.909  13.845  63.304  1.00  0.00     0.000 HD 
HETATM   22  H2  UNL     1      -9.594  12.756  64.731  1.00  0.00     0.000 HD 
ENDBRANCH  15  17
ENDBRANCH   3   5
ENDBRANCH   2   3
TORSDOF 3
ENDMDL
MODEL        5
REMARK 921   NORMALIZED FREE ENERGY PREDICTED BY IDOCK:   -6.27 KCAL/MOL
REMARK 922        TOTAL FREE ENERGY PREDICTED BY IDOCK:   -7.72 KCAL/MOL
REMARK 923 INTER-LIGAND FREE ENERGY PREDICTED BY IDOCK:   -7.28 KCAL/MOL
REMARK 924 INTRA-LIGAND FREE ENERGY PREDICTED BY IDOCK:   -0.44 KCAL/MOL
REMARK 927      BINDING AFFINITY PREDICTED BY RF-SCORE:    0.00 PKD
ROOT
HETATM    1  C   UNL     1      -7.375  13.813  68.752  1.00  0.00    -0.103 C  
HETATM    2  C   UNL     1      -8.140  15.096  69.043  1.00  0.00    -0.191 C  
ENDROOT
BRANCH   2   3
HETATM    3  N   UNL     1      -9.520  14.789  69.447  1.00  0.00    -0.412 NA 
HETATM    4  H   UNL     1      -9.600  14.748  70.463  1.00  0.00     0.000 HD 
BRANCH   3   5
HETATM    5  C   UNL     1     -10.512  15.716  68.882  1.00  0.00    -0.220 C  
HETATM    6  C   UNL     1     -10.163  17.201  69.163  1.00  0.00    -0.284 C  
HETATM    7  C   UNL     1      -9.684  18.228  68.117  1.00  0.00    -0.327 C  
HETATM    8  S   UNL     1      -9.568  17.740  66.408  1.00  0.00    -0.257 S  
HETATM    9  C   UNL     1     -10.501  19.518  68.260  1.00  0.00    -0.442 C  
HETATM   10  C   UNL     1     -10.293  16.148  66.388  1.00  0.00    -0.315 A  
HETATM   11  O   UNL     1      -8.178  17.533  66.066  1.00  0.00    -0.491 OA 
HETATM   12  O   UNL     1     -10.454  18.555  65.603  1.00  0.00    -0.615 OA 
HETATM   13  C   UNL     1     -10.697  15.348  67.432  1.00  0.00    -0.296 A  
HETATM   14  C   UNL     1     -11.329  14.158  66.925  1.00  0.00    -0.343 A  
HETATM   15  C   UNL     1     -11.349  14.108  65.541  1.00  0.00    -0.319 A  
HETATM   16  S   UNL     1     -10.588  15.471  64.857  1.00  0.00    -0.225 SA 
BRANCH  15  17
HETATM   17  S   UNL     1     -12.030  12.947  64.372  1.00  0.00    -0.426 S  
HETATM   18  O   UNL     1     -13.248  12.481  64.994  1.00  0.00    -0.700 OA 
HETATM   19  N   UNL     1     -12.475  13.840  63.019  1.00  0.00    -1.000 N  
HETATM   20  O   UNL     1     -10.947  12.074  63.996  1.00  0.00    -0.317 OA 
HETATM   21  H1  UNL     1     -12.865  13.176  62.350  1.00  0.00     0.000 HD 
HETATM   22  H2  UNL     1     -12.375  14.847  62.892  1.00  0.00     0.000 HD 
ENDBRANCH  15  17
ENDBRANCH   3   5
ENDBRANCH   2   3
TORSDOF 3
ENDMDL
MODEL        6
REMARK 921   NORMALIZED FREE ENERGY PREDICTED BY IDOCK:   -6.22 KCAL/MOL
REMARK 922        TOTAL FREE ENERGY PREDICTED BY IDOCK:   -7.66 KCAL/MOL
REMARK 923 INTER-LIGAND FREE ENERGY PREDICTED BY IDOCK:   -7.38 KCAL/MOL
REMARK 924 INTRA-LIGAND FREE ENERGY PREDICTED BY IDOCK:   -0.28 KCAL/MOL
REMARK 927      BINDING AFFINITY PREDICTED BY RF-SCORE:    0.00 PKD
ROOT
HETATM    1  C   UNL     1     -10.055   9.240  70.874  1.00  0.00    -0.373 C  
HETATM    2  C   UNL     1     -11.278  10.036  70.443  1.00  0.00    -0.323 C  
ENDROOT
BRANCH   2   3
HETATM    3  N   UNL     1     -10.890  11.117  69.525  1.00  0.00    -0.389 NA 
HETATM    4  H   UNL     1     -10.639  10.742  68.610  1.00  0.00     0.000 HD 
BRANCH   3   5
HETATM    5  C   UNL     1     -11.913  12.166  69.395  1.00  0.00    -0.270 C  
HETATM    6  C   UNL     1     -11.919  13.139  70.603  1.00  0.00    -0.246 C  
HETATM    7  C   UNL     1     -11.453  14.609  70.580  1.00  0.00    -0.220 C  
HETATM    8  S   UNL     1     -10.913  15.326  69.042  1.00  0.00    -0.271 S  
HETATM    9  C   UNL     1     -12.516  15.490  71.247  1.00  0.00    -0.486 C  
HETATM   10  C   UNL     1     -11.297  14.095  67.860  1.00  0.00    -0.294 A  
HETATM   11  O   UNL     1      -9.469  15.420  69.043  1.00  0.00    -0.206 OA 
HETATM   12  O   UNL     1     -11.764  16.444  68.695  1.00  0.00    -0.255 OA 
HETATM   13  C   UNL     1     -11.735  12.803  68.041  1.00  0.00    -0.405 A  
HETATM   14  C   UNL     1     -12.013  12.194  66.766  1.00  0.00    -0.170 A  
HETATM   15  C   UNL     1     -11.751  13.038  65.700  1.00  0.00    -0.375 A  
HETATM   16  S   UNL     1     -11.149  14.543  66.227  1.00  0.00    -0.337 SA 
BRANCH  15  17
HETATM   17  S   UNL     1     -11.953  12.872  63.935  1.00  0.00    -0.514 S  
HETATM   18  O   UNL     1     -13.146  12.073  63.782  1.00  0.00    -0.730 OA 
HETATM   19  N   UNL     1     -12.306  14.407  63.351  1.00  0.00    -1.088 N  
HETATM   20  O   UNL     1     -10.664  12.482  63.420  1.00  0.00    -0.426 OA 
HETATM   21  H1  UNL     1     -12.421  14.313  62.342  1.00  0.00     0.000 HD 
HETATM   22  H2  UNL     1     -12.389  15.265  63.897  1.00  0.00     0.000 HD 
ENDBRANCH  15  17
ENDBRANCH   3   5
ENDBRANCH   2   3
TORSDOF 3
ENDMDL
MODEL        7
REMARK 921   NORMALIZED FREE ENERGY PREDICTED BY IDOCK:   -6.17 KCAL/MOL
REMARK 922        TOTAL FREE ENERGY PREDICTED BY IDOCK:   -7.60 KCAL/MOL
REMARK 923 INTER-LIGAND FREE ENERGY PREDICTED BY IDOCK:   -7.29 KCAL/MOL
REMARK 924 INTRA-LIGAND FREE ENERGY PREDICTED BY IDOCK:   -0.31 KCAL/MOL
REMARK 927      BINDING AFFINITY PREDICTED BY RF-SCORE:    0.00 PKD
ROOT
HETATM    1  C   UNL     1     -12.210  15.969  72.957  1.00  0.00    -0.637 C  
HETATM    2  C   UNL     1     -11.946  15.849  71.463  1.00  0.00    -0.471 C  
ENDROOT
BRANCH   2   3
HETATM    3  N   UNL     1     -11.513  14.485  71.127  1.00  0.00    -0.521 NA 
HETATM    4  H   UNL     1     -11.486  13.898  71.960  1.00  0.00     0.000 HD 
BRANCH   3   5
HETATM    5  C   UNL     1     -12.327  13.859  70.074  1.00  0.00    -0.316 C  
HETATM    6  C   UNL     1     -12.067  14.479  68.676  1.00  0.00    -0.253 C  
HETATM    7  C   UNL     1     -11.336  13.789  67.506  1.00  0.00    -0.309 C  
HETATM    8  S   UNL     1     -10.779  12.108  67.696  1.00  0.00    -0.228 S  
HETATM    9  C   UNL     1     -12.166  13.945  66.226  1.00  0.00    -0.498 C  
HETATM   10  C   UNL     1     -11.469  11.621  69.228  1.00  0.00    -0.300 A  
HETATM   11  O   UNL     1      -9.347  12.102  67.901  1.00  0.00    -0.179 OA 
HETATM   12  O   UNL     1     -11.428  11.262  66.718  1.00  0.00    -0.407 OA 
HETATM   13  C   UNL     1     -12.128  12.368  70.178  1.00  0.00    -0.366 A  
HETATM   14  C   UNL     1     -12.604  11.513  71.234  1.00  0.00    -0.452 A  
HETATM   15  C   UNL     1     -12.264  10.185  71.044  1.00  0.00    -0.374 A  
HETATM   16  S   UNL     1     -11.355   9.971  69.618  1.00  0.00    -0.163 SA 
BRANCH  15  17
HETATM   17  S   UNL     1     -12.615   8.693  71.956  1.00  0.00    -0.404 S  
HETATM   18  O   UNL     1     -11.402   8.427  72.694  1.00  0.00    -0.372 OA 
HETATM   19  N   UNL     1     -13.801   9.090  73.079  1.00  0.00    -0.901 N  
HETATM   20  O   UNL     1     -13.186   7.769  71.009  1.00  0.00    -0.142 OA 
HETATM   21  H1  UNL     1     -14.002   8.237  73.600  1.00  0.00     0.000 HD 
HETATM   22  H2  UNL     1     -14.234  10.003  73.213  1.00  0.00     0.000 HD 
ENDBRANCH  15  17
ENDBRANCH   3   5
ENDBRANCH   2   3
TORSDOF 3
ENDMDL
MODEL        8
REMARK 921   NORMALIZED FREE ENERGY PREDICTED BY IDOCK:   -6.09 KCAL/MOL
REMARK 922        TOTAL FREE ENERGY PREDICTED BY IDOCK:   -7.52 KCAL/MOL
REMARK 923 INTER-LIGAND FREE ENERGY PREDICTED BY IDOCK:   -7.18 KCAL/MOL
REMARK 924 INTRA-LIGAND FREE ENERGY PREDICTED BY IDOCK:   -0.34 KCAL/MOL
REMARK 927      BINDING AFFINITY PREDICTED BY RF-SCORE:    0.00 PKD
ROOT
HETATM    1  C   UNL     1     -13.669   7.317  71.730  1.00  0.00    -0.399 C  
HETATM    2  C   UNL     1     -13.628   8.820  71.965  1.00  0.00    -0.427 C  
ENDROOT
BRANCH   2   3
HETATM    3  N   UNL     1     -13.255   9.523  70.728  1.00  0.00    -0.575 NA 
HETATM    4  H   UNL     1     -13.960  10.217  70.480  1.00  0.00     0.000 HD 
BRANCH   3   5
HETATM    5  C   UNL     1     -11.918  10.134  70.786  1.00  0.00    -0.348 C  
HETATM    6  C   UNL     1     -10.936   9.508  69.761  1.00  0.00    -0.245 C  
HETATM    7  C   UNL     1     -10.397  10.197  68.492  1.00  0.00    -0.180 C  
HETATM    8  S   UNL     1     -10.855  11.885  68.156  1.00  0.00    -0.236 S  
HETATM    9  C   UNL     1      -8.875  10.024  68.426  1.00  0.00    -0.117 C  
HETATM   10  C   UNL     1     -11.699  12.375  69.608  1.00  0.00    -0.307 A  
HETATM   11  O   UNL     1     -11.851  11.908  67.107  1.00  0.00    -0.588 OA 
HETATM   12  O   UNL     1      -9.672  12.719  68.123  1.00  0.00    -0.214 OA 
HETATM   13  C   UNL     1     -12.101  11.627  70.691  1.00  0.00    -0.432 A  
HETATM   14  C   UNL     1     -12.678  12.484  71.695  1.00  0.00    -0.297 A  
HETATM   15  C   UNL     1     -12.704  13.814  71.314  1.00  0.00    -0.371 A  
HETATM   16  S   UNL     1     -12.065  14.029  69.749  1.00  0.00    -0.349 SA 
BRANCH  15  17
HETATM   17  S   UNL     1     -13.227  15.308  72.136  1.00  0.00    -0.438 S  
HETATM   18  O   UNL     1     -13.260  14.957  73.537  1.00  0.00    -0.532 OA 
HETATM   19  N   UNL     1     -11.986  16.422  71.933  1.00  0.00    -0.658 N  
HETATM   20  O   UNL     1     -14.379  15.783  71.410  1.00  0.00    -0.467 OA 
HETATM   21  H1  UNL     1     -12.284  17.277  72.403  1.00  0.00     0.000 HD 
HETATM   22  H2  UNL     1     -11.106  16.274  71.439  1.00  0.00     0.000 HD 
ENDBRANCH  15  17
ENDBRANCH   3   5
ENDBRANCH   2   3
TORSDOF 3
ENDMDL
MODEL        9
REMARK 921   NORMALIZED FREE ENERGY PREDICTED BY IDOCK:   -5.94 KCAL/MOL
REMARK 922        TOTAL FREE ENERGY PREDICTED BY IDOCK:   -7.34 KCAL/MOL
REMARK 923 INTER-LIGAND FREE ENERGY PREDICTED BY IDOCK:   -7.04 KCAL/MOL
REMARK 924 INTRA-LIGAND FREE ENERGY PREDICTED BY IDOCK:   -0.30 KCAL/MOL
REMARK 927      BINDING AFFINITY PREDICTED BY RF-SCORE:    0.00 PKD
ROOT
HETATM    1  C   UNL     1      -8.048  18.853  68.327  1.00  0.00    -0.353 C  
HETATM    2  C   UNL     1      -9.509  18.430  68.367  1.00  0.00    -0.332 C  
ENDROOT
BRANCH   2   3
HETATM    3  N   UNL     1      -9.617  16.983  68.609  1.00  0.00    -0.267 NA 
HETATM    4  H   UNL     1      -9.549  16.777  69.605  1.00  0.00     0.000 HD 
BRANCH   3   5
HETATM    5  C   UNL     1     -10.832  16.386  68.034  1.00  0.00    -0.342 C  
HETATM    6  C   UNL     1     -10.573  15.731  66.652  1.00  0.00    -0.307 C  
HETATM    7  C   UNL     1     -10.570  14.218  66.358  1.00  0.00    -0.286 C  
HETATM    8  S   UNL     1     -10.957  13.075  67.668  1.00  0.00    -0.263 S  
HETATM    9  C   UNL     1     -11.432  13.938  65.121  1.00  0.00    -0.324 C  
HETATM   10  C   UNL     1     -11.473  14.115  68.977  1.00  0.00    -0.285 A  
HETATM   11  O   UNL     1      -9.736  12.452  68.132  1.00  0.00    -0.204 OA 
HETATM   12  O   UNL     1     -12.137  12.311  67.322  1.00  0.00    -0.548 OA 
HETATM   13  C   UNL     1     -11.431  15.486  69.084  1.00  0.00    -0.356 A  
HETATM   14  C   UNL     1     -12.061  15.904  70.310  1.00  0.00    -0.294 A  
HETATM   15  C   UNL     1     -12.518  14.839  71.069  1.00  0.00    -0.330 A  
HETATM   16  S   UNL     1     -12.169  13.347  70.324  1.00  0.00    -0.292 SA 
BRANCH  15  17
HETATM   17  S   UNL     1     -13.409  14.733  72.610  1.00  0.00    -0.490 S  
HETATM   18  O   UNL     1     -13.912  13.379  72.643  1.00  0.00    -0.755 OA 
HETATM   19  N   UNL     1     -12.263  14.867  73.832  1.00  0.00    -0.483 N  
HETATM   20  O   UNL     1     -14.258  15.897  72.663  1.00  0.00    -0.525 OA 
HETATM   21  H1  UNL     1     -12.772  14.806  74.713  1.00  0.00     0.000 HD 
HETATM   22  H2  UNL     1     -11.257  14.984  73.716  1.00  0.00     0.000 HD 
ENDBRANCH  15  17
ENDBRANCH   3   5
ENDBRANCH   2   3
TORSDOF 3
ENDMDL
MODEL       10
REMARK 921   NORMALIZED FREE ENERGY PREDICTED BY IDOCK:   -5.93 KCAL/MOL
REMARK 922        TOTAL FREE ENERGY PREDICTED BY IDOCK:   -7.32 KCAL/MOL
REMARK 923 INTER-LIGAND FREE ENERGY PREDICTED BY IDOCK:   -7.01 KCAL/MOL
REMARK 924 INTRA-LIGAND FREE ENERGY PREDICTED BY IDOCK:   -0.31 KCAL/MOL
REMARK 927      BINDING AFFINITY PREDICTED BY RF-SCORE:    0.00 PKD
ROOT
HETATM    1  C   UNL     1     -12.524  12.011  70.934  1.00  0.00    -0.384 C  
HETATM    2  C   UNL     1     -11.697  11.776  69.678  1.00  0.00    -0.344 C  
ENDROOT
BRANCH   2   3
HETATM    3  N   UNL     1     -11.157  13.048  69.175  1.00  0.00    -0.381 NA 
HETATM    4  H   UNL     1     -10.710  13.574  69.925  1.00  0.00     0.000 HD 
BRANCH   3   5
HETATM    5  C   UNL     1     -10.240  12.881  68.037  1.00  0.00    -0.229 C  
HETATM    6  C   UNL     1     -10.371  11.486  67.370  1.00  0.00    -0.235 C  
HETATM    7  C   UNL     1     -10.980  11.204  65.982  1.00  0.00    -0.123 C  
HETATM    8  S   UNL     1     -11.537  12.569  64.982  1.00  0.00    -0.365 S  
HETATM    9  C   UNL     1     -10.033  10.298  65.186  1.00  0.00    -0.395 C  
HETATM   10  C   UNL     1     -10.992  13.974  65.870  1.00  0.00    -0.286 A  
HETATM   11  O   UNL     1     -12.982  12.627  65.020  1.00  0.00    -0.812 OA 
HETATM   12  O   UNL     1     -10.789  12.608  63.743  1.00  0.00    -0.406 OA 
HETATM   13  C   UNL     1     -10.435  14.065  67.125  1.00  0.00    -0.270 A  
HETATM   14  C   UNL     1     -10.055  15.427  67.397  1.00  0.00    -0.233 A  
HETATM   15  C   UNL     1     -10.363  16.289  66.359  1.00  0.00    -0.314 A  
HETATM   16  S   UNL     1     -11.129  15.470  65.075  1.00  0.00    -0.366 SA 
BRANCH  15  17
HETATM   17  S   UNL     1     -10.088  18.031  66.097  1.00  0.00    -0.291 S  
HETATM   18  O   UNL     1     -10.984  18.380  65.019  1.00  0.00    -0.644 OA 
HETATM   19  N   UNL     1     -10.643  18.813  67.476  1.00  0.00    -0.432 N  
HETATM   20  O   UNL     1      -8.658  18.205  66.027  1.00  0.00    -0.496 OA 
HETATM   21  H1  UNL     1     -10.485  19.809  67.327  1.00  0.00     0.000 HD 
HETATM   22  H2  UNL     1     -11.056  18.378  68.301  1.00  0.00     0.000 HD 
ENDBRANCH  15  17
ENDBRANCH   3   5
ENDBRANCH   2   3
TORSDOF 3
ENDMDL
MODEL       11
REMARK 921   NORMALIZED FREE ENERGY PREDICTED BY IDOCK:   -5.83 KCAL/MOL
REMARK 922        TOTAL FREE ENERGY PREDICTED BY IDOCK:   -7.21 KCAL/MOL
REMARK 923 INTER-LIGAND FREE ENERGY PREDICTED BY IDOCK:   -6.92 KCAL/MOL
REMARK 924 INTRA-LIGAND FREE ENERGY PREDICTED BY IDOCK:   -0.29 KCAL/MOL
REMARK 927      BINDING AFFINITY PREDICTED BY RF-SCORE:    0.00 PKD
ROOT
HETATM    1  C   UNL     1     -10.157  19.789  68.692  1.00  0.00    -0.546 C  
HETATM    2  C   UNL     1     -10.266  18.345  68.224  1.00  0.00    -0.384 C  
ENDROOT
BRANCH   2   3
HETATM    3  N   UNL     1     -10.410  18.290  66.761  1.00  0.00    -0.372 NA 
HETATM    4  H   UNL     1     -10.527  19.226  66.374  1.00  0.00     0.000 HD 
BRANCH   3   5
HETATM    5  C   UNL     1      -9.305  17.584  66.094  1.00  0.00    -0.143 C  
HETATM    6  C   UNL     1      -7.946  17.799  66.810  1.00  0.00    -0.265 C  
HETATM    7  C   UNL     1      -7.173  16.735  67.615  1.00  0.00    -0.143 C  
HETATM    8  S   UNL     1      -7.816  15.076  67.708  1.00  0.00    -0.164 S  
HETATM    9  C   UNL     1      -5.707  16.725  67.166  1.00  0.00    -0.202 C  
HETATM   10  C   UNL     1      -9.157  15.096  66.586  1.00  0.00    -0.280 A  
HETATM   11  O   UNL     1      -8.409  14.870  69.012  1.00  0.00    -0.173 OA 
HETATM   12  O   UNL     1      -6.868  14.148  67.129  1.00  0.00    -0.165 OA 
HETATM   13  C   UNL     1      -9.732  16.150  65.914  1.00  0.00    -0.374 A  
HETATM   14  C   UNL     1     -10.753  15.667  65.021  1.00  0.00    -0.458 A  
HETATM   15  C   UNL     1     -10.912  14.293  65.080  1.00  0.00    -0.387 A  
HETATM   16  S   UNL     1      -9.860  13.591  66.222  1.00  0.00    -0.286 SA 
BRANCH  15  17
HETATM   17  S   UNL     1     -11.948  13.145  64.191  1.00  0.00    -0.459 S  
HETATM   18  O   UNL     1     -12.655  13.965  63.234  1.00  0.00    -0.824 OA 
HETATM   19  N   UNL     1     -10.914  12.147  63.320  1.00  0.00    -0.673 N  
HETATM   20  O   UNL     1     -12.608  12.343  65.190  1.00  0.00    -0.622 OA 
HETATM   21  H1  UNL     1     -11.506  11.491  62.811  1.00  0.00     0.000 HD 
HETATM   22  H2  UNL     1      -9.895  12.190  63.302  1.00  0.00     0.000 HD 
ENDBRANCH  15  17
ENDBRANCH   3   5
ENDBRANCH   2   3
TORSDOF 3
ENDMDL
MODEL       12
REMARK 921   NORMALIZED FREE ENERGY PREDICTED BY IDOCK:   -5.81 KCAL/MOL
REMARK 922        TOTAL FREE ENERGY PREDICTED BY IDOCK:   -7.18 KCAL/MOL
REMARK 923 INTER-LIGAND FREE ENERGY PREDICTED BY IDOCK:   -6.87 KCAL/MOL
REMARK 924 INTRA-LIGAND FREE ENERGY PREDICTED BY IDOCK:   -0.32 KCAL/MOL
REMARK 927      BINDING AFFINITY PREDICTED BY RF-SCORE:    0.00 PKD
ROOT
HETATM    1  C   UNL     1     -10.713   7.092  67.270  1.00  0.00    -0.399 C  
HETATM    2  C   UNL     1     -10.360   8.356  68.042  1.00  0.00    -0.215 C  
ENDROOT
BRANCH   2   3
HETATM    3  N   UNL     1     -11.137   9.498  67.539  1.00  0.00    -0.421 NA 
HETATM    4  H   UNL     1     -11.720   9.892  68.276  1.00  0.00     0.000 HD 
BRANCH   3   5
HETATM    5  C   UNL     1     -10.305  10.540  66.918  1.00  0.00    -0.239 C  
HETATM    6  C   UNL     1     -10.151  10.342  65.387  1.00  0.00    -0.354 C  
HETATM    7  C   UNL     1     -10.788  11.226  64.295  1.00  0.00    -0.328 C  
HETATM    8  S   UNL     1     -11.738  12.653  64.775  1.00  0.00    -0.373 S  
HETATM    9  C   UNL     1      -9.720  11.606  63.262  1.00  0.00    -0.390 C  
HETATM   10  C   UNL     1     -11.476  12.756  66.501  1.00  0.00    -0.355 A  
HETATM   11  O   UNL     1     -13.147  12.362  64.617  1.00  0.00    -0.825 OA 
HETATM   12  O   UNL     1     -11.128  13.853  64.241  1.00  0.00    -0.351 OA 
HETATM   13  C   UNL     1     -10.854  11.874  67.355  1.00  0.00    -0.289 A  
HETATM   14  C   UNL     1     -10.792  12.432  68.681  1.00  0.00    -0.273 A  
HETATM   15  C   UNL     1     -11.384  13.681  68.766  1.00  0.00    -0.289 A  
HETATM   16  S   UNL     1     -12.034  14.167  67.268  1.00  0.00    -0.376 SA 
BRANCH  15  17
HETATM   17  S   UNL     1     -11.559  14.860  70.093  1.00  0.00    -0.307 S  
HETATM   18  O   UNL     1     -10.400  15.715  69.970  1.00  0.00    -0.296 OA 
HETATM   19  N   UNL     1     -12.906  15.795  69.724  1.00  0.00    -0.552 N  
HETATM   20  O   UNL     1     -11.857  14.092  71.276  1.00  0.00    -0.233 OA 
HETATM   21  H1  UNL     1     -13.006  16.469  70.482  1.00  0.00     0.000 HD 
HETATM   22  H2  UNL     1     -13.505  15.706  68.903  1.00  0.00     0.000 HD 
ENDBRANCH  15  17
ENDBRANCH   3   5
ENDBRANCH   2   3
TORSDOF 3
ENDMDL
MODEL       13
REMARK 921   NORMALIZED FREE ENERGY PREDICTED BY IDOCK:   -5.76 KCAL/MOL
REMARK 922        TOTAL FREE ENERGY PREDICTED BY IDOCK:   -7.13 KCAL/MOL
REMARK 923 INTER-LIGAND FREE ENERGY PREDICTED BY IDOCK:   -6.77 KCAL/MOL
REMARK 924 INTRA-LIGAND FREE ENERGY PREDICTED BY IDOCK:   -0.35 KCAL/MOL
REMARK 927      BINDING AFFINITY PREDICTED BY RF-SCORE:    0.00 PKD
ROOT
HETATM    1  C   UNL     1     -13.091  11.519  71.862  1.00  0.00    -0.492 C  
HETATM    2  C   UNL     1     -12.934  10.220  71.085  1.00  0.00    -0.409 C  
ENDROOT
BRANCH   2   3
HETATM    3  N   UNL     1     -12.685  10.501  69.663  1.00  0.00    -0.616 NA 
HETATM    4  H   UNL     1     -13.320  11.222  69.320  1.00  0.00     0.000 HD 
BRANCH   3   5
HETATM    5  C   UNL     1     -11.287  10.855  69.375  1.00  0.00    -0.280 C  
HETATM    6  C   UNL     1     -10.290   9.768  69.853  1.00  0.00    -0.291 C  
HETATM    7  C   UNL     1      -9.475   8.829  68.942  1.00  0.00    -0.145 C  
HETATM    8  S   UNL     1      -9.598   9.008  67.174  1.00  0.00    -0.179 S  
HETATM    9  C   UNL     1      -8.008   8.834  69.387  1.00  0.00    -0.100 C  
HETATM   10  C   UNL     1     -10.542  10.467  66.977  1.00  0.00    -0.253 A  
HETATM   11  O   UNL     1     -10.422   7.943  66.645  1.00  0.00    -0.296 OA 
HETATM   12  O   UNL     1      -8.301   9.335  66.621  1.00  0.00    -0.120 OA 
HETATM   13  C   UNL     1     -11.207  11.223  67.916  1.00  0.00    -0.353 A  
HETATM   14  C   UNL     1     -11.768  12.396  67.297  1.00  0.00    -0.419 A  
HETATM   15  C   UNL     1     -11.522  12.454  65.936  1.00  0.00    -0.374 A  
HETATM   16  S   UNL     1     -10.646  11.093  65.400  1.00  0.00    -0.189 SA 
BRANCH  15  17
HETATM   17  S   UNL     1     -11.900  13.661  64.678  1.00  0.00    -0.418 S  
HETATM   18  O   UNL     1     -10.798  14.594  64.730  1.00  0.00    -0.399 OA 
HETATM   19  N   UNL     1     -11.802  12.859  63.205  1.00  0.00    -0.848 N  
HETATM   20  O   UNL     1     -13.274  14.043  64.890  1.00  0.00    -0.593 OA 
HETATM   21  H1  UNL     1     -12.019  13.549  62.485  1.00  0.00     0.000 HD 
HETATM   22  H2  UNL     1     -11.571  11.877  63.058  1.00  0.00     0.000 HD 
ENDBRANCH  15  17
ENDBRANCH   3   5
ENDBRANCH   2   3
TORSDOF 3
ENDMDL
MODEL       14
REMARK 921   NORMALIZED FREE ENERGY PREDICTED BY IDOCK:   -5.63 KCAL/MOL
REMARK 922        TOTAL FREE ENERGY PREDICTED BY IDOCK:   -6.97 KCAL/MOL
REMARK 923 INTER-LIGAND FREE ENERGY PREDICTED BY IDOCK:   -6.67 KCAL/MOL
REMARK 924 INTRA-LIGAND FREE ENERGY PREDICTED BY IDOCK:   -0.30 KCAL/MOL
REMARK 927      BINDING AFFINITY PREDICTED BY RF-SCORE:    0.00 PKD
ROOT
HETATM    1  C   UNL     1     -12.283  10.471  70.893  1.00  0.00    -0.490 C  
HETATM    2  C   UNL     1     -12.355  11.978  70.698  1.00  0.00    -0.304 C  
ENDROOT
BRANCH   2   3
HETATM    3  N   UNL     1     -11.443  12.400  69.625  1.00  0.00    -0.451 NA 
HETATM    4  H   UNL     1     -11.401  11.697  68.888  1.00  0.00     0.000 HD 
BRANCH   3   5
HETATM    5  C   UNL     1     -11.771  13.722  69.068  1.00  0.00    -0.331 C  
HETATM    6  C   UNL     1     -11.066  14.876  69.827  1.00  0.00    -0.300 C  
HETATM    7  C   UNL     1      -9.913  15.742  69.281  1.00  0.00    -0.262 C  
HETATM    8  S   UNL     1      -9.343  15.483  67.614  1.00  0.00    -0.203 S  
HETATM    9  C   UNL     1     -10.229  17.222  69.523  1.00  0.00    -0.046 C  
HETATM   10  C   UNL     1     -10.505  14.352  66.957  1.00  0.00    -0.268 A  
HETATM   11  O   UNL     1      -8.086  14.766  67.647  1.00  0.00    -0.144 OA 
HETATM   12  O   UNL     1      -9.529  16.690  66.837  1.00  0.00    -0.223 OA 
HETATM   13  C   UNL     1     -11.516  13.660  67.583  1.00  0.00    -0.357 A  
HETATM   14  C   UNL     1     -12.279  12.918  66.614  1.00  0.00    -0.229 A  
HETATM   15  C   UNL     1     -11.798  13.066  65.324  1.00  0.00    -0.376 A  
HETATM   16  S   UNL     1     -10.420  14.068  65.283  1.00  0.00    -0.403 SA 
BRANCH  15  17
HETATM   17  S   UNL     1     -12.348  12.458  63.740  1.00  0.00    -0.525 S  
HETATM   18  O   UNL     1     -12.419  13.636  62.907  1.00  0.00    -0.610 OA 
HETATM   19  N   UNL     1     -11.103  11.501  63.140  1.00  0.00    -0.811 N  
HETATM   20  O   UNL     1     -13.479  11.605  64.008  1.00  0.00    -0.334 OA 
HETATM   21  H1  UNL     1     -11.417  11.154  62.235  1.00  0.00     0.000 HD 
HETATM   22  H2  UNL     1     -10.210  11.307  63.592  1.00  0.00     0.000 HD 
ENDBRANCH  15  17
ENDBRANCH   3   5
ENDBRANCH   2   3
TORSDOF 3
ENDMDL
MODEL       15
REMARK 921   NORMALIZED FREE ENERGY PREDICTED BY IDOCK:   -5.59 KCAL/MOL
REMARK 922        TOTAL FREE ENERGY PREDICTED BY IDOCK:   -6.93 KCAL/MOL
REMARK 923 INTER-LIGAND FREE ENERGY PREDICTED BY IDOCK:   -6.63 KCAL/MOL
REMARK 924 INTRA-LIGAND FREE ENERGY PREDICTED BY IDOCK:   -0.29 KCAL/MOL
REMARK 927      BINDING AFFINITY PREDICTED BY RF-SCORE:    0.00 PKD
ROOT
HETATM    1  C   UNL     1     -12.680  15.822  71.489  1.00  0.00    -0.512 C  
HETATM    2  C   UNL     1     -12.261  15.261  70.138  1.00  0.00    -0.364 C  
ENDROOT
BRANCH   2   3
HETATM    3  N   UNL     1     -11.726  13.900  70.292  1.00  0.00    -0.457 NA 
HETATM    4  H   UNL     1     -11.965  13.518  71.207  1.00  0.00     0.000 HD 
BRANCH   3   5
HETATM    5  C   UNL     1     -12.144  12.985  69.219  1.00  0.00    -0.200 C  
HETATM    6  C   UNL     1     -11.549  13.376  67.841  1.00  0.00    -0.374 C  
HETATM    7  C   UNL     1     -10.455  12.602  67.079  1.00  0.00    -0.232 C  
HETATM    8  S   UNL     1      -9.830  11.080  67.761  1.00  0.00    -0.176 S  
HETATM    9  C   UNL     1     -10.892  12.405  65.623  1.00  0.00    -0.312 C  
HETATM   10  C   UNL     1     -10.885  10.780  69.124  1.00  0.00    -0.237 A  
HETATM   11  O   UNL     1      -8.522  11.317  68.334  1.00  0.00    -0.141 OA 
HETATM   12  O   UNL     1     -10.093   9.987  66.849  1.00  0.00    -0.208 OA 
HETATM   13  C   UNL     1     -11.852  11.581  69.686  1.00  0.00    -0.421 A  
HETATM   14  C   UNL     1     -12.534  10.869  70.735  1.00  0.00    -0.489 A  
HETATM   15  C   UNL     1     -12.037   9.591  70.927  1.00  0.00    -0.278 A  
HETATM   16  S   UNL     1     -10.742   9.260  69.870  1.00  0.00    -0.238 SA 
BRANCH  15  17
HETATM   17  S   UNL     1     -12.502   8.252  72.009  1.00  0.00    -0.360 S  
HETATM   18  O   UNL     1     -11.380   8.106  72.906  1.00  0.00    -0.387 OA 
HETATM   19  N   UNL     1     -13.799   8.806  72.923  1.00  0.00    -0.881 N  
HETATM   20  O   UNL     1     -12.977   7.192  71.154  1.00  0.00    -0.366 OA 
HETATM   21  H1  UNL     1     -14.065   8.041  73.541  1.00  0.00     0.000 HD 
HETATM   22  H2  UNL     1     -14.234   9.727  72.870  1.00  0.00     0.000 HD 
ENDBRANCH  15  17
ENDBRANCH   3   5
ENDBRANCH   2   3
TORSDOF 3
ENDMDL
MODEL       16
REMARK 921   NORMALIZED FREE ENERGY PREDICTED BY IDOCK:   -5.59 KCAL/MOL
REMARK 922        TOTAL FREE ENERGY PREDICTED BY IDOCK:   -6.92 KCAL/MOL
REMARK 923 INTER-LIGAND FREE ENERGY PREDICTED BY IDOCK:   -6.62 KCAL/MOL
REMARK 924 INTRA-LIGAND FREE ENERGY PREDICTED BY IDOCK:   -0.30 KCAL/MOL
REMARK 927      BINDING AFFINITY PREDICTED BY RF-SCORE:    0.00 PKD
ROOT
HETATM    1  C   UNL     1     -12.739  11.898  63.336  1.00  0.00    -0.496 C  
HETATM    2  C   UNL     1     -12.159  12.991  64.221  1.00  0.00    -0.414 C  
ENDROOT
BRANCH   2   3
HETATM    3  N   UNL     1     -12.289  12.625  65.639  1.00  0.00    -0.630 NA 
HETATM    4  H   UNL     1     -12.702  11.697  65.738  1.00  0.00     0.000 HD 
BRANCH   3   5
HETATM    5  C   UNL     1     -11.023  12.714  66.382  1.00  0.00    -0.272 C  
HETATM    6  C   UNL     1     -10.165  13.932  65.947  1.00  0.00    -0.326 C  
HETATM    7  C   UNL     1      -9.904  15.197  66.788  1.00  0.00    -0.241 C  
HETATM    8  S   UNL     1     -10.565  15.297  68.439  1.00  0.00    -0.253 S  
HETATM    9  C   UNL     1      -8.403  15.510  66.784  1.00  0.00    -0.301 C  
HETATM   10  C   UNL     1     -11.205  13.694  68.720  1.00  0.00    -0.279 A  
HETATM   11  O   UNL     1     -11.715  16.175  68.439  1.00  0.00    -0.320 OA 
HETATM   12  O   UNL     1      -9.485  15.431  69.394  1.00  0.00    -0.246 OA 
HETATM   13  C   UNL     1     -11.356  12.638  67.850  1.00  0.00    -0.337 A  
HETATM   14  C   UNL     1     -11.840  11.482  68.559  1.00  0.00    -0.365 A  
HETATM   15  C   UNL     1     -12.050  11.726  69.905  1.00  0.00    -0.287 A  
HETATM   16  S   UNL     1     -11.695  13.343  70.309  1.00  0.00    -0.076 SA 
BRANCH  15  17
HETATM   17  S   UNL     1     -12.570  10.696  71.265  1.00  0.00    -0.443 S  
HETATM   18  O   UNL     1     -13.263  11.598  72.157  1.00  0.00    -0.504 OA 
HETATM   19  N   UNL     1     -13.716   9.634  70.646  1.00  0.00    -0.500 N  
HETATM   20  O   UNL     1     -11.413   9.929  71.653  1.00  0.00    -0.329 OA 
HETATM   21  H1  UNL     1     -14.014   9.045  71.424  1.00  0.00     0.000 HD 
HETATM   22  H2  UNL     1     -14.049   9.587  69.684  1.00  0.00     0.000 HD 
ENDBRANCH  15  17
ENDBRANCH   3   5
ENDBRANCH   2   3
TORSDOF 3
ENDMDL
MODEL       17
REMARK 921   NORMALIZED FREE ENERGY PREDICTED BY IDOCK:   -5.54 KCAL/MOL
REMARK 922        TOTAL FREE ENERGY PREDICTED BY IDOCK:   -6.87 KCAL/MOL
REMARK 923 INTER-LIGAND FREE ENERGY PREDICTED BY IDOCK:   -6.55 KCAL/MOL
REMARK 924 INTRA-LIGAND FREE ENERGY PREDICTED BY IDOCK:   -0.32 KCAL/MOL
REMARK 927      BINDING AFFINITY PREDICTED BY RF-SCORE:    0.00 PKD
ROOT
HETATM    1  C   UNL     1     -10.242  11.894  65.778  1.00  0.00    -0.276 C  
HETATM    2  C   UNL     1     -11.579  12.588  65.992  1.00  0.00    -0.406 C  
ENDROOT
BRANCH   2   3
HETATM    3  N   UNL     1     -12.146  12.219  67.297  1.00  0.00    -0.517 NA 
HETATM    4  H   UNL     1     -12.402  11.232  67.314  1.00  0.00     0.000 HD 
BRANCH   3   5
HETATM    5  C   UNL     1     -11.266  12.549  68.429  1.00  0.00    -0.272 C  
HETATM    6  C   UNL     1     -10.966  14.068  68.521  1.00  0.00    -0.274 C  
HETATM    7  C   UNL     1     -11.501  15.029  69.602  1.00  0.00    -0.294 C  
HETATM    8  S   UNL     1     -12.504  14.381  70.924  1.00  0.00    -0.378 S  
HETATM    9  C   UNL     1     -10.343  15.865  70.158  1.00  0.00    -0.182 C  
HETATM   10  C   UNL     1     -12.409  12.649  70.696  1.00  0.00    -0.290 A  
HETATM   11  O   UNL     1     -13.888  14.725  70.682  1.00  0.00    -0.088 OA 
HETATM   12  O   UNL     1     -11.854  14.619  72.195  1.00  0.00    -0.277 OA 
HETATM   13  C   UNL     1     -11.865  11.923  69.662  1.00  0.00    -0.406 A  
HETATM   14  C   UNL     1     -11.934  10.516  69.959  1.00  0.00    -0.367 A  
HETATM   15  C   UNL     1     -12.540  10.253  71.176  1.00  0.00    -0.400 A  
HETATM   16  S   UNL     1     -13.048  11.687  71.943  1.00  0.00    -0.235 SA 
BRANCH  15  17
HETATM   17  S   UNL     1     -12.850   8.750  72.085  1.00  0.00    -0.415 S  
HETATM   18  O   UNL     1     -14.080   9.007  72.798  1.00  0.00    -0.524 OA 
HETATM   19  N   UNL     1     -13.177   7.562  70.943  1.00  0.00    -0.591 N  
HETATM   20  O   UNL     1     -11.609   8.414  72.739  1.00  0.00    -0.358 OA 
HETATM   21  H1  UNL     1     -13.354   6.702  71.463  1.00  0.00     0.000 HD 
HETATM   22  H2  UNL     1     -13.196   7.677  69.930  1.00  0.00     0.000 HD 
ENDBRANCH  15  17
ENDBRANCH   3   5
ENDBRANCH   2   3
TORSDOF 3
ENDMDL
MODEL       18
REMARK 921   NORMALIZED FREE ENERGY PREDICTED BY IDOCK:   -5.52 KCAL/MOL
REMARK 922        TOTAL FREE ENERGY PREDICTED BY IDOCK:   -6.84 KCAL/MOL
REMARK 923 INTER-LIGAND FREE ENERGY PREDICTED BY IDOCK:   -6.58 KCAL/MOL
REMARK 924 INTRA-LIGAND FREE ENERGY PREDICTED BY IDOCK:   -0.26 KCAL/MOL
REMARK 927      BINDING AFFINITY PREDICTED BY RF-SCORE:    0.00 PKD
ROOT
HETATM    1  C   UNL     1     -11.822  12.740  63.420  1.00  0.00    -0.591 C  
HETATM    2  C   UNL     1     -10.493  12.770  64.160  1.00  0.00    -0.413 C  
ENDROOT
BRANCH   2   3
HETATM    3  N   UNL     1     -10.232  14.116  64.691  1.00  0.00    -0.641 NA 
HETATM    4  H   UNL     1     -10.281  14.814  63.949  1.00  0.00     0.000 HD 
BRANCH   3   5
HETATM    5  C   UNL     1     -11.114  14.481  65.810  1.00  0.00    -0.324 C  
HETATM    6  C   UNL     1     -11.291  13.324  66.828  1.00  0.00    -0.359 C  
HETATM    7  C   UNL     1     -10.709  13.282  68.255  1.00  0.00    -0.252 C  
HETATM    8  S   UNL     1      -9.802  14.688  68.868  1.00  0.00    -0.179 S  
HETATM    9  C   UNL     1     -11.810  12.874  69.242  1.00  0.00    -0.363 C  
HETATM   10  C   UNL     1     -10.034  15.896  67.624  1.00  0.00    -0.237 A  
HETATM   11  O   UNL     1      -8.387  14.385  68.850  1.00  0.00    -0.148 OA 
HETATM   12  O   UNL     1     -10.466  15.232  70.033  1.00  0.00    -0.277 OA 
HETATM   13  C   UNL     1     -10.606  15.782  66.378  1.00  0.00    -0.307 A  
HETATM   14  C   UNL     1     -10.662  17.073  65.742  1.00  0.00    -0.146 A  
HETATM   15  C   UNL     1     -10.115  18.079  66.520  1.00  0.00    -0.379 A  
HETATM   16  S   UNL     1      -9.512  17.471  67.994  1.00  0.00    -0.289 SA 
BRANCH  15  17
HETATM   17  S   UNL     1      -9.957  19.842  66.301  1.00  0.00    -0.501 S  
HETATM   18  O   UNL     1     -10.004  20.378  67.642  1.00  0.00    -0.415 OA 
HETATM   19  N   UNL     1      -8.406  20.111  65.713  1.00  0.00    -0.492 N  
HETATM   20  O   UNL     1     -10.896  20.203  65.268  1.00  0.00    -0.266 OA 
HETATM   21  H1  UNL     1      -8.316  21.119  65.588  1.00  0.00     0.000 HD 
HETATM   22  H2  UNL     1      -7.695  19.406  65.520  1.00  0.00     0.000 HD 
ENDBRANCH  15  17
ENDBRANCH   3   5
ENDBRANCH   2   3
TORSDOF 3
ENDMDL
MODEL       19
REMARK 921   NORMALIZED FREE ENERGY PREDICTED BY IDOCK:   -5.51 KCAL/MOL
REMARK 922        TOTAL FREE ENERGY PREDICTED BY IDOCK:   -6.83 KCAL/MOL
REMARK 923 INTER-LIGAND FREE ENERGY PREDICTED BY IDOCK:   -6.36 KCAL/MOL
REMARK 924 INTRA-LIGAND FREE ENERGY PREDICTED BY IDOCK:   -0.47 KCAL/MOL
REMARK 927      BINDING AFFINITY PREDICTED BY RF-SCORE:    0.00 PKD
ROOT
HETATM    1  C   UNL     1     -12.816  13.924  65.752  1.00  0.00    -0.437 C  
HETATM    2  C   UNL     1     -11.682  12.927  65.942  1.00  0.00    -0.399 C  
ENDROOT
BRANCH   2   3
HETATM    3  N   UNL     1     -11.945  12.067  67.105  1.00  0.00    -0.598 NA 
HETATM    4  H   UNL     1     -12.141  11.110  66.811  1.00  0.00     0.000 HD 
BRANCH   3   5
HETATM    5  C   UNL     1     -10.868  12.095  68.106  1.00  0.00    -0.222 C  
HETATM    6  C   UNL     1      -9.458  12.120  67.459  1.00  0.00    -0.180 C  
HETATM    7  C   UNL     1      -8.491  13.321  67.452  1.00  0.00    -0.206 C  
HETATM    8  S   UNL     1      -8.952  14.815  68.305  1.00  0.00    -0.187 S  
HETATM    9  C   UNL     1      -7.097  12.854  67.889  1.00  0.00    -0.127 C  
HETATM   10  C   UNL     1     -10.417  14.368  69.148  1.00  0.00    -0.189 A  
HETATM   11  O   UNL     1      -9.356  15.810  67.335  1.00  0.00    -0.207 OA 
HETATM   12  O   UNL     1      -7.996  15.097  69.355  1.00  0.00    -0.202 OA 
HETATM   13  C   UNL     1     -11.171  13.220  69.062  1.00  0.00    -0.320 A  
HETATM   14  C   UNL     1     -12.242  13.261  70.024  1.00  0.00    -0.345 A  
HETATM   15  C   UNL     1     -12.257  14.432  70.762  1.00  0.00    -0.343 A  
HETATM   16  S   UNL     1     -11.008  15.488  70.282  1.00  0.00    -0.354 SA 
BRANCH  15  17
HETATM   17  S   UNL     1     -13.278  15.016  72.103  1.00  0.00    -0.409 S  
HETATM   18  O   UNL     1     -13.412  13.874  72.977  1.00  0.00    -0.637 OA 
HETATM   19  N   UNL     1     -12.369  16.166  72.925  1.00  0.00    -0.491 N  
HETATM   20  O   UNL     1     -14.400  15.684  71.492  1.00  0.00    -0.507 OA 
HETATM   21  H1  UNL     1     -12.953  16.500  73.692  1.00  0.00     0.000 HD 
HETATM   22  H2  UNL     1     -11.422  16.470  72.702  1.00  0.00     0.000 HD 
ENDBRANCH  15  17
ENDBRANCH   3   5
ENDBRANCH   2   3
TORSDOF 3
ENDMDL
MODEL       20
REMARK 921   NORMALIZED FREE ENERGY PREDICTED BY IDOCK:   -5.47 KCAL/MOL
REMARK 922        TOTAL FREE ENERGY PREDICTED BY IDOCK:   -6.79 KCAL/MOL
REMARK 923 INTER-LIGAND FREE ENERGY PREDICTED BY IDOCK:   -6.49 KCAL/MOL
REMARK 924 INTRA-LIGAND FREE ENERGY PREDICTED BY IDOCK:   -0.29 KCAL/MOL
REMARK 927      BINDING AFFINITY PREDICTED BY RF-SCORE:    0.00 PKD
ROOT
HETATM    1  C   UNL     1     -14.387   7.707  71.561  1.00  0.00    -0.589 C  
HETATM    2  C   UNL     1     -13.868   9.080  71.965  1.00  0.00    -0.444 C  
ENDROOT
BRANCH   2   3
HETATM    3  N   UNL     1     -13.433   9.833  70.779  1.00  0.00    -0.588 NA 
HETATM    4  H   UNL     1     -14.041  10.635  70.617  1.00  0.00     0.000 HD 
BRANCH   3   5
HETATM    5  C   UNL     1     -12.023  10.249  70.839  1.00  0.00    -0.375 C  
HETATM    6  C   UNL     1     -11.136   9.229  71.600  1.00  0.00    -0.438 C  
HETATM    7  C   UNL     1     -10.078   8.304  70.966  1.00  0.00    -0.191 C  
HETATM    8  S   UNL     1      -9.755   8.420  69.219  1.00  0.00    -0.181 S  
HETATM    9  C   UNL     1      -8.774   8.399  71.767  1.00  0.00    -0.241 C  
HETATM   10  C   UNL     1     -10.678   9.822  68.726  1.00  0.00    -0.215 A  
HETATM   11  O   UNL     1     -10.373   7.298  68.546  1.00  0.00    -0.180 OA 
HETATM   12  O   UNL     1      -8.375   8.795  68.997  1.00  0.00    -0.125 OA 
HETATM   13  C   UNL     1     -11.590  10.573  69.432  1.00  0.00    -0.318 A  
HETATM   14  C   UNL     1     -12.023  11.695  68.640  1.00  0.00    -0.311 A  
HETATM   15  C   UNL     1     -11.441  11.722  67.384  1.00  0.00    -0.305 A  
HETATM   16  S   UNL     1     -10.403  10.391  67.148  1.00  0.00    -0.252 SA 
BRANCH  15  17
HETATM   17  S   UNL     1     -11.537  12.867  66.020  1.00  0.00    -0.396 S  
HETATM   18  O   UNL     1     -12.519  12.288  65.131  1.00  0.00    -0.563 OA 
HETATM   19  N   UNL     1     -12.200  14.284  66.634  1.00  0.00    -0.501 N  
HETATM   20  O   UNL     1     -10.177  13.140  65.629  1.00  0.00    -0.281 OA 
HETATM   21  H1  UNL     1     -12.255  14.938  65.854  1.00  0.00     0.000 HD 
HETATM   22  H2  UNL     1     -12.490  14.455  67.596  1.00  0.00     0.000 HD 
ENDBRANCH  15  17
ENDBRANCH   3   5
ENDBRANCH   2   3
TORSDOF 3
ENDMDL
MODEL       21
REMARK 921   NORMALIZED FREE ENERGY PREDICTED BY IDOCK:   -5.47 KCAL/MOL
REMARK 922        TOTAL FREE ENERGY PREDICTED BY IDOCK:   -6.78 KCAL/MOL
REMARK 923 INTER-LIGAND FREE ENERGY PREDICTED BY IDOCK:   -6.40 KCAL/MOL
REMARK 924 INTRA-LIGAND FREE ENERGY PREDICTED BY IDOCK:   -0.38 KCAL/MOL
REMARK 927      BINDING AFFINITY PREDICTED BY RF-SCORE:    0.00 PKD
ROOT
HETATM    1  C   UNL     1      -7.997  18.239  67.486  1.00  0.00    -0.233 C  
HETATM    2  C   UNL     1      -8.174  17.297  66.304  1.00  0.00    -0.267 C  
ENDROOT
BRANCH   2   3
HETATM    3  N   UNL     1      -8.657  15.986  66.761  1.00  0.00    -0.229 NA 
HETATM    4  H   UNL     1      -8.582  15.905  67.774  1.00  0.00     0.000 HD 
BRANCH   3   5
HETATM    5  C   UNL     1     -10.025  15.681  66.313  1.00  0.00    -0.295 C  
HETATM    6  C   UNL     1     -10.048  14.850  65.003  1.00  0.00    -0.300 C  
HETATM    7  C   UNL     1     -10.460  13.369  64.882  1.00  0.00    -0.390 C  
HETATM    8  S   UNL     1     -11.033  12.503  66.329  1.00  0.00    -0.289 S  
HETATM    9  C   UNL     1     -11.454  13.211  63.725  1.00  0.00    -0.426 C  
HETATM   10  C   UNL     1     -11.163  13.765  67.534  1.00  0.00    -0.294 A  
HETATM   11  O   UNL     1      -9.984  11.626  66.803  1.00  0.00    -0.200 OA 
HETATM   12  O   UNL     1     -12.393  12.051  66.125  1.00  0.00    -0.449 OA 
HETATM   13  C   UNL     1     -10.758  15.079  67.484  1.00  0.00    -0.284 A  
HETATM   14  C   UNL     1     -11.165  15.765  68.683  1.00  0.00    -0.351 A  
HETATM   15  C   UNL     1     -11.826  14.940  69.576  1.00  0.00    -0.325 A  
HETATM   16  S   UNL     1     -11.933  13.343  68.989  1.00  0.00    -0.274 SA 
BRANCH  15  17
HETATM   17  S   UNL     1     -12.597  15.224  71.159  1.00  0.00    -0.432 S  
HETATM   18  O   UNL     1     -12.295  14.037  71.926  1.00  0.00    -0.266 OA 
HETATM   19  N   UNL     1     -11.767  16.499  71.871  1.00  0.00    -0.615 N  
HETATM   20  O   UNL     1     -13.940  15.666  70.877  1.00  0.00    -0.479 OA 
HETATM   21  H1  UNL     1     -12.208  16.662  72.776  1.00  0.00     0.000 HD 
HETATM   22  H2  UNL     1     -10.977  17.010  71.476  1.00  0.00     0.000 HD 
ENDBRANCH  15  17
ENDBRANCH   3   5
ENDBRANCH   2   3
TORSDOF 3
ENDMDL
MODEL       22
REMARK 921   NORMALIZED FREE ENERGY PREDICTED BY IDOCK:   -5.41 KCAL/MOL
REMARK 922        TOTAL FREE ENERGY PREDICTED BY IDOCK:   -6.72 KCAL/MOL
REMARK 923 INTER-LIGAND FREE ENERGY PREDICTED BY IDOCK:   -6.42 KCAL/MOL
REMARK 924 INTRA-LIGAND FREE ENERGY PREDICTED BY IDOCK:   -0.30 KCAL/MOL
REMARK 927      BINDING AFFINITY PREDICTED BY RF-SCORE:    0.00 PKD
ROOT
HETATM    1  C   UNL     1     -11.922  15.845  72.345  1.00  0.00    -0.620 C  
HETATM    2  C   UNL     1     -12.128  15.640  70.851  1.00  0.00    -0.407 C  
ENDROOT
BRANCH   2   3
HETATM    3  N   UNL     1     -11.469  14.402  70.408  1.00  0.00    -0.453 NA 
HETATM    4  H   UNL     1     -11.228  13.815  71.206  1.00  0.00     0.000 HD 
BRANCH   3   5
HETATM    5  C   UNL     1     -12.255  13.645  69.422  1.00  0.00    -0.259 C  
HETATM    6  C   UNL     1     -12.285  14.334  68.032  1.00  0.00    -0.168 C  
HETATM    7  C   UNL     1     -11.568  13.834  66.762  1.00  0.00    -0.370 C  
HETATM    8  S   UNL     1     -10.668  12.298  66.819  1.00  0.00    -0.248 S  
HETATM    9  C   UNL     1     -12.552  13.844  65.586  1.00  0.00    -0.553 C  
HETATM   10  C   UNL     1     -11.068  11.648  68.393  1.00  0.00    -0.234 A  
HETATM   11  O   UNL     1      -9.250  12.580  66.869  1.00  0.00    -0.200 OA 
HETATM   12  O   UNL     1     -11.241  11.357  65.879  1.00  0.00    -0.230 OA 
HETATM   13  C   UNL     1     -11.751  12.225  69.439  1.00  0.00    -0.392 A  
HETATM   14  C   UNL     1     -11.923  11.269  70.502  1.00  0.00    -0.467 A  
HETATM   15  C   UNL     1     -11.347  10.042  70.219  1.00  0.00    -0.308 A  
HETATM   16  S   UNL     1     -10.582  10.048  68.696  1.00  0.00    -0.222 SA 
BRANCH  15  17
HETATM   17  S   UNL     1     -11.287   8.491  71.097  1.00  0.00    -0.281 S  
HETATM   18  O   UNL     1     -12.212   8.661  72.193  1.00  0.00    -0.343 OA 
HETATM   19  N   UNL     1     -11.944   7.336  70.068  1.00  0.00    -0.508 N  
HETATM   20  O   UNL     1      -9.889   8.186  71.278  1.00  0.00    -0.157 OA 
HETATM   21  H1  UNL     1     -11.910   6.449  70.570  1.00  0.00     0.000 HD 
HETATM   22  H2  UNL     1     -12.307   7.491  69.128  1.00  0.00     0.000 HD 
ENDBRANCH  15  17
ENDBRANCH   3   5
ENDBRANCH   2   3
TORSDOF 3
ENDMDL
MODEL       23
REMARK 921   NORMALIZED FREE ENERGY PREDICTED BY IDOCK:   -5.38 KCAL/MOL
REMARK 922        TOTAL FREE ENERGY PREDICTED BY IDOCK:   -6.68 KCAL/MOL
REMARK 923 INTER-LIGAND FREE ENERGY PREDICTED BY IDOCK:   -6.36 KCAL/MOL
REMARK 924 INTRA-LIGAND FREE ENERGY PREDICTED BY IDOCK:   -0.32 KCAL/MOL
REMARK 927      BINDING AFFINITY PREDICTED BY RF-SCORE:    0.00 PKD
ROOT
HETATM    1  C   UNL     1     -11.694  12.794  63.563  1.00  0.00    -0.597 C  
HETATM    2  C   UNL     1     -11.624  12.919  65.078  1.00  0.00    -0.332 C  
ENDROOT
BRANCH   2   3
HETATM    3  N   UNL     1     -11.434  14.324  65.468  1.00  0.00    -0.322 NA 
HETATM    4  H   UNL     1     -12.280  14.698  65.897  1.00  0.00     0.000 HD 
BRANCH   3   5
HETATM    5  C   UNL     1     -10.270  14.533  66.342  1.00  0.00    -0.287 C  
HETATM    6  C   UNL     1      -9.239  15.518  65.731  1.00  0.00    -0.216 C  
HETATM    7  C   UNL     1      -8.953  16.948  66.230  1.00  0.00    -0.270 C  
HETATM    8  S   UNL     1      -9.802  17.553  67.674  1.00  0.00    -0.302 S  
HETATM    9  C   UNL     1      -7.438  17.145  66.369  1.00  0.00    -0.341 C  
HETATM   10  C   UNL     1     -10.641  16.140  68.275  1.00  0.00    -0.288 A  
HETATM   11  O   UNL     1     -10.842  18.471  67.263  1.00  0.00    -0.408 OA 
HETATM   12  O   UNL     1      -8.844  17.877  68.709  1.00  0.00    -0.279 OA 
HETATM   13  C   UNL     1     -10.793  14.895  67.709  1.00  0.00    -0.286 A  
HETATM   14  C   UNL     1     -11.483  14.021  68.620  1.00  0.00    -0.337 A  
HETATM   15  C   UNL     1     -11.835  14.647  69.804  1.00  0.00    -0.316 A  
HETATM   16  S   UNL     1     -11.362  16.285  69.807  1.00  0.00    -0.191 SA 
BRANCH  15  17
HETATM   17  S   UNL     1     -12.630  14.079  71.296  1.00  0.00    -0.374 S  
HETATM   18  O   UNL     1     -11.896  14.720  72.362  1.00  0.00    -0.291 OA 
HETATM   19  N   UNL     1     -14.175  14.740  71.292  1.00  0.00    -0.563 N  
HETATM   20  O   UNL     1     -12.754  12.649  71.165  1.00  0.00    -0.358 OA 
HETATM   21  H1  UNL     1     -14.630  14.415  72.145  1.00  0.00     0.000 HD 
HETATM   22  H2  UNL     1     -14.579  15.346  70.578  1.00  0.00     0.000 HD 
ENDBRANCH  15  17
ENDBRANCH   3   5
ENDBRANCH   2   3
TORSDOF 3
ENDMDL
MODEL       24
REMARK 921   NORMALIZED FREE ENERGY PREDICTED BY IDOCK:   -5.30 KCAL/MOL
REMARK 922        TOTAL FREE ENERGY PREDICTED BY IDOCK:   -6.59 KCAL/MOL
REMARK 923 INTER-LIGAND FREE ENERGY PREDICTED BY IDOCK:   -6.52 KCAL/MOL
REMARK 924 INTRA-LIGAND FREE ENERGY PREDICTED BY IDOCK:   -0.07 KCAL/MOL
REMARK 927      BINDING AFFINITY PREDICTED BY RF-SCORE:    0.00 PKD
ROOT
HETATM    1  C   UNL     1     -10.673  12.100  63.410  1.00  0.00    -0.461 C  
HETATM    2  C   UNL     1     -11.963  12.908  63.432  1.00  0.00    -0.537 C  
ENDROOT
BRANCH   2   3
HETATM    3  N   UNL     1     -11.718  14.249  63.983  1.00  0.00    -0.663 NA 
HETATM    4  H   UNL     1     -12.340  14.935  63.555  1.00  0.00     0.000 HD 
BRANCH   3   5
HETATM    5  C   UNL     1     -11.813  14.302  65.450  1.00  0.00    -0.363 C  
HETATM    6  C   UNL     1     -12.153  12.922  66.072  1.00  0.00    -0.484 C  
HETATM    7  C   UNL     1     -11.190  12.042  66.894  1.00  0.00    -0.320 C  
HETATM    8  S   UNL     1      -9.552  12.643  67.251  1.00  0.00    -0.209 S  
HETATM    9  C   UNL     1     -11.892  11.583  68.178  1.00  0.00    -0.306 C  
HETATM   10  C   UNL     1      -9.590  14.296  66.680  1.00  0.00    -0.289 A  
HETATM   11  O   UNL     1      -8.601  11.964  66.397  1.00  0.00    -0.165 OA 
HETATM   12  O   UNL     1      -9.370  12.755  68.683  1.00  0.00    -0.116 OA 
HETATM   13  C   UNL     1     -10.556  14.959  65.959  1.00  0.00    -0.321 A  
HETATM   14  C   UNL     1     -10.191  16.343  65.803  1.00  0.00    -0.370 A  
HETATM   15  C   UNL     1      -8.973  16.646  66.386  1.00  0.00    -0.291 A  
HETATM   16  S   UNL     1      -8.259  15.269  67.093  1.00  0.00    -0.234 SA 
BRANCH  15  17
HETATM   17  S   UNL     1      -8.051  18.162  66.569  1.00  0.00    -0.264 S  
HETATM   18  O   UNL     1      -7.100  18.139  65.481  1.00  0.00    -0.522 OA 
HETATM   19  N   UNL     1      -9.128  19.414  66.259  1.00  0.00    -0.355 N  
HETATM   20  O   UNL     1      -7.667  18.234  67.957  1.00  0.00    -0.246 OA 
HETATM   21  H1  UNL     1      -8.601  20.281  66.363  1.00  0.00     0.000 HD 
HETATM   22  H2  UNL     1     -10.114  19.325  66.014  1.00  0.00     0.000 HD 
ENDBRANCH  15  17
ENDBRANCH   3   5
ENDBRANCH   2   3
TORSDOF 3
ENDMDL
MODEL       25
REMARK 921   NORMALIZED FREE ENERGY PREDICTED BY IDOCK:   -5.30 KCAL/MOL
REMARK 922        TOTAL FREE ENERGY PREDICTED BY IDOCK:   -6.58 KCAL/MOL
REMARK 923 INTER-LIGAND FREE ENERGY PREDICTED BY IDOCK:   -6.26 KCAL/MOL
REMARK 924 INTRA-LIGAND FREE ENERGY PREDICTED BY IDOCK:   -0.31 KCAL/MOL
REMARK 927      BINDING AFFINITY PREDICTED BY RF-SCORE:    0.00 PKD
ROOT
HETATM    1  C   UNL     1     -10.636  16.724  67.777  1.00  0.00    -0.341 C  
HETATM    2  C   UNL     1     -10.852  15.403  67.053  1.00  0.00    -0.320 C  
ENDROOT
BRANCH   2   3
HETATM    3  N   UNL     1     -11.488  14.425  67.949  1.00  0.00    -0.304 NA 
HETATM    4  H   UNL     1     -12.210  14.869  68.516  1.00  0.00     0.000 HD 
BRANCH   3   5
HETATM    5  C   UNL     1     -12.026  13.252  67.244  1.00  0.00    -0.343 C  
HETATM    6  C   UNL     1     -11.687  13.264  65.730  1.00  0.00    -0.395 C  
HETATM    7  C   UNL     1     -10.692  12.322  65.022  1.00  0.00    -0.298 C  
HETATM    8  S   UNL     1      -9.882  11.045  65.962  1.00  0.00    -0.240 S  
HETATM    9  C   UNL     1     -11.351  11.738  63.766  1.00  0.00    -0.524 C  
HETATM   10  C   UNL     1     -10.682  11.113  67.516  1.00  0.00    -0.236 A  
HETATM   11  O   UNL     1      -8.513  11.438  66.217  1.00  0.00    -0.177 OA 
HETATM   12  O   UNL     1     -10.231   9.745  65.428  1.00  0.00    -0.246 OA 
HETATM   13  C   UNL     1     -11.586  12.028  68.005  1.00  0.00    -0.407 A  
HETATM   14  C   UNL     1     -12.047  11.618  69.306  1.00  0.00    -0.323 A  
HETATM   15  C   UNL     1     -11.457  10.443  69.739  1.00  0.00    -0.280 A  
HETATM   16  S   UNL     1     -10.336   9.850  68.600  1.00  0.00    -0.204 SA 
BRANCH  15  17
HETATM   17  S   UNL     1     -11.665   9.439  71.198  1.00  0.00    -0.372 S  
HETATM   18  O   UNL     1     -12.711  10.100  71.945  1.00  0.00    -0.409 OA 
HETATM   19  N   UNL     1     -12.283   7.966  70.678  1.00  0.00    -0.501 N  
HETATM   20  O   UNL     1     -10.341   9.211  71.721  1.00  0.00    -0.344 OA 
HETATM   21  H1  UNL     1     -12.402   7.391  71.512  1.00  0.00     0.000 HD 
HETATM   22  H2  UNL     1     -12.497   7.698  69.717  1.00  0.00     0.000 HD 
ENDBRANCH  15  17
ENDBRANCH   3   5
ENDBRANCH   2   3
TORSDOF 3
ENDMDL
MODEL       26
REMARK 921   NORMALIZED FREE ENERGY PREDICTED BY IDOCK:   -5.25 KCAL/MOL
REMARK 922        TOTAL FREE ENERGY PREDICTED BY IDOCK:   -6.53 KCAL/MOL
REMARK 923 INTER-LIGAND FREE ENERGY PREDICTED BY IDOCK:   -6.20 KCAL/MOL
REMARK 924 INTRA-LIGAND FREE ENERGY PREDICTED BY IDOCK:   -0.33 KCAL/MOL
REMARK 927      BINDING AFFINITY PREDICTED BY RF-SCORE:    0.00 PKD
ROOT
HETATM    1  C   UNL     1      -8.965  17.750  68.545  1.00  0.00    -0.288 C  
HETATM    2  C   UNL     1      -9.203  16.351  67.994  1.00  0.00    -0.204 C  
ENDROOT
BRANCH   2   3
HETATM    3  N   UNL     1     -10.114  15.602  68.872  1.00  0.00    -0.207 NA 
HETATM    4  H   UNL     1     -10.332  16.140  69.710  1.00  0.00     0.000 HD 
BRANCH   3   5
HETATM    5  C   UNL     1     -11.346  15.166  68.196  1.00  0.00    -0.335 C  
HETATM    6  C   UNL     1     -11.325  15.467  66.675  1.00  0.00    -0.103 C  
HETATM    7  C   UNL     1     -11.205  14.418  65.550  1.00  0.00    -0.330 C  
HETATM    8  S   UNL     1     -11.150  12.689  65.974  1.00  0.00    -0.299 S  
HETATM    9  C   UNL     1     -12.281  14.683  64.491  1.00  0.00    -0.473 C  
HETATM   10  C   UNL     1     -11.482  12.680  67.691  1.00  0.00    -0.334 A  
HETATM   11  O   UNL     1      -9.790  12.212  65.844  1.00  0.00    -0.241 OA 
HETATM   12  O   UNL     1     -12.276  12.001  65.380  1.00  0.00    -0.458 OA 
HETATM   13  C   UNL     1     -11.583  13.727  68.578  1.00  0.00    -0.373 A  
HETATM   14  C   UNL     1     -11.968  13.239  69.876  1.00  0.00    -0.400 A  
HETATM   15  C   UNL     1     -12.113  11.862  69.911  1.00  0.00    -0.272 A  
HETATM   16  S   UNL     1     -11.762  11.159  68.398  1.00  0.00    -0.224 SA 
BRANCH  15  17
HETATM   17  S   UNL     1     -12.618  10.721  71.184  1.00  0.00    -0.447 S  
HETATM   18  O   UNL     1     -13.318  11.540  72.147  1.00  0.00    -0.477 OA 
HETATM   19  N   UNL     1     -13.754   9.699  70.484  1.00  0.00    -0.371 N  
HETATM   20  O   UNL     1     -11.451   9.938  71.508  1.00  0.00    -0.365 OA 
HETATM   21  H1  UNL     1     -14.043   9.046  71.212  1.00  0.00     0.000 HD 
HETATM   22  H2  UNL     1     -14.089   9.727  69.521  1.00  0.00     0.000 HD 
ENDBRANCH  15  17
ENDBRANCH   3   5
ENDBRANCH   2   3
TORSDOF 3
ENDMDL
MODEL       27
REMARK 921   NORMALIZED FREE ENERGY PREDICTED BY IDOCK:   -5.19 KCAL/MOL
REMARK 922        TOTAL FREE ENERGY PREDICTED BY IDOCK:   -6.45 KCAL/MOL
REMARK 923 INTER-LIGAND FREE ENERGY PREDICTED BY IDOCK:   -6.07 KCAL/MOL
REMARK 924 INTRA-LIGAND FREE ENERGY PREDICTED BY IDOCK:   -0.38 KCAL/MOL
REMARK 927      BINDING AFFINITY PREDICTED BY RF-SCORE:    0.00 PKD
ROOT
HETATM    1  C   UNL     1      -7.503  11.546  67.247  1.00  0.00    -0.139 C  
HETATM    2  C   UNL     1      -8.607  11.597  68.293  1.00  0.00    -0.162 C  
ENDROOT
BRANCH   2   3
HETATM    3  N   UNL     1      -9.817  12.215  67.731  1.00  0.00    -0.194 NA 
HETATM    4  H   UNL     1     -10.081  13.044  68.264  1.00  0.00     0.000 HD 
BRANCH   3   5
HETATM    5  C   UNL     1      -9.699  12.530  66.300  1.00  0.00    -0.254 C  
HETATM    6  C   UNL     1     -10.676  11.699  65.427  1.00  0.00    -0.341 C  
HETATM    7  C   UNL     1     -11.920  12.245  64.698  1.00  0.00    -0.366 C  
HETATM    8  S   UNL     1     -12.279  13.988  64.773  1.00  0.00    -0.426 S  
HETATM    9  C   UNL     1     -11.915  11.753  63.246  1.00  0.00    -0.354 C  
HETATM   10  C   UNL     1     -10.868  14.661  65.559  1.00  0.00    -0.345 A  
HETATM   11  O   UNL     1     -13.373  14.208  65.694  1.00  0.00    -0.602 OA 
HETATM   12  O   UNL     1     -12.258  14.552  63.440  1.00  0.00    -0.412 OA 
HETATM   13  C   UNL     1      -9.804  14.027  66.158  1.00  0.00    -0.319 A  
HETATM   14  C   UNL     1      -8.830  14.997  66.585  1.00  0.00    -0.307 A  
HETATM   15  C   UNL     1      -9.213  16.299  66.312  1.00  0.00    -0.328 A  
HETATM   16  S   UNL     1     -10.747  16.356  65.572  1.00  0.00    -0.209 SA 
BRANCH  15  17
HETATM   17  S   UNL     1      -8.418  17.879  66.543  1.00  0.00    -0.243 S  
HETATM   18  O   UNL     1      -9.507  18.827  66.588  1.00  0.00    -0.307 OA 
HETATM   19  N   UNL     1      -7.729  17.844  68.076  1.00  0.00    -0.237 N  
HETATM   20  O   UNL     1      -7.353  17.938  65.574  1.00  0.00    -0.522 OA 
HETATM   21  H1  UNL     1      -7.275  18.747  68.208  1.00  0.00     0.000 HD 
HETATM   22  H2  UNL     1      -7.759  17.073  68.742  1.00  0.00     0.000 HD 
ENDBRANCH  15  17
ENDBRANCH   3   5
ENDBRANCH   2   3
TORSDOF 3
ENDMDL
MODEL       28
REMARK 921   NORMALIZED FREE ENERGY PREDICTED BY IDOCK:   -5.13 KCAL/MOL
REMARK 922        TOTAL FREE ENERGY PREDICTED BY IDOCK:   -6.39 KCAL/MOL
REMARK 923 INTER-LIGAND FREE ENERGY PREDICTED BY IDOCK:   -6.07 KCAL/MOL
REMARK 924 INTRA-LIGAND FREE ENERGY PREDICTED BY IDOCK:   -0.31 KCAL/MOL
REMARK 927      BINDING AFFINITY PREDICTED BY RF-SCORE:    0.00 PKD
ROOT
HETATM    1  C   UNL     1     -12.108  12.104  63.470  1.00  0.00    -0.649 C  
HETATM    2  C   UNL     1     -10.590  12.159  63.562  1.00  0.00    -0.458 C  
ENDROOT
BRANCH   2   3
HETATM    3  N   UNL     1     -10.159  13.433  64.157  1.00  0.00    -0.779 NA 
HETATM    4  H   UNL     1     -10.536  14.223  63.634  1.00  0.00     0.000 HD 
BRANCH   3   5
HETATM    5  C   UNL     1     -10.486  13.549  65.586  1.00  0.00    -0.293 C  
HETATM    6  C   UNL     1     -10.028  12.311  66.401  1.00  0.00    -0.243 C  
HETATM    7  C   UNL     1      -8.869  12.280  67.417  1.00  0.00    -0.185 C  
HETATM    8  S   UNL     1      -7.985  13.784  67.777  1.00  0.00    -0.186 S  
HETATM    9  C   UNL     1      -9.344  11.606  68.710  1.00  0.00    -0.056 C  
HETATM   10  C   UNL     1      -8.912  15.011  66.943  1.00  0.00    -0.251 A  
HETATM   11  O   UNL     1      -6.702  13.752  67.110  1.00  0.00    -0.163 OA 
HETATM   12  O   UNL     1      -8.124  14.112  69.180  1.00  0.00    -0.020 OA 
HETATM   13  C   UNL     1      -9.961  14.879  66.062  1.00  0.00    -0.337 A  
HETATM   14  C   UNL     1     -10.471  16.178  65.706  1.00  0.00    -0.384 A  
HETATM   15  C   UNL     1      -9.777  17.212  66.310  1.00  0.00    -0.278 A  
HETATM   16  S   UNL     1      -8.501  16.626  67.277  1.00  0.00    -0.202 SA 
BRANCH  15  17
HETATM   17  S   UNL     1      -9.976  18.984  66.303  1.00  0.00    -0.390 S  
HETATM   18  O   UNL     1     -10.856  19.243  65.186  1.00  0.00    -0.445 OA 
HETATM   19  N   UNL     1     -10.822  19.373  67.701  1.00  0.00    -0.423 N  
HETATM   20  O   UNL     1      -8.650  19.538  66.412  1.00  0.00    -0.332 OA 
HETATM   21  H1  UNL     1     -10.937  20.387  67.697  1.00  0.00     0.000 HD 
HETATM   22  H2  UNL     1     -11.156  18.725  68.414  1.00  0.00     0.000 HD 
ENDBRANCH  15  17
ENDBRANCH   3   5
ENDBRANCH   2   3
TORSDOF 3
ENDMDL
MODEL       29
REMARK 921   NORMALIZED FREE ENERGY PREDICTED BY IDOCK:   -5.03 KCAL/MOL
REMARK 922        TOTAL FREE ENERGY PREDICTED BY IDOCK:   -6.27 KCAL/MOL
REMARK 923 INTER-LIGAND FREE ENERGY PREDICTED BY IDOCK:   -5.89 KCAL/MOL
REMARK 924 INTRA-LIGAND FREE ENERGY PREDICTED BY IDOCK:   -0.38 KCAL/MOL
REMARK 927      BINDING AFFINITY PREDICTED BY RF-SCORE:    0.00 PKD
ROOT
HETATM    1  C   UNL     1     -10.383   5.388  73.931  1.00  0.00    -0.287 C  
HETATM    2  C   UNL     1     -10.871   6.520  73.039  1.00  0.00    -0.261 C  
ENDROOT
BRANCH   2   3
HETATM    3  N   UNL     1     -12.068   6.105  72.292  1.00  0.00    -0.478 NA 
HETATM    4  H   UNL     1     -12.839   5.904  72.928  1.00  0.00     0.000 HD 
BRANCH   3   5
HETATM    5  C   UNL     1     -12.477   7.073  71.263  1.00  0.00    -0.386 C  
HETATM    6  C   UNL     1     -12.684   8.498  71.839  1.00  0.00    -0.401 C  
HETATM    7  C   UNL     1     -11.772   9.715  71.583  1.00  0.00    -0.369 C  
HETATM    8  S   UNL     1     -10.382   9.545  70.482  1.00  0.00    -0.303 S  
HETATM    9  C   UNL     1     -12.633  10.921  71.188  1.00  0.00    -0.532 C  
HETATM   10  C   UNL     1     -10.599   7.952  69.795  1.00  0.00    -0.242 A  
HETATM   11  O   UNL     1      -9.166   9.465  71.262  1.00  0.00    -0.262 OA 
HETATM   12  O   UNL     1     -10.529  10.450  69.361  1.00  0.00    -0.211 OA 
HETATM   13  C   UNL     1     -11.495   6.961  70.125  1.00  0.00    -0.354 A  
HETATM   14  C   UNL     1     -11.363   5.854  69.215  1.00  0.00    -0.073 A  
HETATM   15  C   UNL     1     -10.370   6.050  68.270  1.00  0.00    -0.207 A  
HETATM   16  S   UNL     1      -9.583   7.545  68.494  1.00  0.00    -0.152 SA 
BRANCH  15  17
HETATM   17  S   UNL     1      -9.798   5.086  66.883  1.00  0.00    -0.211 S  
HETATM   18  O   UNL     1      -9.502   3.788  67.444  1.00  0.00    -0.186 OA 
HETATM   19  N   UNL     1     -11.117   4.895  65.860  1.00  0.00    -0.839 N  
HETATM   20  O   UNL     1      -8.819   5.900  66.206  1.00  0.00    -0.133 OA 
HETATM   21  H1  UNL     1     -10.790   4.344  65.067  1.00  0.00     0.000 HD 
HETATM   22  H2  UNL     1     -12.059   5.258  66.004  1.00  0.00     0.000 HD 
ENDBRANCH  15  17
ENDBRANCH   3   5
ENDBRANCH   2   3
TORSDOF 3
ENDMDL
MODEL       30
REMARK 921   NORMALIZED FREE ENERGY PREDICTED BY IDOCK:   -4.99 KCAL/MOL
REMARK 922        TOTAL FREE ENERGY PREDICTED BY IDOCK:   -6.22 KCAL/MOL
REMARK 923 INTER-LIGAND FREE ENERGY PREDICTED BY IDOCK:   -5.87 KCAL/MOL
REMARK 924 INTRA-LIGAND FREE ENERGY PREDICTED BY IDOCK:   -0.36 KCAL/MOL
REMARK 927      BINDING AFFINITY PREDICTED BY RF-SCORE:    0.00 PKD
ROOT
HETATM    1  C   UNL     1      -5.784  10.053  65.579  1.00  0.00    -0.071 C  
HETATM    2  C   UNL     1      -7.245  10.448  65.740  1.00  0.00    -0.143 C  
ENDROOT
BRANCH   2   3
HETATM    3  N   UNL     1      -8.085   9.701  64.793  1.00  0.00    -0.130 NA 
HETATM    4  H   UNL     1      -7.596   8.875  64.448  1.00  0.00     0.000 HD 
BRANCH   3   5
HETATM    5  C   UNL     1      -9.400   9.337  65.343  1.00  0.00    -0.226 C  
HETATM    6  C   UNL     1      -9.291   8.362  66.544  1.00  0.00    -0.259 C  
HETATM    7  C   UNL     1      -9.584   8.710  68.017  1.00  0.00    -0.149 C  
HETATM    8  S   UNL     1     -10.168  10.342  68.427  1.00  0.00    -0.175 S  
HETATM    9  C   UNL     1     -10.499   7.638  68.621  1.00  0.00    -0.203 C  
HETATM   10  C   UNL     1     -10.456  11.076  66.865  1.00  0.00    -0.246 A  
HETATM   11  O   UNL     1      -9.084  11.101  69.013  1.00  0.00    -0.134 OA 
HETATM   12  O   UNL     1     -11.477  10.257  69.038  1.00  0.00    -0.217 OA 
HETATM   13  C   UNL     1     -10.149  10.619  65.604  1.00  0.00    -0.335 A  
HETATM   14  C   UNL     1     -10.670  11.523  64.612  1.00  0.00    -0.379 A  
HETATM   15  C   UNL     1     -11.314  12.616  65.167  1.00  0.00    -0.308 A  
HETATM   16  S   UNL     1     -11.270  12.568  66.870  1.00  0.00    -0.322 SA 
BRANCH  15  17
HETATM   17  S   UNL     1     -12.189  14.002  64.465  1.00  0.00    -0.411 S  
HETATM   18  O   UNL     1     -13.191  14.334  65.451  1.00  0.00    -0.688 OA 
HETATM   19  N   UNL     1     -11.098  15.279  64.419  1.00  0.00    -0.685 N  
HETATM   20  O   UNL     1     -12.504  13.633  63.107  1.00  0.00    -0.786 OA 
HETATM   21  H1  UNL     1     -11.598  16.072  64.017  1.00  0.00     0.000 HD 
HETATM   22  H2  UNL     1     -10.127  15.265  64.731  1.00  0.00     0.000 HD 
ENDBRANCH  15  17
ENDBRANCH   3   5
ENDBRANCH   2   3
TORSDOF 3
ENDMDL
MODEL       31
REMARK 921   NORMALIZED FREE ENERGY PREDICTED BY IDOCK:   -4.96 KCAL/MOL
REMARK 922        TOTAL FREE ENERGY PREDICTED BY IDOCK:   -6.19 KCAL/MOL
REMARK 923 INTER-LIGAND FREE ENERGY PREDICTED BY IDOCK:   -5.81 KCAL/MOL
REMARK 924 INTRA-LIGAND FREE ENERGY PREDICTED BY IDOCK:   -0.38 KCAL/MOL
REMARK 927      BINDING AFFINITY PREDICTED BY RF-SCORE:    0.00 PKD
ROOT
HETATM    1  C   UNL     1     -10.950  10.367  69.838  1.00  0.00    -0.364 C  
HETATM    2  C   UNL     1      -9.792  10.389  68.850  1.00  0.00    -0.200 C  
ENDROOT
BRANCH   2   3
HETATM    3  N   UNL     1      -9.058  11.660  68.949  1.00  0.00    -0.396 NA 
HETATM    4  H   UNL     1      -8.475  11.676  69.785  1.00  0.00     0.000 HD 
BRANCH   3   5
HETATM    5  C   UNL     1      -8.263  11.968  67.751  1.00  0.00    -0.151 C  
HETATM    6  C   UNL     1      -7.125  10.940  67.515  1.00  0.00    -0.090 C  
HETATM    7  C   UNL     1      -7.077   9.892  66.385  1.00  0.00    -0.096 C  
HETATM    8  S   UNL     1      -8.384   9.856  65.175  1.00  0.00    -0.158 S  
HETATM    9  C   UNL     1      -5.705   9.943  65.702  1.00  0.00    -0.061 C  
HETATM   10  C   UNL     1      -9.321  11.287  65.544  1.00  0.00    -0.221 A  
HETATM   11  O   UNL     1      -9.261   8.740  65.456  1.00  0.00    -0.203 OA 
HETATM   12  O   UNL     1      -7.840  10.105  63.857  1.00  0.00    -0.153 OA 
HETATM   13  C   UNL     1      -9.226  12.155  66.607  1.00  0.00    -0.206 A  
HETATM   14  C   UNL     1     -10.148  13.247  66.435  1.00  0.00    -0.290 A  
HETATM   15  C   UNL     1     -10.900  13.138  65.277  1.00  0.00    -0.297 A  
HETATM   16  S   UNL     1     -10.518  11.717  64.417  1.00  0.00    -0.350 SA 
BRANCH  15  17
HETATM   17  S   UNL     1     -12.126  14.185  64.515  1.00  0.00    -0.459 S  
HETATM   18  O   UNL     1     -11.478  15.471  64.395  1.00  0.00    -0.374 OA 
HETATM   19  N   UNL     1     -12.352  13.597  62.958  1.00  0.00    -1.004 N  
HETATM   20  O   UNL     1     -13.346  13.977  65.254  1.00  0.00    -0.741 OA 
HETATM   21  H1  UNL     1     -13.053  14.196  62.522  1.00  0.00     0.000 HD 
HETATM   22  H2  UNL     1     -11.881  12.799  62.531  1.00  0.00     0.000 HD 
ENDBRANCH  15  17
ENDBRANCH   3   5
ENDBRANCH   2   3
TORSDOF 3
ENDMDL
MODEL       32
REMARK 921   NORMALIZED FREE ENERGY PREDICTED BY IDOCK:   -4.96 KCAL/MOL
REMARK 922        TOTAL FREE ENERGY PREDICTED BY IDOCK:   -6.19 KCAL/MOL
REMARK 923 INTER-LIGAND FREE ENERGY PREDICTED BY IDOCK:   -5.86 KCAL/MOL
REMARK 924 INTRA-LIGAND FREE ENERGY PREDICTED BY IDOCK:   -0.33 KCAL/MOL
REMARK 927      BINDING AFFINITY PREDICTED BY RF-SCORE:    0.00 PKD
ROOT
HETATM    1  C   UNL     1     -11.135   6.548  68.430  1.00  0.00    -0.340 C  
HETATM    2  C   UNL     1     -10.555   6.989  67.094  1.00  0.00    -0.341 C  
ENDROOT
BRANCH   2   3
HETATM    3  N   UNL     1     -10.902   8.392  66.822  1.00  0.00    -0.255 NA 
HETATM    4  H   UNL     1     -11.537   8.753  67.535  1.00  0.00     0.000 HD 
BRANCH   3   5
HETATM    5  C   UNL     1      -9.727   9.266  66.679  1.00  0.00    -0.219 C  
HETATM    6  C   UNL     1      -8.426   8.468  66.403  1.00  0.00    -0.122 C  
HETATM    7  C   UNL     1      -7.655   8.435  65.068  1.00  0.00    -0.094 C  
HETATM    8  S   UNL     1      -8.224   9.435  63.709  1.00  0.00    -0.178 S  
HETATM    9  C   UNL     1      -6.165   8.680  65.336  1.00  0.00    -0.049 C  
HETATM   10  C   UNL     1      -9.494  10.405  64.420  1.00  0.00    -0.287 A  
HETATM   11  O   UNL     1      -8.886   8.588  62.740  1.00  0.00    -0.039 OA 
HETATM   12  O   UNL     1      -7.200  10.389  63.337  1.00  0.00    -0.117 OA 
HETATM   13  C   UNL     1     -10.075  10.325  65.665  1.00  0.00    -0.341 A  
HETATM   14  C   UNL     1     -11.016  11.401  65.840  1.00  0.00    -0.268 A  
HETATM   15  C   UNL     1     -11.114  12.215  64.724  1.00  0.00    -0.316 A  
HETATM   16  S   UNL     1     -10.102  11.673  63.465  1.00  0.00    -0.455 SA 
BRANCH  15  17
HETATM   17  S   UNL     1     -12.039  13.700  64.375  1.00  0.00    -0.420 S  
HETATM   18  O   UNL     1     -12.916  13.854  65.512  1.00  0.00    -0.673 OA 
HETATM   19  N   UNL     1     -10.938  14.968  64.422  1.00  0.00    -0.635 N  
HETATM   20  O   UNL     1     -12.512  13.568  63.020  1.00  0.00    -0.709 OA 
HETATM   21  H1  UNL     1     -11.466  15.817  64.223  1.00  0.00     0.000 HD 
HETATM   22  H2  UNL     1      -9.938  14.903  64.614  1.00  0.00     0.000 HD 
ENDBRANCH  15  17
ENDBRANCH   3   5
ENDBRANCH   2   3
TORSDOF 3
ENDMDL
MODEL       33
REMARK 921   NORMALIZED FREE ENERGY PREDICTED BY IDOCK:   -4.94 KCAL/MOL
REMARK 922        TOTAL FREE ENERGY PREDICTED BY IDOCK:   -6.16 KCAL/MOL
REMARK 923 INTER-LIGAND FREE ENERGY PREDICTED BY IDOCK:   -5.78 KCAL/MOL
REMARK 924 INTRA-LIGAND FREE ENERGY PREDICTED BY IDOCK:   -0.38 KCAL/MOL
REMARK 927      BINDING AFFINITY PREDICTED BY RF-SCORE:    0.00 PKD
ROOT
HETATM    1  C   UNL     1     -12.669  15.229  70.768  1.00  0.00    -0.491 C  
HETATM    2  C   UNL     1     -11.427  15.638  69.991  1.00  0.00    -0.344 C  
ENDROOT
BRANCH   2   3
HETATM    3  N   UNL     1     -11.753  16.696  69.022  1.00  0.00    -0.097 NA 
HETATM    4  H   UNL     1     -11.995  17.563  69.501  1.00  0.00     0.000 HD 
BRANCH   3   5
HETATM    5  C   UNL     1     -10.690  16.926  68.032  1.00  0.00    -0.364 C  
HETATM    6  C   UNL     1      -9.345  17.334  68.689  1.00  0.00    -0.267 C  
HETATM    7  C   UNL     1      -8.078  16.459  68.766  1.00  0.00    -0.234 C  
HETATM    8  S   UNL     1      -8.078  14.855  67.991  1.00  0.00    -0.146 S  
HETATM    9  C   UNL     1      -6.865  17.281  68.315  1.00  0.00    -0.184 C  
HETATM   10  C   UNL     1      -9.591  14.826  67.115  1.00  0.00    -0.227 A  
HETATM   11  O   UNL     1      -8.205  13.835  69.010  1.00  0.00     0.024 OA 
HETATM   12  O   UNL     1      -7.059  14.806  66.964  1.00  0.00    -0.144 OA 
HETATM   13  C   UNL     1     -10.641  15.715  67.135  1.00  0.00    -0.308 A  
HETATM   14  C   UNL     1     -11.636  15.325  66.169  1.00  0.00     0.008 A  
HETATM   15  C   UNL     1     -11.302  14.163  65.494  1.00  0.00    -0.319 A  
HETATM   16  S   UNL     1      -9.816  13.530  66.038  1.00  0.00    -0.228 SA 
BRANCH  15  17
HETATM   17  S   UNL     1     -12.086  13.249  64.179  1.00  0.00    -0.431 S  
HETATM   18  O   UNL     1     -12.639  14.265  63.313  1.00  0.00    -0.716 OA 
HETATM   19  N   UNL     1     -10.852  12.490  63.327  1.00  0.00    -0.645 N  
HETATM   20  O   UNL     1     -12.882  12.231  64.817  1.00  0.00    -0.661 OA 
HETATM   21  H1  UNL     1     -11.300  11.967  62.575  1.00  0.00     0.000 HD 
HETATM   22  H2  UNL     1      -9.853  12.542  63.523  1.00  0.00     0.000 HD 
ENDBRANCH  15  17
ENDBRANCH   3   5
ENDBRANCH   2   3
TORSDOF 3
ENDMDL
MODEL       34
REMARK 921   NORMALIZED FREE ENERGY PREDICTED BY IDOCK:   -4.90 KCAL/MOL
REMARK 922        TOTAL FREE ENERGY PREDICTED BY IDOCK:   -6.12 KCAL/MOL
REMARK 923 INTER-LIGAND FREE ENERGY PREDICTED BY IDOCK:   -5.77 KCAL/MOL
REMARK 924 INTRA-LIGAND FREE ENERGY PREDICTED BY IDOCK:   -0.35 KCAL/MOL
REMARK 927      BINDING AFFINITY PREDICTED BY RF-SCORE:    0.00 PKD
ROOT
HETATM    1  C   UNL     1      -8.015   9.419  67.323  1.00  0.00    -0.106 C  
HETATM    2  C   UNL     1      -6.968  10.289  66.642  1.00  0.00    -0.103 C  
ENDROOT
BRANCH   2   3
HETATM    3  N   UNL     1      -7.564  11.560  66.203  1.00  0.00    -0.369 NA 
HETATM    4  H   UNL     1      -8.222  11.406  65.439  1.00  0.00     0.000 HD 
BRANCH   3   5
HETATM    5  C   UNL     1      -8.199  12.313  67.296  1.00  0.00    -0.182 C  
HETATM    6  C   UNL     1      -7.174  12.797  68.355  1.00  0.00    -0.115 C  
HETATM    7  C   UNL     1      -6.734  14.257  68.582  1.00  0.00    -0.092 C  
HETATM    8  S   UNL     1      -7.485  15.553  67.618  1.00  0.00    -0.186 S  
HETATM    9  C   UNL     1      -6.805  14.583  70.079  1.00  0.00    -0.070 C  
HETATM   10  C   UNL     1      -8.767  14.730  66.758  1.00  0.00    -0.224 A  
HETATM   11  O   UNL     1      -6.554  15.986  66.598  1.00  0.00    -0.224 OA 
HETATM   12  O   UNL     1      -8.169  16.482  68.492  1.00  0.00    -0.191 OA 
HETATM   13  C   UNL     1      -9.049  13.387  66.667  1.00  0.00    -0.180 A  
HETATM   14  C   UNL     1     -10.266  13.188  65.924  1.00  0.00    -0.294 A  
HETATM   15  C   UNL     1     -10.821  14.375  65.475  1.00  0.00    -0.331 A  
HETATM   16  S   UNL     1      -9.870  15.717  65.922  1.00  0.00    -0.363 SA 
BRANCH  15  17
HETATM   17  S   UNL     1     -12.314  14.762  64.579  1.00  0.00    -0.230 S  
HETATM   18  O   UNL     1     -12.139  16.134  64.162  1.00  0.00    -0.753 OA 
HETATM   19  N   UNL     1     -12.294  13.815  63.191  1.00  0.00    -1.106 N  
HETATM   20  O   UNL     1     -13.406  14.318  65.409  1.00  0.00    -0.649 OA 
HETATM   21  H1  UNL     1     -13.148  14.037  62.678  1.00  0.00     0.000 HD 
HETATM   22  H2  UNL     1     -11.571  13.151  62.914  1.00  0.00     0.000 HD 
ENDBRANCH  15  17
ENDBRANCH   3   5
ENDBRANCH   2   3
TORSDOF 3
ENDMDL
MODEL       35
REMARK 921   NORMALIZED FREE ENERGY PREDICTED BY IDOCK:   -4.89 KCAL/MOL
REMARK 922        TOTAL FREE ENERGY PREDICTED BY IDOCK:   -6.11 KCAL/MOL
REMARK 923 INTER-LIGAND FREE ENERGY PREDICTED BY IDOCK:   -5.64 KCAL/MOL
REMARK 924 INTRA-LIGAND FREE ENERGY PREDICTED BY IDOCK:   -0.47 KCAL/MOL
REMARK 927      BINDING AFFINITY PREDICTED BY RF-SCORE:    0.00 PKD
ROOT
HETATM    1  C   UNL     1      -9.986   9.480  65.797  1.00  0.00    -0.316 C  
HETATM    2  C   UNL     1      -8.760  10.199  66.342  1.00  0.00    -0.130 C  
ENDROOT
BRANCH   2   3
HETATM    3  N   UNL     1      -8.426   9.698  67.684  1.00  0.00    -0.125 NA 
HETATM    4  H   UNL     1      -7.487   9.300  67.699  1.00  0.00     0.000 HD 
BRANCH   3   5
HETATM    5  C   UNL     1      -8.581  10.711  68.739  1.00  0.00    -0.150 C  
HETATM    6  C   UNL     1      -8.454  12.158  68.194  1.00  0.00    -0.175 C  
HETATM    7  C   UNL     1      -9.605  13.175  68.061  1.00  0.00    -0.220 C  
HETATM    8  S   UNL     1     -11.233  12.728  68.630  1.00  0.00    -0.301 S  
HETATM    9  C   UNL     1      -9.169  14.517  68.661  1.00  0.00    -0.192 C  
HETATM   10  C   UNL     1     -10.977  11.195  69.432  1.00  0.00    -0.244 A  
HETATM   11  O   UNL     1     -12.069  12.429  67.488  1.00  0.00    -0.491 OA 
HETATM   12  O   UNL     1     -11.649  13.628  69.685  1.00  0.00    -0.277 OA 
HETATM   13  C   UNL     1      -9.856  10.398  69.479  1.00  0.00    -0.211 A  
HETATM   14  C   UNL     1     -10.088   9.272  70.346  1.00  0.00    -0.287 A  
HETATM   15  C   UNL     1     -11.363   9.262  70.885  1.00  0.00    -0.308 A  
HETATM   16  S   UNL     1     -12.285  10.584  70.329  1.00  0.00    -0.299 SA 
BRANCH  15  17
HETATM   17  S   UNL     1     -12.190   8.187  72.042  1.00  0.00    -0.355 S  
HETATM   18  O   UNL     1     -11.215   7.960  73.084  1.00  0.00    -0.382 OA 
HETATM   19  N   UNL     1     -13.438   9.087  72.719  1.00  0.00    -0.803 N  
HETATM   20  O   UNL     1     -12.776   7.129  71.258  1.00  0.00    -0.371 OA 
HETATM   21  H1  UNL     1     -13.911   8.473  73.381  1.00  0.00     0.000 HD 
HETATM   22  H2  UNL     1     -13.675  10.057  72.510  1.00  0.00     0.000 HD 
ENDBRANCH  15  17
ENDBRANCH   3   5
ENDBRANCH   2   3
TORSDOF 3
ENDMDL
MODEL       36
REMARK 921   NORMALIZED FREE ENERGY PREDICTED BY IDOCK:   -4.89 KCAL/MOL
REMARK 922        TOTAL FREE ENERGY PREDICTED BY IDOCK:   -6.10 KCAL/MOL
REMARK 923 INTER-LIGAND FREE ENERGY PREDICTED BY IDOCK:   -5.73 KCAL/MOL
REMARK 924 INTRA-LIGAND FREE ENERGY PREDICTED BY IDOCK:   -0.37 KCAL/MOL
REMARK 927      BINDING AFFINITY PREDICTED BY RF-SCORE:    0.00 PKD
ROOT
HETATM    1  C   UNL     1     -12.789  13.809  65.616  1.00  0.00    -0.456 C  
HETATM    2  C   UNL     1     -11.960  14.329  66.782  1.00  0.00    -0.436 C  
ENDROOT
BRANCH   2   3
HETATM    3  N   UNL     1     -10.778  13.479  66.988  1.00  0.00    -0.275 NA 
HETATM    4  H   UNL     1     -10.441  13.555  67.948  1.00  0.00     0.000 HD 
BRANCH   3   5
HETATM    5  C   UNL     1     -11.000  12.072  66.623  1.00  0.00    -0.287 C  
HETATM    6  C   UNL     1     -10.029  11.587  65.515  1.00  0.00    -0.282 C  
HETATM    7  C   UNL     1      -8.866  10.593  65.709  1.00  0.00    -0.184 C  
HETATM    8  S   UNL     1      -8.610   9.853  67.309  1.00  0.00    -0.125 S  
HETATM    9  C   UNL     1      -8.928   9.518  64.617  1.00  0.00    -0.266 C  
HETATM   10  C   UNL     1     -10.009  10.367  68.224  1.00  0.00    -0.151 A  
HETATM   11  O   UNL     1      -7.478  10.486  67.950  1.00  0.00    -0.089 OA 
HETATM   12  O   UNL     1      -8.744   8.415  67.212  1.00  0.00    -0.125 OA 
HETATM   13  C   UNL     1     -10.995  11.269  67.899  1.00  0.00    -0.302 A  
HETATM   14  C   UNL     1     -11.999  11.295  68.930  1.00  0.00    -0.378 A  
HETATM   15  C   UNL     1     -11.713  10.440  69.980  1.00  0.00    -0.286 A  
HETATM   16  S   UNL     1     -10.232   9.631  69.740  1.00  0.00    -0.255 SA 
BRANCH  15  17
HETATM   17  S   UNL     1     -12.586  10.006  71.473  1.00  0.00    -0.458 S  
HETATM   18  O   UNL     1     -13.112  11.260  71.961  1.00  0.00    -0.495 OA 
HETATM   19  N   UNL     1     -13.899   9.068  71.000  1.00  0.00    -0.574 N  
HETATM   20  O   UNL     1     -11.691   9.171  72.234  1.00  0.00    -0.304 OA 
HETATM   21  H1  UNL     1     -14.399   8.820  71.854  1.00  0.00     0.000 HD 
HETATM   22  H2  UNL     1     -14.147   8.801  70.048  1.00  0.00     0.000 HD 
ENDBRANCH  15  17
ENDBRANCH   3   5
ENDBRANCH   2   3
TORSDOF 3
ENDMDL
MODEL       37
REMARK 921   NORMALIZED FREE ENERGY PREDICTED BY IDOCK:   -4.86 KCAL/MOL
REMARK 922        TOTAL FREE ENERGY PREDICTED BY IDOCK:   -6.07 KCAL/MOL
REMARK 923 INTER-LIGAND FREE ENERGY PREDICTED BY IDOCK:   -5.59 KCAL/MOL
REMARK 924 INTRA-LIGAND FREE ENERGY PREDICTED BY IDOCK:   -0.48 KCAL/MOL
REMARK 927      BINDING AFFINITY PREDICTED BY RF-SCORE:    0.00 PKD
ROOT
HETATM    1  C   UNL     1     -11.615   6.450  69.217  1.00  0.00    -0.170 C  
HETATM    2  C   UNL     1     -11.873   6.466  70.716  1.00  0.00    -0.253 C  
ENDROOT
BRANCH   2   3
HETATM    3  N   UNL     1     -12.515   7.728  71.113  1.00  0.00    -0.462 NA 
HETATM    4  H   UNL     1     -13.331   7.550  71.699  1.00  0.00     0.000 HD 
BRANCH   3   5
HETATM    5  C   UNL     1     -11.595   8.668  71.770  1.00  0.00    -0.332 C  
HETATM    6  C   UNL     1     -10.519   7.946  72.623  1.00  0.00    -0.384 C  
HETATM    7  C   UNL     1      -9.018   7.848  72.286  1.00  0.00    -0.156 C  
HETATM    8  S   UNL     1      -8.395   8.676  70.837  1.00  0.00    -0.173 S  
HETATM    9  C   UNL     1      -8.193   8.224  73.523  1.00  0.00    -0.250 C  
HETATM   10  C   UNL     1      -9.765   9.612  70.282  1.00  0.00    -0.259 A  
HETATM   11  O   UNL     1      -8.152   7.698  69.798  1.00  0.00    -0.120 OA 
HETATM   12  O   UNL     1      -7.409   9.665  71.221  1.00  0.00    -0.322 OA 
HETATM   13  C   UNL     1     -11.073   9.602  70.709  1.00  0.00    -0.403 A  
HETATM   14  C   UNL     1     -11.824  10.618  70.019  1.00  0.00    -0.403 A  
HETATM   15  C   UNL     1     -11.061  11.318  69.099  1.00  0.00    -0.253 A  
HETATM   16  S   UNL     1      -9.459  10.739  69.047  1.00  0.00    -0.125 SA 
BRANCH  15  17
HETATM   17  S   UNL     1     -11.412  12.693  68.018  1.00  0.00    -0.340 S  
HETATM   18  O   UNL     1     -12.128  13.633  68.850  1.00  0.00    -0.347 OA 
HETATM   19  N   UNL     1      -9.930  13.392  67.643  1.00  0.00    -0.225 N  
HETATM   20  O   UNL     1     -11.958  12.125  66.811  1.00  0.00    -0.606 OA 
HETATM   21  H1  UNL     1     -10.130  14.179  67.025  1.00  0.00     0.000 HD 
HETATM   22  H2  UNL     1      -9.012  13.091  67.970  1.00  0.00     0.000 HD 
ENDBRANCH  15  17
ENDBRANCH   3   5
ENDBRANCH   2   3
TORSDOF 3
ENDMDL
MODEL       38
REMARK 921   NORMALIZED FREE ENERGY PREDICTED BY IDOCK:   -4.82 KCAL/MOL
REMARK 922        TOTAL FREE ENERGY PREDICTED BY IDOCK:   -6.02 KCAL/MOL
REMARK 923 INTER-LIGAND FREE ENERGY PREDICTED BY IDOCK:   -5.60 KCAL/MOL
REMARK 924 INTRA-LIGAND FREE ENERGY PREDICTED BY IDOCK:   -0.42 KCAL/MOL
REMARK 927      BINDING AFFINITY PREDICTED BY RF-SCORE:    0.00 PKD
ROOT
HETATM    1  C   UNL     1      -8.281   9.475  63.688  1.00  0.00    -0.165 C  
HETATM    2  C   UNL     1      -9.402  10.284  63.050  1.00  0.00    -0.310 C  
ENDROOT
BRANCH   2   3
HETATM    3  N   UNL     1     -10.377  10.700  64.069  1.00  0.00    -0.450 NA 
HETATM    4  H   UNL     1     -10.668   9.906  64.638  1.00  0.00     0.000 HD 
BRANCH   3   5
HETATM    5  C   UNL     1      -9.899  11.803  64.916  1.00  0.00    -0.223 C  
HETATM    6  C   UNL     1     -10.179  13.195  64.291  1.00  0.00    -0.283 C  
HETATM    7  C   UNL     1     -11.211  14.221  64.800  1.00  0.00    -0.385 C  
HETATM    8  S   UNL     1     -12.147  13.858  66.271  1.00  0.00    -0.457 S  
HETATM    9  C   UNL     1     -10.550  15.600  64.904  1.00  0.00    -0.344 C  
HETATM   10  C   UNL     1     -11.405  12.394  66.876  1.00  0.00    -0.333 A  
HETATM   11  O   UNL     1     -13.493  13.479  65.897  1.00  0.00    -0.134 OA 
HETATM   12  O   UNL     1     -11.873  14.853  67.286  1.00  0.00    -0.345 OA 
HETATM   13  C   UNL     1     -10.456  11.581  66.299  1.00  0.00    -0.294 A  
HETATM   14  C   UNL     1     -10.076  10.539  67.217  1.00  0.00    -0.242 A  
HETATM   15  C   UNL     1     -10.766  10.602  68.416  1.00  0.00    -0.222 A  
HETATM   16  S   UNL     1     -11.883  11.890  68.427  1.00  0.00    -0.209 SA 
BRANCH  15  17
HETATM   17  S   UNL     1     -10.687   9.647  69.920  1.00  0.00    -0.268 S  
HETATM   18  O   UNL     1     -11.591  10.322  70.824  1.00  0.00    -0.310 OA 
HETATM   19  N   UNL     1     -11.364   8.150  69.569  1.00  0.00    -0.420 N  
HETATM   20  O   UNL     1      -9.286   9.451  70.198  1.00  0.00    -0.205 OA 
HETATM   21  H1  UNL     1     -11.319   7.603  70.429  1.00  0.00     0.000 HD 
HETATM   22  H2  UNL     1     -11.745   7.846  68.673  1.00  0.00     0.000 HD 
ENDBRANCH  15  17
ENDBRANCH   3   5
ENDBRANCH   2   3
TORSDOF 3
ENDMDL
MODEL       39
REMARK 921   NORMALIZED FREE ENERGY PREDICTED BY IDOCK:   -4.74 KCAL/MOL
REMARK 922        TOTAL FREE ENERGY PREDICTED BY IDOCK:   -5.92 KCAL/MOL
REMARK 923 INTER-LIGAND FREE ENERGY PREDICTED BY IDOCK:   -5.53 KCAL/MOL
REMARK 924 INTRA-LIGAND FREE ENERGY PREDICTED BY IDOCK:   -0.40 KCAL/MOL
REMARK 927      BINDING AFFINITY PREDICTED BY RF-SCORE:    0.00 PKD
ROOT
HETATM    1  C   UNL     1     -13.020  11.359  71.663  1.00  0.00    -0.523 C  
HETATM    2  C   UNL     1     -12.487  10.363  70.643  1.00  0.00    -0.348 C  
ENDROOT
BRANCH   2   3
HETATM    3  N   UNL     1     -12.506  10.952  69.295  1.00  0.00    -0.643 NA 
HETATM    4  H   UNL     1     -12.994  11.847  69.297  1.00  0.00     0.000 HD 
BRANCH   3   5
HETATM    5  C   UNL     1     -11.167  11.089  68.701  1.00  0.00    -0.263 C  
HETATM    6  C   UNL     1     -10.887  10.015  67.617  1.00  0.00    -0.336 C  
HETATM    7  C   UNL     1     -10.789  10.270  66.100  1.00  0.00     0.122 C  
HETATM    8  S   UNL     1     -10.934  11.935  65.485  1.00  0.00    -0.289 S  
HETATM    9  C   UNL     1      -9.524   9.597  65.552  1.00  0.00    -0.330 C  
HETATM   10  C   UNL     1     -10.945  12.907  66.940  1.00  0.00    -0.266 A  
HETATM   11  O   UNL     1     -12.243  12.112  64.895  1.00  0.00    -0.358 OA 
HETATM   12  O   UNL     1      -9.715  12.315  64.802  1.00  0.00    -0.146 OA 
HETATM   13  C   UNL     1     -11.016  12.522  68.259  1.00  0.00    -0.270 A  
HETATM   14  C   UNL     1     -10.896  13.673  69.115  1.00  0.00    -0.189 A  
HETATM   15  C   UNL     1     -10.766  14.857  68.409  1.00  0.00    -0.245 A  
HETATM   16  S   UNL     1     -10.816  14.588  66.726  1.00  0.00    -0.310 SA 
BRANCH  15  17
HETATM   17  S   UNL     1     -10.526  16.553  68.904  1.00  0.00    -0.326 S  
HETATM   18  O   UNL     1     -10.996  16.600  70.270  1.00  0.00    -0.300 OA 
HETATM   19  N   UNL     1      -8.865  16.806  68.943  1.00  0.00    -0.253 N  
HETATM   20  O   UNL     1     -11.078  17.362  67.847  1.00  0.00    -0.256 OA 
HETATM   21  H1  UNL     1      -8.727  17.776  69.226  1.00  0.00     0.000 HD 
HETATM   22  H2  UNL     1      -8.138  16.125  68.727  1.00  0.00     0.000 HD 
ENDBRANCH  15  17
ENDBRANCH   3   5
ENDBRANCH   2   3
TORSDOF 3
ENDMDL
MODEL       40
REMARK 921   NORMALIZED FREE ENERGY PREDICTED BY IDOCK:   -4.74 KCAL/MOL
REMARK 922        TOTAL FREE ENERGY PREDICTED BY IDOCK:   -5.92 KCAL/MOL
REMARK 923 INTER-LIGAND FREE ENERGY PREDICTED BY IDOCK:   -5.42 KCAL/MOL
REMARK 924 INTRA-LIGAND FREE ENERGY PREDICTED BY IDOCK:   -0.50 KCAL/MOL
REMARK 927      BINDING AFFINITY PREDICTED BY RF-SCORE:    0.00 PKD
ROOT
HETATM    1  C   UNL     1     -11.015   6.516  67.365  1.00  0.00    -0.458 C  
HETATM    2  C   UNL     1     -10.661   7.118  68.718  1.00  0.00    -0.169 C  
ENDROOT
BRANCH   2   3
HETATM    3  N   UNL     1     -11.081   8.526  68.778  1.00  0.00    -0.400 NA 
HETATM    4  H   UNL     1     -11.576   8.719  69.649  1.00  0.00     0.000 HD 
BRANCH   3   5
HETATM    5  C   UNL     1      -9.972   9.473  68.586  1.00  0.00    -0.167 C  
HETATM    6  C   UNL     1      -8.592   8.844  68.912  1.00  0.00    -0.135 C  
HETATM    7  C   UNL     1      -7.500   8.485  67.885  1.00  0.00    -0.097 C  
HETATM    8  S   UNL     1      -7.763   8.867  66.165  1.00  0.00    -0.099 S  
HETATM    9  C   UNL     1      -6.152   9.036  68.363  1.00  0.00    -0.046 C  
HETATM   10  C   UNL     1      -9.238   9.807  66.177  1.00  0.00    -0.176 A  
HETATM   11  O   UNL     1      -8.090   7.650  65.453  1.00  0.00    -0.116 OA 
HETATM   12  O   UNL     1      -6.746   9.788  65.704  1.00  0.00    -0.082 OA 
HETATM   13  C   UNL     1     -10.116  10.060  67.205  1.00  0.00    -0.259 A  
HETATM   14  C   UNL     1     -11.141  10.971  66.765  1.00  0.00    -0.240 A  
HETATM   15  C   UNL     1     -11.001  11.336  65.437  1.00  0.00    -0.132 A  
HETATM   16  S   UNL     1      -9.661  10.567  64.717  1.00  0.00    -0.331 SA 
BRANCH  15  17
HETATM   17  S   UNL     1     -11.903  12.451  64.377  1.00  0.00    -0.405 S  
HETATM   18  O   UNL     1     -10.934  13.456  64.004  1.00  0.00    -0.358 OA 
HETATM   19  N   UNL     1     -12.279  11.585  62.987  1.00  0.00    -0.941 N  
HETATM   20  O   UNL     1     -13.133  12.752  65.065  1.00  0.00    -0.811 OA 
HETATM   21  H1  UNL     1     -12.795  12.222  62.380  1.00  0.00     0.000 HD 
HETATM   22  H2  UNL     1     -12.040  10.614  62.788  1.00  0.00     0.000 HD 
ENDBRANCH  15  17
ENDBRANCH   3   5
ENDBRANCH   2   3
TORSDOF 3
ENDMDL
MODEL       41
REMARK 921   NORMALIZED FREE ENERGY PREDICTED BY IDOCK:   -4.74 KCAL/MOL
REMARK 922        TOTAL FREE ENERGY PREDICTED BY IDOCK:   -5.92 KCAL/MOL
REMARK 923 INTER-LIGAND FREE ENERGY PREDICTED BY IDOCK:   -5.62 KCAL/MOL
REMARK 924 INTRA-LIGAND FREE ENERGY PREDICTED BY IDOCK:   -0.30 KCAL/MOL
REMARK 927      BINDING AFFINITY PREDICTED BY RF-SCORE:    0.00 PKD
ROOT
HETATM    1  C   UNL     1     -11.152  15.668  68.785  1.00  0.00    -0.307 C  
HETATM    2  C   UNL     1     -10.246  14.447  68.720  1.00  0.00    -0.239 C  
ENDROOT
BRANCH   2   3
HETATM    3  N   UNL     1     -10.867  13.310  69.416  1.00  0.00    -0.450 NA 
HETATM    4  H   UNL     1     -11.507  13.635  70.141  1.00  0.00     0.000 HD 
BRANCH   3   5
HETATM    5  C   UNL     1     -11.541  12.369  68.508  1.00  0.00    -0.313 C  
HETATM    6  C   UNL     1     -11.033  12.490  67.047  1.00  0.00    -0.306 C  
HETATM    7  C   UNL     1     -10.169  11.451  66.304  1.00  0.00    -0.233 C  
HETATM    8  S   UNL     1      -9.740   9.929  67.124  1.00  0.00    -0.187 S  
HETATM    9  C   UNL     1     -10.780  11.173  64.926  1.00  0.00    -0.318 C  
HETATM   10  C   UNL     1     -10.685   9.978  68.595  1.00  0.00    -0.226 A  
HETATM   11  O   UNL     1      -8.359   9.992  67.552  1.00  0.00    -0.117 OA 
HETATM   12  O   UNL     1     -10.274   8.805  66.384  1.00  0.00    -0.289 OA 
HETATM   13  C   UNL     1     -11.441  10.998  69.126  1.00  0.00    -0.370 A  
HETATM   14  C   UNL     1     -12.121  10.542  70.311  1.00  0.00    -0.402 A  
HETATM   15  C   UNL     1     -11.828   9.226  70.625  1.00  0.00    -0.192 A  
HETATM   16  S   UNL     1     -10.722   8.551  69.518  1.00  0.00    -0.122 SA 
BRANCH  15  17
HETATM   17  S   UNL     1     -12.397   8.122  71.905  1.00  0.00    -0.349 S  
HETATM   18  O   UNL     1     -12.686   6.887  71.213  1.00  0.00    -0.370 OA 
HETATM   19  N   UNL     1     -11.077   7.833  72.905  1.00  0.00    -0.396 N  
HETATM   20  O   UNL     1     -13.380   8.857  72.661  1.00  0.00    -0.433 OA 
HETATM   21  H1  UNL     1     -11.402   7.202  73.637  1.00  0.00     0.000 HD 
HETATM   22  H2  UNL     1     -10.137   8.214  72.801  1.00  0.00     0.000 HD 
ENDBRANCH  15  17
ENDBRANCH   3   5
ENDBRANCH   2   3
TORSDOF 3
ENDMDL
MODEL       42
REMARK 921   NORMALIZED FREE ENERGY PREDICTED BY IDOCK:   -4.72 KCAL/MOL
REMARK 922        TOTAL FREE ENERGY PREDICTED BY IDOCK:   -5.91 KCAL/MOL
REMARK 923 INTER-LIGAND FREE ENERGY PREDICTED BY IDOCK:   -5.53 KCAL/MOL
REMARK 924 INTRA-LIGAND FREE ENERGY PREDICTED BY IDOCK:   -0.38 KCAL/MOL
REMARK 927      BINDING AFFINITY PREDICTED BY RF-SCORE:    0.00 PKD
ROOT
HETATM    1  C   UNL     1     -12.087  15.844  71.829  1.00  0.00    -0.567 C  
HETATM    2  C   UNL     1     -11.453  15.157  70.628  1.00  0.00    -0.305 C  
ENDROOT
BRANCH   2   3
HETATM    3  N   UNL     1     -12.333  15.263  69.454  1.00  0.00    -0.586 NA 
HETATM    4  H   UNL     1     -13.171  15.800  69.677  1.00  0.00     0.000 HD 
BRANCH   3   5
HETATM    5  C   UNL     1     -11.658  15.816  68.270  1.00  0.00    -0.298 C  
HETATM    6  C   UNL     1     -10.910  17.140  68.578  1.00  0.00    -0.281 C  
HETATM    7  C   UNL     1      -9.379  17.319  68.631  1.00  0.00    -0.267 C  
HETATM    8  S   UNL     1      -8.327  15.934  68.247  1.00  0.00    -0.170 S  
HETATM    9  C   UNL     1      -8.982  18.548  67.805  1.00  0.00    -0.289 C  
HETATM   10  C   UNL     1      -9.446  14.718  67.672  1.00  0.00    -0.204 A  
HETATM   11  O   UNL     1      -7.777  15.400  69.474  1.00  0.00    -0.219 OA 
HETATM   12  O   UNL     1      -7.504  16.246  67.097  1.00  0.00    -0.161 OA 
HETATM   13  C   UNL     1     -10.822  14.713  67.673  1.00  0.00    -0.284 A  
HETATM   14  C   UNL     1     -11.310  13.535  67.004  1.00  0.00    -0.348 A  
HETATM   15  C   UNL     1     -10.293  12.708  66.560  1.00  0.00    -0.242 A  
HETATM   16  S   UNL     1      -8.759  13.332  66.968  1.00  0.00    -0.145 SA 
BRANCH  15  17
HETATM   17  S   UNL     1     -10.275  11.182  65.638  1.00  0.00    -0.265 S  
HETATM   18  O   UNL     1     -11.122  11.441  64.496  1.00  0.00    -0.309 OA 
HETATM   19  N   UNL     1      -8.708  10.993  65.061  1.00  0.00    -0.364 N  
HETATM   20  O   UNL     1     -10.530  10.133  66.594  1.00  0.00    -0.228 OA 
HETATM   21  H1  UNL     1      -8.698  10.120  64.534  1.00  0.00     0.000 HD 
HETATM   22  H2  UNL     1      -7.923  11.626  65.208  1.00  0.00     0.000 HD 
ENDBRANCH  15  17
ENDBRANCH   3   5
ENDBRANCH   2   3
TORSDOF 3
ENDMDL
MODEL       43
REMARK 921   NORMALIZED FREE ENERGY PREDICTED BY IDOCK:   -4.68 KCAL/MOL
REMARK 922        TOTAL FREE ENERGY PREDICTED BY IDOCK:   -5.86 KCAL/MOL
REMARK 923 INTER-LIGAND FREE ENERGY PREDICTED BY IDOCK:   -5.48 KCAL/MOL
REMARK 924 INTRA-LIGAND FREE ENERGY PREDICTED BY IDOCK:   -0.38 KCAL/MOL
REMARK 927      BINDING AFFINITY PREDICTED BY RF-SCORE:    0.00 PKD
ROOT
HETATM    1  C   UNL     1      -6.700  11.097  69.352  1.00  0.00    -0.120 C  
HETATM    2  C   UNL     1      -8.155  10.678  69.205  1.00  0.00    -0.141 C  
ENDROOT
BRANCH   2   3
HETATM    3  N   UNL     1      -8.939  11.756  68.584  1.00  0.00    -0.345 NA 
HETATM    4  H   UNL     1      -8.860  12.618  69.123  1.00  0.00     0.000 HD 
BRANCH   3   5
HETATM    5  C   UNL     1      -8.593  11.990  67.173  1.00  0.00    -0.182 C  
HETATM    6  C   UNL     1      -9.066  10.837  66.248  1.00  0.00    -0.192 C  
HETATM    7  C   UNL     1     -10.213  10.918  65.222  1.00  0.00    -0.288 C  
HETATM    8  S   UNL     1     -11.063  12.466  64.987  1.00  0.00    -0.315 S  
HETATM    9  C   UNL     1      -9.737  10.351  63.880  1.00  0.00    -0.367 C  
HETATM   10  C   UNL     1     -10.122  13.596  65.934  1.00  0.00    -0.310 A  
HETATM   11  O   UNL     1     -12.355  12.402  65.636  1.00  0.00    -0.639 OA 
HETATM   12  O   UNL     1     -10.902  12.912  63.619  1.00  0.00    -0.379 OA 
HETATM   13  C   UNL     1      -9.087  13.367  66.811  1.00  0.00    -0.221 A  
HETATM   14  C   UNL     1      -8.555  14.618  67.283  1.00  0.00    -0.231 A  
HETATM   15  C   UNL     1      -9.222  15.715  66.765  1.00  0.00    -0.251 A  
HETATM   16  S   UNL     1     -10.498  15.242  65.738  1.00  0.00    -0.376 SA 
BRANCH  15  17
HETATM   17  S   UNL     1      -8.988  17.475  66.930  1.00  0.00    -0.259 S  
HETATM   18  O   UNL     1      -8.636  17.664  68.318  1.00  0.00    -0.253 OA 
HETATM   19  N   UNL     1      -7.630  17.862  66.018  1.00  0.00    -0.249 N  
HETATM   20  O   UNL     1     -10.134  18.093  66.310  1.00  0.00    -0.358 OA 
HETATM   21  H1  UNL     1      -7.496  18.868  66.111  1.00  0.00     0.000 HD 
HETATM   22  H2  UNL     1      -7.053  17.217  65.477  1.00  0.00     0.000 HD 
ENDBRANCH  15  17
ENDBRANCH   3   5
ENDBRANCH   2   3
TORSDOF 3
ENDMDL
MODEL       44
REMARK 921   NORMALIZED FREE ENERGY PREDICTED BY IDOCK:   -4.68 KCAL/MOL
REMARK 922        TOTAL FREE ENERGY PREDICTED BY IDOCK:   -5.85 KCAL/MOL
REMARK 923 INTER-LIGAND FREE ENERGY PREDICTED BY IDOCK:   -5.65 KCAL/MOL
REMARK 924 INTRA-LIGAND FREE ENERGY PREDICTED BY IDOCK:   -0.20 KCAL/MOL
REMARK 927      BINDING AFFINITY PREDICTED BY RF-SCORE:    0.00 PKD
ROOT
HETATM    1  C   UNL     1     -11.388   4.804  73.341  1.00  0.00    -0.397 C  
HETATM    2  C   UNL     1     -10.474   5.106  72.162  1.00  0.00    -0.220 C  
ENDROOT
BRANCH   2   3
HETATM    3  N   UNL     1     -10.359   6.558  71.962  1.00  0.00    -0.198 NA 
HETATM    4  H   UNL     1      -9.437   6.802  71.601  1.00  0.00     0.000 HD 
BRANCH   3   5
HETATM    5  C   UNL     1     -11.418   7.113  71.106  1.00  0.00    -0.290 C  
HETATM    6  C   UNL     1     -11.893   8.511  71.582  1.00  0.00    -0.370 C  
HETATM    7  C   UNL     1     -11.621   9.848  70.864  1.00  0.00    -0.373 C  
HETATM    8  S   UNL     1     -10.747   9.842  69.312  1.00  0.00    -0.221 S  
HETATM    9  C   UNL     1     -12.930  10.638  70.747  1.00  0.00    -0.396 C  
HETATM   10  C   UNL     1     -10.620   8.141  68.924  1.00  0.00    -0.140 A  
HETATM   11  O   UNL     1      -9.388  10.289  69.530  1.00  0.00    -0.213 OA 
HETATM   12  O   UNL     1     -11.589  10.393  68.272  1.00  0.00    -0.321 OA 
HETATM   13  C   UNL     1     -10.932   7.036  69.681  1.00  0.00    -0.268 A  
HETATM   14  C   UNL     1     -10.752   5.838  68.903  1.00  0.00    -0.334 A  
HETATM   15  C   UNL     1     -10.295   6.094  67.621  1.00  0.00    -0.201 A  
HETATM   16  S   UNL     1     -10.058   7.763  67.364  1.00  0.00    -0.249 SA 
BRANCH  15  17
HETATM   17  S   UNL     1      -9.952   5.050  66.217  1.00  0.00    -0.245 S  
HETATM   18  O   UNL     1      -9.547   3.789  66.795  1.00  0.00    -0.205 OA 
HETATM   19  N   UNL     1     -11.423   4.792  65.446  1.00  0.00    -0.911 N  
HETATM   20  O   UNL     1      -9.115   5.824  65.336  1.00  0.00    -0.099 OA 
HETATM   21  H1  UNL     1     -11.228   4.195  64.643  1.00  0.00     0.000 HD 
HETATM   22  H2  UNL     1     -12.332   5.159  65.726  1.00  0.00     0.000 HD 
ENDBRANCH  15  17
ENDBRANCH   3   5
ENDBRANCH   2   3
TORSDOF 3
ENDMDL
MODEL       45
REMARK 921   NORMALIZED FREE ENERGY PREDICTED BY IDOCK:   -4.67 KCAL/MOL
REMARK 922        TOTAL FREE ENERGY PREDICTED BY IDOCK:   -5.85 KCAL/MOL
REMARK 923 INTER-LIGAND FREE ENERGY PREDICTED BY IDOCK:   -5.48 KCAL/MOL
REMARK 924 INTRA-LIGAND FREE ENERGY PREDICTED BY IDOCK:   -0.37 KCAL/MOL
REMARK 927      BINDING AFFINITY PREDICTED BY RF-SCORE:    0.00 PKD
ROOT
HETATM    1  C   UNL     1     -10.685   5.488  66.574  1.00  0.00    -0.309 C  
HETATM    2  C   UNL     1      -9.633   6.587  66.625  1.00  0.00    -0.160 C  
ENDROOT
BRANCH   2   3
HETATM    3  N   UNL     1     -10.275   7.909  66.686  1.00  0.00    -0.435 NA 
HETATM    4  H   UNL     1     -11.246   7.826  66.987  1.00  0.00     0.000 HD 
BRANCH   3   5
HETATM    5  C   UNL     1      -9.547   8.870  67.528  1.00  0.00    -0.145 C  
HETATM    6  C   UNL     1      -9.018  10.084  66.719  1.00  0.00    -0.151 C  
HETATM    7  C   UNL     1      -9.555  11.527  66.805  1.00  0.00    -0.186 C  
HETATM    8  S   UNL     1     -10.851  11.907  67.966  1.00  0.00    -0.230 S  
HETATM    9  C   UNL     1      -8.379  12.498  66.966  1.00  0.00    -0.144 C  
HETATM   10  C   UNL     1     -11.008  10.434  68.897  1.00  0.00    -0.245 A  
HETATM   11  O   UNL     1     -12.102  12.045  67.253  1.00  0.00    -0.572 OA 
HETATM   12  O   UNL     1     -10.385  12.893  68.917  1.00  0.00    -0.163 OA 
HETATM   13  C   UNL     1     -10.432   9.200  68.703  1.00  0.00    -0.235 A  
HETATM   14  C   UNL     1     -10.780   8.318  69.786  1.00  0.00    -0.221 A  
HETATM   15  C   UNL     1     -11.610   8.915  70.719  1.00  0.00    -0.259 A  
HETATM   16  S   UNL     1     -11.991  10.518  70.282  1.00  0.00    -0.338 SA 
BRANCH  15  17
HETATM   17  S   UNL     1     -12.306   8.360  72.265  1.00  0.00    -0.355 S  
HETATM   18  O   UNL     1     -13.198   9.425  72.661  1.00  0.00    -0.378 OA 
HETATM   19  N   UNL     1     -13.259   7.023  71.904  1.00  0.00    -0.536 N  
HETATM   20  O   UNL     1     -11.196   7.914  73.068  1.00  0.00    -0.411 OA 
HETATM   21  H1  UNL     1     -13.658   6.706  72.787  1.00  0.00     0.000 HD 
HETATM   22  H2  UNL     1     -13.410   6.611  70.984  1.00  0.00     0.000 HD 
ENDBRANCH  15  17
ENDBRANCH   3   5
ENDBRANCH   2   3
TORSDOF 3
ENDMDL
MODEL       46
REMARK 921   NORMALIZED FREE ENERGY PREDICTED BY IDOCK:   -4.60 KCAL/MOL
REMARK 922        TOTAL FREE ENERGY PREDICTED BY IDOCK:   -5.76 KCAL/MOL
REMARK 923 INTER-LIGAND FREE ENERGY PREDICTED BY IDOCK:   -5.32 KCAL/MOL
REMARK 924 INTRA-LIGAND FREE ENERGY PREDICTED BY IDOCK:   -0.44 KCAL/MOL
REMARK 927      BINDING AFFINITY PREDICTED BY RF-SCORE:    0.00 PKD
ROOT
HETATM    1  C   UNL     1     -12.247  12.987  70.449  1.00  0.00    -0.386 C  
HETATM    2  C   UNL     1     -12.887  11.819  71.187  1.00  0.00    -0.267 C  
ENDROOT
BRANCH   2   3
HETATM    3  N   UNL     1     -12.603  10.556  70.490  1.00  0.00    -0.392 NA 
HETATM    4  H   UNL     1     -12.921  10.596  69.523  1.00  0.00     0.000 HD 
BRANCH   3   5
HETATM    5  C   UNL     1     -11.188  10.159  70.558  1.00  0.00    -0.336 C  
HETATM    6  C   UNL     1     -10.913   9.136  71.692  1.00  0.00    -0.445 C  
HETATM    7  C   UNL     1     -10.565   7.647  71.497  1.00  0.00    -0.212 C  
HETATM    8  S   UNL     1     -10.384   7.003  69.846  1.00  0.00    -0.217 S  
HETATM    9  C   UNL     1      -9.345   7.293  72.355  1.00  0.00    -0.166 C  
HETATM   10  C   UNL     1     -10.463   8.433  68.841  1.00  0.00    -0.189 A  
HETATM   11  O   UNL     1     -11.559   6.230  69.506  1.00  0.00    -0.423 OA 
HETATM   12  O   UNL     1      -9.040   6.499  69.659  1.00  0.00    -0.140 OA 
HETATM   13  C   UNL     1     -10.774   9.731  69.173  1.00  0.00    -0.242 A  
HETATM   14  C   UNL     1     -10.613  10.586  68.026  1.00  0.00    -0.251 A  
HETATM   15  C   UNL     1     -10.219   9.895  66.893  1.00  0.00    -0.240 A  
HETATM   16  S   UNL     1     -10.068   8.225  67.200  1.00  0.00    -0.292 SA 
BRANCH  15  17
HETATM   17  S   UNL     1      -9.812  10.405  65.233  1.00  0.00    -0.315 S  
HETATM   18  O   UNL     1     -10.990  11.103  64.772  1.00  0.00    -0.260 OA 
HETATM   19  N   UNL     1      -8.584  11.543  65.372  1.00  0.00    -0.381 N  
HETATM   20  O   UNL     1      -9.272   9.241  64.576  1.00  0.00    -0.172 OA 
HETATM   21  H1  UNL     1      -8.352  11.835  64.423  1.00  0.00     0.000 HD 
HETATM   22  H2  UNL     1      -8.156  11.877  66.235  1.00  0.00     0.000 HD 
ENDBRANCH  15  17
ENDBRANCH   3   5
ENDBRANCH   2   3
TORSDOF 3
ENDMDL
MODEL       47
REMARK 921   NORMALIZED FREE ENERGY PREDICTED BY IDOCK:   -4.58 KCAL/MOL
REMARK 922        TOTAL FREE ENERGY PREDICTED BY IDOCK:   -5.73 KCAL/MOL
REMARK 923 INTER-LIGAND FREE ENERGY PREDICTED BY IDOCK:   -5.74 KCAL/MOL
REMARK 924 INTRA-LIGAND FREE ENERGY PREDICTED BY IDOCK:    0.01 KCAL/MOL
REMARK 927      BINDING AFFINITY PREDICTED BY RF-SCORE:    0.00 PKD
ROOT
HETATM    1  C   UNL     1      -8.873  19.401  65.984  1.00  0.00    -0.173 C  
HETATM    2  C   UNL     1     -10.320  19.392  66.457  1.00  0.00    -0.469 C  
ENDROOT
BRANCH   2   3
HETATM    3  N   UNL     1     -10.760  18.016  66.734  1.00  0.00    -0.247 NA 
HETATM    4  H   UNL     1     -11.500  17.737  66.091  1.00  0.00     0.000 HD 
BRANCH   3   5
HETATM    5  C   UNL     1      -9.660  17.039  66.721  1.00  0.00    -0.264 C  
HETATM    6  C   UNL     1      -8.850  17.041  68.044  1.00  0.00    -0.223 C  
HETATM    7  C   UNL     1      -8.858  15.924  69.107  1.00  0.00    -0.253 C  
HETATM    8  S   UNL     1      -9.810  14.448  68.812  1.00  0.00    -0.178 S  
HETATM    9  C   UNL     1      -7.414  15.573  69.486  1.00  0.00    -0.200 C  
HETATM   10  C   UNL     1     -10.345  14.632  67.157  1.00  0.00    -0.265 A  
HETATM   11  O   UNL     1     -11.015  14.491  69.612  1.00  0.00    -0.246 OA 
HETATM   12  O   UNL     1      -8.935  13.295  68.787  1.00  0.00    -0.027 OA 
HETATM   13  C   UNL     1     -10.243  15.711  66.310  1.00  0.00    -0.312 A  
HETATM   14  C   UNL     1     -10.741  15.363  65.005  1.00  0.00    -0.460 A  
HETATM   15  C   UNL     1     -11.210  14.062  64.939  1.00  0.00    -0.362 A  
HETATM   16  S   UNL     1     -11.078  13.274  66.445  1.00  0.00    -0.301 SA 
BRANCH  15  17
HETATM   17  S   UNL     1     -11.872  13.069  63.613  1.00  0.00    -0.504 S  
HETATM   18  O   UNL     1     -10.741  12.308  63.134  1.00  0.00    -0.371 OA 
HETATM   19  N   UNL     1     -12.938  11.980  64.321  1.00  0.00    -0.475 N  
HETATM   20  O   UNL     1     -12.634  13.967  62.782  1.00  0.00    -0.414 OA 
HETATM   21  H1  UNL     1     -13.317  11.413  63.563  1.00  0.00     0.000 HD 
HETATM   22  H2  UNL     1     -13.163  11.902  65.313  1.00  0.00     0.000 HD 
ENDBRANCH  15  17
ENDBRANCH   3   5
ENDBRANCH   2   3
TORSDOF 3
ENDMDL
MODEL       48
REMARK 921   NORMALIZED FREE ENERGY PREDICTED BY IDOCK:   -4.57 KCAL/MOL
REMARK 922        TOTAL FREE ENERGY PREDICTED BY IDOCK:   -5.72 KCAL/MOL
REMARK 923 INTER-LIGAND FREE ENERGY PREDICTED BY IDOCK:   -5.29 KCAL/MOL
REMARK 924 INTRA-LIGAND FREE ENERGY PREDICTED BY IDOCK:   -0.44 KCAL/MOL
REMARK 927      BINDING AFFINITY PREDICTED BY RF-SCORE:    0.00 PKD
ROOT
HETATM    1  C   UNL     1     -10.149   4.592  66.418  1.00  0.00    -0.289 C  
HETATM    2  C   UNL     1      -9.327   4.665  67.696  1.00  0.00    -0.144 C  
ENDROOT
BRANCH   2   3
HETATM    3  N   UNL     1      -9.305   6.041  68.214  1.00  0.00    -0.116 NA 
HETATM    4  H   UNL     1      -8.770   6.651  67.597  1.00  0.00     0.000 HD 
BRANCH   3   5
HETATM    5  C   UNL     1     -10.646   6.592  68.460  1.00  0.00    -0.233 C  
HETATM    6  C   UNL     1     -11.185   6.233  69.870  1.00  0.00    -0.498 C  
HETATM    7  C   UNL     1     -11.363   7.216  71.044  1.00  0.00    -0.279 C  
HETATM    8  S   UNL     1     -10.996   8.941  70.799  1.00  0.00    -0.269 S  
HETATM    9  C   UNL     1     -12.761   7.038  71.649  1.00  0.00    -0.417 C  
HETATM   10  C   UNL     1     -10.708   9.056  69.077  1.00  0.00    -0.141 A  
HETATM   11  O   UNL     1      -9.727   9.250  71.422  1.00  0.00    -0.284 OA 
HETATM   12  O   UNL     1     -12.187   9.734  71.024  1.00  0.00    -0.312 OA 
HETATM   13  C   UNL     1     -10.595   8.062  68.132  1.00  0.00    -0.174 A  
HETATM   14  C   UNL     1     -10.455   8.642  66.822  1.00  0.00    -0.298 A  
HETATM   15  C   UNL     1     -10.445  10.027  66.846  1.00  0.00    -0.218 A  
HETATM   16  S   UNL     1     -10.576  10.625  68.437  1.00  0.00    -0.217 SA 
BRANCH  15  17
HETATM   17  S   UNL     1     -10.362  11.268  65.568  1.00  0.00    -0.270 S  
HETATM   18  O   UNL     1     -11.551  12.066  65.763  1.00  0.00    -0.352 OA 
HETATM   19  N   UNL     1      -9.044  12.243  65.937  1.00  0.00    -0.435 N  
HETATM   20  O   UNL     1     -10.071  10.565  64.344  1.00  0.00    -0.340 OA 
HETATM   21  H1  UNL     1      -8.997  12.953  65.206  1.00  0.00     0.000 HD 
HETATM   22  H2  UNL     1      -8.416  12.145  66.734  1.00  0.00     0.000 HD 
ENDBRANCH  15  17
ENDBRANCH   3   5
ENDBRANCH   2   3
TORSDOF 3
ENDMDL
MODEL       49
REMARK 921   NORMALIZED FREE ENERGY PREDICTED BY IDOCK:   -4.54 KCAL/MOL
REMARK 922        TOTAL FREE ENERGY PREDICTED BY IDOCK:   -5.70 KCAL/MOL
REMARK 923 INTER-LIGAND FREE ENERGY PREDICTED BY IDOCK:   -5.43 KCAL/MOL
REMARK 924 INTRA-LIGAND FREE ENERGY PREDICTED BY IDOCK:   -0.27 KCAL/MOL
REMARK 927      BINDING AFFINITY PREDICTED BY RF-SCORE:    0.00 PKD
ROOT
HETATM    1  C   UNL     1      -6.172  14.232  70.566  1.00  0.00    -0.157 C  
HETATM    2  C   UNL     1      -6.674  14.598  69.176  1.00  0.00    -0.117 C  
ENDROOT
BRANCH   2   3
HETATM    3  N   UNL     1      -8.016  14.040  68.953  1.00  0.00    -0.299 NA 
HETATM    4  H   UNL     1      -8.670  14.771  68.674  1.00  0.00     0.000 HD 
BRANCH   3   5
HETATM    5  C   UNL     1      -8.032  12.930  67.988  1.00  0.00    -0.158 C  
HETATM    6  C   UNL     1      -7.630  11.578  68.633  1.00  0.00    -0.134 C  
HETATM    7  C   UNL     1      -8.578  10.392  68.905  1.00  0.00    -0.149 C  
HETATM    8  S   UNL     1     -10.280  10.502  68.393  1.00  0.00    -0.182 S  
HETATM    9  C   UNL     1      -7.937   9.100  68.386  1.00  0.00    -0.103 C  
HETATM   10  C   UNL     1     -10.331  11.983  67.464  1.00  0.00    -0.200 A  
HETATM   11  O   UNL     1     -11.110  10.748  69.553  1.00  0.00    -0.239 OA 
HETATM   12  O   UNL     1     -10.574   9.459  67.434  1.00  0.00    -0.265 OA 
HETATM   13  C   UNL     1      -9.371  12.955  67.296  1.00  0.00    -0.212 A  
HETATM   14  C   UNL     1      -9.833  13.946  66.360  1.00  0.00    -0.304 A  
HETATM   15  C   UNL     1     -11.110  13.691  65.892  1.00  0.00    -0.284 A  
HETATM   16  S   UNL     1     -11.762  12.282  66.596  1.00  0.00    -0.295 SA 
BRANCH  15  17
HETATM   17  S   UNL     1     -12.160  14.506  64.703  1.00  0.00    -0.453 S  
HETATM   18  O   UNL     1     -11.511  15.773  64.457  1.00  0.00    -0.417 OA 
HETATM   19  N   UNL     1     -12.055  13.611  63.284  1.00  0.00    -0.975 N  
HETATM   20  O   UNL     1     -13.505  14.388  65.209  1.00  0.00    -0.483 OA 
HETATM   21  H1  UNL     1     -12.656  14.077  62.604  1.00  0.00     0.000 HD 
HETATM   22  H2  UNL     1     -11.501  12.769  63.133  1.00  0.00     0.000 HD 
ENDBRANCH  15  17
ENDBRANCH   3   5
ENDBRANCH   2   3
TORSDOF 3
ENDMDL
MODEL       50
REMARK 921   NORMALIZED FREE ENERGY PREDICTED BY IDOCK:   -4.54 KCAL/MOL
REMARK 922        TOTAL FREE ENERGY PREDICTED BY IDOCK:   -5.69 KCAL/MOL
REMARK 923 INTER-LIGAND FREE ENERGY PREDICTED BY IDOCK:   -5.31 KCAL/MOL
REMARK 924 INTRA-LIGAND FREE ENERGY PREDICTED BY IDOCK:   -0.38 KCAL/MOL
REMARK 927      BINDING AFFINITY PREDICTED BY RF-SCORE:    0.00 PKD
ROOT
HETATM    1  C   UNL     1      -5.666  15.197  68.859  1.00  0.00    -0.094 C  
HETATM    2  C   UNL     1      -6.881  14.306  68.645  1.00  0.00    -0.098 C  
ENDROOT
BRANCH   2   3
HETATM    3  N   UNL     1      -7.089  14.059  67.210  1.00  0.00    -0.367 NA 
HETATM    4  H   UNL     1      -6.819  13.107  66.964  1.00  0.00     0.000 HD 
BRANCH   3   5
HETATM    5  C   UNL     1      -8.461  14.346  66.763  1.00  0.00    -0.044 C  
HETATM    6  C   UNL     1      -9.495  13.349  67.349  1.00  0.00    -0.222 C  
HETATM    7  C   UNL     1     -10.555  13.676  68.420  1.00  0.00    -0.251 C  
HETATM    8  S   UNL     1     -10.695  15.346  69.025  1.00  0.00    -0.257 S  
HETATM    9  C   UNL     1     -11.920  13.148  67.962  1.00  0.00    -0.345 C  
HETATM   10  C   UNL     1      -9.622  16.249  67.981  1.00  0.00    -0.224 A  
HETATM   11  O   UNL     1     -10.104  15.424  70.343  1.00  0.00    -0.196 OA 
HETATM   12  O   UNL     1     -12.014  15.866  68.732  1.00  0.00    -0.368 OA 
HETATM   13  C   UNL     1      -8.728  15.804  67.035  1.00  0.00    -0.251 A  
HETATM   14  C   UNL     1      -8.133  16.924  66.353  1.00  0.00    -0.350 A  
HETATM   15  C   UNL     1      -8.584  18.143  66.828  1.00  0.00    -0.259 A  
HETATM   16  S   UNL     1      -9.696  17.943  68.105  1.00  0.00    -0.338 SA 
BRANCH  15  17
HETATM   17  S   UNL     1      -8.266  19.832  66.352  1.00  0.00    -0.348 S  
HETATM   18  O   UNL     1      -7.372  19.726  65.222  1.00  0.00    -0.386 OA 
HETATM   19  N   UNL     1      -9.721  20.446  65.776  1.00  0.00    -0.595 N  
HETATM   20  O   UNL     1      -7.932  20.535  67.565  1.00  0.00    -0.314 OA 
HETATM   21  H1  UNL     1      -9.539  21.412  65.503  1.00  0.00     0.000 HD 
HETATM   22  H2  UNL     1     -10.610  19.951  65.711  1.00  0.00     0.000 HD 
ENDBRANCH  15  17
ENDBRANCH   3   5
ENDBRANCH   2   3
TORSDOF 3
ENDMDL
MODEL       51
REMARK 921   NORMALIZED FREE ENERGY PREDICTED BY IDOCK:   -4.53 KCAL/MOL
REMARK 922        TOTAL FREE ENERGY PREDICTED BY IDOCK:   -5.68 KCAL/MOL
REMARK 923 INTER-LIGAND FREE ENERGY PREDICTED BY IDOCK:   -5.35 KCAL/MOL
REMARK 924 INTRA-LIGAND FREE ENERGY PREDICTED BY IDOCK:   -0.33 KCAL/MOL
REMARK 927      BINDING AFFINITY PREDICTED BY RF-SCORE:    0.00 PKD
ROOT
HETATM    1  C   UNL     1      -8.191   6.453  65.204  1.00  0.00    -0.134 C  
HETATM    2  C   UNL     1      -8.402   7.204  66.511  1.00  0.00    -0.117 C  
ENDROOT
BRANCH   2   3
HETATM    3  N   UNL     1      -9.161   8.441  66.275  1.00  0.00    -0.195 NA 
HETATM    4  H   UNL     1      -9.291   8.601  65.276  1.00  0.00     0.000 HD 
BRANCH   3   5
HETATM    5  C   UNL     1     -10.451   8.477  66.982  1.00  0.00    -0.292 C  
HETATM    6  C   UNL     1     -10.522   7.443  68.137  1.00  0.00    -0.241 C  
HETATM    7  C   UNL     1     -10.516   7.773  69.643  1.00  0.00    -0.229 C  
HETATM    8  S   UNL     1     -10.495   9.477  70.161  1.00  0.00    -0.276 S  
HETATM    9  C   UNL     1     -11.651   7.009  70.335  1.00  0.00    -0.341 C  
HETATM   10  C   UNL     1     -10.711  10.360  68.667  1.00  0.00    -0.218 A  
HETATM   11  O   UNL     1      -9.165   9.817  70.620  1.00  0.00    -0.165 OA 
HETATM   12  O   UNL     1     -11.683   9.770  70.935  1.00  0.00    -0.296 OA 
HETATM   13  C   UNL     1     -10.713   9.910  67.367  1.00  0.00    -0.323 A  
HETATM   14  C   UNL     1     -11.027  10.993  66.471  1.00  0.00    -0.228 A  
HETATM   15  C   UNL     1     -11.220  12.195  67.129  1.00  0.00    -0.314 A  
HETATM   16  S   UNL     1     -10.997  12.029  68.811  1.00  0.00    -0.244 SA 
BRANCH  15  17
HETATM   17  S   UNL     1     -11.679  13.828  66.578  1.00  0.00    -0.408 S  
HETATM   18  O   UNL     1     -12.865  13.619  65.780  1.00  0.00    -0.456 OA 
HETATM   19  N   UNL     1     -12.148  14.679  67.949  1.00  0.00    -0.592 N  
HETATM   20  O   UNL     1     -10.474  14.432  66.066  1.00  0.00    -0.283 OA 
HETATM   21  H1  UNL     1     -12.410  15.612  67.634  1.00  0.00     0.000 HD 
HETATM   22  H2  UNL     1     -12.167  14.330  68.907  1.00  0.00     0.000 HD 
ENDBRANCH  15  17
ENDBRANCH   3   5
ENDBRANCH   2   3
TORSDOF 3
ENDMDL
MODEL       52
REMARK 921   NORMALIZED FREE ENERGY PREDICTED BY IDOCK:   -4.53 KCAL/MOL
REMARK 922        TOTAL FREE ENERGY PREDICTED BY IDOCK:   -5.68 KCAL/MOL
REMARK 923 INTER-LIGAND FREE ENERGY PREDICTED BY IDOCK:   -5.34 KCAL/MOL
REMARK 924 INTRA-LIGAND FREE ENERGY PREDICTED BY IDOCK:   -0.34 KCAL/MOL
REMARK 927      BINDING AFFINITY PREDICTED BY RF-SCORE:    0.00 PKD
ROOT
HETATM    1  C   UNL     1     -12.262  16.042  72.676  1.00  0.00    -0.619 C  
HETATM    2  C   UNL     1     -11.487  15.302  71.596  1.00  0.00    -0.405 C  
ENDROOT
BRANCH   2   3
HETATM    3  N   UNL     1     -12.331  14.271  70.974  1.00  0.00    -0.339 NA 
HETATM    4  H   UNL     1     -13.304  14.381  71.257  1.00  0.00     0.000 HD 
BRANCH   3   5
HETATM    5  C   UNL     1     -12.215  14.229  69.508  1.00  0.00    -0.297 C  
HETATM    6  C   UNL     1     -11.840  15.608  68.904  1.00  0.00    -0.368 C  
HETATM    7  C   UNL     1     -10.483  15.976  68.272  1.00  0.00    -0.269 C  
HETATM    8  S   UNL     1      -9.219  14.729  68.135  1.00  0.00    -0.202 S  
HETATM    9  C   UNL     1     -10.720  16.660  66.920  1.00  0.00    -0.153 C  
HETATM   10  C   UNL     1     -10.040  13.262  68.621  1.00  0.00    -0.146 A  
HETATM   11  O   UNL     1      -8.212  14.959  69.148  1.00  0.00    -0.169 OA 
HETATM   12  O   UNL     1      -8.886  14.517  66.742  1.00  0.00    -0.245 OA 
HETATM   13  C   UNL     1     -11.293  13.089  69.162  1.00  0.00    -0.328 A  
HETATM   14  C   UNL     1     -11.576  11.685  69.309  1.00  0.00    -0.385 A  
HETATM   15  C   UNL     1     -10.527  10.879  68.899  1.00  0.00    -0.203 A  
HETATM   16  S   UNL     1      -9.199  11.807  68.367  1.00  0.00    -0.145 SA 
BRANCH  15  17
HETATM   17  S   UNL     1     -10.317   9.112  68.789  1.00  0.00    -0.211 S  
HETATM   18  O   UNL     1      -9.007   8.869  69.350  1.00  0.00    -0.140 OA 
HETATM   19  N   UNL     1     -11.439   8.433  69.838  1.00  0.00    -0.444 N  
HETATM   20  O   UNL     1     -10.684   8.748  67.443  1.00  0.00    -0.267 OA 
HETATM   21  H1  UNL     1     -11.319   7.422  69.775  1.00  0.00     0.000 HD 
HETATM   22  H2  UNL     1     -12.109   8.932  70.424  1.00  0.00     0.000 HD 
ENDBRANCH  15  17
ENDBRANCH   3   5
ENDBRANCH   2   3
TORSDOF 3
ENDMDL
MODEL       53
REMARK 921   NORMALIZED FREE ENERGY PREDICTED BY IDOCK:   -4.51 KCAL/MOL
REMARK 922        TOTAL FREE ENERGY PREDICTED BY IDOCK:   -5.66 KCAL/MOL
REMARK 923 INTER-LIGAND FREE ENERGY PREDICTED BY IDOCK:   -5.31 KCAL/MOL
REMARK 924 INTRA-LIGAND FREE ENERGY PREDICTED BY IDOCK:   -0.34 KCAL/MOL
REMARK 927      BINDING AFFINITY PREDICTED BY RF-SCORE:    0.00 PKD
ROOT
HETATM    1  C   UNL     1      -5.152  19.611  64.237  1.00  0.00    -0.200 C  
HETATM    2  C   UNL     1      -6.185  18.680  64.856  1.00  0.00    -0.125 C  
ENDROOT
BRANCH   2   3
HETATM    3  N   UNL     1      -5.521  17.604  65.607  1.00  0.00    -0.183 NA 
HETATM    4  H   UNL     1      -4.511  17.742  65.620  1.00  0.00     0.000 HD 
BRANCH   3   5
HETATM    5  C   UNL     1      -6.044  17.438  66.972  1.00  0.00    -0.159 C  
HETATM    6  C   UNL     1      -5.681  18.632  67.894  1.00  0.00    -0.175 C  
HETATM    7  C   UNL     1      -6.666  19.690  68.428  1.00  0.00    -0.288 C  
HETATM    8  S   UNL     1      -8.398  19.543  68.040  1.00  0.00    -0.325 S  
HETATM    9  C   UNL     1      -6.461  19.860  69.938  1.00  0.00    -0.372 C  
HETATM   10  C   UNL     1      -8.509  17.981  67.261  1.00  0.00    -0.234 A  
HETATM   11  O   UNL     1      -8.739  20.507  67.016  1.00  0.00    -0.314 OA 
HETATM   12  O   UNL     1      -9.165  19.399  69.259  1.00  0.00    -0.264 OA 
HETATM   13  C   UNL     1      -7.513  17.122  66.856  1.00  0.00    -0.239 A  
HETATM   14  C   UNL     1      -8.089  15.904  66.348  1.00  0.00    -0.197 A  
HETATM   15  C   UNL     1      -9.473  15.913  66.373  1.00  0.00    -0.295 A  
HETATM   16  S   UNL     1     -10.077  17.388  66.977  1.00  0.00    -0.324 SA 
BRANCH  15  17
HETATM   17  S   UNL     1     -10.709  14.701  65.943  1.00  0.00    -0.324 S  
HETATM   18  O   UNL     1     -11.764  14.904  66.909  1.00  0.00    -0.343 OA 
HETATM   19  N   UNL     1     -11.317  15.153  64.443  1.00  0.00    -0.668 N  
HETATM   20  O   UNL     1     -10.007  13.452  65.784  1.00  0.00    -0.285 OA 
HETATM   21  H1  UNL     1     -12.024  14.461  64.197  1.00  0.00     0.000 HD 
HETATM   22  H2  UNL     1     -11.036  15.961  63.888  1.00  0.00     0.000 HD 
ENDBRANCH  15  17
ENDBRANCH   3   5
ENDBRANCH   2   3
TORSDOF 3
ENDMDL
MODEL       54
REMARK 921   NORMALIZED FREE ENERGY PREDICTED BY IDOCK:   -4.50 KCAL/MOL
REMARK 922        TOTAL FREE ENERGY PREDICTED BY IDOCK:   -5.65 KCAL/MOL
REMARK 923 INTER-LIGAND FREE ENERGY PREDICTED BY IDOCK:   -5.23 KCAL/MOL
REMARK 924 INTRA-LIGAND FREE ENERGY PREDICTED BY IDOCK:   -0.42 KCAL/MOL
REMARK 927      BINDING AFFINITY PREDICTED BY RF-SCORE:    0.00 PKD
ROOT
HETATM    1  C   UNL     1     -12.205   8.314  72.322  1.00  0.00    -0.428 C  
HETATM    2  C   UNL     1     -12.762   7.005  71.780  1.00  0.00    -0.340 C  
ENDROOT
BRANCH   2   3
HETATM    3  N   UNL     1     -12.405   6.844  70.363  1.00  0.00    -0.604 NA 
HETATM    4  H   UNL     1     -12.893   7.529  69.786  1.00  0.00     0.000 HD 
BRANCH   3   5
HETATM    5  C   UNL     1     -10.955   6.894  70.119  1.00  0.00    -0.281 C  
HETATM    6  C   UNL     1     -10.335   5.483  69.946  1.00  0.00    -0.368 C  
HETATM    7  C   UNL     1      -9.799   4.889  68.628  1.00  0.00    -0.152 C  
HETATM    8  S   UNL     1      -9.806   5.890  67.155  1.00  0.00    -0.158 S  
HETATM    9  C   UNL     1      -8.409   4.287  68.869  1.00  0.00    -0.092 C  
HETATM   10  C   UNL     1     -10.276   7.470  67.739  1.00  0.00    -0.201 A  
HETATM   11  O   UNL     1     -10.887   5.462  66.294  1.00  0.00    -0.260 OA 
HETATM   12  O   UNL     1      -8.452   6.067  66.674  1.00  0.00    -0.109 OA 
HETATM   13  C   UNL     1     -10.723   7.856  68.982  1.00  0.00    -0.113 A  
HETATM   14  C   UNL     1     -10.896   9.285  69.022  1.00  0.00    -0.136 A  
HETATM   15  C   UNL     1     -10.599   9.896  67.816  1.00  0.00    -0.261 A  
HETATM   16  S   UNL     1     -10.141   8.755  66.635  1.00  0.00    -0.270 SA 
BRANCH  15  17
HETATM   17  S   UNL     1     -10.567  11.598  67.286  1.00  0.00    -0.239 S  
HETATM   18  O   UNL     1     -11.956  11.937  67.077  1.00  0.00    -0.615 OA 
HETATM   19  N   UNL     1     -10.030  12.496  68.601  1.00  0.00    -0.390 N  
HETATM   20  O   UNL     1      -9.567  11.678  66.250  1.00  0.00    -0.209 OA 
HETATM   21  H1  UNL     1     -10.011  13.470  68.298  1.00  0.00     0.000 HD 
HETATM   22  H2  UNL     1      -9.773  12.138  69.521  1.00  0.00     0.000 HD 
ENDBRANCH  15  17
ENDBRANCH   3   5
ENDBRANCH   2   3
TORSDOF 3
ENDMDL
MODEL       55
REMARK 921   NORMALIZED FREE ENERGY PREDICTED BY IDOCK:   -4.47 KCAL/MOL
REMARK 922        TOTAL FREE ENERGY PREDICTED BY IDOCK:   -5.60 KCAL/MOL
REMARK 923 INTER-LIGAND FREE ENERGY PREDICTED BY IDOCK:   -5.29 KCAL/MOL
REMARK 924 INTRA-LIGAND FREE ENERGY PREDICTED BY IDOCK:   -0.32 KCAL/MOL
REMARK 927      BINDING AFFINITY PREDICTED BY RF-SCORE:    0.00 PKD
ROOT
HETATM    1  C   UNL     1      -9.290   3.078  68.688  1.00  0.00    -0.237 C  
HETATM    2  C   UNL     1      -9.585   4.376  69.425  1.00  0.00    -0.199 C  
ENDROOT
BRANCH   2   3
HETATM    3  N   UNL     1      -9.628   5.503  68.481  1.00  0.00    -0.122 NA 
HETATM    4  H   UNL     1      -9.493   5.179  67.524  1.00  0.00     0.000 HD 
BRANCH   3   5
HETATM    5  C   UNL     1     -10.854   6.308  68.592  1.00  0.00    -0.333 C  
HETATM    6  C   UNL     1     -11.480   6.243  70.010  1.00  0.00    -0.460 C  
HETATM    7  C   UNL     1     -11.505   7.393  71.037  1.00  0.00    -0.282 C  
HETATM    8  S   UNL     1     -10.830   8.978  70.586  1.00  0.00    -0.261 S  
HETATM    9  C   UNL     1     -12.925   7.545  71.595  1.00  0.00    -0.397 C  
HETATM   10  C   UNL     1     -10.488   8.806  68.879  1.00  0.00    -0.197 A  
HETATM   11  O   UNL     1      -9.540   9.144  71.221  1.00  0.00    -0.275 OA 
HETATM   12  O   UNL     1     -11.864   9.989  70.651  1.00  0.00    -0.285 OA 
HETATM   13  C   UNL     1     -10.534   7.688  68.078  1.00  0.00    -0.247 A  
HETATM   14  C   UNL     1     -10.264   8.051  66.711  1.00  0.00    -0.367 A  
HETATM   15  C   UNL     1     -10.007   9.402  66.555  1.00  0.00    -0.269 A  
HETATM   16  S   UNL     1     -10.064  10.225  68.046  1.00  0.00    -0.170 SA 
BRANCH  15  17
HETATM   17  S   UNL     1      -9.676  10.425  65.131  1.00  0.00    -0.315 S  
HETATM   18  O   UNL     1     -10.881  11.204  64.959  1.00  0.00    -0.261 OA 
HETATM   19  N   UNL     1      -8.458  11.490  65.584  1.00  0.00    -0.379 N  
HETATM   20  O   UNL     1      -9.149   9.544  64.119  1.00  0.00    -0.232 OA 
HETATM   21  H1  UNL     1      -8.268  12.075  64.770  1.00  0.00     0.000 HD 
HETATM   22  H2  UNL     1      -7.998  11.542  66.493  1.00  0.00     0.000 HD 
ENDBRANCH  15  17
ENDBRANCH   3   5
ENDBRANCH   2   3
TORSDOF 3
ENDMDL
MODEL       56
REMARK 921   NORMALIZED FREE ENERGY PREDICTED BY IDOCK:   -4.46 KCAL/MOL
REMARK 922        TOTAL FREE ENERGY PREDICTED BY IDOCK:   -5.60 KCAL/MOL
REMARK 923 INTER-LIGAND FREE ENERGY PREDICTED BY IDOCK:   -5.10 KCAL/MOL
REMARK 924 INTRA-LIGAND FREE ENERGY PREDICTED BY IDOCK:   -0.50 KCAL/MOL
REMARK 927      BINDING AFFINITY PREDICTED BY RF-SCORE:    0.00 PKD
ROOT
HETATM    1  C   UNL     1     -11.130  11.183  64.732  1.00  0.00    -0.136 C  
HETATM    2  C   UNL     1      -9.809  11.938  64.693  1.00  0.00    -0.183 C  
ENDROOT
BRANCH   2   3
HETATM    3  N   UNL     1      -8.935  11.500  65.791  1.00  0.00    -0.355 NA 
HETATM    4  H   UNL     1      -8.007  11.262  65.441  1.00  0.00     0.000 HD 
BRANCH   3   5
HETATM    5  C   UNL     1      -8.845  12.475  66.888  1.00  0.00    -0.203 C  
HETATM    6  C   UNL     1      -8.970  13.940  66.391  1.00  0.00    -0.017 C  
HETATM    7  C   UNL     1     -10.172  14.874  66.633  1.00  0.00    -0.261 C  
HETATM    8  S   UNL     1     -11.538  14.298  67.620  1.00  0.00    -0.387 S  
HETATM    9  C   UNL     1      -9.668  16.230  67.141  1.00  0.00    -0.240 C  
HETATM   10  C   UNL     1     -10.968  12.770  68.252  1.00  0.00    -0.252 A  
HETATM   11  O   UNL     1     -12.646  13.965  66.751  1.00  0.00    -0.311 OA 
HETATM   12  O   UNL     1     -11.691  15.141  68.787  1.00  0.00    -0.329 OA 
HETATM   13  C   UNL     1      -9.833  12.055  67.946  1.00  0.00    -0.196 A  
HETATM   14  C   UNL     1      -9.736  10.896  68.795  1.00  0.00    -0.196 A  
HETATM   15  C   UNL     1     -10.802  10.782  69.671  1.00  0.00    -0.241 A  
HETATM   16  S   UNL     1     -11.925  12.046  69.456  1.00  0.00    -0.248 SA 
BRANCH  15  17
HETATM   17  S   UNL     1     -11.195   9.624  70.970  1.00  0.00    -0.396 S  
HETATM   18  O   UNL     1     -12.303  10.231  71.670  1.00  0.00    -0.388 OA 
HETATM   19  N   UNL     1     -11.782   8.244  70.213  1.00  0.00    -0.470 N  
HETATM   20  O   UNL     1      -9.943   9.291  71.602  1.00  0.00    -0.294 OA 
HETATM   21  H1  UNL     1     -12.007   7.581  70.955  1.00  0.00     0.000 HD 
HETATM   22  H2  UNL     1     -11.893   8.096  69.210  1.00  0.00     0.000 HD 
ENDBRANCH  15  17
ENDBRANCH   3   5
ENDBRANCH   2   3
TORSDOF 3
ENDMDL
MODEL       57
REMARK 921   NORMALIZED FREE ENERGY PREDICTED BY IDOCK:   -4.44 KCAL/MOL
REMARK 922        TOTAL FREE ENERGY PREDICTED BY IDOCK:   -5.58 KCAL/MOL
REMARK 923 INTER-LIGAND FREE ENERGY PREDICTED BY IDOCK:   -5.26 KCAL/MOL
REMARK 924 INTRA-LIGAND FREE ENERGY PREDICTED BY IDOCK:   -0.32 KCAL/MOL
REMARK 927      BINDING AFFINITY PREDICTED BY RF-SCORE:    0.00 PKD
ROOT
HETATM    1  C   UNL     1     -12.025  13.334  67.110  1.00  0.00    -0.400 C  
HETATM    2  C   UNL     1     -11.358  14.064  68.266  1.00  0.00    -0.288 C  
ENDROOT
BRANCH   2   3
HETATM    3  N   UNL     1     -10.474  13.152  69.007  1.00  0.00    -0.432 NA 
HETATM    4  H   UNL     1     -10.828  12.991  69.950  1.00  0.00     0.000 HD 
BRANCH   3   5
HETATM    5  C   UNL     1     -10.240  11.877  68.313  1.00  0.00    -0.204 C  
HETATM    6  C   UNL     1      -8.920  11.879  67.497  1.00  0.00    -0.171 C  
HETATM    7  C   UNL     1      -7.645  11.086  67.845  1.00  0.00    -0.095 C  
HETATM    8  S   UNL     1      -7.651  10.002  69.258  1.00  0.00    -0.123 S  
HETATM    9  C   UNL     1      -7.149  10.347  66.596  1.00  0.00    -0.112 C  
HETATM   10  C   UNL     1      -9.325  10.004  69.766  1.00  0.00    -0.202 A  
HETATM   11  O   UNL     1      -6.921  10.628  70.340  1.00  0.00    -0.276 OA 
HETATM   12  O   UNL     1      -7.399   8.641  68.835  1.00  0.00    -0.078 OA 
HETATM   13  C   UNL     1     -10.379  10.776  69.334  1.00  0.00    -0.207 A  
HETATM   14  C   UNL     1     -11.596  10.352  69.975  1.00  0.00    -0.378 A  
HETATM   15  C   UNL     1     -11.399   9.311  70.866  1.00  0.00    -0.308 A  
HETATM   16  S   UNL     1      -9.756   8.864  70.950  1.00  0.00    -0.263 SA 
BRANCH  15  17
HETATM   17  S   UNL     1     -12.505   8.350  71.883  1.00  0.00    -0.367 S  
HETATM   18  O   UNL     1     -12.850   7.211  71.064  1.00  0.00    -0.341 OA 
HETATM   19  N   UNL     1     -11.589   7.776  73.170  1.00  0.00    -0.562 N  
HETATM   20  O   UNL     1     -13.478   9.277  72.404  1.00  0.00    -0.451 OA 
HETATM   21  H1  UNL     1     -12.221   7.227  73.752  1.00  0.00     0.000 HD 
HETATM   22  H2  UNL     1     -10.597   7.944  73.336  1.00  0.00     0.000 HD 
ENDBRANCH  15  17
ENDBRANCH   3   5
ENDBRANCH   2   3
TORSDOF 3
ENDMDL
MODEL       58
REMARK 921   NORMALIZED FREE ENERGY PREDICTED BY IDOCK:   -4.44 KCAL/MOL
REMARK 922        TOTAL FREE ENERGY PREDICTED BY IDOCK:   -5.57 KCAL/MOL
REMARK 923 INTER-LIGAND FREE ENERGY PREDICTED BY IDOCK:   -5.13 KCAL/MOL
REMARK 924 INTRA-LIGAND FREE ENERGY PREDICTED BY IDOCK:   -0.44 KCAL/MOL
REMARK 927      BINDING AFFINITY PREDICTED BY RF-SCORE:    0.00 PKD
ROOT
HETATM    1  C   UNL     1     -10.381  15.196  64.965  1.00  0.00    -0.377 C  
HETATM    2  C   UNL     1      -9.555  15.760  66.112  1.00  0.00    -0.332 C  
ENDROOT
BRANCH   2   3
HETATM    3  N   UNL     1      -8.487  14.821  66.485  1.00  0.00    -0.422 NA 
HETATM    4  H   UNL     1      -7.618  15.319  66.678  1.00  0.00     0.000 HD 
BRANCH   3   5
HETATM    5  C   UNL     1      -8.848  13.946  67.611  1.00  0.00    -0.191 C  
HETATM    6  C   UNL     1     -10.082  14.467  68.394  1.00  0.00    -0.244 C  
HETATM    7  C   UNL     1     -11.484  13.827  68.395  1.00  0.00    -0.316 C  
HETATM    8  S   UNL     1     -11.754  12.317  67.490  1.00  0.00    -0.276 S  
HETATM    9  C   UNL     1     -11.979  13.689  69.840  1.00  0.00    -0.415 C  
HETATM   10  C   UNL     1     -10.145  11.853  66.983  1.00  0.00    -0.205 A  
HETATM   11  O   UNL     1     -12.470  12.617  66.269  1.00  0.00    -0.483 OA 
HETATM   12  O   UNL     1     -12.168  11.267  68.396  1.00  0.00    -0.604 OA 
HETATM   13  C   UNL     1      -8.957  12.543  67.072  1.00  0.00    -0.211 A  
HETATM   14  C   UNL     1      -7.873  11.717  66.609  1.00  0.00    -0.083 A  
HETATM   15  C   UNL     1      -8.293  10.471  66.177  1.00  0.00    -0.155 A  
HETATM   16  S   UNL     1      -9.985  10.305  66.301  1.00  0.00    -0.243 SA 
BRANCH  15  17
HETATM   17  S   UNL     1      -7.428   9.035  65.569  1.00  0.00    -0.087 S  
HETATM   18  O   UNL     1      -6.761   8.496  66.732  1.00  0.00    -0.060 OA 
HETATM   19  N   UNL     1      -8.607   7.926  65.115  1.00  0.00    -0.346 N  
HETATM   20  O   UNL     1      -6.731   9.459  64.380  1.00  0.00    -0.085 OA 
HETATM   21  H1  UNL     1      -8.112   7.105  64.767  1.00  0.00     0.000 HD 
HETATM   22  H2  UNL     1      -9.617   8.049  65.176  1.00  0.00     0.000 HD 
ENDBRANCH  15  17
ENDBRANCH   3   5
ENDBRANCH   2   3
TORSDOF 3
ENDMDL
MODEL       59
REMARK 921   NORMALIZED FREE ENERGY PREDICTED BY IDOCK:   -4.41 KCAL/MOL
REMARK 922        TOTAL FREE ENERGY PREDICTED BY IDOCK:   -5.53 KCAL/MOL
REMARK 923 INTER-LIGAND FREE ENERGY PREDICTED BY IDOCK:   -5.17 KCAL/MOL
REMARK 924 INTRA-LIGAND FREE ENERGY PREDICTED BY IDOCK:   -0.36 KCAL/MOL
REMARK 927      BINDING AFFINITY PREDICTED BY RF-SCORE:    0.00 PKD
ROOT
HETATM    1  C   UNL     1      -5.904  19.679  64.525  1.00  0.00    -0.303 C  
HETATM    2  C   UNL     1      -6.478  18.546  65.362  1.00  0.00    -0.247 C  
ENDROOT
BRANCH   2   3
HETATM    3  N   UNL     1      -5.856  18.525  66.694  1.00  0.00    -0.149 NA 
HETATM    4  H   UNL     1      -5.324  19.380  66.858  1.00  0.00     0.000 HD 
BRANCH   3   5
HETATM    5  C   UNL     1      -6.817  18.290  67.783  1.00  0.00    -0.204 C  
HETATM    6  C   UNL     1      -7.886  19.409  67.881  1.00  0.00    -0.325 C  
HETATM    7  C   UNL     1      -9.377  19.266  67.516  1.00  0.00    -0.306 C  
HETATM    8  S   UNL     1      -9.997  17.681  66.992  1.00  0.00    -0.335 S  
HETATM    9  C   UNL     1     -10.236  19.838  68.650  1.00  0.00    -0.515 C  
HETATM   10  C   UNL     1      -8.646  16.604  67.267  1.00  0.00    -0.191 A  
HETATM   11  O   UNL     1     -10.191  17.696  65.559  1.00  0.00    -0.600 OA 
HETATM   12  O   UNL     1     -11.020  17.225  67.910  1.00  0.00    -0.336 OA 
HETATM   13  C   UNL     1      -7.347  16.889  67.619  1.00  0.00    -0.170 A  
HETATM   14  C   UNL     1      -6.614  15.667  67.828  1.00  0.00    -0.183 A  
HETATM   15  C   UNL     1      -7.380  14.536  67.602  1.00  0.00    -0.183 A  
HETATM   16  S   UNL     1      -8.963  14.941  67.115  1.00  0.00    -0.226 SA 
BRANCH  15  17
HETATM   17  S   UNL     1      -7.051  12.790  67.753  1.00  0.00    -0.148 S  
HETATM   18  O   UNL     1      -5.680  12.642  67.323  1.00  0.00    -0.256 OA 
HETATM   19  N   UNL     1      -7.096  12.438  69.396  1.00  0.00    -0.328 N  
HETATM   20  O   UNL     1      -8.158  12.117  67.121  1.00  0.00    -0.167 OA 
HETATM   21  H1  UNL     1      -6.909  11.440  69.483  1.00  0.00     0.000 HD 
HETATM   22  H2  UNL     1      -7.275  13.094  70.156  1.00  0.00     0.000 HD 
ENDBRANCH  15  17
ENDBRANCH   3   5
ENDBRANCH   2   3
TORSDOF 3
ENDMDL
MODEL       60
REMARK 921   NORMALIZED FREE ENERGY PREDICTED BY IDOCK:   -4.41 KCAL/MOL
REMARK 922        TOTAL FREE ENERGY PREDICTED BY IDOCK:   -5.53 KCAL/MOL
REMARK 923 INTER-LIGAND FREE ENERGY PREDICTED BY IDOCK:   -5.10 KCAL/MOL
REMARK 924 INTRA-LIGAND FREE ENERGY PREDICTED BY IDOCK:   -0.43 KCAL/MOL
REMARK 927      BINDING AFFINITY PREDICTED BY RF-SCORE:    0.00 PKD
ROOT
HETATM    1  C   UNL     1     -13.068  11.713  71.626  1.00  0.00    -0.456 C  
HETATM    2  C   UNL     1     -12.977  10.329  70.999  1.00  0.00    -0.397 C  
ENDROOT
BRANCH   2   3
HETATM    3  N   UNL     1     -12.409  10.416  69.645  1.00  0.00    -0.546 NA 
HETATM    4  H   UNL     1     -12.866  11.152  69.108  1.00  0.00     0.000 HD 
BRANCH   3   5
HETATM    5  C   UNL     1     -10.949  10.592  69.637  1.00  0.00    -0.283 C  
HETATM    6  C   UNL     1     -10.192   9.254  69.425  1.00  0.00    -0.214 C  
HETATM    7  C   UNL     1      -9.419   8.848  68.155  1.00  0.00    -0.143 C  
HETATM    8  S   UNL     1      -9.292  10.004  66.805  1.00  0.00    -0.165 S  
HETATM    9  C   UNL     1      -8.034   8.320  68.549  1.00  0.00    -0.122 C  
HETATM   10  C   UNL     1      -9.976  11.474  67.462  1.00  0.00    -0.190 A  
HETATM   11  O   UNL     1     -10.193   9.601  65.748  1.00  0.00    -0.261 OA 
HETATM   12  O   UNL     1      -7.901  10.326  66.562  1.00  0.00    -0.109 OA 
HETATM   13  C   UNL     1     -10.633  11.688  68.652  1.00  0.00    -0.236 A  
HETATM   14  C   UNL     1     -10.931  13.088  68.806  1.00  0.00    -0.295 A  
HETATM   15  C   UNL     1     -10.511  13.848  67.727  1.00  0.00    -0.243 A  
HETATM   16  S   UNL     1      -9.788  12.880  66.525  1.00  0.00    -0.257 SA 
BRANCH  15  17
HETATM   17  S   UNL     1     -10.545  15.597  67.380  1.00  0.00    -0.304 S  
HETATM   18  O   UNL     1     -11.487  16.136  68.334  1.00  0.00    -0.369 OA 
HETATM   19  N   UNL     1      -9.029  16.193  67.791  1.00  0.00    -0.191 N  
HETATM   20  O   UNL     1     -10.704  15.719  65.952  1.00  0.00    -0.321 OA 
HETATM   21  H1  UNL     1      -9.048  17.193  67.592  1.00  0.00     0.000 HD 
HETATM   22  H2  UNL     1      -8.244  15.661  68.165  1.00  0.00     0.000 HD 
ENDBRANCH  15  17
ENDBRANCH   3   5
ENDBRANCH   2   3
TORSDOF 3
ENDMDL
MODEL       61
REMARK 921   NORMALIZED FREE ENERGY PREDICTED BY IDOCK:   -4.38 KCAL/MOL
REMARK 922        TOTAL FREE ENERGY PREDICTED BY IDOCK:   -5.50 KCAL/MOL
REMARK 923 INTER-LIGAND FREE ENERGY PREDICTED BY IDOCK:   -5.17 KCAL/MOL
REMARK 924 INTRA-LIGAND FREE ENERGY PREDICTED BY IDOCK:   -0.33 KCAL/MOL
REMARK 927      BINDING AFFINITY PREDICTED BY RF-SCORE:    0.00 PKD
ROOT
HETATM    1  C   UNL     1     -10.565  16.095  69.515  1.00  0.00    -0.306 C  
HETATM    2  C   UNL     1      -9.558  14.980  69.270  1.00  0.00    -0.180 C  
ENDROOT
BRANCH   2   3
HETATM    3  N   UNL     1      -8.547  15.407  68.292  1.00  0.00    -0.155 NA 
HETATM    4  H   UNL     1      -7.812  15.950  68.746  1.00  0.00     0.000 HD 
BRANCH   3   5
HETATM    5  C   UNL     1      -7.973  14.293  67.523  1.00  0.00    -0.188 C  
HETATM    6  C   UNL     1      -7.013  13.419  68.372  1.00  0.00    -0.105 C  
HETATM    7  C   UNL     1      -7.292  11.982  68.856  1.00  0.00    -0.067 C  
HETATM    8  S   UNL     1      -8.806  11.179  68.371  1.00  0.00    -0.161 S  
HETATM    9  C   UNL     1      -6.082  11.095  68.541  1.00  0.00    -0.042 C  
HETATM   10  C   UNL     1      -9.504  12.289  67.213  1.00  0.00    -0.186 A  
HETATM   11  O   UNL     1      -9.720  11.170  69.493  1.00  0.00     0.058 OA 
HETATM   12  O   UNL     1      -8.507   9.989  67.602  1.00  0.00    -0.115 OA 
HETATM   13  C   UNL     1      -9.117  13.563  66.867  1.00  0.00    -0.246 A  
HETATM   14  C   UNL     1      -9.939  14.053  65.791  1.00  0.00    -0.319 A  
HETATM   15  C   UNL     1     -10.909  13.145  65.400  1.00  0.00    -0.282 A  
HETATM   16  S   UNL     1     -10.848  11.724  66.340  1.00  0.00    -0.292 SA 
BRANCH  15  17
HETATM   17  S   UNL     1     -12.148  13.160  64.118  1.00  0.00    -0.435 S  
HETATM   18  O   UNL     1     -13.332  12.631  64.754  1.00  0.00    -0.787 OA 
HETATM   19  N   UNL     1     -12.452  14.775  63.769  1.00  0.00    -1.063 N  
HETATM   20  O   UNL     1     -11.534  12.560  62.960  1.00  0.00    -0.296 OA 
HETATM   21  H1  UNL     1     -13.160  14.784  63.035  1.00  0.00     0.000 HD 
HETATM   22  H2  UNL     1     -12.015  15.587  64.205  1.00  0.00     0.000 HD 
ENDBRANCH  15  17
ENDBRANCH   3   5
ENDBRANCH   2   3
TORSDOF 3
ENDMDL
MODEL       62
REMARK 921   NORMALIZED FREE ENERGY PREDICTED BY IDOCK:   -4.34 KCAL/MOL
REMARK 922        TOTAL FREE ENERGY PREDICTED BY IDOCK:   -5.45 KCAL/MOL
REMARK 923 INTER-LIGAND FREE ENERGY PREDICTED BY IDOCK:   -5.16 KCAL/MOL
REMARK 924 INTRA-LIGAND FREE ENERGY PREDICTED BY IDOCK:   -0.29 KCAL/MOL
REMARK 927      BINDING AFFINITY PREDICTED BY RF-SCORE:    0.00 PKD
ROOT
HETATM    1  C   UNL     1      -5.254  11.758  69.219  1.00  0.00    -0.051 C  
HETATM    2  C   UNL     1      -6.519  11.078  69.723  1.00  0.00    -0.137 C  
ENDROOT
BRANCH   2   3
HETATM    3  N   UNL     1      -7.709  11.699  69.123  1.00  0.00    -0.344 NA 
HETATM    4  H   UNL     1      -7.451  12.280  68.325  1.00  0.00     0.000 HD 
BRANCH   3   5
HETATM    5  C   UNL     1      -8.748  10.727  68.748  1.00  0.00    -0.163 C  
HETATM    6  C   UNL     1      -9.282   9.931  69.967  1.00  0.00    -0.224 C  
HETATM    7  C   UNL     1     -10.680  10.081  70.599  1.00  0.00    -0.254 C  
HETATM    8  S   UNL     1     -11.852  11.205  69.866  1.00  0.00    -0.394 S  
HETATM    9  C   UNL     1     -11.304   8.694  70.789  1.00  0.00    -0.299 C  
HETATM   10  C   UNL     1     -11.065  11.704  68.385  1.00  0.00    -0.234 A  
HETATM   11  O   UNL     1     -11.936  12.400  70.677  1.00  0.00    -0.309 OA 
HETATM   12  O   UNL     1     -13.024  10.477  69.429  1.00  0.00     0.015 OA 
HETATM   13  C   UNL     1      -9.785  11.466  67.941  1.00  0.00    -0.186 A  
HETATM   14  C   UNL     1      -9.617  11.995  66.613  1.00  0.00    -0.225 A  
HETATM   15  C   UNL     1     -10.757  12.619  66.136  1.00  0.00    -0.267 A  
HETATM   16  S   UNL     1     -12.012  12.593  67.289  1.00  0.00    -0.140 SA 
BRANCH  15  17
HETATM   17  S   UNL     1     -11.167  13.389  64.580  1.00  0.00    -0.377 S  
HETATM   18  O   UNL     1     -12.607  13.500  64.600  1.00  0.00    -0.593 OA 
HETATM   19  N   UNL     1     -10.549  14.951  64.645  1.00  0.00    -0.585 N  
HETATM   20  O   UNL     1     -10.441  12.662  63.569  1.00  0.00    -0.390 OA 
HETATM   21  H1  UNL     1     -10.783  15.391  63.756  1.00  0.00     0.000 HD 
HETATM   22  H2  UNL     1     -10.041  15.375  65.421  1.00  0.00     0.000 HD 
ENDBRANCH  15  17
ENDBRANCH   3   5
ENDBRANCH   2   3
TORSDOF 3
ENDMDL
MODEL       63
REMARK 921   NORMALIZED FREE ENERGY PREDICTED BY IDOCK:   -4.33 KCAL/MOL
REMARK 922        TOTAL FREE ENERGY PREDICTED BY IDOCK:   -5.45 KCAL/MOL
REMARK 923 INTER-LIGAND FREE ENERGY PREDICTED BY IDOCK:   -5.06 KCAL/MOL
REMARK 924 INTRA-LIGAND FREE ENERGY PREDICTED BY IDOCK:   -0.38 KCAL/MOL
REMARK 927      BINDING AFFINITY PREDICTED BY RF-SCORE:    0.00 PKD
ROOT
HETATM    1  C   UNL     1     -14.094   8.406  72.147  1.00  0.00    -0.460 C  
HETATM    2  C   UNL     1     -12.660   8.083  71.753  1.00  0.00    -0.325 C  
ENDROOT
BRANCH   2   3
HETATM    3  N   UNL     1     -11.804   9.267  71.919  1.00  0.00    -0.370 NA 
HETATM    4  H   UNL     1     -11.744   9.536  72.901  1.00  0.00     0.000 HD 
BRANCH   3   5
HETATM    5  C   UNL     1     -10.461   9.100  71.341  1.00  0.00    -0.344 C  
HETATM    6  C   UNL     1      -9.888   7.678  71.576  1.00  0.00    -0.192 C  
HETATM    7  C   UNL     1      -9.691   6.596  70.495  1.00  0.00    -0.176 C  
HETATM    8  S   UNL     1     -10.076   6.979  68.799  1.00  0.00    -0.175 S  
HETATM    9  C   UNL     1      -8.279   6.011  70.613  1.00  0.00    -0.120 C  
HETATM   10  C   UNL     1     -10.404   8.697  68.833  1.00  0.00    -0.211 A  
HETATM   11  O   UNL     1     -11.333   6.356  68.445  1.00  0.00    -0.280 OA 
HETATM   12  O   UNL     1      -8.887   6.851  67.983  1.00  0.00    -0.125 OA 
HETATM   13  C   UNL     1     -10.531   9.551  69.905  1.00  0.00    -0.269 A  
HETATM   14  C   UNL     1     -10.705  10.903  69.440  1.00  0.00    -0.265 A  
HETATM   15  C   UNL     1     -10.725  10.997  68.059  1.00  0.00    -0.217 A  
HETATM   16  S   UNL     1     -10.563   9.467  67.326  1.00  0.00    -0.192 SA 
BRANCH  15  17
HETATM   17  S   UNL     1     -10.845  12.374  66.932  1.00  0.00    -0.261 S  
HETATM   18  O   UNL     1     -10.283  13.487  67.660  1.00  0.00    -0.233 OA 
HETATM   19  N   UNL     1      -9.803  12.038  65.657  1.00  0.00    -0.244 N  
HETATM   20  O   UNL     1     -12.194  12.359  66.423  1.00  0.00    -0.604 OA 
HETATM   21  H1  UNL     1      -9.872  12.825  65.013  1.00  0.00     0.000 HD 
HETATM   22  H2  UNL     1      -9.216  11.211  65.550  1.00  0.00     0.000 HD 
ENDBRANCH  15  17
ENDBRANCH   3   5
ENDBRANCH   2   3
TORSDOF 3
ENDMDL
MODEL       64
REMARK 921   NORMALIZED FREE ENERGY PREDICTED BY IDOCK:   -4.33 KCAL/MOL
REMARK 922        TOTAL FREE ENERGY PREDICTED BY IDOCK:   -5.44 KCAL/MOL
REMARK 923 INTER-LIGAND FREE ENERGY PREDICTED BY IDOCK:   -5.05 KCAL/MOL
REMARK 924 INTRA-LIGAND FREE ENERGY PREDICTED BY IDOCK:   -0.39 KCAL/MOL
REMARK 927      BINDING AFFINITY PREDICTED BY RF-SCORE:    0.00 PKD
ROOT
HETATM    1  C   UNL     1     -11.468  11.746  63.197  1.00  0.00    -0.191 C  
HETATM    2  C   UNL     1     -12.841  12.041  63.783  1.00  0.00    -0.320 C  
ENDROOT
BRANCH   2   3
HETATM    3  N   UNL     1     -12.715  12.861  64.997  1.00  0.00    -0.724 NA 
HETATM    4  H   UNL     1     -13.160  12.403  65.791  1.00  0.00     0.000 HD 
BRANCH   3   5
HETATM    5  C   UNL     1     -11.325  13.223  65.313  1.00  0.00    -0.295 C  
HETATM    6  C   UNL     1     -11.082  14.754  65.247  1.00  0.00    -0.374 C  
HETATM    7  C   UNL     1     -10.829  15.680  66.453  1.00  0.00    -0.252 C  
HETATM    8  S   UNL     1     -10.730  14.975  68.086  1.00  0.00    -0.263 S  
HETATM    9  C   UNL     1      -9.609  16.564  66.169  1.00  0.00    -0.344 C  
HETATM   10  C   UNL     1     -10.750  13.251  67.788  1.00  0.00    -0.244 A  
HETATM   11  O   UNL     1     -11.957  15.256  68.800  1.00  0.00    -0.321 OA 
HETATM   12  O   UNL     1      -9.424  15.232  68.655  1.00  0.00    -0.189 OA 
HETATM   13  C   UNL     1     -10.974  12.559  66.620  1.00  0.00    -0.303 A  
HETATM   14  C   UNL     1     -10.794  11.148  66.841  1.00  0.00    -0.333 A  
HETATM   15  C   UNL     1     -10.471  10.847  68.153  1.00  0.00    -0.182 A  
HETATM   16  S   UNL     1     -10.412  12.250  69.119  1.00  0.00     0.188 SA 
BRANCH  15  17
HETATM   17  S   UNL     1     -10.079   9.324  68.995  1.00  0.00    -0.206 S  
HETATM   18  O   UNL     1      -8.824   9.591  69.659  1.00  0.00    -0.156 OA 
HETATM   19  N   UNL     1     -11.241   9.130  70.193  1.00  0.00    -0.348 N  
HETATM   20  O   UNL     1     -10.256   8.273  68.025  1.00  0.00    -0.197 OA 
HETATM   21  H1  UNL     1     -11.018   8.260  70.674  1.00  0.00     0.000 HD 
HETATM   22  H2  UNL     1     -12.017   9.759  70.399  1.00  0.00     0.000 HD 
ENDBRANCH  15  17
ENDBRANCH   3   5
ENDBRANCH   2   3
TORSDOF 3
ENDMDL
MODEL       65
REMARK 921   NORMALIZED FREE ENERGY PREDICTED BY IDOCK:   -4.32 KCAL/MOL
REMARK 922        TOTAL FREE ENERGY PREDICTED BY IDOCK:   -5.44 KCAL/MOL
REMARK 923 INTER-LIGAND FREE ENERGY PREDICTED BY IDOCK:   -5.17 KCAL/MOL
REMARK 924 INTRA-LIGAND FREE ENERGY PREDICTED BY IDOCK:   -0.26 KCAL/MOL
REMARK 927      BINDING AFFINITY PREDICTED BY RF-SCORE:    0.00 PKD
ROOT
HETATM    1  C   UNL     1      -5.522  13.607  70.448  1.00  0.00    -0.131 C  
HETATM    2  C   UNL     1      -6.172  14.010  69.132  1.00  0.00    -0.103 C  
ENDROOT
BRANCH   2   3
HETATM    3  N   UNL     1      -7.609  13.697  69.154  1.00  0.00    -0.324 NA 
HETATM    4  H   UNL     1      -8.095  14.277  69.838  1.00  0.00     0.000 HD 
BRANCH   3   5
HETATM    5  C   UNL     1      -8.247  13.801  67.833  1.00  0.00    -0.166 C  
HETATM    6  C   UNL     1      -9.091  12.548  67.482  1.00  0.00    -0.187 C  
HETATM    7  C   UNL     1     -10.630  12.488  67.412  1.00  0.00    -0.223 C  
HETATM    8  S   UNL     1     -11.573  13.975  67.682  1.00  0.00    -0.375 S  
HETATM    9  C   UNL     1     -11.054  11.806  66.106  1.00  0.00    -0.358 C  
HETATM   10  C   UNL     1     -10.350  15.225  67.755  1.00  0.00    -0.244 A  
HETATM   11  O   UNL     1     -12.158  13.934  69.005  1.00  0.00    -0.349 OA 
HETATM   12  O   UNL     1     -12.346  14.289  66.499  1.00  0.00    -0.445 OA 
HETATM   13  C   UNL     1      -8.979  15.118  67.789  1.00  0.00    -0.178 A  
HETATM   14  C   UNL     1      -8.382  16.428  67.747  1.00  0.00    -0.172 A  
HETATM   15  C   UNL     1      -9.320  17.445  67.709  1.00  0.00    -0.255 A  
HETATM   16  S   UNL     1     -10.909  16.830  67.750  1.00  0.00    -0.229 SA 
BRANCH  15  17
HETATM   17  S   UNL     1      -9.192  19.220  67.589  1.00  0.00    -0.311 S  
HETATM   18  O   UNL     1     -10.325  19.715  68.337  1.00  0.00    -0.431 OA 
HETATM   19  N   UNL     1      -7.809  19.654  68.440  1.00  0.00    -0.333 N  
HETATM   20  O   UNL     1      -8.971  19.513  66.195  1.00  0.00    -0.360 OA 
HETATM   21  H1  UNL     1      -7.735  20.669  68.372  1.00  0.00     0.000 HD 
HETATM   22  H2  UNL     1      -7.170  19.028  68.928  1.00  0.00     0.000 HD 
ENDBRANCH  15  17
ENDBRANCH   3   5
ENDBRANCH   2   3
TORSDOF 3
ENDMDL
MODEL       66
REMARK 921   NORMALIZED FREE ENERGY PREDICTED BY IDOCK:   -4.32 KCAL/MOL
REMARK 922        TOTAL FREE ENERGY PREDICTED BY IDOCK:   -5.43 KCAL/MOL
REMARK 923 INTER-LIGAND FREE ENERGY PREDICTED BY IDOCK:   -5.10 KCAL/MOL
REMARK 924 INTRA-LIGAND FREE ENERGY PREDICTED BY IDOCK:   -0.33 KCAL/MOL
REMARK 927      BINDING AFFINITY PREDICTED BY RF-SCORE:    0.00 PKD
ROOT
HETATM    1  C   UNL     1     -11.203   8.173  71.531  1.00  0.00    -0.307 C  
HETATM    2  C   UNL     1     -10.089   9.180  71.283  1.00  0.00    -0.318 C  
ENDROOT
BRANCH   2   3
HETATM    3  N   UNL     1     -10.488  10.140  70.243  1.00  0.00    -0.394 NA 
HETATM    4  H   UNL     1     -10.898  10.976  70.660  1.00  0.00     0.000 HD 
BRANCH   3   5
HETATM    5  C   UNL     1      -9.393  10.496  69.328  1.00  0.00    -0.160 C  
HETATM    6  C   UNL     1      -8.332   9.371  69.209  1.00  0.00    -0.131 C  
HETATM    7  C   UNL     1      -8.099   8.479  67.973  1.00  0.00    -0.115 C  
HETATM    8  S   UNL     1      -9.058   8.764  66.500  1.00  0.00    -0.175 S  
HETATM    9  C   UNL     1      -6.601   8.442  67.647  1.00  0.00    -0.058 C  
HETATM   10  C   UNL     1      -9.922  10.243  66.856  1.00  0.00    -0.208 A  
HETATM   11  O   UNL     1     -10.076   7.742  66.390  1.00  0.00    -0.191 OA 
HETATM   12  O   UNL     1      -8.181   9.109  65.401  1.00  0.00    -0.118 OA 
HETATM   13  C   UNL     1     -10.018  10.949  68.033  1.00  0.00    -0.188 A  
HETATM   14  C   UNL     1     -10.763  12.162  67.821  1.00  0.00    -0.241 A  
HETATM   15  C   UNL     1     -11.207  12.299  66.517  1.00  0.00    -0.324 A  
HETATM   16  S   UNL     1     -10.755  10.962  65.560  1.00  0.00    -0.044 SA 
BRANCH  15  17
HETATM   17  S   UNL     1     -12.102  13.582  65.661  1.00  0.00    -0.461 S  
HETATM   18  O   UNL     1     -12.229  14.643  66.633  1.00  0.00    -0.317 OA 
HETATM   19  N   UNL     1     -11.085  14.141  64.446  1.00  0.00    -0.589 N  
HETATM   20  O   UNL     1     -13.231  12.937  65.038  1.00  0.00    -0.765 OA 
HETATM   21  H1  UNL     1     -11.597  14.875  63.956  1.00  0.00     0.000 HD 
HETATM   22  H2  UNL     1     -10.142  13.813  64.239  1.00  0.00     0.000 HD 
ENDBRANCH  15  17
ENDBRANCH   3   5
ENDBRANCH   2   3
TORSDOF 3
ENDMDL
MODEL       67
REMARK 921   NORMALIZED FREE ENERGY PREDICTED BY IDOCK:   -4.31 KCAL/MOL
REMARK 922        TOTAL FREE ENERGY PREDICTED BY IDOCK:   -5.42 KCAL/MOL
REMARK 923 INTER-LIGAND FREE ENERGY PREDICTED BY IDOCK:   -5.32 KCAL/MOL
REMARK 924 INTRA-LIGAND FREE ENERGY PREDICTED BY IDOCK:   -0.10 KCAL/MOL
REMARK 927      BINDING AFFINITY PREDICTED BY RF-SCORE:    0.00 PKD
ROOT
HETATM    1  C   UNL     1     -12.976  11.846  63.699  1.00  0.00    -0.317 C  
HETATM    2  C   UNL     1     -12.486  12.979  64.590  1.00  0.00    -0.400 C  
ENDROOT
BRANCH   2   3
HETATM    3  N   UNL     1     -11.405  13.722  63.926  1.00  0.00    -0.584 NA 
HETATM    4  H   UNL     1     -11.769  14.559  63.470  1.00  0.00     0.000 HD 
BRANCH   3   5
HETATM    5  C   UNL     1     -10.292  14.060  64.827  1.00  0.00    -0.380 C  
HETATM    6  C   UNL     1     -10.488  15.433  65.522  1.00  0.00    -0.402 C  
HETATM    7  C   UNL     1     -10.802  15.651  67.015  1.00  0.00    -0.294 C  
HETATM    8  S   UNL     1     -10.894  14.241  68.100  1.00  0.00    -0.250 S  
HETATM    9  C   UNL     1      -9.855  16.714  67.584  1.00  0.00    -0.256 C  
HETATM   10  C   UNL     1     -10.350  12.917  67.095  1.00  0.00    -0.238 A  
HETATM   11  O   UNL     1     -12.282  13.956  68.392  1.00  0.00    -0.339 OA 
HETATM   12  O   UNL     1      -9.888  14.351  69.136  1.00  0.00    -0.155 OA 
HETATM   13  C   UNL     1     -10.085  12.883  65.745  1.00  0.00    -0.294 A  
HETATM   14  C   UNL     1      -9.566  11.591  65.378  1.00  0.00    -0.249 A  
HETATM   15  C   UNL     1      -9.489  10.718  66.449  1.00  0.00    -0.171 A  
HETATM   16  S   UNL     1     -10.063  11.438  67.883  1.00  0.00    -0.188 SA 
BRANCH  15  17
HETATM   17  S   UNL     1      -8.889   9.048  66.621  1.00  0.00    -0.137 S  
HETATM   18  O   UNL     1      -8.593   8.914  68.029  1.00  0.00    -0.128 OA 
HETATM   19  N   UNL     1     -10.190   8.038  66.290  1.00  0.00    -0.450 N  
HETATM   20  O   UNL     1      -7.905   8.866  65.583  1.00  0.00    -0.092 OA 
HETATM   21  H1  UNL     1      -9.847   7.083  66.389  1.00  0.00     0.000 HD 
HETATM   22  H2  UNL     1     -11.137   8.323  66.041  1.00  0.00     0.000 HD 
ENDBRANCH  15  17
ENDBRANCH   3   5
ENDBRANCH   2   3
TORSDOF 3
ENDMDL
MODEL       68
REMARK 921   NORMALIZED FREE ENERGY PREDICTED BY IDOCK:   -4.29 KCAL/MOL
REMARK 922        TOTAL FREE ENERGY PREDICTED BY IDOCK:   -5.40 KCAL/MOL
REMARK 923 INTER-LIGAND FREE ENERGY PREDICTED BY IDOCK:   -5.24 KCAL/MOL
REMARK 924 INTRA-LIGAND FREE ENERGY PREDICTED BY IDOCK:   -0.16 KCAL/MOL
REMARK 927      BINDING AFFINITY PREDICTED BY RF-SCORE:    0.00 PKD
ROOT
HETATM    1  C   UNL     1      -5.861  15.151  67.914  1.00  0.00    -0.158 C  
HETATM    2  C   UNL     1      -7.319  14.783  68.144  1.00  0.00    -0.119 C  
ENDROOT
BRANCH   2   3
HETATM    3  N   UNL     1      -7.980  14.482  66.865  1.00  0.00    -0.355 NA 
HETATM    4  H   UNL     1      -7.660  13.588  66.494  1.00  0.00     0.000 HD 
BRANCH   3   5
HETATM    5  C   UNL     1      -9.448  14.519  66.945  1.00  0.00    -0.252 C  
HETATM    6  C   UNL     1     -10.094  15.160  65.688  1.00  0.00    -0.392 C  
HETATM    7  C   UNL     1     -10.899  14.412  64.608  1.00  0.00    -0.346 C  
HETATM    8  S   UNL     1     -11.205  12.668  64.801  1.00  0.00    -0.318 S  
HETATM    9  C   UNL     1     -12.207  15.166  64.335  1.00  0.00    -0.289 C  
HETATM   10  C   UNL     1     -10.617  12.327  66.413  1.00  0.00    -0.242 A  
HETATM   11  O   UNL     1     -10.334  11.931  63.911  1.00  0.00    -0.317 OA 
HETATM   12  O   UNL     1     -12.630  12.423  64.872  1.00  0.00    -0.563 OA 
HETATM   13  C   UNL     1      -9.915  13.127  67.285  1.00  0.00    -0.230 A  
HETATM   14  C   UNL     1      -9.735  12.447  68.541  1.00  0.00    -0.140 A  
HETATM   15  C   UNL     1     -10.281  11.175  68.547  1.00  0.00    -0.198 A  
HETATM   16  S   UNL     1     -10.983  10.791  67.042  1.00  0.00    -0.170 SA 
BRANCH  15  17
HETATM   17  S   UNL     1     -10.422   9.913  69.799  1.00  0.00    -0.279 S  
HETATM   18  O   UNL     1     -10.603   8.687  69.057  1.00  0.00    -0.217 OA 
HETATM   19  N   UNL     1      -8.922   9.821  70.551  1.00  0.00    -0.322 N  
HETATM   20  O   UNL     1     -11.376  10.407  70.761  1.00  0.00    -0.330 OA 
HETATM   21  H1  UNL     1      -9.002   9.099  71.267  1.00  0.00     0.000 HD 
HETATM   22  H2  UNL     1      -8.094  10.376  70.334  1.00  0.00     0.000 HD 
ENDBRANCH  15  17
ENDBRANCH   3   5
ENDBRANCH   2   3
TORSDOF 3
ENDMDL
MODEL       69
REMARK 921   NORMALIZED FREE ENERGY PREDICTED BY IDOCK:   -4.28 KCAL/MOL
REMARK 922        TOTAL FREE ENERGY PREDICTED BY IDOCK:   -5.38 KCAL/MOL
REMARK 923 INTER-LIGAND FREE ENERGY PREDICTED BY IDOCK:   -5.05 KCAL/MOL
REMARK 924 INTRA-LIGAND FREE ENERGY PREDICTED BY IDOCK:   -0.33 KCAL/MOL
REMARK 927      BINDING AFFINITY PREDICTED BY RF-SCORE:    0.00 PKD
ROOT
HETATM    1  C   UNL     1     -12.887   9.412  71.568  1.00  0.00    -0.442 C  
HETATM    2  C   UNL     1     -12.708  10.923  71.612  1.00  0.00    -0.393 C  
ENDROOT
BRANCH   2   3
HETATM    3  N   UNL     1     -11.579  11.330  70.762  1.00  0.00    -0.347 NA 
HETATM    4  H   UNL     1     -11.094  10.514  70.389  1.00  0.00     0.000 HD 
BRANCH   3   5
HETATM    5  C   UNL     1     -11.967  12.247  69.679  1.00  0.00    -0.279 C  
HETATM    6  C   UNL     1     -12.138  13.708  70.172  1.00  0.00    -0.431 C  
HETATM    7  C   UNL     1     -11.198  14.885  69.845  1.00  0.00    -0.275 C  
HETATM    8  S   UNL     1      -9.815  14.618  68.755  1.00  0.00    -0.213 S  
HETATM    9  C   UNL     1     -12.030  16.087  69.382  1.00  0.00    -0.188 C  
HETATM   10  C   UNL     1     -10.072  12.993  68.160  1.00  0.00    -0.237 A  
HETATM   11  O   UNL     1      -8.599  14.553  69.537  1.00  0.00     0.107 OA 
HETATM   12  O   UNL     1      -9.942  15.460  67.583  1.00  0.00    -0.224 OA 
HETATM   13  C   UNL     1     -10.991  12.046  68.548  1.00  0.00    -0.280 A  
HETATM   14  C   UNL     1     -10.888  10.884  67.703  1.00  0.00    -0.317 A  
HETATM   15  C   UNL     1      -9.892  11.001  66.748  1.00  0.00    -0.197 A  
HETATM   16  S   UNL     1      -9.069  12.488  66.884  1.00  0.00    -0.210 SA 
BRANCH  15  17
HETATM   17  S   UNL     1      -9.347   9.945  65.419  1.00  0.00    -0.259 S  
HETATM   18  O   UNL     1      -7.905   9.973  65.505  1.00  0.00    -0.122 OA 
HETATM   19  N   UNL     1      -9.837   8.388  65.817  1.00  0.00    -0.408 N  
HETATM   20  O   UNL     1     -10.079  10.361  64.249  1.00  0.00    -0.334 OA 
HETATM   21  H1  UNL     1      -9.525   7.784  65.057  1.00  0.00     0.000 HD 
HETATM   22  H2  UNL     1     -10.346   8.103  66.653  1.00  0.00     0.000 HD 
ENDBRANCH  15  17
ENDBRANCH   3   5
ENDBRANCH   2   3
TORSDOF 3
ENDMDL
MODEL       70
REMARK 921   NORMALIZED FREE ENERGY PREDICTED BY IDOCK:   -4.27 KCAL/MOL
REMARK 922        TOTAL FREE ENERGY PREDICTED BY IDOCK:   -5.38 KCAL/MOL
REMARK 923 INTER-LIGAND FREE ENERGY PREDICTED BY IDOCK:   -5.06 KCAL/MOL
REMARK 924 INTRA-LIGAND FREE ENERGY PREDICTED BY IDOCK:   -0.32 KCAL/MOL
REMARK 927      BINDING AFFINITY PREDICTED BY RF-SCORE:    0.00 PKD
ROOT
HETATM    1  C   UNL     1      -8.638  19.366  66.549  1.00  0.00    -0.363 C  
HETATM    2  C   UNL     1      -9.388  18.308  67.346  1.00  0.00    -0.261 C  
ENDROOT
BRANCH   2   3
HETATM    3  N   UNL     1      -8.603  17.066  67.413  1.00  0.00    -0.195 NA 
HETATM    4  H   UNL     1      -7.604  17.270  67.431  1.00  0.00     0.000 HD 
BRANCH   3   5
HETATM    5  C   UNL     1      -8.980  16.199  68.540  1.00  0.00    -0.204 C  
HETATM    6  C   UNL     1     -10.339  16.604  69.169  1.00  0.00    -0.326 C  
HETATM    7  C   UNL     1     -11.654  15.806  69.064  1.00  0.00    -0.400 C  
HETATM    8  S   UNL     1     -11.658  14.241  68.213  1.00  0.00    -0.343 S  
HETATM    9  C   UNL     1     -12.278  15.668  70.458  1.00  0.00    -0.437 C  
HETATM   10  C   UNL     1      -9.963  13.948  67.893  1.00  0.00    -0.242 A  
HETATM   11  O   UNL     1     -12.271  14.408  66.914  1.00  0.00    -0.415 OA 
HETATM   12  O   UNL     1     -12.045  13.186  69.126  1.00  0.00    -0.294 OA 
HETATM   13  C   UNL     1      -8.876  14.773  68.065  1.00  0.00    -0.169 A  
HETATM   14  C   UNL     1      -7.663  14.061  67.754  1.00  0.00    -0.178 A  
HETATM   15  C   UNL     1      -7.895  12.758  67.346  1.00  0.00    -0.172 A  
HETATM   16  S   UNL     1      -9.561  12.402  67.309  1.00  0.00    -0.204 SA 
BRANCH  15  17
HETATM   17  S   UNL     1      -6.816  11.410  66.900  1.00  0.00    -0.134 S  
HETATM   18  O   UNL     1      -7.028  10.422  67.933  1.00  0.00    -0.080 OA 
HETATM   19  N   UNL     1      -7.423  10.769  65.470  1.00  0.00    -0.339 N  
HETATM   20  O   UNL     1      -5.532  11.999  66.617  1.00  0.00    -0.307 OA 
HETATM   21  H1  UNL     1      -6.806   9.997  65.215  1.00  0.00     0.000 HD 
HETATM   22  H2  UNL     1      -8.245  11.087  64.958  1.00  0.00     0.000 HD 
ENDBRANCH  15  17
ENDBRANCH   3   5
ENDBRANCH   2   3
TORSDOF 3
ENDMDL
MODEL       71
REMARK 921   NORMALIZED FREE ENERGY PREDICTED BY IDOCK:   -4.25 KCAL/MOL
REMARK 922        TOTAL FREE ENERGY PREDICTED BY IDOCK:   -5.35 KCAL/MOL
REMARK 923 INTER-LIGAND FREE ENERGY PREDICTED BY IDOCK:   -4.96 KCAL/MOL
REMARK 924 INTRA-LIGAND FREE ENERGY PREDICTED BY IDOCK:   -0.39 KCAL/MOL
REMARK 927      BINDING AFFINITY PREDICTED BY RF-SCORE:    0.00 PKD
ROOT
HETATM    1  C   UNL     1      -9.929  10.630  66.224  1.00  0.00    -0.274 C  
HETATM    2  C   UNL     1     -10.834  11.034  67.380  1.00  0.00    -0.274 C  
ENDROOT
BRANCH   2   3
HETATM    3  N   UNL     1     -11.246   9.848  68.146  1.00  0.00    -0.523 NA 
HETATM    4  H   UNL     1     -11.769   9.200  67.557  1.00  0.00     0.000 HD 
BRANCH   3   5
HETATM    5  C   UNL     1     -10.124   9.164  68.807  1.00  0.00    -0.197 C  
HETATM    6  C   UNL     1     -10.053   9.473  70.325  1.00  0.00    -0.314 C  
HETATM    7  C   UNL     1     -10.374   8.484  71.463  1.00  0.00    -0.250 C  
HETATM    8  S   UNL     1     -10.806   6.804  71.060  1.00  0.00    -0.252 S  
HETATM    9  C   UNL     1      -9.247   8.521  72.503  1.00  0.00    -0.303 C  
HETATM   10  C   UNL     1     -10.514   6.710  69.338  1.00  0.00    -0.219 A  
HETATM   11  O   UNL     1     -12.234   6.630  71.218  1.00  0.00    -0.356 OA 
HETATM   12  O   UNL     1      -9.843   5.895  71.644  1.00  0.00    -0.163 OA 
HETATM   13  C   UNL     1     -10.208   7.704  68.438  1.00  0.00    -0.226 A  
HETATM   14  C   UNL     1      -9.959   7.135  67.140  1.00  0.00    -0.270 A  
HETATM   15  C   UNL     1     -10.113   5.759  67.119  1.00  0.00    -0.181 A  
HETATM   16  S   UNL     1     -10.579   5.159  68.644  1.00  0.00     0.198 SA 
BRANCH  15  17
HETATM   17  S   UNL     1      -9.887   4.525  65.851  1.00  0.00    -0.245 S  
HETATM   18  O   UNL     1      -9.734   3.286  66.577  1.00  0.00    -0.075 OA 
HETATM   19  N   UNL     1     -11.341   4.433  65.013  1.00  0.00    -0.877 N  
HETATM   20  O   UNL     1      -8.886   5.049  64.955  1.00  0.00    -0.153 OA 
HETATM   21  H1  UNL     1     -11.212   3.727  64.288  1.00  0.00     0.000 HD 
HETATM   22  H2  UNL     1     -12.186   4.974  65.194  1.00  0.00     0.000 HD 
ENDBRANCH  15  17
ENDBRANCH   3   5
ENDBRANCH   2   3
TORSDOF 3
ENDMDL
MODEL       72
REMARK 921   NORMALIZED FREE ENERGY PREDICTED BY IDOCK:   -4.25 KCAL/MOL
REMARK 922        TOTAL FREE ENERGY PREDICTED BY IDOCK:   -5.35 KCAL/MOL
REMARK 923 INTER-LIGAND FREE ENERGY PREDICTED BY IDOCK:   -4.94 KCAL/MOL
REMARK 924 INTRA-LIGAND FREE ENERGY PREDICTED BY IDOCK:   -0.40 KCAL/MOL
REMARK 927      BINDING AFFINITY PREDICTED BY RF-SCORE:    0.00 PKD
ROOT
HETATM    1  C   UNL     1      -5.236  15.185  67.767  1.00  0.00    -0.062 C  
HETATM    2  C   UNL     1      -5.250  16.601  67.208  1.00  0.00    -0.131 C  
ENDROOT
BRANCH   2   3
HETATM    3  N   UNL     1      -6.498  16.848  66.471  1.00  0.00    -0.237 NA 
HETATM    4  H   UNL     1      -6.663  16.116  65.781  1.00  0.00     0.000 HD 
BRANCH   3   5
HETATM    5  C   UNL     1      -7.669  17.014  67.347  1.00  0.00    -0.171 C  
HETATM    6  C   UNL     1      -7.770  18.445  67.937  1.00  0.00    -0.261 C  
HETATM    7  C   UNL     1      -8.820  19.506  67.553  1.00  0.00    -0.307 C  
HETATM    8  S   UNL     1     -10.096  19.085  66.384  1.00  0.00    -0.440 S  
HETATM    9  C   UNL     1      -9.428  20.104  68.828  1.00  0.00    -0.039 C  
HETATM   10  C   UNL     1      -9.879  17.366  66.145  1.00  0.00    -0.245 A  
HETATM   11  O   UNL     1      -9.788  19.692  65.106  1.00  0.00     0.156 OA 
HETATM   12  O   UNL     1     -11.396  19.207  67.009  1.00  0.00    -0.059 OA 
HETATM   13  C   UNL     1      -8.875  16.533  66.581  1.00  0.00    -0.288 A  
HETATM   14  C   UNL     1      -9.174  15.171  66.222  1.00  0.00    -0.336 A  
HETATM   15  C   UNL     1     -10.361  15.049  65.521  1.00  0.00    -0.373 A  
HETATM   16  S   UNL     1     -11.098  16.565  65.272  1.00  0.00     0.047 SA 
BRANCH  15  17
HETATM   17  S   UNL     1     -11.260  13.648  64.880  1.00  0.00    -0.359 S  
HETATM   18  O   UNL     1     -11.966  13.118  66.024  1.00  0.00    -0.391 OA 
HETATM   19  N   UNL     1     -12.416  14.267  63.827  1.00  0.00    -1.040 N  
HETATM   20  O   UNL     1     -10.314  12.883  64.107  1.00  0.00    -0.410 OA 
HETATM   21  H1  UNL     1     -12.930  13.466  63.461  1.00  0.00     0.000 HD 
HETATM   22  H2  UNL     1     -12.572  15.248  63.600  1.00  0.00     0.000 HD 
ENDBRANCH  15  17
ENDBRANCH   3   5
ENDBRANCH   2   3
TORSDOF 3
ENDMDL
MODEL       73
REMARK 921   NORMALIZED FREE ENERGY PREDICTED BY IDOCK:   -4.24 KCAL/MOL
REMARK 922        TOTAL FREE ENERGY PREDICTED BY IDOCK:   -5.33 KCAL/MOL
REMARK 923 INTER-LIGAND FREE ENERGY PREDICTED BY IDOCK:   -5.06 KCAL/MOL
REMARK 924 INTRA-LIGAND FREE ENERGY PREDICTED BY IDOCK:   -0.27 KCAL/MOL
REMARK 927      BINDING AFFINITY PREDICTED BY RF-SCORE:    0.00 PKD
ROOT
HETATM    1  C   UNL     1     -11.388   4.823  73.287  1.00  0.00    -0.408 C  
HETATM    2  C   UNL     1     -10.213   5.101  72.360  1.00  0.00    -0.198 C  
ENDROOT
BRANCH   2   3
HETATM    3  N   UNL     1     -10.088   6.545  72.110  1.00  0.00    -0.180 NA 
HETATM    4  H   UNL     1      -9.195   6.760  71.668  1.00  0.00     0.000 HD 
BRANCH   3   5
HETATM    5  C   UNL     1     -11.204   7.099  71.328  1.00  0.00    -0.259 C  
HETATM    6  C   UNL     1     -11.656   8.490  71.844  1.00  0.00    -0.410 C  
HETATM    7  C   UNL     1     -11.439   9.834  71.120  1.00  0.00    -0.398 C  
HETATM    8  S   UNL     1     -10.667   9.844  69.515  1.00  0.00    -0.255 S  
HETATM    9  C   UNL     1     -12.758  10.616  71.093  1.00  0.00    -0.522 C  
HETATM   10  C   UNL     1     -10.554   8.147  69.106  1.00  0.00    -0.166 A  
HETATM   11  O   UNL     1      -9.300  10.298  69.648  1.00  0.00    -0.205 OA 
HETATM   12  O   UNL     1     -11.578  10.396  68.534  1.00  0.00    -0.226 OA 
HETATM   13  C   UNL     1     -10.810   7.034  69.874  1.00  0.00    -0.280 A  
HETATM   14  C   UNL     1     -10.673   5.843  69.077  1.00  0.00    -0.379 A  
HETATM   15  C   UNL     1     -10.301   6.111  67.771  1.00  0.00    -0.198 A  
HETATM   16  S   UNL     1     -10.092   7.783  67.512  1.00  0.00    -0.232 SA 
BRANCH  15  17
HETATM   17  S   UNL     1     -10.043   5.079  66.340  1.00  0.00    -0.274 S  
HETATM   18  O   UNL     1      -8.902   5.663  65.674  1.00  0.00    -0.152 OA 
HETATM   19  N   UNL     1      -9.563   3.576  66.918  1.00  0.00    -0.357 N  
HETATM   20  O   UNL     1     -11.334   4.928  65.716  1.00  0.00     0.039 OA 
HETATM   21  H1  UNL     1      -9.416   2.985  66.099  1.00  0.00     0.000 HD 
HETATM   22  H2  UNL     1      -9.443   3.306  67.894  1.00  0.00     0.000 HD 
ENDBRANCH  15  17
ENDBRANCH   3   5
ENDBRANCH   2   3
TORSDOF 3
ENDMDL
MODEL       74
REMARK 921   NORMALIZED FREE ENERGY PREDICTED BY IDOCK:   -4.21 KCAL/MOL
REMARK 922        TOTAL FREE ENERGY PREDICTED BY IDOCK:   -5.31 KCAL/MOL
REMARK 923 INTER-LIGAND FREE ENERGY PREDICTED BY IDOCK:   -4.99 KCAL/MOL
REMARK 924 INTRA-LIGAND FREE ENERGY PREDICTED BY IDOCK:   -0.32 KCAL/MOL
REMARK 927      BINDING AFFINITY PREDICTED BY RF-SCORE:    0.00 PKD
ROOT
HETATM    1  C   UNL     1     -11.693  12.310  66.739  1.00  0.00    -0.411 C  
HETATM    2  C   UNL     1     -11.898  12.233  68.245  1.00  0.00    -0.310 C  
ENDROOT
BRANCH   2   3
HETATM    3  N   UNL     1     -12.062  10.835  68.670  1.00  0.00    -0.816 NA 
HETATM    4  H   UNL     1     -12.110  10.215  67.862  1.00  0.00     0.000 HD 
BRANCH   3   5
HETATM    5  C   UNL     1     -11.024  10.387  69.612  1.00  0.00    -0.277 C  
HETATM    6  C   UNL     1     -11.621   9.700  70.868  1.00  0.00    -0.420 C  
HETATM    7  C   UNL     1     -11.539   8.196  71.197  1.00  0.00    -0.279 C  
HETATM    8  S   UNL     1     -10.633   7.115  70.109  1.00  0.00    -0.236 S  
HETATM    9  C   UNL     1     -11.077   8.018  72.648  1.00  0.00    -0.453 C  
HETATM   10  C   UNL     1      -9.862   8.215  68.990  1.00  0.00    -0.176 A  
HETATM   11  O   UNL     1     -11.568   6.350  69.313  1.00  0.00    -0.354 OA 
HETATM   12  O   UNL     1      -9.538   6.498  70.828  1.00  0.00    -0.177 OA 
HETATM   13  C   UNL     1     -10.028   9.572  68.828  1.00  0.00    -0.185 A  
HETATM   14  C   UNL     1      -9.102  10.068  67.843  1.00  0.00    -0.135 A  
HETATM   15  C   UNL     1      -8.311   9.070  67.299  1.00  0.00    -0.111 A  
HETATM   16  S   UNL     1      -8.697   7.543  67.950  1.00  0.00    -0.123 SA 
BRANCH  15  17
HETATM   17  S   UNL     1      -6.980   9.080  66.113  1.00  0.00    -0.086 S  
HETATM   18  O   UNL     1      -7.390   8.131  65.103  1.00  0.00    -0.073 OA 
HETATM   19  N   UNL     1      -6.990  10.600  65.398  1.00  0.00    -0.327 N  
HETATM   20  O   UNL     1      -5.763   8.951  66.874  1.00  0.00    -0.043 OA 
HETATM   21  H1  UNL     1      -6.229  10.606  64.720  1.00  0.00     0.000 HD 
HETATM   22  H2  UNL     1      -7.632  11.367  65.602  1.00  0.00     0.000 HD 
ENDBRANCH  15  17
ENDBRANCH   3   5
ENDBRANCH   2   3
TORSDOF 3
ENDMDL
MODEL       75
REMARK 921   NORMALIZED FREE ENERGY PREDICTED BY IDOCK:   -4.21 KCAL/MOL
REMARK 922        TOTAL FREE ENERGY PREDICTED BY IDOCK:   -5.30 KCAL/MOL
REMARK 923 INTER-LIGAND FREE ENERGY PREDICTED BY IDOCK:   -4.95 KCAL/MOL
REMARK 924 INTRA-LIGAND FREE ENERGY PREDICTED BY IDOCK:   -0.35 KCAL/MOL
REMARK 927      BINDING AFFINITY PREDICTED BY RF-SCORE:    0.00 PKD
ROOT
HETATM    1  C   UNL     1     -11.616  12.229  66.436  1.00  0.00    -0.445 C  
HETATM    2  C   UNL     1     -11.876  12.266  67.936  1.00  0.00    -0.293 C  
ENDROOT
BRANCH   2   3
HETATM    3  N   UNL     1     -12.113  10.909  68.449  1.00  0.00    -0.818 NA 
HETATM    4  H   UNL     1     -11.617  10.217  67.887  1.00  0.00     0.000 HD 
BRANCH   3   5
HETATM    5  C   UNL     1     -11.781  10.759  69.874  1.00  0.00    -0.333 C  
HETATM    6  C   UNL     1     -12.995  10.294  70.720  1.00  0.00    -0.408 C  
HETATM    7  C   UNL     1     -13.166   8.904  71.364  1.00  0.00    -0.262 C  
HETATM    8  S   UNL     1     -11.855   7.707  71.213  1.00  0.00    -0.298 S  
HETATM    9  C   UNL     1     -13.584   9.070  72.830  1.00  0.00    -0.285 C  
HETATM   10  C   UNL     1     -10.554   8.619  70.481  1.00  0.00    -0.217 A  
HETATM   11  O   UNL     1     -12.229   6.715  70.228  1.00  0.00    -0.294 OA 
HETATM   12  O   UNL     1     -11.360   7.352  72.526  1.00  0.00    -0.284 OA 
HETATM   13  C   UNL     1     -10.551   9.893  69.961  1.00  0.00    -0.335 A  
HETATM   14  C   UNL     1      -9.218  10.256  69.555  1.00  0.00    -0.191 A  
HETATM   15  C   UNL     1      -8.298   9.243  69.764  1.00  0.00    -0.142 A  
HETATM   16  S   UNL     1      -9.037   7.854  70.419  1.00  0.00    -0.154 SA 
BRANCH  15  17
HETATM   17  S   UNL     1      -6.534   9.128  69.524  1.00  0.00    -0.044 S  
HETATM   18  O   UNL     1      -6.251   7.713  69.606  1.00  0.00    -0.030 OA 
HETATM   19  N   UNL     1      -6.239   9.601  67.939  1.00  0.00    -0.052 N  
HETATM   20  O   UNL     1      -5.945  10.107  70.402  1.00  0.00    -0.070 OA 
HETATM   21  H1  UNL     1      -5.230   9.535  67.801  1.00  0.00     0.000 HD 
HETATM   22  H2  UNL     1      -6.931   9.896  67.250  1.00  0.00     0.000 HD 
ENDBRANCH  15  17
ENDBRANCH   3   5
ENDBRANCH   2   3
TORSDOF 3
ENDMDL
MODEL       76
REMARK 921   NORMALIZED FREE ENERGY PREDICTED BY IDOCK:   -4.18 KCAL/MOL
REMARK 922        TOTAL FREE ENERGY PREDICTED BY IDOCK:   -5.27 KCAL/MOL
REMARK 923 INTER-LIGAND FREE ENERGY PREDICTED BY IDOCK:   -4.86 KCAL/MOL
REMARK 924 INTRA-LIGAND FREE ENERGY PREDICTED BY IDOCK:   -0.40 KCAL/MOL
REMARK 927      BINDING AFFINITY PREDICTED BY RF-SCORE:    0.00 PKD
ROOT
HETATM    1  C   UNL     1     -10.882  13.944  64.480  1.00  0.00    -0.381 C  
HETATM    2  C   UNL     1     -11.871  13.998  65.636  1.00  0.00    -0.377 C  
ENDROOT
BRANCH   2   3
HETATM    3  N   UNL     1     -11.417  14.956  66.655  1.00  0.00    -0.332 NA 
HETATM    4  H   UNL     1     -11.128  14.471  67.504  1.00  0.00     0.000 HD 
BRANCH   3   5
HETATM    5  C   UNL     1     -10.354  15.853  66.178  1.00  0.00    -0.328 C  
HETATM    6  C   UNL     1     -10.858  17.303  65.954  1.00  0.00    -0.003 C  
HETATM    7  C   UNL     1     -10.497  18.526  66.820  1.00  0.00    -0.394 C  
HETATM    8  S   UNL     1      -9.351  18.331  68.170  1.00  0.00    -0.306 S  
HETATM    9  C   UNL     1     -10.072  19.686  65.911  1.00  0.00    -0.485 C  
HETATM   10  C   UNL     1      -8.762  16.695  67.971  1.00  0.00    -0.194 A  
HETATM   11  O   UNL     1     -10.083  18.326  69.418  1.00  0.00    -0.197 OA 
HETATM   12  O   UNL     1      -8.188  19.166  67.953  1.00  0.00    -0.275 OA 
HETATM   13  C   UNL     1      -9.184  15.702  67.116  1.00  0.00    -0.226 A  
HETATM   14  C   UNL     1      -8.332  14.549  67.243  1.00  0.00    -0.232 A  
HETATM   15  C   UNL     1      -7.338  14.717  68.192  1.00  0.00    -0.125 A  
HETATM   16  S   UNL     1      -7.445  16.243  68.945  1.00  0.00    -0.219 SA 
BRANCH  15  17
HETATM   17  S   UNL     1      -5.984  13.691  68.736  1.00  0.00    -0.091 S  
HETATM   18  O   UNL     1      -5.268  14.512  69.685  1.00  0.00    -0.092 OA 
HETATM   19  N   UNL     1      -6.667  12.419  69.596  1.00  0.00    -0.338 N  
HETATM   20  O   UNL     1      -5.383  13.153  67.541  1.00  0.00    -0.268 OA 
HETATM   21  H1  UNL     1      -5.893  11.833  69.907  1.00  0.00     0.000 HD 
HETATM   22  H2  UNL     1      -7.659  12.264  69.773  1.00  0.00     0.000 HD 
ENDBRANCH  15  17
ENDBRANCH   3   5
ENDBRANCH   2   3
TORSDOF 3
ENDMDL
MODEL       77
REMARK 921   NORMALIZED FREE ENERGY PREDICTED BY IDOCK:   -4.16 KCAL/MOL
REMARK 922        TOTAL FREE ENERGY PREDICTED BY IDOCK:   -5.24 KCAL/MOL
REMARK 923 INTER-LIGAND FREE ENERGY PREDICTED BY IDOCK:   -4.84 KCAL/MOL
REMARK 924 INTRA-LIGAND FREE ENERGY PREDICTED BY IDOCK:   -0.40 KCAL/MOL
REMARK 927      BINDING AFFINITY PREDICTED BY RF-SCORE:    0.00 PKD
ROOT
HETATM    1  C   UNL     1      -9.120   4.464  66.464  1.00  0.00    -0.123 C  
HETATM    2  C   UNL     1     -10.612   4.764  66.443  1.00  0.00    -0.153 C  
ENDROOT
BRANCH   2   3
HETATM    3  N   UNL     1     -10.842   6.216  66.427  1.00  0.00    -0.623 NA 
HETATM    4  H   UNL     1     -11.742   6.444  66.850  1.00  0.00     0.000 HD 
BRANCH   3   5
HETATM    5  C   UNL     1      -9.758   6.985  67.057  1.00  0.00    -0.167 C  
HETATM    6  C   UNL     1      -9.159   8.053  66.106  1.00  0.00    -0.224 C  
HETATM    7  C   UNL     1      -9.333   9.579  66.240  1.00  0.00    -0.188 C  
HETATM    8  S   UNL     1     -10.236  10.234  67.629  1.00  0.00    -0.220 S  
HETATM    9  C   UNL     1      -7.965  10.261  66.112  1.00  0.00    -0.131 C  
HETATM   10  C   UNL     1     -10.513   8.829  68.634  1.00  0.00    -0.183 A  
HETATM   11  O   UNL     1     -11.548  10.654  67.187  1.00  0.00    -0.321 OA 
HETATM   12  O   UNL     1      -9.373  11.085  68.420  1.00  0.00    -0.164 OA 
HETATM   13  C   UNL     1     -10.279   7.498  68.376  1.00  0.00    -0.211 A  
HETATM   14  C   UNL     1     -10.574   6.710  69.544  1.00  0.00    -0.281 A  
HETATM   15  C   UNL     1     -11.035   7.472  70.604  1.00  0.00    -0.249 A  
HETATM   16  S   UNL     1     -11.136   9.122  70.188  1.00  0.00    -0.187 SA 
BRANCH  15  17
HETATM   17  S   UNL     1     -11.492   7.079  72.282  1.00  0.00    -0.263 S  
HETATM   18  O   UNL     1     -10.570   7.838  73.095  1.00  0.00    -0.359 OA 
HETATM   19  N   UNL     1     -13.021   7.734  72.524  1.00  0.00    -0.509 N  
HETATM   20  O   UNL     1     -11.606   5.643  72.341  1.00  0.00    -0.284 OA 
HETATM   21  H1  UNL     1     -13.282   7.509  73.484  1.00  0.00     0.000 HD 
HETATM   22  H2  UNL     1     -13.577   8.255  71.846  1.00  0.00     0.000 HD 
ENDBRANCH  15  17
ENDBRANCH   3   5
ENDBRANCH   2   3
TORSDOF 3
ENDMDL
MODEL       78
REMARK 921   NORMALIZED FREE ENERGY PREDICTED BY IDOCK:   -4.15 KCAL/MOL
REMARK 922        TOTAL FREE ENERGY PREDICTED BY IDOCK:   -5.24 KCAL/MOL
REMARK 923 INTER-LIGAND FREE ENERGY PREDICTED BY IDOCK:   -4.81 KCAL/MOL
REMARK 924 INTRA-LIGAND FREE ENERGY PREDICTED BY IDOCK:   -0.43 KCAL/MOL
REMARK 927      BINDING AFFINITY PREDICTED BY RF-SCORE:    0.00 PKD
ROOT
HETATM    1  C   UNL     1      -5.586  11.600  66.558  1.00  0.00    -0.065 C  
HETATM    2  C   UNL     1      -6.125  10.284  66.016  1.00  0.00    -0.092 C  
ENDROOT
BRANCH   2   3
HETATM    3  N   UNL     1      -6.753  10.489  64.703  1.00  0.00    -0.346 NA 
HETATM    4  H   UNL     1      -6.077  10.348  63.952  1.00  0.00     0.000 HD 
BRANCH   3   5
HETATM    5  C   UNL     1      -7.947   9.656  64.492  1.00  0.00    -0.140 C  
HETATM    6  C   UNL     1      -7.730   8.185  64.936  1.00  0.00    -0.116 C  
HETATM    7  C   UNL     1      -8.371   7.511  66.165  1.00  0.00    -0.138 C  
HETATM    8  S   UNL     1      -9.524   8.433  67.162  1.00  0.00    -0.175 S  
HETATM    9  C   UNL     1      -8.970   6.161  65.751  1.00  0.00    -0.099 C  
HETATM   10  C   UNL     1      -9.765   9.905  66.250  1.00  0.00    -0.222 A  
HETATM   11  O   UNL     1      -8.872   8.843  68.387  1.00  0.00    -0.133 OA 
HETATM   12  O   UNL     1     -10.816   7.780  67.150  1.00  0.00    -0.313 OA 
HETATM   13  C   UNL     1      -9.111  10.369  65.131  1.00  0.00    -0.232 A  
HETATM   14  C   UNL     1      -9.723  11.589  64.673  1.00  0.00    -0.242 A  
HETATM   15  C   UNL     1     -10.779  11.994  65.473  1.00  0.00    -0.276 A  
HETATM   16  S   UNL     1     -11.015  10.927  66.781  1.00  0.00    -0.118 SA 
BRANCH  15  17
HETATM   17  S   UNL     1     -11.928  13.354  65.379  1.00  0.00    -0.414 S  
HETATM   18  O   UNL     1     -13.154  12.758  64.899  1.00  0.00    -0.833 OA 
HETATM   19  N   UNL     1     -12.206  13.852  66.960  1.00  0.00    -0.474 N  
HETATM   20  O   UNL     1     -11.239  14.416  64.690  1.00  0.00    -0.377 OA 
HETATM   21  H1  UNL     1     -12.863  14.629  66.907  1.00  0.00     0.000 HD 
HETATM   22  H2  UNL     1     -11.798  13.454  67.806  1.00  0.00     0.000 HD 
ENDBRANCH  15  17
ENDBRANCH   3   5
ENDBRANCH   2   3
TORSDOF 3
ENDMDL
MODEL       79
REMARK 921   NORMALIZED FREE ENERGY PREDICTED BY IDOCK:   -4.14 KCAL/MOL
REMARK 922        TOTAL FREE ENERGY PREDICTED BY IDOCK:   -5.22 KCAL/MOL
REMARK 923 INTER-LIGAND FREE ENERGY PREDICTED BY IDOCK:   -4.80 KCAL/MOL
REMARK 924 INTRA-LIGAND FREE ENERGY PREDICTED BY IDOCK:   -0.42 KCAL/MOL
REMARK 927      BINDING AFFINITY PREDICTED BY RF-SCORE:    0.00 PKD
ROOT
HETATM    1  C   UNL     1     -11.991  13.463  63.656  1.00  0.00    -0.504 C  
HETATM    2  C   UNL     1     -11.066  12.264  63.502  1.00  0.00    -0.464 C  
ENDROOT
BRANCH   2   3
HETATM    3  N   UNL     1      -9.902  12.398  64.390  1.00  0.00    -0.526 NA 
HETATM    4  H   UNL     1      -9.571  13.362  64.411  1.00  0.00     0.000 HD 
BRANCH   3   5
HETATM    5  C   UNL     1     -10.149  11.901  65.753  1.00  0.00    -0.241 C  
HETATM    6  C   UNL     1      -9.537  10.496  65.992  1.00  0.00    -0.242 C  
HETATM    7  C   UNL     1      -8.318  10.183  66.883  1.00  0.00    -0.122 C  
HETATM    8  S   UNL     1      -7.546  11.502  67.796  1.00  0.00    -0.118 S  
HETATM    9  C   UNL     1      -8.653   9.006  67.807  1.00  0.00    -0.121 C  
HETATM   10  C   UNL     1      -8.624  12.857  67.547  1.00  0.00    -0.188 A  
HETATM   11  O   UNL     1      -6.308  11.871  67.143  1.00  0.00    -0.127 OA 
HETATM   12  O   UNL     1      -7.625  11.229  69.216  1.00  0.00    -0.107 OA 
HETATM   13  C   UNL     1      -9.710  12.979  66.711  1.00  0.00    -0.248 A  
HETATM   14  C   UNL     1     -10.350  14.252  66.919  1.00  0.00    -0.268 A  
HETATM   15  C   UNL     1      -9.710  15.026  67.871  1.00  0.00    -0.212 A  
HETATM   16  S   UNL     1      -8.331  14.239  68.492  1.00  0.00    -0.143 SA 
BRANCH  15  17
HETATM   17  S   UNL     1     -10.060  16.624  68.580  1.00  0.00    -0.288 S  
HETATM   18  O   UNL     1     -10.454  16.337  69.941  1.00  0.00    -0.276 OA 
HETATM   19  N   UNL     1      -8.595  17.445  68.651  1.00  0.00    -0.274 N  
HETATM   20  O   UNL     1     -10.910  17.305  67.635  1.00  0.00    -0.335 OA 
HETATM   21  H1  UNL     1      -8.795  18.359  69.057  1.00  0.00     0.000 HD 
HETATM   22  H2  UNL     1      -7.685  17.097  68.349  1.00  0.00     0.000 HD 
ENDBRANCH  15  17
ENDBRANCH   3   5
ENDBRANCH   2   3
TORSDOF 3
ENDMDL
MODEL       80
REMARK 921   NORMALIZED FREE ENERGY PREDICTED BY IDOCK:   -4.10 KCAL/MOL
REMARK 922        TOTAL FREE ENERGY PREDICTED BY IDOCK:   -5.17 KCAL/MOL
REMARK 923 INTER-LIGAND FREE ENERGY PREDICTED BY IDOCK:   -4.85 KCAL/MOL
REMARK 924 INTRA-LIGAND FREE ENERGY PREDICTED BY IDOCK:   -0.32 KCAL/MOL
REMARK 927      BINDING AFFINITY PREDICTED BY RF-SCORE:    0.00 PKD
ROOT
HETATM    1  C   UNL     1      -5.928  16.729  67.280  1.00  0.00    -0.200 C  
HETATM    2  C   UNL     1      -7.239  15.974  67.111  1.00  0.00    -0.222 C  
ENDROOT
BRANCH   2   3
HETATM    3  N   UNL     1      -7.109  14.601  67.621  1.00  0.00    -0.172 NA 
HETATM    4  H   UNL     1      -6.372  14.544  68.324  1.00  0.00     0.000 HD 
BRANCH   3   5
HETATM    5  C   UNL     1      -8.370  14.051  68.141  1.00  0.00    -0.164 C  
HETATM    6  C   UNL     1      -9.361  15.158  68.585  1.00  0.00    -0.199 C  
HETATM    7  C   UNL     1     -10.671  15.538  67.865  1.00  0.00    -0.294 C  
HETATM    8  S   UNL     1     -11.175  14.612  66.429  1.00  0.00    -0.337 S  
HETATM    9  C   UNL     1     -11.810  15.616  68.888  1.00  0.00    -0.368 C  
HETATM   10  C   UNL     1     -10.030  13.291  66.373  1.00  0.00    -0.288 A  
HETATM   11  O   UNL     1     -10.913  15.397  65.242  1.00  0.00    -0.353 OA 
HETATM   12  O   UNL     1     -12.452  13.978  66.676  1.00  0.00    -0.420 OA 
HETATM   13  C   UNL     1      -8.892  13.076  67.116  1.00  0.00    -0.218 A  
HETATM   14  C   UNL     1      -8.320  11.797  66.783  1.00  0.00    -0.165 A  
HETATM   15  C   UNL     1      -9.033  11.130  65.801  1.00  0.00    -0.196 A  
HETATM   16  S   UNL     1     -10.365  12.048  65.264  1.00  0.00    -0.284 SA 
BRANCH  15  17
HETATM   17  S   UNL     1      -8.853   9.527  65.040  1.00  0.00    -0.207 S  
HETATM   18  O   UNL     1      -7.512   9.113  65.383  1.00  0.00    -0.091 OA 
HETATM   19  N   UNL     1      -9.911   8.498  65.844  1.00  0.00    -0.463 N  
HETATM   20  O   UNL     1      -9.316   9.674  63.682  1.00  0.00    -0.211 OA 
HETATM   21  H1  UNL     1      -9.809   7.581  65.409  1.00  0.00     0.000 HD 
HETATM   22  H2  UNL     1     -10.532   8.741  66.615  1.00  0.00     0.000 HD 
ENDBRANCH  15  17
ENDBRANCH   3   5
ENDBRANCH   2   3
TORSDOF 3
ENDMDL
MODEL       81
REMARK 921   NORMALIZED FREE ENERGY PREDICTED BY IDOCK:   -4.09 KCAL/MOL
REMARK 922        TOTAL FREE ENERGY PREDICTED BY IDOCK:   -5.17 KCAL/MOL
REMARK 923 INTER-LIGAND FREE ENERGY PREDICTED BY IDOCK:   -4.77 KCAL/MOL
REMARK 924 INTRA-LIGAND FREE ENERGY PREDICTED BY IDOCK:   -0.40 KCAL/MOL
REMARK 927      BINDING AFFINITY PREDICTED BY RF-SCORE:    0.00 PKD
ROOT
HETATM    1  C   UNL     1     -12.762   9.974  71.692  1.00  0.00    -0.535 C  
HETATM    2  C   UNL     1     -12.500  11.358  71.115  1.00  0.00    -0.360 C  
ENDROOT
BRANCH   2   3
HETATM    3  N   UNL     1     -11.317  11.333  70.241  1.00  0.00    -0.491 NA 
HETATM    4  H   UNL     1     -10.650  10.629  70.555  1.00  0.00     0.000 HD 
BRANCH   3   5
HETATM    5  C   UNL     1     -11.648  11.143  68.820  1.00  0.00    -0.322 C  
HETATM    6  C   UNL     1     -11.895  12.485  68.084  1.00  0.00    -0.371 C  
HETATM    7  C   UNL     1     -10.965  13.120  67.031  1.00  0.00    -0.269 C  
HETATM    8  S   UNL     1      -9.497  12.247  66.525  1.00  0.00    -0.237 S  
HETATM    9  C   UNL     1     -11.793  13.543  65.811  1.00  0.00    -0.403 C  
HETATM   10  C   UNL     1      -9.664  10.687  67.299  1.00  0.00    -0.168 A  
HETATM   11  O   UNL     1      -8.343  12.861  67.145  1.00  0.00    -0.184 OA 
HETATM   12  O   UNL     1      -9.559  11.961  65.108  1.00  0.00    -0.212 OA 
HETATM   13  C   UNL     1     -10.584  10.255  68.226  1.00  0.00    -0.255 A  
HETATM   14  C   UNL     1     -10.386   8.856  68.501  1.00  0.00    -0.229 A  
HETATM   15  C   UNL     1      -9.325   8.314  67.795  1.00  0.00    -0.138 A  
HETATM   16  S   UNL     1      -8.555   9.488  66.829  1.00  0.00    -0.128 SA 
BRANCH  15  17
HETATM   17  S   UNL     1      -8.652   6.667  67.677  1.00  0.00    -0.119 S  
HETATM   18  O   UNL     1      -7.415   6.729  68.421  1.00  0.00    -0.091 OA 
HETATM   19  N   UNL     1      -9.695   5.665  68.532  1.00  0.00    -0.129 N  
HETATM   20  O   UNL     1      -8.723   6.304  66.284  1.00  0.00    -0.131 OA 
HETATM   21  H1  UNL     1      -9.310   4.723  68.464  1.00  0.00     0.000 HD 
HETATM   22  H2  UNL     1     -10.545   5.943  69.022  1.00  0.00     0.000 HD 
ENDBRANCH  15  17
ENDBRANCH   3   5
ENDBRANCH   2   3
TORSDOF 3
ENDMDL
MODEL       82
REMARK 921   NORMALIZED FREE ENERGY PREDICTED BY IDOCK:   -4.05 KCAL/MOL
REMARK 922        TOTAL FREE ENERGY PREDICTED BY IDOCK:   -5.12 KCAL/MOL
REMARK 923 INTER-LIGAND FREE ENERGY PREDICTED BY IDOCK:   -4.79 KCAL/MOL
REMARK 924 INTRA-LIGAND FREE ENERGY PREDICTED BY IDOCK:   -0.32 KCAL/MOL
REMARK 927      BINDING AFFINITY PREDICTED BY RF-SCORE:    0.00 PKD
ROOT
HETATM    1  C   UNL     1     -13.922  12.743  72.049  1.00  0.00    -0.044 C  
HETATM    2  C   UNL     1     -12.683  13.453  71.522  1.00  0.00    -0.293 C  
ENDROOT
BRANCH   2   3
HETATM    3  N   UNL     1     -12.625  13.363  70.056  1.00  0.00    -0.112 NA 
HETATM    4  H   UNL     1     -12.892  14.249  69.628  1.00  0.00     0.000 HD 
BRANCH   3   5
HETATM    5  C   UNL     1     -11.318  12.913  69.552  1.00  0.00    -0.153 C  
HETATM    6  C   UNL     1     -11.407  11.559  68.800  1.00  0.00    -0.327 C  
HETATM    7  C   UNL     1     -11.244  11.360  67.280  1.00  0.00    -0.304 C  
HETATM    8  S   UNL     1     -10.851  12.762  66.255  1.00  0.00    -0.281 S  
HETATM    9  C   UNL     1     -10.268  10.206  67.020  1.00  0.00    -0.290 C  
HETATM   10  C   UNL     1     -10.537  14.037  67.411  1.00  0.00    -0.278 A  
HETATM   11  O   UNL     1     -12.039  13.176  65.540  1.00  0.00    -0.390 OA 
HETATM   12  O   UNL     1      -9.581  12.547  65.594  1.00  0.00    -0.203 OA 
HETATM   13  C   UNL     1     -10.717  14.057  68.775  1.00  0.00    -0.272 A  
HETATM   14  C   UNL     1     -10.226  15.296  69.319  1.00  0.00    -0.250 A  
HETATM   15  C   UNL     1      -9.728  16.149  68.348  1.00  0.00    -0.219 A  
HETATM   16  S   UNL     1      -9.876  15.474  66.790  1.00  0.00    -0.251 SA 
BRANCH  15  17
HETATM   17  S   UNL     1      -8.951  17.752  68.415  1.00  0.00    -0.280 S  
HETATM   18  O   UNL     1      -7.590  17.477  68.815  1.00  0.00    -0.261 OA 
HETATM   19  N   UNL     1      -8.898  18.322  66.835  1.00  0.00    -0.267 N  
HETATM   20  O   UNL     1      -9.843  18.599  69.167  1.00  0.00    -0.319 OA 
HETATM   21  H1  UNL     1      -8.454  19.239  66.873  1.00  0.00     0.000 HD 
HETATM   22  H2  UNL     1      -9.242  17.844  66.002  1.00  0.00     0.000 HD 
ENDBRANCH  15  17
ENDBRANCH   3   5
ENDBRANCH   2   3
TORSDOF 3
ENDMDL
MODEL       83
REMARK 921   NORMALIZED FREE ENERGY PREDICTED BY IDOCK:   -4.05 KCAL/MOL
REMARK 922        TOTAL FREE ENERGY PREDICTED BY IDOCK:   -5.12 KCAL/MOL
REMARK 923 INTER-LIGAND FREE ENERGY PREDICTED BY IDOCK:   -4.67 KCAL/MOL
REMARK 924 INTRA-LIGAND FREE ENERGY PREDICTED BY IDOCK:   -0.44 KCAL/MOL
REMARK 927      BINDING AFFINITY PREDICTED BY RF-SCORE:    0.00 PKD
ROOT
HETATM    1  C   UNL     1     -10.931  10.835  68.340  1.00  0.00    -0.299 C  
HETATM    2  C   UNL     1     -11.932  10.649  69.471  1.00  0.00    -0.247 C  
ENDROOT
BRANCH   2   3
HETATM    3  N   UNL     1     -11.901   9.263  69.961  1.00  0.00    -0.450 NA 
HETATM    4  H   UNL     1     -12.306   8.628  69.273  1.00  0.00     0.000 HD 
BRANCH   3   5
HETATM    5  C   UNL     1     -10.558   8.815  70.358  1.00  0.00    -0.221 C  
HETATM    6  C   UNL     1     -10.298   8.993  71.877  1.00  0.00    -0.357 C  
HETATM    7  C   UNL     1     -10.188   7.856  72.912  1.00  0.00    -0.330 C  
HETATM    8  S   UNL     1     -10.292   6.165  72.362  1.00  0.00    -0.198 S  
HETATM    9  C   UNL     1      -8.938   8.072  73.773  1.00  0.00    -0.288 C  
HETATM   10  C   UNL     1     -10.286   6.302  70.619  1.00  0.00    -0.203 A  
HETATM   11  O   UNL     1     -11.595   5.635  72.701  1.00  0.00    -0.307 OA 
HETATM   12  O   UNL     1      -9.063   5.469  72.678  1.00  0.00    -0.138 OA 
HETATM   13  C   UNL     1     -10.371   7.419  69.820  1.00  0.00    -0.226 A  
HETATM   14  C   UNL     1     -10.227   7.048  68.436  1.00  0.00    -0.196 A  
HETATM   15  C   UNL     1     -10.067   5.684  68.260  1.00  0.00    -0.169 A  
HETATM   16  S   UNL     1     -10.118   4.853  69.747  1.00  0.00    -0.209 SA 
BRANCH  15  17
HETATM   17  S   UNL     1      -9.790   4.664  66.824  1.00  0.00    -0.226 S  
HETATM   18  O   UNL     1     -10.902   4.960  65.951  1.00  0.00    -0.289 OA 
HETATM   19  N   UNL     1      -8.404   5.256  66.081  1.00  0.00    -0.114 N  
HETATM   20  O   UNL     1      -9.501   3.342  67.321  1.00  0.00    -0.203 OA 
HETATM   21  H1  UNL     1      -8.245   4.673  65.260  1.00  0.00     0.000 HD 
HETATM   22  H2  UNL     1      -7.834   6.044  66.389  1.00  0.00     0.000 HD 
ENDBRANCH  15  17
ENDBRANCH   3   5
ENDBRANCH   2   3
TORSDOF 3
ENDMDL
MODEL       84
REMARK 921   NORMALIZED FREE ENERGY PREDICTED BY IDOCK:   -4.04 KCAL/MOL
REMARK 922        TOTAL FREE ENERGY PREDICTED BY IDOCK:   -5.10 KCAL/MOL
REMARK 923 INTER-LIGAND FREE ENERGY PREDICTED BY IDOCK:   -4.64 KCAL/MOL
REMARK 924 INTRA-LIGAND FREE ENERGY PREDICTED BY IDOCK:   -0.46 KCAL/MOL
REMARK 927      BINDING AFFINITY PREDICTED BY RF-SCORE:    0.00 PKD
ROOT
HETATM    1  C   UNL     1     -10.890  14.470  64.728  1.00  0.00    -0.410 C  
HETATM    2  C   UNL     1     -10.328  15.601  65.577  1.00  0.00    -0.396 C  
ENDROOT
BRANCH   2   3
HETATM    3  N   UNL     1      -9.059  15.194  66.199  1.00  0.00    -0.441 NA 
HETATM    4  H   UNL     1      -8.370  15.944  66.139  1.00  0.00     0.000 HD 
BRANCH   3   5
HETATM    5  C   UNL     1      -9.213  14.735  67.588  1.00  0.00    -0.191 C  
HETATM    6  C   UNL     1     -10.573  15.156  68.204  1.00  0.00    -0.246 C  
HETATM    7  C   UNL     1     -11.745  14.210  68.531  1.00  0.00    -0.345 C  
HETATM    8  S   UNL     1     -11.554  12.460  68.261  1.00  0.00    -0.349 S  
HETATM    9  C   UNL     1     -12.242  14.489  69.955  1.00  0.00    -0.396 C  
HETATM   10  C   UNL     1      -9.861  12.293  67.856  1.00  0.00    -0.201 A  
HETATM   11  O   UNL     1     -12.275  12.082  67.065  1.00  0.00    -0.516 OA 
HETATM   12  O   UNL     1     -11.702  11.750  69.514  1.00  0.00    -0.292 OA 
HETATM   13  C   UNL     1      -8.912  13.258  67.609  1.00  0.00    -0.199 A  
HETATM   14  C   UNL     1      -7.625  12.644  67.412  1.00  0.00    -0.150 A  
HETATM   15  C   UNL     1      -7.670  11.263  67.494  1.00  0.00    -0.122 A  
HETATM   16  S   UNL     1      -9.255  10.706  67.780  1.00  0.00    -0.148 SA 
BRANCH  15  17
HETATM   17  S   UNL     1      -6.421   9.994  67.399  1.00  0.00    -0.068 S  
HETATM   18  O   UNL     1      -5.897  10.102  66.057  1.00  0.00    -0.062 OA 
HETATM   19  N   UNL     1      -5.192  10.456  68.449  1.00  0.00    -0.035 N  
HETATM   20  O   UNL     1      -7.027   8.794  67.920  1.00  0.00    -0.076 OA 
HETATM   21  H1  UNL     1      -4.478   9.730  68.395  1.00  0.00     0.000 HD 
HETATM   22  H2  UNL     1      -5.166  11.297  69.026  1.00  0.00     0.000 HD 
ENDBRANCH  15  17
ENDBRANCH   3   5
ENDBRANCH   2   3
TORSDOF 3
ENDMDL
MODEL       85
REMARK 921   NORMALIZED FREE ENERGY PREDICTED BY IDOCK:   -4.04 KCAL/MOL
REMARK 922        TOTAL FREE ENERGY PREDICTED BY IDOCK:   -5.10 KCAL/MOL
REMARK 923 INTER-LIGAND FREE ENERGY PREDICTED BY IDOCK:   -4.69 KCAL/MOL
REMARK 924 INTRA-LIGAND FREE ENERGY PREDICTED BY IDOCK:   -0.42 KCAL/MOL
REMARK 927      BINDING AFFINITY PREDICTED BY RF-SCORE:    0.00 PKD
ROOT
HETATM    1  C   UNL     1     -11.982  10.620  70.834  1.00  0.00    -0.469 C  
HETATM    2  C   UNL     1     -11.763  11.713  69.798  1.00  0.00    -0.352 C  
ENDROOT
BRANCH   2   3
HETATM    3  N   UNL     1     -10.718  11.313  68.844  1.00  0.00    -0.199 NA 
HETATM    4  H   UNL     1     -10.055  10.673  69.280  1.00  0.00     0.000 HD 
BRANCH   3   5
HETATM    5  C   UNL     1     -11.254  10.742  67.599  1.00  0.00    -0.299 C  
HETATM    6  C   UNL     1     -11.247  11.760  66.428  1.00  0.00    -0.382 C  
HETATM    7  C   UNL     1     -10.322  11.708  65.195  1.00  0.00    -0.279 C  
HETATM    8  S   UNL     1      -9.190  10.346  65.012  1.00  0.00    -0.236 S  
HETATM    9  C   UNL     1     -11.160  11.893  63.924  1.00  0.00    -0.483 C  
HETATM   10  C   UNL     1      -9.645   9.260  66.306  1.00  0.00    -0.248 A  
HETATM   11  O   UNL     1      -7.853  10.792  65.338  1.00  0.00    -0.111 OA 
HETATM   12  O   UNL     1      -9.492   9.615  63.799  1.00  0.00    -0.148 OA 
HETATM   13  C   UNL     1     -10.525   9.447  67.347  1.00  0.00    -0.343 A  
HETATM   14  C   UNL     1     -10.649   8.233  68.111  1.00  0.00    -0.169 A  
HETATM   15  C   UNL     1      -9.850   7.211  67.629  1.00  0.00    -0.147 A  
HETATM   16  S   UNL     1      -8.934   7.716  66.283  1.00  0.00    -0.158 SA 
BRANCH  15  17
HETATM   17  S   UNL     1      -9.627   5.507  68.106  1.00  0.00    -0.124 S  
HETATM   18  O   UNL     1     -10.381   5.374  69.332  1.00  0.00    -0.242 OA 
HETATM   19  N   UNL     1     -10.408   4.581  66.942  1.00  0.00    -0.200 N  
HETATM   20  O   UNL     1      -8.213   5.245  68.012  1.00  0.00    -0.098 OA 
HETATM   21  H1  UNL     1     -10.281   3.606  67.215  1.00  0.00     0.000 HD 
HETATM   22  H2  UNL     1     -10.911   4.925  66.124  1.00  0.00     0.000 HD 
ENDBRANCH  15  17
ENDBRANCH   3   5
ENDBRANCH   2   3
TORSDOF 3
ENDMDL
MODEL       86
REMARK 921   NORMALIZED FREE ENERGY PREDICTED BY IDOCK:   -4.02 KCAL/MOL
REMARK 922        TOTAL FREE ENERGY PREDICTED BY IDOCK:   -5.08 KCAL/MOL
REMARK 923 INTER-LIGAND FREE ENERGY PREDICTED BY IDOCK:   -4.68 KCAL/MOL
REMARK 924 INTRA-LIGAND FREE ENERGY PREDICTED BY IDOCK:   -0.40 KCAL/MOL
REMARK 927      BINDING AFFINITY PREDICTED BY RF-SCORE:    0.00 PKD
ROOT
HETATM    1  C   UNL     1      -5.996   9.048  69.469  1.00  0.00    -0.036 C  
HETATM    2  C   UNL     1      -5.961   9.227  70.979  1.00  0.00    -0.064 C  
ENDROOT
BRANCH   2   3
HETATM    3  N   UNL     1      -7.294   8.995  71.555  1.00  0.00    -0.293 NA 
HETATM    4  H   UNL     1      -7.723   9.874  71.841  1.00  0.00     0.000 HD 
BRANCH   3   5
HETATM    5  C   UNL     1      -8.190   8.242  70.663  1.00  0.00    -0.112 C  
HETATM    6  C   UNL     1      -8.439   6.793  71.158  1.00  0.00    -0.125 C  
HETATM    7  C   UNL     1      -9.761   6.255  71.741  1.00  0.00    -0.153 C  
HETATM    8  S   UNL     1     -11.181   7.328  71.815  1.00  0.00    -0.254 S  
HETATM    9  C   UNL     1     -10.116   4.930  71.057  1.00  0.00    -0.288 C  
HETATM   10  C   UNL     1     -10.665   8.748  70.935  1.00  0.00    -0.227 A  
HETATM   11  O   UNL     1     -11.372   7.770  73.180  1.00  0.00    -0.374 OA 
HETATM   12  O   UNL     1     -12.256   6.775  71.019  1.00  0.00    -0.377 OA 
HETATM   13  C   UNL     1      -9.422   9.084  70.449  1.00  0.00    -0.247 A  
HETATM   14  C   UNL     1      -9.500  10.313  69.703  1.00  0.00    -0.180 A  
HETATM   15  C   UNL     1     -10.775  10.850  69.684  1.00  0.00    -0.180 A  
HETATM   16  S   UNL     1     -11.867   9.896  70.580  1.00  0.00    -0.302 SA 
BRANCH  15  17
HETATM   17  S   UNL     1     -11.484  12.283  68.895  1.00  0.00    -0.327 S  
HETATM   18  O   UNL     1     -12.178  12.974  69.957  1.00  0.00    -0.299 OA 
HETATM   19  N   UNL     1     -10.195  13.256  68.429  1.00  0.00    -0.249 N  
HETATM   20  O   UNL     1     -12.137  11.803  67.702  1.00  0.00    -0.598 OA 
HETATM   21  H1  UNL     1     -10.600  14.076  67.978  1.00  0.00     0.000 HD 
HETATM   22  H2  UNL     1      -9.203  13.065  68.571  1.00  0.00     0.000 HD 
ENDBRANCH  15  17
ENDBRANCH   3   5
ENDBRANCH   2   3
TORSDOF 3
ENDMDL
MODEL       87
REMARK 921   NORMALIZED FREE ENERGY PREDICTED BY IDOCK:   -4.02 KCAL/MOL
REMARK 922        TOTAL FREE ENERGY PREDICTED BY IDOCK:   -5.08 KCAL/MOL
REMARK 923 INTER-LIGAND FREE ENERGY PREDICTED BY IDOCK:   -4.73 KCAL/MOL
REMARK 924 INTRA-LIGAND FREE ENERGY PREDICTED BY IDOCK:   -0.34 KCAL/MOL
REMARK 927      BINDING AFFINITY PREDICTED BY RF-SCORE:    0.00 PKD
ROOT
HETATM    1  C   UNL     1     -11.255   9.439  69.120  1.00  0.00     0.049 C  
HETATM    2  C   UNL     1      -9.791   9.692  68.791  1.00  0.00    -0.165 C  
ENDROOT
BRANCH   2   3
HETATM    3  N   UNL     1      -9.468  11.118  68.954  1.00  0.00    -0.338 NA 
HETATM    4  H   UNL     1      -8.833  11.258  69.740  1.00  0.00     0.000 HD 
BRANCH   3   5
HETATM    5  C   UNL     1      -8.932  11.736  67.732  1.00  0.00    -0.173 C  
HETATM    6  C   UNL     1      -9.173  10.865  66.472  1.00  0.00    -0.189 C  
HETATM    7  C   UNL     1     -10.156  11.186  65.328  1.00  0.00    -0.276 C  
HETATM    8  S   UNL     1     -11.073  12.712  65.372  1.00  0.00    -0.303 S  
HETATM    9  C   UNL     1      -9.441  11.020  63.982  1.00  0.00    -0.278 C  
HETATM   10  C   UNL     1     -10.373  13.571  66.725  1.00  0.00    -0.264 A  
HETATM   11  O   UNL     1     -12.439  12.434  65.759  1.00  0.00    -0.615 OA 
HETATM   12  O   UNL     1     -10.741  13.518  64.216  1.00  0.00    -0.403 OA 
HETATM   13  C   UNL     1      -9.467  13.144  67.669  1.00  0.00    -0.207 A  
HETATM   14  C   UNL     1      -9.107  14.236  68.535  1.00  0.00    -0.191 A  
HETATM   15  C   UNL     1      -9.768  15.411  68.222  1.00  0.00    -0.209 A  
HETATM   16  S   UNL     1     -10.836  15.196  66.911  1.00  0.00    -0.318 SA 
BRANCH  15  17
HETATM   17  S   UNL     1      -9.693  17.067  68.880  1.00  0.00    -0.233 S  
HETATM   18  O   UNL     1      -8.281  17.336  69.020  1.00  0.00    -0.213 OA 
HETATM   19  N   UNL     1     -10.275  18.085  67.676  1.00  0.00    -0.350 N  
HETATM   20  O   UNL     1     -10.621  17.102  69.983  1.00  0.00    -0.057 OA 
HETATM   21  H1  UNL     1     -10.232  19.031  68.053  1.00  0.00     0.000 HD 
HETATM   22  H2  UNL     1     -10.605  17.810  66.751  1.00  0.00     0.000 HD 
ENDBRANCH  15  17
ENDBRANCH   3   5
ENDBRANCH   2   3
TORSDOF 3
ENDMDL
MODEL       88
REMARK 921   NORMALIZED FREE ENERGY PREDICTED BY IDOCK:   -3.95 KCAL/MOL
REMARK 922        TOTAL FREE ENERGY PREDICTED BY IDOCK:   -4.99 KCAL/MOL
REMARK 923 INTER-LIGAND FREE ENERGY PREDICTED BY IDOCK:   -4.63 KCAL/MOL
REMARK 924 INTRA-LIGAND FREE ENERGY PREDICTED BY IDOCK:   -0.36 KCAL/MOL
REMARK 927      BINDING AFFINITY PREDICTED BY RF-SCORE:    0.00 PKD
ROOT
HETATM    1  C   UNL     1      -9.115   7.843  69.608  1.00  0.00    -0.153 C  
HETATM    2  C   UNL     1     -10.197   8.404  70.520  1.00  0.00    -0.196 C  
ENDROOT
BRANCH   2   3
HETATM    3  N   UNL     1     -10.258   9.869  70.401  1.00  0.00    -0.353 NA 
HETATM    4  H   UNL     1      -9.617  10.201  69.681  1.00  0.00     0.000 HD 
BRANCH   3   5
HETATM    5  C   UNL     1     -11.618  10.377  70.163  1.00  0.00    -0.312 C  
HETATM    6  C   UNL     1     -12.276  10.936  71.452  1.00  0.00    -0.332 C  
HETATM    7  C   UNL     1     -12.558  12.422  71.748  1.00  0.00    -0.016 C  
HETATM    8  S   UNL     1     -12.179  13.644  70.509  1.00  0.00    -0.343 S  
HETATM    9  C   UNL     1     -14.002  12.578  72.239  1.00  0.00    -0.062 C  
HETATM   10  C   UNL     1     -11.743  12.686  69.111  1.00  0.00    -0.321 A  
HETATM   11  O   UNL     1     -10.970  14.344  70.886  1.00  0.00     0.171 OA 
HETATM   12  O   UNL     1     -13.387  14.337  70.115  1.00  0.00     0.143 OA 
HETATM   13  C   UNL     1     -11.545  11.330  68.997  1.00  0.00    -0.386 A  
HETATM   14  C   UNL     1     -11.295  10.982  67.623  1.00  0.00    -0.355 A  
HETATM   15  C   UNL     1     -11.293  12.082  66.782  1.00  0.00    -0.339 A  
HETATM   16  S   UNL     1     -11.563  13.527  67.645  1.00  0.00    -0.360 SA 
BRANCH  15  17
HETATM   17  S   UNL     1     -11.105  12.270  65.019  1.00  0.00    -0.326 S  
HETATM   18  O   UNL     1     -11.043  10.917  64.516  1.00  0.00    -0.128 OA 
HETATM   19  N   UNL     1     -12.539  12.942  64.457  1.00  0.00    -0.656 N  
HETATM   20  O   UNL     1     -10.052  13.237  64.828  1.00  0.00    -0.306 OA 
HETATM   21  H1  UNL     1     -12.432  13.050  63.449  1.00  0.00     0.000 HD 
HETATM   22  H2  UNL     1     -13.356  13.193  65.014  1.00  0.00     0.000 HD 
ENDBRANCH  15  17
ENDBRANCH   3   5
ENDBRANCH   2   3
TORSDOF 3
ENDMDL
MODEL       89
REMARK 921   NORMALIZED FREE ENERGY PREDICTED BY IDOCK:   -3.89 KCAL/MOL
REMARK 922        TOTAL FREE ENERGY PREDICTED BY IDOCK:   -4.92 KCAL/MOL
REMARK 923 INTER-LIGAND FREE ENERGY PREDICTED BY IDOCK:   -4.49 KCAL/MOL
REMARK 924 INTRA-LIGAND FREE ENERGY PREDICTED BY IDOCK:   -0.44 KCAL/MOL
REMARK 927      BINDING AFFINITY PREDICTED BY RF-SCORE:    0.00 PKD
ROOT
HETATM    1  C   UNL     1      -8.147   8.785  63.122  1.00  0.00    -0.176 C  
HETATM    2  C   UNL     1      -9.269   9.720  62.692  1.00  0.00    -0.243 C  
ENDROOT
BRANCH   2   3
HETATM    3  N   UNL     1     -10.077  10.119  63.854  1.00  0.00    -0.478 NA 
HETATM    4  H   UNL     1     -10.680   9.354  64.156  1.00  0.00     0.000 HD 
BRANCH   3   5
HETATM    5  C   UNL     1      -9.272  10.624  64.977  1.00  0.00    -0.211 C  
HETATM    6  C   UNL     1      -9.230  12.174  65.026  1.00  0.00     0.335 C  
HETATM    7  C   UNL     1      -9.926  13.062  66.077  1.00  0.00    -0.276 C  
HETATM    8  S   UNL     1     -10.815  12.293  67.415  1.00  0.00    -0.250 S  
HETATM    9  C   UNL     1      -8.927  14.095  66.611  1.00  0.00    -0.193 C  
HETATM   10  C   UNL     1     -10.430  10.596  67.238  1.00  0.00    -0.246 A  
HETATM   11  O   UNL     1     -12.236  12.393  67.161  1.00  0.00    -0.492 OA 
HETATM   12  O   UNL     1     -10.222  12.672  68.681  1.00  0.00    -0.222 OA 
HETATM   13  C   UNL     1      -9.765   9.941  66.227  1.00  0.00    -0.281 A  
HETATM   14  C   UNL     1      -9.600   8.552  66.564  1.00  0.00    -0.303 A  
HETATM   15  C   UNL     1     -10.163   8.225  67.787  1.00  0.00    -0.223 A  
HETATM   16  S   UNL     1     -10.908   9.576  68.511  1.00  0.00    -0.076 SA 
BRANCH  15  17
HETATM   17  S   UNL     1     -10.223   6.719  68.739  1.00  0.00    -0.185 S  
HETATM   18  O   UNL     1      -9.230   6.905  69.772  1.00  0.00    -0.147 OA 
HETATM   19  N   UNL     1     -11.724   6.692  69.493  1.00  0.00    -0.657 N  
HETATM   20  O   UNL     1     -10.182   5.639  67.784  1.00  0.00    -0.162 OA 
HETATM   21  H1  UNL     1     -11.759   5.831  70.037  1.00  0.00     0.000 HD 
HETATM   22  H2  UNL     1     -12.456   7.398  69.421  1.00  0.00     0.000 HD 
ENDBRANCH  15  17
ENDBRANCH   3   5
ENDBRANCH   2   3
TORSDOF 3
ENDMDL
MODEL       90
REMARK 921   NORMALIZED FREE ENERGY PREDICTED BY IDOCK:   -3.88 KCAL/MOL
REMARK 922        TOTAL FREE ENERGY PREDICTED BY IDOCK:   -4.91 KCAL/MOL
REMARK 923 INTER-LIGAND FREE ENERGY PREDICTED BY IDOCK:   -4.53 KCAL/MOL
REMARK 924 INTRA-LIGAND FREE ENERGY PREDICTED BY IDOCK:   -0.38 KCAL/MOL
REMARK 927      BINDING AFFINITY PREDICTED BY RF-SCORE:    0.00 PKD
ROOT
HETATM    1  C   UNL     1     -11.644  12.822  63.640  1.00  0.00    -0.572 C  
HETATM    2  C   UNL     1     -10.595  11.950  62.966  1.00  0.00    -0.093 C  
ENDROOT
BRANCH   2   3
HETATM    3  N   UNL     1      -9.333  11.992  63.720  1.00  0.00    -0.499 NA 
HETATM    4  H   UNL     1      -9.352  12.735  64.418  1.00  0.00     0.000 HD 
BRANCH   3   5
HETATM    5  C   UNL     1      -8.981  10.704  64.337  1.00  0.00    -0.195 C  
HETATM    6  C   UNL     1      -7.604  10.174  63.858  1.00  0.00    -0.128 C  
HETATM    7  C   UNL     1      -6.320  10.102  64.708  1.00  0.00    -0.131 C  
HETATM    8  S   UNL     1      -6.379  10.596  66.418  1.00  0.00    -0.119 S  
HETATM    9  C   UNL     1      -5.692   8.711  64.566  1.00  0.00    -0.063 C  
HETATM   10  C   UNL     1      -8.085  10.849  66.710  1.00  0.00    -0.142 A  
HETATM   11  O   UNL     1      -5.768  11.900  66.558  1.00  0.00    -0.265 OA 
HETATM   12  O   UNL     1      -6.026   9.477  67.266  1.00  0.00    -0.048 OA 
HETATM   13  C   UNL     1      -9.140  10.861  65.828  1.00  0.00    -0.214 A  
HETATM   14  C   UNL     1     -10.380  11.012  66.544  1.00  0.00    -0.295 A  
HETATM   15  C   UNL     1     -10.200  11.131  67.911  1.00  0.00    -0.180 A  
HETATM   16  S   UNL     1      -8.548  11.087  68.329  1.00  0.00    -0.149 SA 
BRANCH  15  17
HETATM   17  S   UNL     1     -11.330  11.277  69.283  1.00  0.00    -0.316 S  
HETATM   18  O   UNL     1     -10.797  10.384  70.286  1.00  0.00    -0.292 OA 
HETATM   19  N   UNL     1     -11.162  12.842  69.872  1.00  0.00    -0.483 N  
HETATM   20  O   UNL     1     -12.654  11.148  68.728  1.00  0.00    -0.345 OA 
HETATM   21  H1  UNL     1     -11.808  12.926  70.657  1.00  0.00     0.000 HD 
HETATM   22  H2  UNL     1     -10.536  13.565  69.517  1.00  0.00     0.000 HD 
ENDBRANCH  15  17
ENDBRANCH   3   5
ENDBRANCH   2   3
TORSDOF 3
ENDMDL
MODEL       91
REMARK 921   NORMALIZED FREE ENERGY PREDICTED BY IDOCK:   -3.87 KCAL/MOL
REMARK 922        TOTAL FREE ENERGY PREDICTED BY IDOCK:   -4.90 KCAL/MOL
REMARK 923 INTER-LIGAND FREE ENERGY PREDICTED BY IDOCK:   -4.43 KCAL/MOL
REMARK 924 INTRA-LIGAND FREE ENERGY PREDICTED BY IDOCK:   -0.46 KCAL/MOL
REMARK 927      BINDING AFFINITY PREDICTED BY RF-SCORE:    0.00 PKD
ROOT
HETATM    1  C   UNL     1      -9.378   7.497  66.819  1.00  0.00    -0.209 C  
HETATM    2  C   UNL     1      -8.328   8.548  67.152  1.00  0.00    -0.111 C  
ENDROOT
BRANCH   2   3
HETATM    3  N   UNL     1      -8.108   8.610  68.605  1.00  0.00    -0.115 NA 
HETATM    4  H   UNL     1      -7.218   8.180  68.855  1.00  0.00     0.000 HD 
BRANCH   3   5
HETATM    5  C   UNL     1      -8.201   9.973  69.150  1.00  0.00    -0.137 C  
HETATM    6  C   UNL     1      -7.498  11.021  68.249  1.00  0.00    -0.092 C  
HETATM    7  C   UNL     1      -8.203  12.097  67.399  1.00  0.00    -0.175 C  
HETATM    8  S   UNL     1      -9.977  12.240  67.472  1.00  0.00    -0.201 S  
HETATM    9  C   UNL     1      -7.538  13.457  67.646  1.00  0.00    -0.177 C  
HETATM   10  C   UNL     1     -10.421  11.146  68.763  1.00  0.00    -0.203 A  
HETATM   11  O   UNL     1     -10.549  11.670  66.272  1.00  0.00    -0.241 OA 
HETATM   12  O   UNL     1     -10.345  13.551  67.963  1.00  0.00    -0.229 OA 
HETATM   13  C   UNL     1      -9.653  10.237  69.455  1.00  0.00    -0.237 A  
HETATM   14  C   UNL     1     -10.433   9.627  70.499  1.00  0.00    -0.367 A  
HETATM   15  C   UNL     1     -11.741  10.081  70.528  1.00  0.00    -0.318 A  
HETATM   16  S   UNL     1     -12.036  11.214  69.289  1.00  0.00    -0.315 SA 
BRANCH  15  17
HETATM   17  S   UNL     1     -13.125   9.747  71.602  1.00  0.00    -0.446 S  
HETATM   18  O   UNL     1     -14.087   9.080  70.755  1.00  0.00     0.043 OA 
HETATM   19  N   UNL     1     -12.592   8.620  72.729  1.00  0.00    -0.515 N  
HETATM   20  O   UNL     1     -13.400  10.980  72.297  1.00  0.00    -0.390 OA 
HETATM   21  H1  UNL     1     -13.383   8.429  73.343  1.00  0.00     0.000 HD 
HETATM   22  H2  UNL     1     -11.661   8.207  72.787  1.00  0.00     0.000 HD 
ENDBRANCH  15  17
ENDBRANCH   3   5
ENDBRANCH   2   3
TORSDOF 3
ENDMDL
MODEL       92
REMARK 921   NORMALIZED FREE ENERGY PREDICTED BY IDOCK:   -3.83 KCAL/MOL
REMARK 922        TOTAL FREE ENERGY PREDICTED BY IDOCK:   -4.86 KCAL/MOL
REMARK 923 INTER-LIGAND FREE ENERGY PREDICTED BY IDOCK:   -4.61 KCAL/MOL
REMARK 924 INTRA-LIGAND FREE ENERGY PREDICTED BY IDOCK:   -0.25 KCAL/MOL
REMARK 927      BINDING AFFINITY PREDICTED BY RF-SCORE:    0.00 PKD
ROOT
HETATM    1  C   UNL     1      -6.798  17.239  66.540  1.00  0.00    -0.292 C  
HETATM    2  C   UNL     1      -7.892  16.196  66.371  1.00  0.00    -0.162 C  
ENDROOT
BRANCH   2   3
HETATM    3  N   UNL     1      -7.504  14.936  67.023  1.00  0.00    -0.284 NA 
HETATM    4  H   UNL     1      -6.685  15.072  67.615  1.00  0.00     0.000 HD 
BRANCH   3   5
HETATM    5  C   UNL     1      -8.599  14.312  67.782  1.00  0.00    -0.177 C  
HETATM    6  C   UNL     1      -8.834  14.997  69.154  1.00  0.00    -0.184 C  
HETATM    7  C   UNL     1     -10.049  15.870  69.529  1.00  0.00    -0.277 C  
HETATM    8  S   UNL     1     -11.361  16.091  68.345  1.00  0.00    -0.319 S  
HETATM    9  C   UNL     1     -10.608  15.409  70.880  1.00  0.00    -0.019 C  
HETATM   10  C   UNL     1     -10.939  14.983  67.058  1.00  0.00    -0.318 A  
HETATM   11  O   UNL     1     -11.258  17.412  67.763  1.00  0.00    -0.135 OA 
HETATM   12  O   UNL     1     -12.601  15.572  68.882  1.00  0.00     0.096 OA 
HETATM   13  C   UNL     1      -9.796  14.242  66.869  1.00  0.00    -0.264 A  
HETATM   14  C   UNL     1      -9.942  13.396  65.713  1.00  0.00    -0.264 A  
HETATM   15  C   UNL     1     -11.163  13.558  65.081  1.00  0.00    -0.309 A  
HETATM   16  S   UNL     1     -12.117  14.738  65.856  1.00  0.00    -0.010 SA 
BRANCH  15  17
HETATM   17  S   UNL     1     -11.923  12.765  63.675  1.00  0.00    -0.566 S  
HETATM   18  O   UNL     1     -10.923  11.838  63.200  1.00  0.00    -0.310 OA 
HETATM   19  N   UNL     1     -13.200  11.853  64.277  1.00  0.00    -0.219 N  
HETATM   20  O   UNL     1     -12.472  13.825  62.866  1.00  0.00    -0.601 OA 
HETATM   21  H1  UNL     1     -13.634  11.400  63.473  1.00  0.00     0.000 HD 
HETATM   22  H2  UNL     1     -13.483  11.768  65.252  1.00  0.00     0.000 HD 
ENDBRANCH  15  17
ENDBRANCH   3   5
ENDBRANCH   2   3
TORSDOF 3
ENDMDL
MODEL       93
REMARK 921   NORMALIZED FREE ENERGY PREDICTED BY IDOCK:   -3.80 KCAL/MOL
REMARK 922        TOTAL FREE ENERGY PREDICTED BY IDOCK:   -4.82 KCAL/MOL
REMARK 923 INTER-LIGAND FREE ENERGY PREDICTED BY IDOCK:   -4.51 KCAL/MOL
REMARK 924 INTRA-LIGAND FREE ENERGY PREDICTED BY IDOCK:   -0.31 KCAL/MOL
REMARK 927      BINDING AFFINITY PREDICTED BY RF-SCORE:    0.00 PKD
ROOT
HETATM    1  C   UNL     1      -9.740   3.969  64.790  1.00  0.00    -0.187 C  
HETATM    2  C   UNL     1     -10.120   4.547  66.146  1.00  0.00    -0.258 C  
ENDROOT
BRANCH   2   3
HETATM    3  N   UNL     1     -10.373   5.991  66.035  1.00  0.00    -0.406 NA 
HETATM    4  H   UNL     1     -11.234   6.246  66.519  1.00  0.00     0.000 HD 
BRANCH   3   5
HETATM    5  C   UNL     1      -9.249   6.817  66.502  1.00  0.00    -0.162 C  
HETATM    6  C   UNL     1      -8.365   7.329  65.335  1.00  0.00    -0.127 C  
HETATM    7  C   UNL     1      -8.279   8.787  64.840  1.00  0.00    -0.159 C  
HETATM    8  S   UNL     1      -9.204  10.050  65.690  1.00  0.00    -0.205 S  
HETATM    9  C   UNL     1      -6.807   9.192  64.702  1.00  0.00    -0.086 C  
HETATM   10  C   UNL     1      -9.838   9.217  67.092  1.00  0.00    -0.195 A  
HETATM   11  O   UNL     1     -10.362  10.405  64.898  1.00  0.00    -0.317 OA 
HETATM   12  O   UNL     1      -8.299  11.041  66.233  1.00  0.00    -0.160 OA 
HETATM   13  C   UNL     1      -9.816   7.878  67.409  1.00  0.00    -0.237 A  
HETATM   14  C   UNL     1     -10.378   7.673  68.719  1.00  0.00    -0.218 A  
HETATM   15  C   UNL     1     -10.813   8.849  69.307  1.00  0.00    -0.096 A  
HETATM   16  S   UNL     1     -10.572  10.187  68.279  1.00  0.00    -0.242 SA 
BRANCH  15  17
HETATM   17  S   UNL     1     -11.521   9.228  70.899  1.00  0.00    -0.324 S  
HETATM   18  O   UNL     1     -12.221  10.475  70.696  1.00  0.00    -0.294 OA 
HETATM   19  N   UNL     1     -12.682   8.050  71.196  1.00  0.00    -0.498 N  
HETATM   20  O   UNL     1     -10.459   9.061  71.860  1.00  0.00    -0.343 OA 
HETATM   21  H1  UNL     1     -13.087   8.266  72.106  1.00  0.00     0.000 HD 
HETATM   22  H2  UNL     1     -12.934   7.272  70.586  1.00  0.00     0.000 HD 
ENDBRANCH  15  17
ENDBRANCH   3   5
ENDBRANCH   2   3
TORSDOF 3
ENDMDL
MODEL       94
REMARK 921   NORMALIZED FREE ENERGY PREDICTED BY IDOCK:   -3.80 KCAL/MOL
REMARK 922        TOTAL FREE ENERGY PREDICTED BY IDOCK:   -4.82 KCAL/MOL
REMARK 923 INTER-LIGAND FREE ENERGY PREDICTED BY IDOCK:   -4.51 KCAL/MOL
REMARK 924 INTRA-LIGAND FREE ENERGY PREDICTED BY IDOCK:   -0.31 KCAL/MOL
REMARK 927      BINDING AFFINITY PREDICTED BY RF-SCORE:    0.00 PKD
ROOT
HETATM    1  C   UNL     1     -12.858  15.548  71.879  1.00  0.00    -0.504 C  
HETATM    2  C   UNL     1     -11.564  15.260  71.131  1.00  0.00    -0.370 C  
ENDROOT
BRANCH   2   3
HETATM    3  N   UNL     1     -11.728  14.090  70.256  1.00  0.00    -0.427 NA 
HETATM    4  H   UNL     1     -12.662  13.693  70.352  1.00  0.00     0.000 HD 
BRANCH   3   5
HETATM    5  C   UNL     1     -11.422  14.371  68.845  1.00  0.00    -0.289 C  
HETATM    6  C   UNL     1     -11.467  15.887  68.519  1.00  0.00    -0.377 C  
HETATM    7  C   UNL     1     -10.249  16.777  68.203  1.00  0.00    -0.301 C  
HETATM    8  S   UNL     1      -8.629  16.041  68.124  1.00  0.00    -0.175 S  
HETATM    9  C   UNL     1     -10.535  17.599  66.941  1.00  0.00    -0.290 C  
HETATM   10  C   UNL     1      -8.955  14.326  68.241  1.00  0.00    -0.187 A  
HETATM   11  O   UNL     1      -7.896  16.376  69.326  1.00  0.00    -0.238 OA 
HETATM   12  O   UNL     1      -8.073  16.218  66.799  1.00  0.00    -0.207 OA 
HETATM   13  C   UNL     1     -10.131  13.667  68.515  1.00  0.00    -0.219 A  
HETATM   14  C   UNL     1      -9.934  12.245  68.409  1.00  0.00    -0.210 A  
HETATM   15  C   UNL     1      -8.631  11.905  68.088  1.00  0.00    -0.165 A  
HETATM   16  S   UNL     1      -7.644  13.287  67.942  1.00  0.00    -0.171 SA 
BRANCH  15  17
HETATM   17  S   UNL     1      -7.819  10.349  67.770  1.00  0.00    -0.101 S  
HETATM   18  O   UNL     1      -7.232  10.510  66.459  1.00  0.00    -0.110 OA 
HETATM   19  N   UNL     1      -6.553  10.240  68.870  1.00  0.00    -0.051 N  
HETATM   20  O   UNL     1      -8.780   9.323  68.088  1.00  0.00    -0.124 OA 
HETATM   21  H1  UNL     1      -6.089   9.351  68.688  1.00  0.00     0.000 HD 
HETATM   22  H2  UNL     1      -6.299  10.927  69.579  1.00  0.00     0.000 HD 
ENDBRANCH  15  17
ENDBRANCH   3   5
ENDBRANCH   2   3
TORSDOF 3
ENDMDL
MODEL       95
REMARK 921   NORMALIZED FREE ENERGY PREDICTED BY IDOCK:   -3.79 KCAL/MOL
REMARK 922        TOTAL FREE ENERGY PREDICTED BY IDOCK:   -4.81 KCAL/MOL
REMARK 923 INTER-LIGAND FREE ENERGY PREDICTED BY IDOCK:   -4.34 KCAL/MOL
REMARK 924 INTRA-LIGAND FREE ENERGY PREDICTED BY IDOCK:   -0.47 KCAL/MOL
REMARK 927      BINDING AFFINITY PREDICTED BY RF-SCORE:    0.00 PKD
ROOT
HETATM    1  C   UNL     1      -9.828   5.429  67.907  1.00  0.00    -0.179 C  
HETATM    2  C   UNL     1     -10.522   5.451  69.261  1.00  0.00    -0.239 C  
ENDROOT
BRANCH   2   3
HETATM    3  N   UNL     1     -11.505   6.544  69.316  1.00  0.00    -0.636 NA 
HETATM    4  H   UNL     1     -12.456   6.176  69.307  1.00  0.00     0.000 HD 
BRANCH   3   5
HETATM    5  C   UNL     1     -11.305   7.449  70.458  1.00  0.00    -0.271 C  
HETATM    6  C   UNL     1     -10.938   6.689  71.760  1.00  0.00    -0.276 C  
HETATM    7  C   UNL     1      -9.559   6.696  72.449  1.00  0.00    -0.147 C  
HETATM    8  S   UNL     1      -8.253   7.701  71.774  1.00  0.00    -0.112 S  
HETATM    9  C   UNL     1      -9.740   6.975  73.946  1.00  0.00    -0.331 C  
HETATM   10  C   UNL     1      -9.056   8.628  70.526  1.00  0.00    -0.165 A  
HETATM   11  O   UNL     1      -7.312   6.852  71.076  1.00  0.00    -0.075 OA 
HETATM   12  O   UNL     1      -7.836   8.686  72.749  1.00  0.00    -0.356 OA 
HETATM   13  C   UNL     1     -10.331   8.514  70.023  1.00  0.00    -0.213 A  
HETATM   14  C   UNL     1     -10.581   9.563  69.069  1.00  0.00    -0.238 A  
HETATM   15  C   UNL     1      -9.487  10.391  68.883  1.00  0.00    -0.186 A  
HETATM   16  S   UNL     1      -8.159   9.894  69.830  1.00  0.00    -0.173 SA 
BRANCH  15  17
HETATM   17  S   UNL     1      -9.218  11.856  67.903  1.00  0.00    -0.194 S  
HETATM   18  O   UNL     1      -7.781  11.955  67.787  1.00  0.00    -0.119 OA 
HETATM   19  N   UNL     1      -9.817  11.518  66.369  1.00  0.00    -0.200 N  
HETATM   20  O   UNL     1     -10.040  12.887  68.488  1.00  0.00    -0.233 OA 
HETATM   21  H1  UNL     1      -9.664  12.356  65.808  1.00  0.00     0.000 HD 
HETATM   22  H2  UNL     1     -10.248  10.648  66.060  1.00  0.00     0.000 HD 
ENDBRANCH  15  17
ENDBRANCH   3   5
ENDBRANCH   2   3
TORSDOF 3
ENDMDL
MODEL       96
REMARK 921   NORMALIZED FREE ENERGY PREDICTED BY IDOCK:   -3.77 KCAL/MOL
REMARK 922        TOTAL FREE ENERGY PREDICTED BY IDOCK:   -4.78 KCAL/MOL
REMARK 923 INTER-LIGAND FREE ENERGY PREDICTED BY IDOCK:   -4.48 KCAL/MOL
REMARK 924 INTRA-LIGAND FREE ENERGY PREDICTED BY IDOCK:   -0.31 KCAL/MOL
REMARK 927      BINDING AFFINITY PREDICTED BY RF-SCORE:    0.00 PKD
ROOT
HETATM    1  C   UNL     1     -11.584   6.629  70.191  1.00  0.00    -0.446 C  
HETATM    2  C   UNL     1     -11.580   8.035  70.773  1.00  0.00    -0.242 C  
ENDROOT
BRANCH   2   3
HETATM    3  N   UNL     1     -11.243   9.019  69.733  1.00  0.00    -0.423 NA 
HETATM    4  H   UNL     1     -12.070   9.546  69.453  1.00  0.00     0.000 HD 
BRANCH   3   5
HETATM    5  C   UNL     1     -10.152   9.926  70.121  1.00  0.00    -0.255 C  
HETATM    6  C   UNL     1      -8.995   9.186  70.843  1.00  0.00    -0.298 C  
HETATM    7  C   UNL     1      -7.591   8.924  70.262  1.00  0.00    -0.077 C  
HETATM    8  S   UNL     1      -7.183   9.562  68.651  1.00  0.00    -0.074 S  
HETATM    9  C   UNL     1      -6.531   9.330  71.292  1.00  0.00    -0.066 C  
HETATM   10  C   UNL     1      -8.558  10.565  68.249  1.00  0.00    -0.127 A  
HETATM   11  O   UNL     1      -7.205   8.478  67.691  1.00  0.00    -0.082 OA 
HETATM   12  O   UNL     1      -6.073  10.486  68.754  1.00  0.00    -0.041 OA 
HETATM   13  C   UNL     1      -9.763  10.712  68.895  1.00  0.00    -0.210 A  
HETATM   14  C   UNL     1     -10.550  11.728  68.245  1.00  0.00    -0.236 A  
HETATM   15  C   UNL     1      -9.918  12.272  67.141  1.00  0.00    -0.205 A  
HETATM   16  S   UNL     1      -8.399  11.548  66.871  1.00  0.00    -0.169 SA 
BRANCH  15  17
HETATM   17  S   UNL     1     -10.356  13.573  66.002  1.00  0.00    -0.308 S  
HETATM   18  O   UNL     1      -9.396  14.620  66.264  1.00  0.00    -0.286 OA 
HETATM   19  N   UNL     1     -10.039  12.983  64.461  1.00  0.00    -0.592 N  
HETATM   20  O   UNL     1     -11.781  13.754  66.128  1.00  0.00    -0.339 OA 
HETATM   21  H1  UNL     1     -10.289  13.727  63.810  1.00  0.00     0.000 HD 
HETATM   22  H2  UNL     1      -9.668  12.064  64.223  1.00  0.00     0.000 HD 
ENDBRANCH  15  17
ENDBRANCH   3   5
ENDBRANCH   2   3
TORSDOF 3
ENDMDL
MODEL       97
REMARK 921   NORMALIZED FREE ENERGY PREDICTED BY IDOCK:   -3.75 KCAL/MOL
REMARK 922        TOTAL FREE ENERGY PREDICTED BY IDOCK:   -4.76 KCAL/MOL
REMARK 923 INTER-LIGAND FREE ENERGY PREDICTED BY IDOCK:   -4.40 KCAL/MOL
REMARK 924 INTRA-LIGAND FREE ENERGY PREDICTED BY IDOCK:   -0.37 KCAL/MOL
REMARK 927      BINDING AFFINITY PREDICTED BY RF-SCORE:    0.00 PKD
ROOT
HETATM    1  C   UNL     1      -7.930   9.758  70.192  1.00  0.00    -0.201 C  
HETATM    2  C   UNL     1      -8.863  10.696  69.440  1.00  0.00    -0.018 C  
ENDROOT
BRANCH   2   3
HETATM    3  N   UNL     1     -10.265  10.398  69.770  1.00  0.00    -0.374 NA 
HETATM    4  H   UNL     1     -10.640  11.093  70.415  1.00  0.00     0.000 HD 
BRANCH   3   5
HETATM    5  C   UNL     1     -11.126  10.266  68.585  1.00  0.00    -0.239 C  
HETATM    6  C   UNL     1     -11.371  11.623  67.875  1.00  0.00    -0.369 C  
HETATM    7  C   UNL     1     -10.795  12.042  66.507  1.00  0.00    -0.277 C  
HETATM    8  S   UNL     1      -9.810  10.880  65.585  1.00  0.00    -0.256 S  
HETATM    9  C   UNL     1     -11.919  12.613  65.636  1.00  0.00    -0.507 C  
HETATM   10  C   UNL     1      -9.969   9.396  66.497  1.00  0.00    -0.269 A  
HETATM   11  O   UNL     1      -8.415  11.248  65.692  1.00  0.00    -0.109 OA 
HETATM   12  O   UNL     1     -10.444  10.597  64.314  1.00  0.00    -0.349 OA 
HETATM   13  C   UNL     1     -10.545   9.172  67.726  1.00  0.00    -0.289 A  
HETATM   14  C   UNL     1     -10.525   7.764  68.030  1.00  0.00    -0.244 A  
HETATM   15  C   UNL     1      -9.923   7.009  67.039  1.00  0.00    -0.210 A  
HETATM   16  S   UNL     1      -9.359   7.989  65.764  1.00  0.00     0.170 SA 
BRANCH  15  17
HETATM   17  S   UNL     1      -9.664   5.257  66.828  1.00  0.00    -0.178 S  
HETATM   18  O   UNL     1     -10.242   4.662  68.010  1.00  0.00    -0.061 OA 
HETATM   19  N   UNL     1     -10.613   4.790  65.522  1.00  0.00    -0.506 N  
HETATM   20  O   UNL     1      -8.280   5.098  66.455  1.00  0.00    -0.108 OA 
HETATM   21  H1  UNL     1     -10.465   3.788  65.401  1.00  0.00     0.000 HD 
HETATM   22  H2  UNL     1     -11.218   5.389  64.962  1.00  0.00     0.000 HD 
ENDBRANCH  15  17
ENDBRANCH   3   5
ENDBRANCH   2   3
TORSDOF 3
ENDMDL
MODEL       98
REMARK 921   NORMALIZED FREE ENERGY PREDICTED BY IDOCK:   -3.75 KCAL/MOL
REMARK 922        TOTAL FREE ENERGY PREDICTED BY IDOCK:   -4.76 KCAL/MOL
REMARK 923 INTER-LIGAND FREE ENERGY PREDICTED BY IDOCK:   -4.35 KCAL/MOL
REMARK 924 INTRA-LIGAND FREE ENERGY PREDICTED BY IDOCK:   -0.41 KCAL/MOL
REMARK 927      BINDING AFFINITY PREDICTED BY RF-SCORE:    0.00 PKD
ROOT
HETATM    1  C   UNL     1     -11.837  12.798  67.716  1.00  0.00    -0.387 C  
HETATM    2  C   UNL     1     -12.103  11.915  68.927  1.00  0.00    -0.155 C  
ENDROOT
BRANCH   2   3
HETATM    3  N   UNL     1     -11.914  10.499  68.581  1.00  0.00    -0.769 NA 
HETATM    4  H   UNL     1     -11.995  10.358  67.574  1.00  0.00     0.000 HD 
BRANCH   3   5
HETATM    5  C   UNL     1     -10.651   9.939  69.086  1.00  0.00    -0.220 C  
HETATM    6  C   UNL     1     -10.869   8.940  70.252  1.00  0.00    -0.265 C  
HETATM    7  C   UNL     1     -10.670   7.413  70.179  1.00  0.00    -0.242 C  
HETATM    8  S   UNL     1     -10.073   6.683  68.668  1.00  0.00    -0.171 S  
HETATM    9  C   UNL     1      -9.828   6.952  71.374  1.00  0.00    -0.184 C  
HETATM   10  C   UNL     1      -9.657   8.068  67.683  1.00  0.00    -0.151 A  
HETATM   11  O   UNL     1     -11.174   6.042  67.982  1.00  0.00    -0.253 OA 
HETATM   12  O   UNL     1      -8.812   6.015  68.909  1.00  0.00    -0.120 OA 
HETATM   13  C   UNL     1      -9.888   9.407  67.899  1.00  0.00    -0.197 A  
HETATM   14  C   UNL     1      -9.276  10.188  66.856  1.00  0.00    -0.168 A  
HETATM   15  C   UNL     1      -8.643   9.408  65.903  1.00  0.00    -0.141 A  
HETATM   16  S   UNL     1      -8.806   7.746  66.247  1.00  0.00    -0.164 SA 
BRANCH  15  17
HETATM   17  S   UNL     1      -7.684   9.795  64.450  1.00  0.00    -0.140 S  
HETATM   18  O   UNL     1      -7.757   8.601  63.641  1.00  0.00    -0.121 OA 
HETATM   19  N   UNL     1      -8.526  10.999  63.633  1.00  0.00    -0.374 N  
HETATM   20  O   UNL     1      -6.445  10.359  64.925  1.00  0.00    -0.125 OA 
HETATM   21  H1  UNL     1      -7.978  11.221  62.801  1.00  0.00     0.000 HD 
HETATM   22  H2  UNL     1      -9.410  11.424  63.912  1.00  0.00     0.000 HD 
ENDBRANCH  15  17
ENDBRANCH   3   5
ENDBRANCH   2   3
TORSDOF 3
ENDMDL
MODEL       99
REMARK 921   NORMALIZED FREE ENERGY PREDICTED BY IDOCK:   -3.73 KCAL/MOL
REMARK 922        TOTAL FREE ENERGY PREDICTED BY IDOCK:   -4.73 KCAL/MOL
REMARK 923 INTER-LIGAND FREE ENERGY PREDICTED BY IDOCK:   -4.32 KCAL/MOL
REMARK 924 INTRA-LIGAND FREE ENERGY PREDICTED BY IDOCK:   -0.42 KCAL/MOL
REMARK 927      BINDING AFFINITY PREDICTED BY RF-SCORE:    0.00 PKD
ROOT
HETATM    1  C   UNL     1      -8.941  12.774  67.440  1.00  0.00    -0.195 C  
HETATM    2  C   UNL     1      -7.791  12.386  68.359  1.00  0.00    -0.142 C  
ENDROOT
BRANCH   2   3
HETATM    3  N   UNL     1      -8.115  11.154  69.093  1.00  0.00    -0.349 NA 
HETATM    4  H   UNL     1      -8.554  11.371  69.988  1.00  0.00     0.000 HD 
BRANCH   3   5
HETATM    5  C   UNL     1      -8.942  10.215  68.320  1.00  0.00    -0.120 C  
HETATM    6  C   UNL     1      -8.089   9.216  67.494  1.00  0.00    -0.104 C  
HETATM    7  C   UNL     1      -7.938   7.709  67.781  1.00  0.00    -0.121 C  
HETATM    8  S   UNL     1      -8.853   6.982  69.125  1.00  0.00    -0.134 S  
HETATM    9  C   UNL     1      -8.158   6.920  66.485  1.00  0.00    -0.111 C  
HETATM   10  C   UNL     1      -9.908   8.276  69.646  1.00  0.00    -0.184 A  
HETATM   11  O   UNL     1      -7.958   6.745  70.237  1.00  0.00    -0.111 OA 
HETATM   12  O   UNL     1      -9.748   5.963  68.616  1.00  0.00    -0.120 OA 
HETATM   13  C   UNL     1      -9.935   9.599  69.272  1.00  0.00    -0.197 A  
HETATM   14  C   UNL     1     -11.047  10.266  69.897  1.00  0.00    -0.362 A  
HETATM   15  C   UNL     1     -11.781   9.429  70.720  1.00  0.00    -0.282 A  
HETATM   16  S   UNL     1     -11.121   7.859  70.763  1.00  0.00    -0.257 SA 
BRANCH  15  17
HETATM   17  S   UNL     1     -13.263   9.661  71.686  1.00  0.00    -0.424 S  
HETATM   18  O   UNL     1     -14.307   9.047  70.898  1.00  0.00    -0.044 OA 
HETATM   19  N   UNL     1     -13.076   8.729  73.073  1.00  0.00    -0.561 N  
HETATM   20  O   UNL     1     -13.275  11.048  72.076  1.00  0.00    -0.499 OA 
HETATM   21  H1  UNL     1     -13.923   8.861  73.625  1.00  0.00     0.000 HD 
HETATM   22  H2  UNL     1     -12.275   8.147  73.314  1.00  0.00     0.000 HD 
ENDBRANCH  15  17
ENDBRANCH   3   5
ENDBRANCH   2   3
TORSDOF 3
ENDMDL
MODEL      100
REMARK 921   NORMALIZED FREE ENERGY PREDICTED BY IDOCK:   -3.72 KCAL/MOL
REMARK 922        TOTAL FREE ENERGY PREDICTED BY IDOCK:   -4.72 KCAL/MOL
REMARK 923 INTER-LIGAND FREE ENERGY PREDICTED BY IDOCK:   -4.36 KCAL/MOL
REMARK 924 INTRA-LIGAND FREE ENERGY PREDICTED BY IDOCK:   -0.36 KCAL/MOL
REMARK 927      BINDING AFFINITY PREDICTED BY RF-SCORE:    0.00 PKD
ROOT
HETATM    1  C   UNL     1     -12.537  12.913  63.171  1.00  0.00    -0.043 C  
HETATM    2  C   UNL     1     -11.934  11.824  64.047  1.00  0.00    -0.281 C  
ENDROOT
BRANCH   2   3
HETATM    3  N   UNL     1     -10.519  11.615  63.705  1.00  0.00    -0.384 NA 
HETATM    4  H   UNL     1     -10.244  12.211  62.925  1.00  0.00     0.000 HD 
BRANCH   3   5
HETATM    5  C   UNL     1      -9.611  11.796  64.847  1.00  0.00    -0.112 C  
HETATM    6  C   UNL     1      -9.769  13.187  65.516  1.00  0.00    -0.061 C  
HETATM    7  C   UNL     1     -10.389  13.456  66.901  1.00  0.00    -0.257 C  
HETATM    8  S   UNL     1     -10.927  12.080  67.897  1.00  0.00    -0.236 S  
HETATM    9  C   UNL     1      -9.461  14.377  67.703  1.00  0.00    -0.214 C  
HETATM   10  C   UNL     1     -10.354  10.686  67.009  1.00  0.00    -0.231 A  
HETATM   11  O   UNL     1     -12.371  11.997  67.852  1.00  0.00    -0.338 OA 
HETATM   12  O   UNL     1     -10.185  12.052  69.139  1.00  0.00    -0.028 OA 
HETATM   13  C   UNL     1      -9.789  10.607  65.757  1.00  0.00    -0.296 A  
HETATM   14  C   UNL     1      -9.385   9.253  65.484  1.00  0.00    -0.303 A  
HETATM   15  C   UNL     1      -9.683   8.384  66.519  1.00  0.00    -0.260 A  
HETATM   16  S   UNL     1     -10.469   9.187  67.801  1.00  0.00    -0.231 SA 
BRANCH  15  17
HETATM   17  S   UNL     1      -9.378   6.646  66.780  1.00  0.00    -0.162 S  
HETATM   18  O   UNL     1      -9.188   6.523  68.207  1.00  0.00    -0.119 OA 
HETATM   19  N   UNL     1     -10.809   5.850  66.400  1.00  0.00    -0.671 N  
HETATM   20  O   UNL     1      -8.382   6.263  65.811  1.00  0.00    -0.132 OA 
HETATM   21  H1  UNL     1     -10.635   4.856  66.549  1.00  0.00     0.000 HD 
HETATM   22  H2  UNL     1     -11.679   6.276  66.083  1.00  0.00     0.000 HD 
ENDBRANCH  15  17
ENDBRANCH   3   5
ENDBRANCH   2   3
TORSDOF 3
ENDMDL
MODEL      101
REMARK 921   NORMALIZED FREE ENERGY PREDICTED BY IDOCK:   -3.69 KCAL/MOL
REMARK 922        TOTAL FREE ENERGY PREDICTED BY IDOCK:   -4.70 KCAL/MOL
REMARK 923 INTER-LIGAND FREE ENERGY PREDICTED BY IDOCK:   -4.37 KCAL/MOL
REMARK 924 INTRA-LIGAND FREE ENERGY PREDICTED BY IDOCK:   -0.32 KCAL/MOL
REMARK 927      BINDING AFFINITY PREDICTED BY RF-SCORE:    0.00 PKD
ROOT
HETATM    1  C   UNL     1      -7.463   5.096  65.223  1.00  0.00    -0.073 C  
HETATM    2  C   UNL     1      -7.973   5.980  66.352  1.00  0.00    -0.105 C  
ENDROOT
BRANCH   2   3
HETATM    3  N   UNL     1      -8.781   7.084  65.813  1.00  0.00    -0.254 NA 
HETATM    4  H   UNL     1      -8.931   6.967  64.812  1.00  0.00     0.000 HD 
BRANCH   3   5
HETATM    5  C   UNL     1     -10.061   7.265  66.516  1.00  0.00    -0.093 C  
HETATM    6  C   UNL     1     -10.220   6.296  67.717  1.00  0.00    -0.206 C  
HETATM    7  C   UNL     1     -10.181   6.693  69.206  1.00  0.00    -0.183 C  
HETATM    8  S   UNL     1     -10.010   8.411  69.645  1.00  0.00    -0.197 S  
HETATM    9  C   UNL     1     -11.377   6.064  69.931  1.00  0.00    -0.355 C  
HETATM   10  C   UNL     1     -10.151   9.240  68.112  1.00  0.00    -0.187 A  
HETATM   11  O   UNL     1      -8.654   8.655  70.090  1.00  0.00    -0.126 OA 
HETATM   12  O   UNL     1     -11.166   8.843  70.402  1.00  0.00    -0.252 OA 
HETATM   13  C   UNL     1     -10.196   8.732  66.834  1.00  0.00    -0.357 A  
HETATM   14  C   UNL     1     -10.416   9.796  65.888  1.00  0.00    -0.028 A  
HETATM   15  C   UNL     1     -10.501  11.040  66.490  1.00  0.00    -0.257 A  
HETATM   16  S   UNL     1     -10.289  10.933  68.178  1.00  0.00    -0.188 SA 
BRANCH  15  17
HETATM   17  S   UNL     1     -10.816  12.679  65.862  1.00  0.00    -0.278 S  
HETATM   18  O   UNL     1     -10.461  13.557  66.953  1.00  0.00    -0.267 OA 
HETATM   19  N   UNL     1      -9.701  12.940  64.632  1.00  0.00    -0.545 N  
HETATM   20  O   UNL     1     -12.131  12.637  65.273  1.00  0.00    -0.421 OA 
HETATM   21  H1  UNL     1      -9.881  13.878  64.273  1.00  0.00     0.000 HD 
HETATM   22  H2  UNL     1      -8.985  12.291  64.309  1.00  0.00     0.000 HD 
ENDBRANCH  15  17
ENDBRANCH   3   5
ENDBRANCH   2   3
TORSDOF 3
ENDMDL
MODEL      102
REMARK 921   NORMALIZED FREE ENERGY PREDICTED BY IDOCK:   -3.67 KCAL/MOL
REMARK 922        TOTAL FREE ENERGY PREDICTED BY IDOCK:   -4.67 KCAL/MOL
REMARK 923 INTER-LIGAND FREE ENERGY PREDICTED BY IDOCK:   -4.29 KCAL/MOL
REMARK 924 INTRA-LIGAND FREE ENERGY PREDICTED BY IDOCK:   -0.38 KCAL/MOL
REMARK 927      BINDING AFFINITY PREDICTED BY RF-SCORE:    0.00 PKD
ROOT
HETATM    1  C   UNL     1     -12.217  11.371  70.692  1.00  0.00    -0.484 C  
HETATM    2  C   UNL     1     -11.480  10.206  70.046  1.00  0.00    -0.277 C  
ENDROOT
BRANCH   2   3
HETATM    3  N   UNL     1     -10.039  10.491  69.969  1.00  0.00    -0.416 NA 
HETATM    4  H   UNL     1      -9.799  11.301  70.540  1.00  0.00     0.000 HD 
BRANCH   3   5
HETATM    5  C   UNL     1      -9.198   9.336  70.320  1.00  0.00    -0.237 C  
HETATM    6  C   UNL     1      -9.631   8.670  71.652  1.00  0.00    -0.344 C  
HETATM    7  C   UNL     1     -10.310   7.293  71.792  1.00  0.00    -0.196 C  
HETATM    8  S   UNL     1     -10.584   6.305  70.336  1.00  0.00    -0.274 S  
HETATM    9  C   UNL     1      -9.589   6.479  72.874  1.00  0.00    -0.158 C  
HETATM   10  C   UNL     1      -9.740   7.185  69.082  1.00  0.00    -0.158 A  
HETATM   11  O   UNL     1     -11.984   6.369  69.975  1.00  0.00    -0.333 OA 
HETATM   12  O   UNL     1      -9.867   5.052  70.449  1.00  0.00    -0.192 OA 
HETATM   13  C   UNL     1      -9.154   8.429  69.117  1.00  0.00    -0.147 A  
HETATM   14  C   UNL     1      -8.491   8.697  67.867  1.00  0.00    -0.129 A  
HETATM   15  C   UNL     1      -8.628   7.665  66.954  1.00  0.00    -0.123 A  
HETATM   16  S   UNL     1      -9.572   6.394  67.587  1.00  0.00    -0.123 SA 
BRANCH  15  17
HETATM   17  S   UNL     1      -7.996   7.400  65.308  1.00  0.00    -0.131 S  
HETATM   18  O   UNL     1      -6.627   6.983  65.510  1.00  0.00    -0.049 OA 
HETATM   19  N   UNL     1      -8.829   6.081  64.685  1.00  0.00    -0.355 N  
HETATM   20  O   UNL     1      -8.366   8.565  64.544  1.00  0.00    -0.161 OA 
HETATM   21  H1  UNL     1      -8.468   5.929  63.744  1.00  0.00     0.000 HD 
HETATM   22  H2  UNL     1      -9.553   5.538  65.155  1.00  0.00     0.000 HD 
ENDBRANCH  15  17
ENDBRANCH   3   5
ENDBRANCH   2   3
TORSDOF 3
ENDMDL
MODEL      103
REMARK 921   NORMALIZED FREE ENERGY PREDICTED BY IDOCK:   -3.66 KCAL/MOL
REMARK 922        TOTAL FREE ENERGY PREDICTED BY IDOCK:   -4.66 KCAL/MOL
REMARK 923 INTER-LIGAND FREE ENERGY PREDICTED BY IDOCK:   -4.37 KCAL/MOL
REMARK 924 INTRA-LIGAND FREE ENERGY PREDICTED BY IDOCK:   -0.29 KCAL/MOL
REMARK 927      BINDING AFFINITY PREDICTED BY RF-SCORE:    0.00 PKD
ROOT
HETATM    1  C   UNL     1      -7.202  10.218  68.259  1.00  0.00    -0.083 C  
HETATM    2  C   UNL     1      -8.032  10.855  69.364  1.00  0.00    -0.017 C  
ENDROOT
BRANCH   2   3
HETATM    3  N   UNL     1      -9.065  11.731  68.790  1.00  0.00    -0.379 NA 
HETATM    4  H   UNL     1      -9.307  12.479  69.440  1.00  0.00     0.000 HD 
BRANCH   3   5
HETATM    5  C   UNL     1      -8.698  12.280  67.476  1.00  0.00    -0.177 C  
HETATM    6  C   UNL     1      -9.587  11.724  66.332  1.00  0.00    -0.234 C  
HETATM    7  C   UNL     1     -10.654  12.518  65.553  1.00  0.00    -0.275 C  
HETATM    8  S   UNL     1     -10.884  14.248  65.908  1.00  0.00    -0.310 S  
HETATM    9  C   UNL     1     -10.458  12.293  64.049  1.00  0.00    -0.427 C  
HETATM   10  C   UNL     1      -9.568  14.619  66.998  1.00  0.00    -0.240 A  
HETATM   11  O   UNL     1     -12.090  14.416  66.690  1.00  0.00    -0.419 OA 
HETATM   12  O   UNL     1     -10.610  15.033  64.723  1.00  0.00    -0.402 OA 
HETATM   13  C   UNL     1      -8.663  13.781  67.609  1.00  0.00    -0.185 A  
HETATM   14  C   UNL     1      -7.696  14.552  68.346  1.00  0.00    -0.128 A  
HETATM   15  C   UNL     1      -7.930  15.915  68.275  1.00  0.00    -0.139 A  
HETATM   16  S   UNL     1      -9.319  16.263  67.351  1.00  0.00    -0.222 SA 
BRANCH  15  17
HETATM   17  S   UNL     1      -7.062  17.336  68.913  1.00  0.00    -0.235 S  
HETATM   18  O   UNL     1      -6.219  16.805  69.959  1.00  0.00    -0.214 OA 
HETATM   19  N   UNL     1      -6.049  17.867  67.682  1.00  0.00    -0.154 N  
HETATM   20  O   UNL     1      -8.062  18.350  69.138  1.00  0.00    -0.130 OA 
HETATM   21  H1  UNL     1      -5.552  18.680  68.046  1.00  0.00     0.000 HD 
HETATM   22  H2  UNL     1      -5.949  17.457  66.753  1.00  0.00     0.000 HD 
ENDBRANCH  15  17
ENDBRANCH   3   5
ENDBRANCH   2   3
TORSDOF 3
ENDMDL
MODEL      104
REMARK 921   NORMALIZED FREE ENERGY PREDICTED BY IDOCK:   -3.65 KCAL/MOL
REMARK 922        TOTAL FREE ENERGY PREDICTED BY IDOCK:   -4.65 KCAL/MOL
REMARK 923 INTER-LIGAND FREE ENERGY PREDICTED BY IDOCK:   -4.33 KCAL/MOL
REMARK 924 INTRA-LIGAND FREE ENERGY PREDICTED BY IDOCK:   -0.32 KCAL/MOL
REMARK 927      BINDING AFFINITY PREDICTED BY RF-SCORE:    0.00 PKD
ROOT
HETATM    1  C   UNL     1     -12.373  14.414  70.093  1.00  0.00    -0.406 C  
HETATM    2  C   UNL     1     -11.626  13.332  69.326  1.00  0.00    -0.314 C  
ENDROOT
BRANCH   2   3
HETATM    3  N   UNL     1     -11.836  12.020  69.955  1.00  0.00    -0.420 NA 
HETATM    4  H   UNL     1     -12.765  11.963  70.372  1.00  0.00     0.000 HD 
BRANCH   3   5
HETATM    5  C   UNL     1     -11.604  10.892  69.040  1.00  0.00    -0.316 C  
HETATM    6  C   UNL     1     -11.511  11.340  67.558  1.00  0.00    -0.324 C  
HETATM    7  C   UNL     1     -10.230  11.353  66.699  1.00  0.00    -0.222 C  
HETATM    8  S   UNL     1      -8.708  10.747  67.397  1.00  0.00    -0.125 S  
HETATM    9  C   UNL     1     -10.516  10.680  65.351  1.00  0.00    -0.254 C  
HETATM   10  C   UNL     1      -9.205  10.064  68.929  1.00  0.00    -0.169 A  
HETATM   11  O   UNL     1      -7.859  11.870  67.734  1.00  0.00    -0.121 OA 
HETATM   12  O   UNL     1      -8.231   9.615  66.630  1.00  0.00    -0.118 OA 
HETATM   13  C   UNL     1     -10.422  10.121  69.568  1.00  0.00    -0.263 A  
HETATM   14  C   UNL     1     -10.386   9.324  70.767  1.00  0.00    -0.348 A  
HETATM   15  C   UNL     1      -9.152   8.734  70.983  1.00  0.00    -0.218 A  
HETATM   16  S   UNL     1      -8.036   9.156  69.766  1.00  0.00    -0.124 SA 
BRANCH  15  17
HETATM   17  S   UNL     1      -8.535   7.619  72.231  1.00  0.00    -0.131 S  
HETATM   18  O   UNL     1      -9.079   6.331  71.865  1.00  0.00    -0.143 OA 
HETATM   19  N   UNL     1      -6.871   7.534  72.011  1.00  0.00    -0.060 N  
HETATM   20  O   UNL     1      -8.788   8.256  73.499  1.00  0.00    -0.252 OA 
HETATM   21  H1  UNL     1      -6.518   6.897  72.725  1.00  0.00     0.000 HD 
HETATM   22  H2  UNL     1      -6.322   8.023  71.304  1.00  0.00     0.000 HD 
ENDBRANCH  15  17
ENDBRANCH   3   5
ENDBRANCH   2   3
TORSDOF 3
ENDMDL
MODEL      105
REMARK 921   NORMALIZED FREE ENERGY PREDICTED BY IDOCK:   -3.64 KCAL/MOL
REMARK 922        TOTAL FREE ENERGY PREDICTED BY IDOCK:   -4.64 KCAL/MOL
REMARK 923 INTER-LIGAND FREE ENERGY PREDICTED BY IDOCK:   -4.26 KCAL/MOL
REMARK 924 INTRA-LIGAND FREE ENERGY PREDICTED BY IDOCK:   -0.38 KCAL/MOL
REMARK 927      BINDING AFFINITY PREDICTED BY RF-SCORE:    0.00 PKD
ROOT
HETATM    1  C   UNL     1      -8.749   7.808  72.962  1.00  0.00    -0.239 C  
HETATM    2  C   UNL     1     -10.199   7.967  72.528  1.00  0.00    -0.294 C  
ENDROOT
BRANCH   2   3
HETATM    3  N   UNL     1     -10.399   7.391  71.190  1.00  0.00    -0.202 NA 
HETATM    4  H   UNL     1     -11.306   7.663  70.811  1.00  0.00     0.000 HD 
BRANCH   3   5
HETATM    5  C   UNL     1      -9.319   7.720  70.247  1.00  0.00    -0.156 C  
HETATM    6  C   UNL     1      -8.786   6.471  69.497  1.00  0.00    -0.138 C  
HETATM    7  C   UNL     1      -9.004   6.155  68.004  1.00  0.00    -0.113 C  
HETATM    8  S   UNL     1      -9.880   7.324  66.985  1.00  0.00    -0.222 S  
HETATM    9  C   UNL     1      -7.664   5.774  67.364  1.00  0.00    -0.097 C  
HETATM   10  C   UNL     1     -10.078   8.710  68.033  1.00  0.00    -0.196 A  
HETATM   11  O   UNL     1     -11.219   6.832  66.741  1.00  0.00    -0.312 OA 
HETATM   12  O   UNL     1      -9.018   7.791  65.920  1.00  0.00    -0.168 OA 
HETATM   13  C   UNL     1      -9.811   8.848  69.376  1.00  0.00    -0.183 A  
HETATM   14  C   UNL     1     -10.042  10.208  69.787  1.00  0.00    -0.269 A  
HETATM   15  C   UNL     1     -10.490  11.013  68.753  1.00  0.00    -0.198 A  
HETATM   16  S   UNL     1     -10.658  10.132  67.304  1.00  0.00    -0.249 SA 
BRANCH  15  17
HETATM   17  S   UNL     1     -10.878  12.750  68.640  1.00  0.00    -0.245 S  
HETATM   18  O   UNL     1     -11.722  13.007  69.784  1.00  0.00    -0.300 OA 
HETATM   19  N   UNL     1      -9.436  13.576  68.892  1.00  0.00    -0.402 N  
HETATM   20  O   UNL     1     -11.294  12.980  67.279  1.00  0.00    -0.276 OA 
HETATM   21  H1  UNL     1      -9.658  14.570  68.828  1.00  0.00     0.000 HD 
HETATM   22  H2  UNL     1      -8.521  13.166  69.075  1.00  0.00     0.000 HD 
ENDBRANCH  15  17
ENDBRANCH   3   5
ENDBRANCH   2   3
TORSDOF 3
ENDMDL
MODEL      106
REMARK 921   NORMALIZED FREE ENERGY PREDICTED BY IDOCK:   -3.64 KCAL/MOL
REMARK 922        TOTAL FREE ENERGY PREDICTED BY IDOCK:   -4.63 KCAL/MOL
REMARK 923 INTER-LIGAND FREE ENERGY PREDICTED BY IDOCK:   -4.39 KCAL/MOL
REMARK 924 INTRA-LIGAND FREE ENERGY PREDICTED BY IDOCK:   -0.24 KCAL/MOL
REMARK 927      BINDING AFFINITY PREDICTED BY RF-SCORE:    0.00 PKD
ROOT
HETATM    1  C   UNL     1     -12.284  14.536  68.627  1.00  0.00    -0.158 C  
HETATM    2  C   UNL     1     -11.719  15.234  69.855  1.00  0.00    -0.323 C  
ENDROOT
BRANCH   2   3
HETATM    3  N   UNL     1     -11.278  16.595  69.514  1.00  0.00    -0.315 NA 
HETATM    4  H   UNL     1     -10.668  16.970  70.240  1.00  0.00     0.000 HD 
BRANCH   3   5
HETATM    5  C   UNL     1     -10.635  16.685  68.194  1.00  0.00    -0.336 C  
HETATM    6  C   UNL     1     -10.975  18.007  67.458  1.00  0.00    -0.111 C  
HETATM    7  C   UNL     1      -9.998  19.173  67.203  1.00  0.00    -0.356 C  
HETATM    8  S   UNL     1      -8.300  19.015  67.717  1.00  0.00    -0.295 S  
HETATM    9  C   UNL     1     -10.084  19.595  65.732  1.00  0.00    -0.377 C  
HETATM   10  C   UNL     1      -8.182  17.346  68.226  1.00  0.00    -0.247 A  
HETATM   11  O   UNL     1      -8.092  19.798  68.916  1.00  0.00    -0.285 OA 
HETATM   12  O   UNL     1      -7.427  19.108  66.566  1.00  0.00    -0.227 OA 
HETATM   13  C   UNL     1      -9.168  16.399  68.388  1.00  0.00    -0.217 A  
HETATM   14  C   UNL     1      -8.581  15.130  68.731  1.00  0.00    -0.182 A  
HETATM   15  C   UNL     1      -7.202  15.186  68.834  1.00  0.00    -0.133 A  
HETATM   16  S   UNL     1      -6.618  16.762  68.547  1.00  0.00    -0.169 SA 
BRANCH  15  17
HETATM   17  S   UNL     1      -5.952  13.958  69.163  1.00  0.00    -0.098 S  
HETATM   18  O   UNL     1      -5.176  14.513  70.247  1.00  0.00    -0.094 OA 
HETATM   19  N   UNL     1      -6.756  12.611  69.767  1.00  0.00    -0.352 N  
HETATM   20  O   UNL     1      -5.389  13.606  67.883  1.00  0.00    -0.111 OA 
HETATM   21  H1  UNL     1      -6.041  11.909  69.955  1.00  0.00     0.000 HD 
HETATM   22  H2  UNL     1      -7.760  12.516  69.917  1.00  0.00     0.000 HD 
ENDBRANCH  15  17
ENDBRANCH   3   5
ENDBRANCH   2   3
TORSDOF 3
ENDMDL
MODEL      107
REMARK 921   NORMALIZED FREE ENERGY PREDICTED BY IDOCK:   -3.63 KCAL/MOL
REMARK 922        TOTAL FREE ENERGY PREDICTED BY IDOCK:   -4.62 KCAL/MOL
REMARK 923 INTER-LIGAND FREE ENERGY PREDICTED BY IDOCK:   -4.29 KCAL/MOL
REMARK 924 INTRA-LIGAND FREE ENERGY PREDICTED BY IDOCK:   -0.33 KCAL/MOL
REMARK 927      BINDING AFFINITY PREDICTED BY RF-SCORE:    0.00 PKD
ROOT
HETATM    1  C   UNL     1      -6.016  10.838  68.991  1.00  0.00    -0.040 C  
HETATM    2  C   UNL     1      -7.355  10.402  69.568  1.00  0.00    -0.144 C  
ENDROOT
BRANCH   2   3
HETATM    3  N   UNL     1      -8.373  11.439  69.344  1.00  0.00    -0.318 NA 
HETATM    4  H   UNL     1      -7.953  12.277  68.942  1.00  0.00     0.000 HD 
BRANCH   3   5
HETATM    5  C   UNL     1      -9.505  10.977  68.526  1.00  0.00    -0.188 C  
HETATM    6  C   UNL     1      -9.099  10.706  67.054  1.00  0.00    -0.155 C  
HETATM    7  C   UNL     1      -8.997   9.319  66.388  1.00  0.00    -0.154 C  
HETATM    8  S   UNL     1      -9.435   7.869  67.325  1.00  0.00    -0.158 S  
HETATM    9  C   UNL     1      -9.737   9.342  65.046  1.00  0.00    -0.020 C  
HETATM   10  C   UNL     1     -10.109   8.525  68.800  1.00  0.00    -0.196 A  
HETATM   11  O   UNL     1      -8.227   7.180  67.728  1.00  0.00    -0.113 OA 
HETATM   12  O   UNL     1     -10.542   7.188  66.688  1.00  0.00    -0.242 OA 
HETATM   13  C   UNL     1     -10.144   9.823  69.254  1.00  0.00    -0.207 A  
HETATM   14  C   UNL     1     -10.893   9.895  70.482  1.00  0.00    -0.391 A  
HETATM   15  C   UNL     1     -11.359   8.660  70.900  1.00  0.00    -0.272 A  
HETATM   16  S   UNL     1     -10.876   7.418  69.838  1.00  0.00    -0.224 SA 
BRANCH  15  17
HETATM   17  S   UNL     1     -12.369   8.139  72.274  1.00  0.00    -0.295 S  
HETATM   18  O   UNL     1     -11.432   7.938  73.355  1.00  0.00    -0.211 OA 
HETATM   19  N   UNL     1     -13.327   9.456  72.687  1.00  0.00    -0.603 N  
HETATM   20  O   UNL     1     -13.231   7.100  71.768  1.00  0.00    -0.355 OA 
HETATM   21  H1  UNL     1     -13.905   9.159  73.473  1.00  0.00     0.000 HD 
HETATM   22  H2  UNL     1     -13.330  10.373  72.241  1.00  0.00     0.000 HD 
ENDBRANCH  15  17
ENDBRANCH   3   5
ENDBRANCH   2   3
TORSDOF 3
ENDMDL
MODEL      108
REMARK 921   NORMALIZED FREE ENERGY PREDICTED BY IDOCK:   -3.63 KCAL/MOL
REMARK 922        TOTAL FREE ENERGY PREDICTED BY IDOCK:   -4.62 KCAL/MOL
REMARK 923 INTER-LIGAND FREE ENERGY PREDICTED BY IDOCK:   -4.29 KCAL/MOL
REMARK 924 INTRA-LIGAND FREE ENERGY PREDICTED BY IDOCK:   -0.33 KCAL/MOL
REMARK 927      BINDING AFFINITY PREDICTED BY RF-SCORE:    0.00 PKD
ROOT
HETATM    1  C   UNL     1      -8.029   7.583  64.907  1.00  0.00    -0.132 C  
HETATM    2  C   UNL     1      -8.451   6.401  65.769  1.00  0.00    -0.148 C  
ENDROOT
BRANCH   2   3
HETATM    3  N   UNL     1      -9.869   6.518  66.140  1.00  0.00    -0.399 NA 
HETATM    4  H   UNL     1     -10.445   6.700  65.318  1.00  0.00     0.000 HD 
BRANCH   3   5
HETATM    5  C   UNL     1     -10.375   5.355  66.884  1.00  0.00    -0.260 C  
HETATM    6  C   UNL     1      -9.574   4.062  66.577  1.00  0.00    -0.223 C  
HETATM    7  C   UNL     1      -8.612   3.346  67.546  1.00  0.00    -0.103 C  
HETATM    8  S   UNL     1      -8.416   3.975  69.201  1.00  0.00    -0.079 S  
HETATM    9  C   UNL     1      -8.937   1.847  67.570  1.00  0.00    -0.170 C  
HETATM   10  C   UNL     1      -9.641   5.219  69.312  1.00  0.00    -0.155 A  
HETATM   11  O   UNL     1      -7.151   4.672  69.297  1.00  0.00    -0.050 OA 
HETATM   12  O   UNL     1      -8.826   2.972  70.161  1.00  0.00    -0.069 OA 
HETATM   13  C   UNL     1     -10.453   5.749  68.336  1.00  0.00    -0.283 A  
HETATM   14  C   UNL     1     -11.377   6.686  68.920  1.00  0.00    -0.209 A  
HETATM   15  C   UNL     1     -11.202   6.833  70.285  1.00  0.00    -0.334 A  
HETATM   16  S   UNL     1      -9.917   5.871  70.857  1.00  0.00    -0.194 SA 
BRANCH  15  17
HETATM   17  S   UNL     1     -12.061   7.779  71.530  1.00  0.00    -0.319 S  
HETATM   18  O   UNL     1     -11.101   7.921  72.601  1.00  0.00    -0.329 OA 
HETATM   19  N   UNL     1     -12.309   9.308  70.879  1.00  0.00    -0.459 N  
HETATM   20  O   UNL     1     -13.347   7.149  71.696  1.00  0.00    -0.376 OA 
HETATM   21  H1  UNL     1     -12.800   9.849  71.591  1.00  0.00     0.000 HD 
HETATM   22  H2  UNL     1     -12.024   9.632  69.955  1.00  0.00     0.000 HD 
ENDBRANCH  15  17
ENDBRANCH   3   5
ENDBRANCH   2   3
TORSDOF 3
ENDMDL
MODEL      109
REMARK 921   NORMALIZED FREE ENERGY PREDICTED BY IDOCK:   -3.62 KCAL/MOL
REMARK 922        TOTAL FREE ENERGY PREDICTED BY IDOCK:   -4.61 KCAL/MOL
REMARK 923 INTER-LIGAND FREE ENERGY PREDICTED BY IDOCK:   -4.23 KCAL/MOL
REMARK 924 INTRA-LIGAND FREE ENERGY PREDICTED BY IDOCK:   -0.39 KCAL/MOL
REMARK 927      BINDING AFFINITY PREDICTED BY RF-SCORE:    0.00 PKD
ROOT
HETATM    1  C   UNL     1      -9.401   5.749  65.812  1.00  0.00    -0.046 C  
HETATM    2  C   UNL     1     -10.785   5.356  66.310  1.00  0.00    -0.169 C  
ENDROOT
BRANCH   2   3
HETATM    3  N   UNL     1     -11.294   6.361  67.255  1.00  0.00    -0.731 NA 
HETATM    4  H   UNL     1     -11.998   5.954  67.871  1.00  0.00     0.000 HD 
BRANCH   3   5
HETATM    5  C   UNL     1     -10.234   7.016  68.036  1.00  0.00    -0.182 C  
HETATM    6  C   UNL     1     -10.364   8.561  68.033  1.00  0.00    -0.272 C  
HETATM    7  C   UNL     1     -10.780   9.433  69.235  1.00  0.00    -0.211 C  
HETATM    8  S   UNL     1     -11.084   8.658  70.809  1.00  0.00    -0.260 S  
HETATM    9  C   UNL     1      -9.793  10.597  69.384  1.00  0.00    -0.164 C  
HETATM   10  C   UNL     1     -10.577   7.003  70.554  1.00  0.00    -0.224 A  
HETATM   11  O   UNL     1     -12.511   8.591  71.039  1.00  0.00    -0.225 OA 
HETATM   12  O   UNL     1     -10.161   9.174  71.798  1.00  0.00    -0.329 OA 
HETATM   13  C   UNL     1     -10.206   6.362  69.394  1.00  0.00    -0.230 A  
HETATM   14  C   UNL     1      -9.774   5.021  69.690  1.00  0.00    -0.266 A  
HETATM   15  C   UNL     1      -9.862   4.712  71.036  1.00  0.00    -0.198 A  
HETATM   16  S   UNL     1     -10.487   6.018  71.936  1.00  0.00    -0.226 SA 
BRANCH  15  17
HETATM   17  S   UNL     1      -9.427   3.269  71.988  1.00  0.00    -0.145 S  
HETATM   18  O   UNL     1     -10.502   3.128  72.943  1.00  0.00    -0.158 OA 
HETATM   19  N   UNL     1      -9.522   1.960  70.939  1.00  0.00    -0.125 N  
HETATM   20  O   UNL     1      -8.046   3.440  72.367  1.00  0.00    -0.066 OA 
HETATM   21  H1  UNL     1      -9.273   1.134  71.483  1.00  0.00     0.000 HD 
HETATM   22  H2  UNL     1      -9.779   1.986  69.952  1.00  0.00     0.000 HD 
ENDBRANCH  15  17
ENDBRANCH   3   5
ENDBRANCH   2   3
TORSDOF 3
ENDMDL
MODEL      110
REMARK 921   NORMALIZED FREE ENERGY PREDICTED BY IDOCK:   -3.61 KCAL/MOL
REMARK 922        TOTAL FREE ENERGY PREDICTED BY IDOCK:   -4.60 KCAL/MOL
REMARK 923 INTER-LIGAND FREE ENERGY PREDICTED BY IDOCK:   -4.31 KCAL/MOL
REMARK 924 INTRA-LIGAND FREE ENERGY PREDICTED BY IDOCK:   -0.29 KCAL/MOL
REMARK 927      BINDING AFFINITY PREDICTED BY RF-SCORE:    0.00 PKD
ROOT
HETATM    1  C   UNL     1      -9.709   8.552  71.790  1.00  0.00    -0.337 C  
HETATM    2  C   UNL     1     -10.384   9.433  70.749  1.00  0.00    -0.298 C  
ENDROOT
BRANCH   2   3
HETATM    3  N   UNL     1      -9.735   9.269  69.440  1.00  0.00    -0.167 NA 
HETATM    4  H   UNL     1      -9.483   8.293  69.281  1.00  0.00     0.000 HD 
BRANCH   3   5
HETATM    5  C   UNL     1     -10.538   9.789  68.323  1.00  0.00    -0.229 C  
HETATM    6  C   UNL     1     -11.117  11.198  68.615  1.00  0.00    -0.293 C  
HETATM    7  C   UNL     1     -10.668  12.513  67.948  1.00  0.00    -0.217 C  
HETATM    8  S   UNL     1      -9.424  12.464  66.674  1.00  0.00    -0.234 S  
HETATM    9  C   UNL     1     -11.901  13.290  67.473  1.00  0.00    -0.403 C  
HETATM   10  C   UNL     1      -9.204  10.752  66.387  1.00  0.00    -0.170 A  
HETATM   11  O   UNL     1      -8.166  12.926  67.219  1.00  0.00    -0.179 OA 
HETATM   12  O   UNL     1      -9.969  12.975  65.434  1.00  0.00    -0.263 OA 
HETATM   13  C   UNL     1      -9.702   9.669  67.074  1.00  0.00    -0.232 A  
HETATM   14  C   UNL     1      -9.329   8.449  66.408  1.00  0.00    -0.274 A  
HETATM   15  C   UNL     1      -8.558   8.667  65.279  1.00  0.00    -0.180 A  
HETATM   16  S   UNL     1      -8.261  10.328  65.037  1.00  0.00    -0.147 SA 
BRANCH  15  17
HETATM   17  S   UNL     1      -7.867   7.581  64.044  1.00  0.00    -0.101 S  
HETATM   18  O   UNL     1      -8.239   6.255  64.482  1.00  0.00    -0.126 OA 
HETATM   19  N   UNL     1      -8.705   7.886  62.620  1.00  0.00    -0.397 N  
HETATM   20  O   UNL     1      -6.501   8.002  63.859  1.00  0.00    -0.065 OA 
HETATM   21  H1  UNL     1      -8.311   7.265  61.914  1.00  0.00     0.000 HD 
HETATM   22  H2  UNL     1      -9.460   8.559  62.488  1.00  0.00     0.000 HD 
ENDBRANCH  15  17
ENDBRANCH   3   5
ENDBRANCH   2   3
TORSDOF 3
ENDMDL
MODEL      111
REMARK 921   NORMALIZED FREE ENERGY PREDICTED BY IDOCK:   -3.61 KCAL/MOL
REMARK 922        TOTAL FREE ENERGY PREDICTED BY IDOCK:   -4.59 KCAL/MOL
REMARK 923 INTER-LIGAND FREE ENERGY PREDICTED BY IDOCK:   -4.29 KCAL/MOL
REMARK 924 INTRA-LIGAND FREE ENERGY PREDICTED BY IDOCK:   -0.31 KCAL/MOL
REMARK 927      BINDING AFFINITY PREDICTED BY RF-SCORE:    0.00 PKD
ROOT
HETATM    1  C   UNL     1      -8.709   3.714  67.762  1.00  0.00    -0.126 C  
HETATM    2  C   UNL     1      -8.931   4.919  68.665  1.00  0.00    -0.105 C  
ENDROOT
BRANCH   2   3
HETATM    3  N   UNL     1     -10.276   4.873  69.259  1.00  0.00    -0.182 NA 
HETATM    4  H   UNL     1     -10.792   4.059  68.924  1.00  0.00     0.000 HD 
BRANCH   3   5
HETATM    5  C   UNL     1     -10.264   4.915  70.729  1.00  0.00    -0.206 C  
HETATM    6  C   UNL     1      -8.930   4.396  71.327  1.00  0.00    -0.166 C  
HETATM    7  C   UNL     1      -7.856   5.258  72.020  1.00  0.00    -0.108 C  
HETATM    8  S   UNL     1      -8.149   7.001  72.243  1.00  0.00    -0.095 S  
HETATM    9  C   UNL     1      -7.454   4.600  73.345  1.00  0.00    -0.083 C  
HETATM   10  C   UNL     1      -9.814   7.201  71.743  1.00  0.00    -0.161 A  
HETATM   11  O   UNL     1      -7.366   7.742  71.278  1.00  0.00    -0.063 OA 
HETATM   12  O   UNL     1      -8.151   7.322  73.655  1.00  0.00    -0.109 OA 
HETATM   13  C   UNL     1     -10.670   6.307  71.142  1.00  0.00    -0.301 A  
HETATM   14  C   UNL     1     -11.978   6.893  71.006  1.00  0.00    -0.422 A  
HETATM   15  C   UNL     1     -12.037   8.191  71.483  1.00  0.00    -0.298 A  
HETATM   16  S   UNL     1     -10.522   8.712  72.065  1.00  0.00    -0.347 SA 
BRANCH  15  17
HETATM   17  S   UNL     1     -13.362   9.375  71.636  1.00  0.00    -0.410 S  
HETATM   18  O   UNL     1     -14.372   8.908  70.715  1.00  0.00     0.038 OA 
HETATM   19  N   UNL     1     -13.984   9.195  73.187  1.00  0.00    -0.753 N  
HETATM   20  O   UNL     1     -12.749  10.677  71.547  1.00  0.00    -0.391 OA 
HETATM   21  H1  UNL     1     -14.742   9.872  73.274  1.00  0.00     0.000 HD 
HETATM   22  H2  UNL     1     -13.667   8.539  73.899  1.00  0.00     0.000 HD 
ENDBRANCH  15  17
ENDBRANCH   3   5
ENDBRANCH   2   3
TORSDOF 3
ENDMDL
MODEL      112
REMARK 921   NORMALIZED FREE ENERGY PREDICTED BY IDOCK:   -3.56 KCAL/MOL
REMARK 922        TOTAL FREE ENERGY PREDICTED BY IDOCK:   -4.54 KCAL/MOL
REMARK 923 INTER-LIGAND FREE ENERGY PREDICTED BY IDOCK:   -4.22 KCAL/MOL
REMARK 924 INTRA-LIGAND FREE ENERGY PREDICTED BY IDOCK:   -0.32 KCAL/MOL
REMARK 927      BINDING AFFINITY PREDICTED BY RF-SCORE:    0.00 PKD
ROOT
HETATM    1  C   UNL     1      -6.054   8.700  71.903  1.00  0.00    -0.069 C  
HETATM    2  C   UNL     1      -7.429   8.892  71.280  1.00  0.00    -0.103 C  
ENDROOT
BRANCH   2   3
HETATM    3  N   UNL     1      -8.077   7.591  71.059  1.00  0.00    -0.099 NA 
HETATM    4  H   UNL     1      -7.948   6.980  71.866  1.00  0.00     0.000 HD 
BRANCH   3   5
HETATM    5  C   UNL     1      -9.502   7.702  70.711  1.00  0.00    -0.162 C  
HETATM    6  C   UNL     1     -10.111   9.064  71.136  1.00  0.00    -0.365 C  
HETATM    7  C   UNL     1     -10.540  10.196  70.181  1.00  0.00    -0.281 C  
HETATM    8  S   UNL     1     -10.410   9.948  68.422  1.00  0.00    -0.208 S  
HETATM    9  C   UNL     1     -11.947  10.675  70.560  1.00  0.00    -0.446 C  
HETATM   10  C   UNL     1      -9.983   8.258  68.279  1.00  0.00    -0.191 A  
HETATM   11  O   UNL     1      -9.264  10.677  67.923  1.00  0.00    -0.145 OA 
HETATM   12  O   UNL     1     -11.720  10.047  67.814  1.00  0.00     0.009 OA 
HETATM   13  C   UNL     1      -9.638   7.349  69.252  1.00  0.00    -0.154 A  
HETATM   14  C   UNL     1      -9.464   6.044  68.668  1.00  0.00    -0.134 A  
HETATM   15  C   UNL     1      -9.660   6.039  67.298  1.00  0.00    -0.115 A  
HETATM   16  S   UNL     1     -10.024   7.598  66.713  1.00  0.00    -0.233 SA 
BRANCH  15  17
HETATM   17  S   UNL     1      -9.643   4.748  66.068  1.00  0.00    -0.197 S  
HETATM   18  O   UNL     1      -9.468   3.530  66.825  1.00  0.00    -0.196 OA 
HETATM   19  N   UNL     1     -11.186   4.702  65.405  1.00  0.00    -0.984 N  
HETATM   20  O   UNL     1      -8.728   5.183  65.042  1.00  0.00    -0.148 OA 
HETATM   21  H1  UNL     1     -11.177   3.964  64.701  1.00  0.00     0.000 HD 
HETATM   22  H2  UNL     1     -11.977   5.295  65.656  1.00  0.00     0.000 HD 
ENDBRANCH  15  17
ENDBRANCH   3   5
ENDBRANCH   2   3
TORSDOF 3
ENDMDL
MODEL      113
REMARK 921   NORMALIZED FREE ENERGY PREDICTED BY IDOCK:   -3.52 KCAL/MOL
REMARK 922        TOTAL FREE ENERGY PREDICTED BY IDOCK:   -4.49 KCAL/MOL
REMARK 923 INTER-LIGAND FREE ENERGY PREDICTED BY IDOCK:   -4.19 KCAL/MOL
REMARK 924 INTRA-LIGAND FREE ENERGY PREDICTED BY IDOCK:   -0.30 KCAL/MOL
REMARK 927      BINDING AFFINITY PREDICTED BY RF-SCORE:    0.00 PKD
ROOT
HETATM    1  C   UNL     1     -11.199   4.738  73.370  1.00  0.00    -0.425 C  
HETATM    2  C   UNL     1     -10.872   6.029  72.635  1.00  0.00    -0.244 C  
ENDROOT
BRANCH   2   3
HETATM    3  N   UNL     1     -10.491   5.744  71.243  1.00  0.00    -0.226 NA 
HETATM    4  H   UNL     1     -10.558   4.746  71.047  1.00  0.00     0.000 HD 
BRANCH   3   5
HETATM    5  C   UNL     1     -11.257   6.523  70.258  1.00  0.00    -0.374 C  
HETATM    6  C   UNL     1     -11.486   7.989  70.710  1.00  0.00    -0.273 C  
HETATM    7  C   UNL     1     -10.821   9.237  70.094  1.00  0.00    -0.242 C  
HETATM    8  S   UNL     1      -9.737   9.044  68.694  1.00  0.00    -0.163 S  
HETATM    9  C   UNL     1     -11.892  10.296  69.810  1.00  0.00    -0.217 C  
HETATM   10  C   UNL     1      -9.923   7.358  68.264  1.00  0.00    -0.163 A  
HETATM   11  O   UNL     1      -8.365   9.179  69.132  1.00  0.00    -0.117 OA 
HETATM   12  O   UNL     1     -10.266   9.771  67.559  1.00  0.00    -0.191 OA 
HETATM   13  C   UNL     1     -10.583   6.346  68.922  1.00  0.00    -0.298 A  
HETATM   14  C   UNL     1     -10.547   5.141  68.135  1.00  0.00     0.002 A  
HETATM   15  C   UNL     1      -9.851   5.295  66.948  1.00  0.00    -0.171 A  
HETATM   16  S   UNL     1      -9.221   6.872  66.794  1.00  0.00    -0.156 SA 
BRANCH  15  17
HETATM   17  S   UNL     1      -9.528   4.207  65.572  1.00  0.00    -0.190 S  
HETATM   18  O   UNL     1      -8.959   3.023  66.175  1.00  0.00    -0.137 OA 
HETATM   19  N   UNL     1     -11.027   3.773  64.947  1.00  0.00    -0.452 N  
HETATM   20  O   UNL     1      -8.844   5.002  64.584  1.00  0.00    -0.153 OA 
HETATM   21  H1  UNL     1     -10.843   3.151  64.161  1.00  0.00     0.000 HD 
HETATM   22  H2  UNL     1     -11.941   4.073  65.287  1.00  0.00     0.000 HD 
ENDBRANCH  15  17
ENDBRANCH   3   5
ENDBRANCH   2   3
TORSDOF 3
ENDMDL
MODEL      114
REMARK 921   NORMALIZED FREE ENERGY PREDICTED BY IDOCK:   -3.52 KCAL/MOL
REMARK 922        TOTAL FREE ENERGY PREDICTED BY IDOCK:   -4.49 KCAL/MOL
REMARK 923 INTER-LIGAND FREE ENERGY PREDICTED BY IDOCK:   -4.20 KCAL/MOL
REMARK 924 INTRA-LIGAND FREE ENERGY PREDICTED BY IDOCK:   -0.30 KCAL/MOL
REMARK 927      BINDING AFFINITY PREDICTED BY RF-SCORE:    0.00 PKD
ROOT
HETATM    1  C   UNL     1     -10.312   4.772  66.514  1.00  0.00    -0.284 C  
HETATM    2  C   UNL     1     -10.900   6.072  67.044  1.00  0.00    -0.331 C  
ENDROOT
BRANCH   2   3
HETATM    3  N   UNL     1      -9.929   7.168  66.905  1.00  0.00    -0.210 NA 
HETATM    4  H   UNL     1     -10.025   7.622  65.997  1.00  0.00     0.000 HD 
BRANCH   3   5
HETATM    5  C   UNL     1     -10.004   8.153  67.994  1.00  0.00    -0.184 C  
HETATM    6  C   UNL     1      -9.045   7.816  69.165  1.00  0.00    -0.145 C  
HETATM    7  C   UNL     1      -7.764   8.592  69.533  1.00  0.00    -0.091 C  
HETATM    8  S   UNL     1      -7.333  10.051  68.608  1.00  0.00    -0.084 S  
HETATM    9  C   UNL     1      -7.760   8.882  71.039  1.00  0.00    -0.155 C  
HETATM   10  C   UNL     1      -8.730  10.314  67.588  1.00  0.00    -0.121 A  
HETATM   11  O   UNL     1      -6.250   9.737  67.701  1.00  0.00    -0.055 OA 
HETATM   12  O   UNL     1      -7.302  11.200  69.488  1.00  0.00    -0.108 OA 
HETATM   13  C   UNL     1      -9.833   9.518  67.377  1.00  0.00    -0.218 A  
HETATM   14  C   UNL     1     -10.774  10.196  66.525  1.00  0.00    -0.118 A  
HETATM   15  C   UNL     1     -10.330  11.443  66.120  1.00  0.00    -0.248 A  
HETATM   16  S   UNL     1      -8.780  11.786  66.739  1.00  0.00    -0.189 SA 
BRANCH  15  17
HETATM   17  S   UNL     1     -11.062  12.738  65.135  1.00  0.00    -0.301 S  
HETATM   18  O   UNL     1     -10.345  13.932  65.520  1.00  0.00    -0.305 OA 
HETATM   19  N   UNL     1     -10.656  12.409  63.538  1.00  0.00    -0.440 N  
HETATM   20  O   UNL     1     -12.489  12.590  65.274  1.00  0.00    -0.608 OA 
HETATM   21  H1  UNL     1     -11.074  13.150  62.975  1.00  0.00     0.000 HD 
HETATM   22  H2  UNL     1     -10.100  11.624  63.199  1.00  0.00     0.000 HD 
ENDBRANCH  15  17
ENDBRANCH   3   5
ENDBRANCH   2   3
TORSDOF 3
ENDMDL
MODEL      115
REMARK 921   NORMALIZED FREE ENERGY PREDICTED BY IDOCK:   -3.48 KCAL/MOL
REMARK 922        TOTAL FREE ENERGY PREDICTED BY IDOCK:   -4.45 KCAL/MOL
REMARK 923 INTER-LIGAND FREE ENERGY PREDICTED BY IDOCK:   -4.25 KCAL/MOL
REMARK 924 INTRA-LIGAND FREE ENERGY PREDICTED BY IDOCK:   -0.20 KCAL/MOL
REMARK 927      BINDING AFFINITY PREDICTED BY RF-SCORE:    0.00 PKD
ROOT
HETATM    1  C   UNL     1     -10.381  15.994  69.177  1.00  0.00    -0.247 C  
HETATM    2  C   UNL     1      -9.005  15.798  68.556  1.00  0.00    -0.194 C  
ENDROOT
BRANCH   2   3
HETATM    3  N   UNL     1      -8.993  14.603  67.700  1.00  0.00    -0.181 NA 
HETATM    4  H   UNL     1      -8.473  13.846  68.142  1.00  0.00     0.000 HD 
BRANCH   3   5
HETATM    5  C   UNL     1     -10.338  14.154  67.309  1.00  0.00    -0.267 C  
HETATM    6  C   UNL     1     -10.877  14.910  66.066  1.00  0.00    -0.328 C  
HETATM    7  C   UNL     1     -11.062  14.311  64.657  1.00  0.00    -0.363 C  
HETATM    8  S   UNL     1     -10.706  12.586  64.391  1.00  0.00    -0.378 S  
HETATM    9  C   UNL     1     -12.460  14.664  64.134  1.00  0.00    -0.180 C  
HETATM   10  C   UNL     1     -10.416  11.976  66.004  1.00  0.00    -0.249 A  
HETATM   11  O   UNL     1      -9.440  12.463  63.701  1.00  0.00    -0.094 OA 
HETATM   12  O   UNL     1     -11.902  11.899  63.949  1.00  0.00    -0.412 OA 
HETATM   13  C   UNL     1     -10.296  12.652  67.196  1.00  0.00    -0.239 A  
HETATM   14  C   UNL     1     -10.158  11.716  68.282  1.00  0.00    -0.206 A  
HETATM   15  C   UNL     1     -10.157  10.398  67.858  1.00  0.00    -0.171 A  
HETATM   16  S   UNL     1     -10.293  10.288  66.162  1.00  0.00    -0.139 SA 
BRANCH  15  17
HETATM   17  S   UNL     1     -10.081   8.839  68.721  1.00  0.00    -0.202 S  
HETATM   18  O   UNL     1     -11.275   8.818  69.534  1.00  0.00    -0.057 OA 
HETATM   19  N   UNL     1     -10.254   7.641  67.555  1.00  0.00    -0.206 N  
HETATM   20  O   UNL     1      -8.749   8.746  69.264  1.00  0.00    -0.132 OA 
HETATM   21  H1  UNL     1     -10.210   6.750  68.048  1.00  0.00     0.000 HD 
HETATM   22  H2  UNL     1     -10.379   7.779  66.552  1.00  0.00     0.000 HD 
ENDBRANCH  15  17
ENDBRANCH   3   5
ENDBRANCH   2   3
TORSDOF 3
ENDMDL
MODEL      116
REMARK 921   NORMALIZED FREE ENERGY PREDICTED BY IDOCK:   -3.47 KCAL/MOL
REMARK 922        TOTAL FREE ENERGY PREDICTED BY IDOCK:   -4.43 KCAL/MOL
REMARK 923 INTER-LIGAND FREE ENERGY PREDICTED BY IDOCK:   -4.04 KCAL/MOL
REMARK 924 INTRA-LIGAND FREE ENERGY PREDICTED BY IDOCK:   -0.39 KCAL/MOL
REMARK 927      BINDING AFFINITY PREDICTED BY RF-SCORE:    0.00 PKD
ROOT
HETATM    1  C   UNL     1     -12.224  14.132  68.988  1.00  0.00    -0.274 C  
HETATM    2  C   UNL     1     -11.685  14.524  70.356  1.00  0.00    -0.290 C  
ENDROOT
BRANCH   2   3
HETATM    3  N   UNL     1     -10.397  15.222  70.218  1.00  0.00    -0.496 NA 
HETATM    4  H   UNL     1      -9.649  14.693  70.665  1.00  0.00     0.000 HD 
BRANCH   3   5
HETATM    5  C   UNL     1     -10.053  15.538  68.823  1.00  0.00    -0.211 C  
HETATM    6  C   UNL     1     -10.045  17.064  68.546  1.00  0.00    -0.303 C  
HETATM    7  C   UNL     1      -8.795  17.927  68.284  1.00  0.00    -0.275 C  
HETATM    8  S   UNL     1      -7.196  17.145  68.216  1.00  0.00    -0.213 S  
HETATM    9  C   UNL     1      -9.027  18.797  67.043  1.00  0.00    -0.299 C  
HETATM   10  C   UNL     1      -7.575  15.438  68.271  1.00  0.00    -0.115 A  
HETATM   11  O   UNL     1      -6.480  17.419  69.443  1.00  0.00    -0.237 OA 
HETATM   12  O   UNL     1      -6.605  17.346  66.910  1.00  0.00    -0.155 OA 
HETATM   13  C   UNL     1      -8.775  14.806  68.499  1.00  0.00    -0.174 A  
HETATM   14  C   UNL     1      -8.619  13.383  68.351  1.00  0.00    -0.134 A  
HETATM   15  C   UNL     1      -7.320  13.014  68.047  1.00  0.00    -0.123 A  
HETATM   16  S   UNL     1      -6.289  14.369  67.967  1.00  0.00    -0.167 SA 
BRANCH  15  17
HETATM   17  S   UNL     1      -6.547  11.445  67.697  1.00  0.00    -0.081 S  
HETATM   18  O   UNL     1      -7.464  10.464  68.230  1.00  0.00    -0.086 OA 
HETATM   19  N   UNL     1      -6.556  11.274  66.025  1.00  0.00    -0.368 N  
HETATM   20  O   UNL     1      -5.177  11.567  68.128  1.00  0.00    -0.043 OA 
HETATM   21  H1  UNL     1      -6.114  10.377  65.824  1.00  0.00     0.000 HD 
HETATM   22  H2  UNL     1      -6.929  11.936  65.345  1.00  0.00     0.000 HD 
ENDBRANCH  15  17
ENDBRANCH   3   5
ENDBRANCH   2   3
TORSDOF 3
ENDMDL
MODEL      117
REMARK 921   NORMALIZED FREE ENERGY PREDICTED BY IDOCK:   -3.45 KCAL/MOL
REMARK 922        TOTAL FREE ENERGY PREDICTED BY IDOCK:   -4.41 KCAL/MOL
REMARK 923 INTER-LIGAND FREE ENERGY PREDICTED BY IDOCK:   -4.09 KCAL/MOL
REMARK 924 INTRA-LIGAND FREE ENERGY PREDICTED BY IDOCK:   -0.32 KCAL/MOL
REMARK 927      BINDING AFFINITY PREDICTED BY RF-SCORE:    0.00 PKD
ROOT
HETATM    1  C   UNL     1     -11.697  14.541  68.853  1.00  0.00    -0.354 C  
HETATM    2  C   UNL     1     -10.867  13.461  68.174  1.00  0.00    -0.255 C  
ENDROOT
BRANCH   2   3
HETATM    3  N   UNL     1     -11.176  12.142  68.746  1.00  0.00    -0.245 NA 
HETATM    4  H   UNL     1     -11.995  12.192  69.351  1.00  0.00     0.000 HD 
BRANCH   3   5
HETATM    5  C   UNL     1     -11.340  11.090  67.730  1.00  0.00    -0.292 C  
HETATM    6  C   UNL     1     -10.845  11.537  66.330  1.00  0.00    -0.333 C  
HETATM    7  C   UNL     1      -9.583  11.016  65.612  1.00  0.00    -0.226 C  
HETATM    8  S   UNL     1      -8.607   9.741  66.381  1.00  0.00    -0.124 S  
HETATM    9  C   UNL     1      -9.940  10.633  64.171  1.00  0.00    -0.406 C  
HETATM   10  C   UNL     1      -9.571   9.267  67.762  1.00  0.00    -0.142 A  
HETATM   11  O   UNL     1      -7.407  10.329  66.934  1.00  0.00    -0.093 OA 
HETATM   12  O   UNL     1      -8.579   8.566  65.536  1.00  0.00    -0.163 OA 
HETATM   13  C   UNL     1     -10.714   9.834  68.278  1.00  0.00    -0.277 A  
HETATM   14  C   UNL     1     -11.209   9.037  69.370  1.00  0.00     0.102 A  
HETATM   15  C   UNL     1     -10.412   7.936  69.637  1.00  0.00    -0.226 A  
HETATM   16  S   UNL     1      -9.062   7.877  68.598  1.00  0.00    -0.135 SA 
BRANCH  15  17
HETATM   17  S   UNL     1     -10.542   6.588  70.797  1.00  0.00    -0.242 S  
HETATM   18  O   UNL     1     -11.830   6.775  71.425  1.00  0.00    -0.301 OA 
HETATM   19  N   UNL     1     -10.635   5.181  69.883  1.00  0.00    -0.228 N  
HETATM   20  O   UNL     1      -9.299   6.567  71.527  1.00  0.00    -0.148 OA 
HETATM   21  H1  UNL     1     -10.710   4.410  70.546  1.00  0.00     0.000 HD 
HETATM   22  H2  UNL     1     -10.621   5.112  68.866  1.00  0.00     0.000 HD 
ENDBRANCH  15  17
ENDBRANCH   3   5
ENDBRANCH   2   3
TORSDOF 3
ENDMDL
MODEL      118
REMARK 921   NORMALIZED FREE ENERGY PREDICTED BY IDOCK:   -3.45 KCAL/MOL
REMARK 922        TOTAL FREE ENERGY PREDICTED BY IDOCK:   -4.40 KCAL/MOL
REMARK 923 INTER-LIGAND FREE ENERGY PREDICTED BY IDOCK:   -4.03 KCAL/MOL
REMARK 924 INTRA-LIGAND FREE ENERGY PREDICTED BY IDOCK:   -0.37 KCAL/MOL
REMARK 927      BINDING AFFINITY PREDICTED BY RF-SCORE:    0.00 PKD
ROOT
HETATM    1  C   UNL     1      -6.699  17.652  67.008  1.00  0.00    -0.202 C  
HETATM    2  C   UNL     1      -7.747  16.552  67.087  1.00  0.00    -0.180 C  
ENDROOT
BRANCH   2   3
HETATM    3  N   UNL     1      -7.154  15.315  67.617  1.00  0.00    -0.165 NA 
HETATM    4  H   UNL     1      -6.330  15.522  68.181  1.00  0.00     0.000 HD 
BRANCH   3   5
HETATM    5  C   UNL     1      -8.109  14.489  68.372  1.00  0.00    -0.143 C  
HETATM    6  C   UNL     1      -8.787  15.272  69.527  1.00  0.00    -0.181 C  
HETATM    7  C   UNL     1     -10.261  15.720  69.569  1.00  0.00    -0.271 C  
HETATM    8  S   UNL     1     -11.347  15.269  68.230  1.00  0.00    -0.346 S  
HETATM    9  C   UNL     1     -10.873  15.331  70.919  1.00  0.00    -0.225 C  
HETATM   10  C   UNL     1     -10.377  14.174  67.270  1.00  0.00    -0.267 A  
HETATM   11  O   UNL     1     -11.569  16.424  67.388  1.00  0.00     0.175 OA 
HETATM   12  O   UNL     1     -12.431  14.451  68.732  1.00  0.00    -0.134 OA 
HETATM   13  C   UNL     1      -9.042  13.854  67.373  1.00  0.00    -0.217 A  
HETATM   14  C   UNL     1      -8.707  12.827  66.421  1.00  0.00     0.111 A  
HETATM   15  C   UNL     1      -9.785  12.446  65.641  1.00  0.00    -0.172 A  
HETATM   16  S   UNL     1     -11.185  13.336  66.032  1.00  0.00    -0.303 SA 
BRANCH  15  17
HETATM   17  S   UNL     1      -9.995  11.213  64.370  1.00  0.00    -0.328 S  
HETATM   18  O   UNL     1     -11.220  11.588  63.702  1.00  0.00    -0.411 OA 
HETATM   19  N   UNL     1      -8.743  11.442  63.273  1.00  0.00    -0.457 N  
HETATM   20  O   UNL     1      -9.800   9.937  65.012  1.00  0.00    -0.317 OA 
HETATM   21  H1  UNL     1      -8.863  10.737  62.546  1.00  0.00     0.000 HD 
HETATM   22  H2  UNL     1      -8.008  12.147  63.324  1.00  0.00     0.000 HD 
ENDBRANCH  15  17
ENDBRANCH   3   5
ENDBRANCH   2   3
TORSDOF 3
ENDMDL
MODEL      119
REMARK 921   NORMALIZED FREE ENERGY PREDICTED BY IDOCK:   -3.43 KCAL/MOL
REMARK 922        TOTAL FREE ENERGY PREDICTED BY IDOCK:   -4.38 KCAL/MOL
REMARK 923 INTER-LIGAND FREE ENERGY PREDICTED BY IDOCK:   -4.09 KCAL/MOL
REMARK 924 INTRA-LIGAND FREE ENERGY PREDICTED BY IDOCK:   -0.29 KCAL/MOL
REMARK 927      BINDING AFFINITY PREDICTED BY RF-SCORE:    0.00 PKD
ROOT
HETATM    1  C   UNL     1      -5.646  12.660  70.627  1.00  0.00    -0.177 C  
HETATM    2  C   UNL     1      -5.854  12.883  69.136  1.00  0.00    -0.081 C  
ENDROOT
BRANCH   2   3
HETATM    3  N   UNL     1      -6.956  12.045  68.640  1.00  0.00    -0.090 NA 
HETATM    4  H   UNL     1      -7.855  12.397  68.970  1.00  0.00     0.000 HD 
BRANCH   3   5
HETATM    5  C   UNL     1      -6.960  11.893  67.177  1.00  0.00    -0.142 C  
HETATM    6  C   UNL     1      -6.282  10.576  66.717  1.00  0.00    -0.070 C  
HETATM    7  C   UNL     1      -7.003   9.353  66.115  1.00  0.00    -0.090 C  
HETATM    8  S   UNL     1      -8.761   9.428  65.839  1.00  0.00    -0.163 S  
HETATM    9  C   UNL     1      -6.272   8.906  64.844  1.00  0.00    -0.065 C  
HETATM   10  C   UNL     1      -9.156  11.098  66.176  1.00  0.00    -0.201 A  
HETATM   11  O   UNL     1      -9.436   8.659  66.863  1.00  0.00    -0.157 OA 
HETATM   12  O   UNL     1      -9.044   9.263  64.429  1.00  0.00    -0.189 OA 
HETATM   13  C   UNL     1      -8.377  12.100  66.707  1.00  0.00    -0.111 A  
HETATM   14  C   UNL     1      -9.106  13.342  66.709  1.00  0.00    -0.221 A  
HETATM   15  C   UNL     1     -10.390  13.212  66.209  1.00  0.00    -0.287 A  
HETATM   16  S   UNL     1     -10.727  11.601  65.765  1.00  0.00    -0.276 SA 
BRANCH  15  17
HETATM   17  S   UNL     1     -11.708  14.376  65.914  1.00  0.00    -0.357 S  
HETATM   18  O   UNL     1     -11.189  15.258  64.894  1.00  0.00    -0.398 OA 
HETATM   19  N   UNL     1     -12.966  13.504  65.220  1.00  0.00    -0.711 N  
HETATM   20  O   UNL     1     -12.141  14.831  67.212  1.00  0.00    -0.307 OA 
HETATM   21  H1  UNL     1     -13.720  14.170  65.051  1.00  0.00     0.000 HD 
HETATM   22  H2  UNL     1     -12.975  12.506  65.009  1.00  0.00     0.000 HD 
ENDBRANCH  15  17
ENDBRANCH   3   5
ENDBRANCH   2   3
TORSDOF 3
ENDMDL
MODEL      120
REMARK 921   NORMALIZED FREE ENERGY PREDICTED BY IDOCK:   -3.43 KCAL/MOL
REMARK 922        TOTAL FREE ENERGY PREDICTED BY IDOCK:   -4.38 KCAL/MOL
REMARK 923 INTER-LIGAND FREE ENERGY PREDICTED BY IDOCK:   -4.04 KCAL/MOL
REMARK 924 INTRA-LIGAND FREE ENERGY PREDICTED BY IDOCK:   -0.34 KCAL/MOL
REMARK 927      BINDING AFFINITY PREDICTED BY RF-SCORE:    0.00 PKD
ROOT
HETATM    1  C   UNL     1     -10.290   4.005  65.019  1.00  0.00    -0.174 C  
HETATM    2  C   UNL     1     -10.056   4.886  66.237  1.00  0.00    -0.257 C  
ENDROOT
BRANCH   2   3
HETATM    3  N   UNL     1     -11.264   5.666  66.545  1.00  0.00    -0.665 NA 
HETATM    4  H   UNL     1     -12.061   5.050  66.709  1.00  0.00     0.000 HD 
BRANCH   3   5
HETATM    5  C   UNL     1     -11.085   6.598  67.669  1.00  0.00    -0.271 C  
HETATM    6  C   UNL     1     -10.873   5.864  69.019  1.00  0.00    -0.383 C  
HETATM    7  C   UNL     1      -9.553   5.800  69.813  1.00  0.00    -0.157 C  
HETATM    8  S   UNL     1      -8.130   6.684  69.208  1.00  0.00    -0.117 S  
HETATM    9  C   UNL     1      -9.825   6.148  71.281  1.00  0.00    -0.204 C  
HETATM   10  C   UNL     1      -8.767   7.617  67.872  1.00  0.00    -0.124 A  
HETATM   11  O   UNL     1      -7.204   5.744  68.614  1.00  0.00    -0.077 OA 
HETATM   12  O   UNL     1      -7.716   7.674  70.180  1.00  0.00    -0.088 OA 
HETATM   13  C   UNL     1     -10.006   7.574  67.276  1.00  0.00    -0.273 A  
HETATM   14  C   UNL     1     -10.105   8.601  66.272  1.00  0.00    -0.215 A  
HETATM   15  C   UNL     1      -8.943   9.342  66.144  1.00  0.00    -0.165 A  
HETATM   16  S   UNL     1      -7.730   8.788  67.207  1.00  0.00    -0.097 SA 
BRANCH  15  17
HETATM   17  S   UNL     1      -8.495  10.746  65.140  1.00  0.00    -0.041 S  
HETATM   18  O   UNL     1      -9.596  11.668  65.297  1.00  0.00    -0.232 OA 
HETATM   19  N   UNL     1      -7.154  11.445  65.872  1.00  0.00    -0.352 N  
HETATM   20  O   UNL     1      -8.082  10.212  63.866  1.00  0.00    -0.152 OA 
HETATM   21  H1  UNL     1      -6.897  12.248  65.298  1.00  0.00     0.000 HD 
HETATM   22  H2  UNL     1      -6.688  11.130  66.723  1.00  0.00     0.000 HD 
ENDBRANCH  15  17
ENDBRANCH   3   5
ENDBRANCH   2   3
TORSDOF 3
ENDMDL
MODEL      121
REMARK 921   NORMALIZED FREE ENERGY PREDICTED BY IDOCK:   -3.43 KCAL/MOL
REMARK 922        TOTAL FREE ENERGY PREDICTED BY IDOCK:   -4.38 KCAL/MOL
REMARK 923 INTER-LIGAND FREE ENERGY PREDICTED BY IDOCK:   -4.03 KCAL/MOL
REMARK 924 INTRA-LIGAND FREE ENERGY PREDICTED BY IDOCK:   -0.36 KCAL/MOL
REMARK 927      BINDING AFFINITY PREDICTED BY RF-SCORE:    0.00 PKD
ROOT
HETATM    1  C   UNL     1     -11.966  13.448  64.065  1.00  0.00    -0.520 C  
HETATM    2  C   UNL     1     -11.031  12.247  64.034  1.00  0.00    -0.383 C  
ENDROOT
BRANCH   2   3
HETATM    3  N   UNL     1      -9.828  12.515  64.836  1.00  0.00    -0.474 NA 
HETATM    4  H   UNL     1      -9.475  13.455  64.657  1.00  0.00     0.000 HD 
BRANCH   3   5
HETATM    5  C   UNL     1     -10.027  12.297  66.277  1.00  0.00    -0.232 C  
HETATM    6  C   UNL     1     -10.544  10.869  66.595  1.00  0.00    -0.305 C  
HETATM    7  C   UNL     1      -9.734   9.750  67.279  1.00  0.00    -0.169 C  
HETATM    8  S   UNL     1      -8.077  10.090  67.838  1.00  0.00    -0.109 S  
HETATM    9  C   UNL     1     -10.571   9.134  68.407  1.00  0.00    -0.217 C  
HETATM   10  C   UNL     1      -7.914  11.816  67.603  1.00  0.00    -0.143 A  
HETATM   11  O   UNL     1      -7.134   9.487  66.921  1.00  0.00    -0.084 OA 
HETATM   12  O   UNL     1      -7.994   9.907  69.271  1.00  0.00    -0.099 OA 
HETATM   13  C   UNL     1      -8.755  12.705  66.974  1.00  0.00    -0.198 A  
HETATM   14  C   UNL     1      -8.248  14.045  67.115  1.00  0.00    -0.146 A  
HETATM   15  C   UNL     1      -7.054  14.098  67.812  1.00  0.00    -0.174 A  
HETATM   16  S   UNL     1      -6.531  12.542  68.272  1.00  0.00    -0.077 SA 
BRANCH  15  17
HETATM   17  S   UNL     1      -6.007  15.441  68.341  1.00  0.00    -0.113 S  
HETATM   18  O   UNL     1      -5.157  15.706  67.202  1.00  0.00    -0.331 OA 
HETATM   19  N   UNL     1      -7.009  16.777  68.532  1.00  0.00    -0.160 N  
HETATM   20  O   UNL     1      -5.502  15.070  69.639  1.00  0.00    -0.093 OA 
HETATM   21  H1  UNL     1      -6.410  17.546  68.834  1.00  0.00     0.000 HD 
HETATM   22  H2  UNL     1      -8.016  16.813  68.377  1.00  0.00     0.000 HD 
ENDBRANCH  15  17
ENDBRANCH   3   5
ENDBRANCH   2   3
TORSDOF 3
ENDMDL
MODEL      122
REMARK 921   NORMALIZED FREE ENERGY PREDICTED BY IDOCK:   -3.43 KCAL/MOL
REMARK 922        TOTAL FREE ENERGY PREDICTED BY IDOCK:   -4.38 KCAL/MOL
REMARK 923 INTER-LIGAND FREE ENERGY PREDICTED BY IDOCK:   -3.93 KCAL/MOL
REMARK 924 INTRA-LIGAND FREE ENERGY PREDICTED BY IDOCK:   -0.45 KCAL/MOL
REMARK 927      BINDING AFFINITY PREDICTED BY RF-SCORE:    0.00 PKD
ROOT
HETATM    1  C   UNL     1     -12.725   7.141  71.250  1.00  0.00    -0.412 C  
HETATM    2  C   UNL     1     -12.223   8.262  72.150  1.00  0.00    -0.364 C  
ENDROOT
BRANCH   2   3
HETATM    3  N   UNL     1     -11.318   9.150  71.406  1.00  0.00    -0.315 NA 
HETATM    4  H   UNL     1     -11.485  10.126  71.651  1.00  0.00     0.000 HD 
BRANCH   3   5
HETATM    5  C   UNL     1      -9.897   8.806  71.573  1.00  0.00    -0.301 C  
HETATM    6  C   UNL     1      -9.626   8.029  72.887  1.00  0.00    -0.348 C  
HETATM    7  C   UNL     1      -9.247   6.539  72.992  1.00  0.00    -0.131 C  
HETATM    8  S   UNL     1      -9.020   5.591  71.500  1.00  0.00    -0.136 S  
HETATM    9  C   UNL     1      -8.038   6.385  73.922  1.00  0.00    -0.109 C  
HETATM   10  C   UNL     1      -9.105   6.797  70.235  1.00  0.00    -0.153 A  
HETATM   11  O   UNL     1     -10.172   4.740  71.298  1.00  0.00    -0.197 OA 
HETATM   12  O   UNL     1      -7.663   5.091  71.437  1.00  0.00    -0.093 OA 
HETATM   13  C   UNL     1      -9.447   8.128  70.304  1.00  0.00    -0.170 A  
HETATM   14  C   UNL     1      -9.279   8.747  69.016  1.00  0.00    -0.141 A  
HETATM   15  C   UNL     1      -8.848   7.859  68.045  1.00  0.00    -0.124 A  
HETATM   16  S   UNL     1      -8.672   6.284  68.673  1.00  0.00    -0.119 SA 
BRANCH  15  17
HETATM   17  S   UNL     1      -8.417   8.046  66.324  1.00  0.00    -0.141 S  
HETATM   18  O   UNL     1      -8.521   6.713  65.779  1.00  0.00    -0.141 OA 
HETATM   19  N   UNL     1      -9.640   8.964  65.626  1.00  0.00    -0.453 N  
HETATM   20  O   UNL     1      -7.203   8.823  66.297  1.00  0.00    -0.083 OA 
HETATM   21  H1  UNL     1      -9.394   9.071  64.642  1.00  0.00     0.000 HD 
HETATM   22  H2  UNL     1     -10.465   9.339  66.093  1.00  0.00     0.000 HD 
ENDBRANCH  15  17
ENDBRANCH   3   5
ENDBRANCH   2   3
TORSDOF 3
ENDMDL
MODEL      123
REMARK 921   NORMALIZED FREE ENERGY PREDICTED BY IDOCK:   -3.41 KCAL/MOL
REMARK 922        TOTAL FREE ENERGY PREDICTED BY IDOCK:   -4.36 KCAL/MOL
REMARK 923 INTER-LIGAND FREE ENERGY PREDICTED BY IDOCK:   -4.02 KCAL/MOL
REMARK 924 INTRA-LIGAND FREE ENERGY PREDICTED BY IDOCK:   -0.34 KCAL/MOL
REMARK 927      BINDING AFFINITY PREDICTED BY RF-SCORE:    0.00 PKD
ROOT
HETATM    1  C   UNL     1     -12.002  13.705  67.665  1.00  0.00    -0.386 C  
HETATM    2  C   UNL     1     -11.757  12.205  67.754  1.00  0.00    -0.320 C  
ENDROOT
BRANCH   2   3
HETATM    3  N   UNL     1     -10.530  11.930  68.516  1.00  0.00    -0.219 NA 
HETATM    4  H   UNL     1     -10.716  11.279  69.279  1.00  0.00     0.000 HD 
BRANCH   3   5
HETATM    5  C   UNL     1      -9.421  11.448  67.678  1.00  0.00    -0.162 C  
HETATM    6  C   UNL     1      -8.178  12.373  67.752  1.00  0.00    -0.163 C  
HETATM    7  C   UNL     1      -6.841  12.034  68.442  1.00  0.00    -0.072 C  
HETATM    8  S   UNL     1      -6.624  10.426  69.176  1.00  0.00    -0.060 S  
HETATM    9  C   UNL     1      -5.682  12.358  67.491  1.00  0.00    -0.138 C  
HETATM   10  C   UNL     1      -8.054   9.552  68.675  1.00  0.00    -0.097 A  
HETATM   11  O   UNL     1      -6.730  10.542  70.615  1.00  0.00    -0.333 OA 
HETATM   12  O   UNL     1      -5.529   9.734  68.531  1.00  0.00    -0.037 OA 
HETATM   13  C   UNL     1      -9.185  10.002  68.032  1.00  0.00    -0.139 A  
HETATM   14  C   UNL     1     -10.058   8.896  67.738  1.00  0.00    -0.263 A  
HETATM   15  C   UNL     1      -9.561   7.685  68.189  1.00  0.00    -0.149 A  
HETATM   16  S   UNL     1      -8.067   7.881  68.986  1.00  0.00    -0.125 SA 
BRANCH  15  17
HETATM   17  S   UNL     1     -10.147   6.005  68.069  1.00  0.00    -0.177 S  
HETATM   18  O   UNL     1     -11.056   5.859  69.182  1.00  0.00    -0.351 OA 
HETATM   19  N   UNL     1     -11.066   5.921  66.664  1.00  0.00    -0.724 N  
HETATM   20  O   UNL     1      -8.976   5.184  67.887  1.00  0.00    -0.109 OA 
HETATM   21  H1  UNL     1     -11.401   4.961  66.595  1.00  0.00     0.000 HD 
HETATM   22  H2  UNL     1     -11.253   6.681  66.010  1.00  0.00     0.000 HD 
ENDBRANCH  15  17
ENDBRANCH   3   5
ENDBRANCH   2   3
TORSDOF 3
ENDMDL
MODEL      124
REMARK 921   NORMALIZED FREE ENERGY PREDICTED BY IDOCK:   -3.36 KCAL/MOL
REMARK 922        TOTAL FREE ENERGY PREDICTED BY IDOCK:   -4.31 KCAL/MOL
REMARK 923 INTER-LIGAND FREE ENERGY PREDICTED BY IDOCK:   -4.08 KCAL/MOL
REMARK 924 INTRA-LIGAND FREE ENERGY PREDICTED BY IDOCK:   -0.23 KCAL/MOL
REMARK 927      BINDING AFFINITY PREDICTED BY RF-SCORE:    0.00 PKD
ROOT
HETATM    1  C   UNL     1      -9.013   9.389  62.381  1.00  0.00    -0.258 C  
HETATM    2  C   UNL     1      -8.564   9.912  63.737  1.00  0.00    -0.199 C  
ENDROOT
BRANCH   2   3
HETATM    3  N   UNL     1      -9.728  10.288  64.553  1.00  0.00    -0.321 NA 
HETATM    4  H   UNL     1      -9.957   9.550  65.219  1.00  0.00     0.000 HD 
BRANCH   3   5
HETATM    5  C   UNL     1      -9.566  11.578  65.240  1.00  0.00    -0.218 C  
HETATM    6  C   UNL     1     -10.825  12.476  65.120  1.00  0.00    -0.323 C  
HETATM    7  C   UNL     1     -11.801  12.819  66.264  1.00  0.00    -0.423 C  
HETATM    8  S   UNL     1     -11.466  12.213  67.905  1.00  0.00    -0.345 S  
HETATM    9  C   UNL     1     -12.050  14.331  66.284  1.00  0.00    -0.433 C  
HETATM   10  C   UNL     1      -9.870  11.509  67.762  1.00  0.00    -0.177 A  
HETATM   11  O   UNL     1     -12.350  11.103  68.191  1.00  0.00    -0.469 OA 
HETATM   12  O   UNL     1     -11.294  13.325  68.814  1.00  0.00    -0.254 OA 
HETATM   13  C   UNL     1      -9.100  11.286  66.643  1.00  0.00    -0.187 A  
HETATM   14  C   UNL     1      -7.811  10.772  67.028  1.00  0.00    -0.121 A  
HETATM   15  C   UNL     1      -7.683  10.612  68.397  1.00  0.00    -0.106 A  
HETATM   16  S   UNL     1      -9.113  11.052  69.213  1.00  0.00     0.213 SA 
BRANCH  15  17
HETATM   17  S   UNL     1      -6.338  10.088  69.443  1.00  0.00    -0.049 S  
HETATM   18  O   UNL     1      -6.583  10.747  70.705  1.00  0.00    -0.332 OA 
HETATM   19  N   UNL     1      -6.547   8.440  69.697  1.00  0.00    -0.036 N  
HETATM   20  O   UNL     1      -5.134  10.273  68.672  1.00  0.00    -0.039 OA 
HETATM   21  H1  UNL     1      -5.778   8.139  70.295  1.00  0.00     0.000 HD 
HETATM   22  H2  UNL     1      -7.296   7.855  69.326  1.00  0.00     0.000 HD 
ENDBRANCH  15  17
ENDBRANCH   3   5
ENDBRANCH   2   3
TORSDOF 3
ENDMDL
MODEL      125
REMARK 921   NORMALIZED FREE ENERGY PREDICTED BY IDOCK:   -3.36 KCAL/MOL
REMARK 922        TOTAL FREE ENERGY PREDICTED BY IDOCK:   -4.30 KCAL/MOL
REMARK 923 INTER-LIGAND FREE ENERGY PREDICTED BY IDOCK:   -3.83 KCAL/MOL
REMARK 924 INTRA-LIGAND FREE ENERGY PREDICTED BY IDOCK:   -0.47 KCAL/MOL
REMARK 927      BINDING AFFINITY PREDICTED BY RF-SCORE:    0.00 PKD
ROOT
HETATM    1  C   UNL     1      -6.782   7.687  65.644  1.00  0.00    -0.045 C  
HETATM    2  C   UNL     1      -7.793   6.610  65.278  1.00  0.00    -0.110 C  
ENDROOT
BRANCH   2   3
HETATM    3  N   UNL     1      -9.161   7.144  65.349  1.00  0.00    -0.359 NA 
HETATM    4  H   UNL     1      -9.719   6.817  64.561  1.00  0.00     0.000 HD 
BRANCH   3   5
HETATM    5  C   UNL     1      -9.835   6.850  66.623  1.00  0.00    -0.153 C  
HETATM    6  C   UNL     1      -9.201   5.644  67.364  1.00  0.00    -0.109 C  
HETATM    7  C   UNL     1      -8.369   5.717  68.660  1.00  0.00    -0.107 C  
HETATM    8  S   UNL     1      -8.139   7.293  69.459  1.00  0.00    -0.131 S  
HETATM    9  C   UNL     1      -8.887   4.674  69.657  1.00  0.00    -0.121 C  
HETATM   10  C   UNL     1      -9.193   8.362  68.562  1.00  0.00    -0.135 A  
HETATM   11  O   UNL     1      -6.797   7.767  69.196  1.00  0.00    -0.047 OA 
HETATM   12  O   UNL     1      -8.703   7.256  70.791  1.00  0.00    -0.143 OA 
HETATM   13  C   UNL     1      -9.902   8.138  67.404  1.00  0.00    -0.242 A  
HETATM   14  C   UNL     1     -10.712   9.287  67.092  1.00  0.00    -0.222 A  
HETATM   15  C   UNL     1     -10.557  10.317  68.004  1.00  0.00    -0.231 A  
HETATM   16  S   UNL     1      -9.425   9.915  69.213  1.00  0.00    -0.222 SA 
BRANCH  15  17
HETATM   17  S   UNL     1     -11.320  11.920  68.174  1.00  0.00    -0.315 S  
HETATM   18  O   UNL     1     -11.940  11.888  69.479  1.00  0.00    -0.304 OA 
HETATM   19  N   UNL     1     -10.067  13.037  68.249  1.00  0.00    -0.236 N  
HETATM   20  O   UNL     1     -12.051  12.148  66.953  1.00  0.00    -0.600 OA 
HETATM   21  H1  UNL     1     -10.502  13.954  68.346  1.00  0.00     0.000 HD 
HETATM   22  H2  UNL     1      -9.067  12.838  68.206  1.00  0.00     0.000 HD 
ENDBRANCH  15  17
ENDBRANCH   3   5
ENDBRANCH   2   3
TORSDOF 3
ENDMDL
MODEL      126
REMARK 921   NORMALIZED FREE ENERGY PREDICTED BY IDOCK:   -3.33 KCAL/MOL
REMARK 922        TOTAL FREE ENERGY PREDICTED BY IDOCK:   -4.27 KCAL/MOL
REMARK 923 INTER-LIGAND FREE ENERGY PREDICTED BY IDOCK:   -3.98 KCAL/MOL
REMARK 924 INTRA-LIGAND FREE ENERGY PREDICTED BY IDOCK:   -0.29 KCAL/MOL
REMARK 927      BINDING AFFINITY PREDICTED BY RF-SCORE:    0.00 PKD
ROOT
HETATM    1  C   UNL     1      -9.870   6.833  73.868  1.00  0.00    -0.318 C  
HETATM    2  C   UNL     1     -10.617   5.620  73.330  1.00  0.00    -0.258 C  
ENDROOT
BRANCH   2   3
HETATM    3  N   UNL     1     -10.376   5.468  71.888  1.00  0.00    -0.209 NA 
HETATM    4  H   UNL     1     -10.182   4.494  71.654  1.00  0.00     0.000 HD 
BRANCH   3   5
HETATM    5  C   UNL     1     -11.467   5.998  71.056  1.00  0.00    -0.166 C  
HETATM    6  C   UNL     1     -12.594   6.648  71.901  1.00  0.00    -0.303 C  
HETATM    7  C   UNL     1     -12.903   8.157  71.982  1.00  0.00    -0.318 C  
HETATM    8  S   UNL     1     -11.959   9.294  70.988  1.00  0.00    -0.287 S  
HETATM    9  C   UNL     1     -14.406   8.379  71.782  1.00  0.00    -0.558 C  
HETATM   10  C   UNL     1     -11.004   8.245  69.964  1.00  0.00    -0.197 A  
HETATM   11  O   UNL     1     -11.004   9.981  71.830  1.00  0.00     0.172 OA 
HETATM   12  O   UNL     1     -12.837   9.995  70.075  1.00  0.00     0.052 OA 
HETATM   13  C   UNL     1     -10.844   6.879  70.004  1.00  0.00    -0.299 A  
HETATM   14  C   UNL     1     -10.035   6.445  68.894  1.00  0.00    -0.168 A  
HETATM   15  C   UNL     1      -9.610   7.494  68.097  1.00  0.00    -0.148 A  
HETATM   16  S   UNL     1     -10.158   8.994  68.694  1.00  0.00    -0.194 SA 
BRANCH  15  17
HETATM   17  S   UNL     1      -8.661   7.574  66.590  1.00  0.00    -0.137 S  
HETATM   18  O   UNL     1      -8.896   6.302  65.947  1.00  0.00    -0.156 OA 
HETATM   19  N   UNL     1      -9.383   8.753  65.634  1.00  0.00    -0.401 N  
HETATM   20  O   UNL     1      -7.350   8.043  66.965  1.00  0.00    -0.087 OA 
HETATM   21  H1  UNL     1      -8.840   8.799  64.772  1.00  0.00     0.000 HD 
HETATM   22  H2  UNL     1     -10.203   9.312  65.870  1.00  0.00     0.000 HD 
ENDBRANCH  15  17
ENDBRANCH   3   5
ENDBRANCH   2   3
TORSDOF 3
ENDMDL
MODEL      127
REMARK 921   NORMALIZED FREE ENERGY PREDICTED BY IDOCK:   -3.31 KCAL/MOL
REMARK 922        TOTAL FREE ENERGY PREDICTED BY IDOCK:   -4.24 KCAL/MOL
REMARK 923 INTER-LIGAND FREE ENERGY PREDICTED BY IDOCK:   -3.95 KCAL/MOL
REMARK 924 INTRA-LIGAND FREE ENERGY PREDICTED BY IDOCK:   -0.29 KCAL/MOL
REMARK 927      BINDING AFFINITY PREDICTED BY RF-SCORE:    0.00 PKD
ROOT
HETATM    1  C   UNL     1      -9.768   4.405  70.130  1.00  0.00    -0.288 C  
HETATM    2  C   UNL     1      -9.845   4.895  68.691  1.00  0.00    -0.152 C  
ENDROOT
BRANCH   2   3
HETATM    3  N   UNL     1      -9.253   6.236  68.574  1.00  0.00    -0.124 NA 
HETATM    4  H   UNL     1      -8.572   6.265  67.815  1.00  0.00     0.000 HD 
BRANCH   3   5
HETATM    5  C   UNL     1     -10.253   7.303  68.419  1.00  0.00    -0.180 C  
HETATM    6  C   UNL     1     -10.703   7.896  69.780  1.00  0.00    -0.233 C  
HETATM    7  C   UNL     1     -10.355   9.301  70.310  1.00  0.00    -0.229 C  
HETATM    8  S   UNL     1      -9.412  10.410  69.283  1.00  0.00    -0.168 S  
HETATM    9  C   UNL     1     -11.630   9.983  70.819  1.00  0.00    -0.444 C  
HETATM   10  C   UNL     1      -9.324   9.571  67.751  1.00  0.00    -0.127 A  
HETATM   11  O   UNL     1      -8.051  10.466  69.769  1.00  0.00    -0.146 OA 
HETATM   12  O   UNL     1     -10.188  11.600  69.004  1.00  0.00    -0.164 OA 
HETATM   13  C   UNL     1      -9.707   8.291  67.421  1.00  0.00    -0.225 A  
HETATM   14  C   UNL     1      -9.531   8.073  66.009  1.00  0.00    -0.123 A  
HETATM   15  C   UNL     1      -9.009   9.176  65.355  1.00  0.00    -0.207 A  
HETATM   16  S   UNL     1      -8.706  10.457  66.438  1.00  0.00    -0.144 SA 
BRANCH  15  17
HETATM   17  S   UNL     1      -8.638   9.519  63.645  1.00  0.00    -0.214 S  
HETATM   18  O   UNL     1      -9.685  10.422  63.223  1.00  0.00    -0.313 OA 
HETATM   19  N   UNL     1      -7.200  10.388  63.635  1.00  0.00    -0.315 N  
HETATM   20  O   UNL     1      -8.394   8.242  63.023  1.00  0.00    -0.157 OA 
HETATM   21  H1  UNL     1      -6.988  10.585  62.657  1.00  0.00     0.000 HD 
HETATM   22  H2  UNL     1      -6.648  10.666  64.447  1.00  0.00     0.000 HD 
ENDBRANCH  15  17
ENDBRANCH   3   5
ENDBRANCH   2   3
TORSDOF 3
ENDMDL
MODEL      128
REMARK 921   NORMALIZED FREE ENERGY PREDICTED BY IDOCK:   -3.29 KCAL/MOL
REMARK 922        TOTAL FREE ENERGY PREDICTED BY IDOCK:   -4.22 KCAL/MOL
REMARK 923 INTER-LIGAND FREE ENERGY PREDICTED BY IDOCK:   -3.80 KCAL/MOL
REMARK 924 INTRA-LIGAND FREE ENERGY PREDICTED BY IDOCK:   -0.42 KCAL/MOL
REMARK 927      BINDING AFFINITY PREDICTED BY RF-SCORE:    0.00 PKD
ROOT
HETATM    1  C   UNL     1      -6.916   4.553  71.082  1.00  0.00    -0.036 C  
HETATM    2  C   UNL     1      -6.449   4.893  69.674  1.00  0.00    -0.035 C  
ENDROOT
BRANCH   2   3
HETATM    3  N   UNL     1      -6.323   6.350  69.514  1.00  0.00    -0.033 NA 
HETATM    4  H   UNL     1      -5.359   6.608  69.302  1.00  0.00     0.000 HD 
BRANCH   3   5
HETATM    5  C   UNL     1      -7.245   6.907  68.513  1.00  0.00    -0.084 C  
HETATM    6  C   UNL     1      -7.110   6.215  67.132  1.00  0.00    -0.070 C  
HETATM    7  C   UNL     1      -8.146   5.269  66.492  1.00  0.00    -0.108 C  
HETATM    8  S   UNL     1      -9.683   4.961  67.338  1.00  0.00    -0.172 S  
HETATM    9  C   UNL     1      -8.401   5.700  65.042  1.00  0.00    -0.146 C  
HETATM   10  C   UNL     1      -9.645   6.087  68.676  1.00  0.00    -0.125 A  
HETATM   11  O   UNL     1      -9.638   3.646  67.941  1.00  0.00    -0.184 OA 
HETATM   12  O   UNL     1     -10.792   5.403  66.520  1.00  0.00    -0.287 OA 
HETATM   13  C   UNL     1      -8.625   6.898  69.119  1.00  0.00    -0.128 A  
HETATM   14  C   UNL     1      -9.091   7.728  70.200  1.00  0.00    -0.153 A  
HETATM   15  C   UNL     1     -10.413   7.487  70.531  1.00  0.00    -0.219 A  
HETATM   16  S   UNL     1     -11.084   6.252  69.565  1.00  0.00    -0.421 SA 
BRANCH  15  17
HETATM   17  S   UNL     1     -11.529   8.224  71.710  1.00  0.00    -0.317 S  
HETATM   18  O   UNL     1     -11.417   9.645  71.474  1.00  0.00    -0.377 OA 
HETATM   19  N   UNL     1     -13.079   7.766  71.249  1.00  0.00    -0.522 N  
HETATM   20  O   UNL     1     -11.238   7.605  72.979  1.00  0.00    -0.384 OA 
HETATM   21  H1  UNL     1     -13.718   8.187  71.924  1.00  0.00     0.000 HD 
HETATM   22  H2  UNL     1     -13.332   7.182  70.452  1.00  0.00     0.000 HD 
ENDBRANCH  15  17
ENDBRANCH   3   5
ENDBRANCH   2   3
TORSDOF 3
ENDMDL
MODEL      129
REMARK 921   NORMALIZED FREE ENERGY PREDICTED BY IDOCK:   -3.26 KCAL/MOL
REMARK 922        TOTAL FREE ENERGY PREDICTED BY IDOCK:   -4.19 KCAL/MOL
REMARK 923 INTER-LIGAND FREE ENERGY PREDICTED BY IDOCK:   -3.88 KCAL/MOL
REMARK 924 INTRA-LIGAND FREE ENERGY PREDICTED BY IDOCK:   -0.31 KCAL/MOL
REMARK 927      BINDING AFFINITY PREDICTED BY RF-SCORE:    0.00 PKD
ROOT
HETATM    1  C   UNL     1     -13.851   8.225  72.024  1.00  0.00    -0.406 C  
HETATM    2  C   UNL     1     -12.516   7.542  71.769  1.00  0.00    -0.330 C  
ENDROOT
BRANCH   2   3
HETATM    3  N   UNL     1     -12.378   7.201  70.345  1.00  0.00    -0.600 NA 
HETATM    4  H   UNL     1     -13.005   7.768  69.775  1.00  0.00     0.000 HD 
BRANCH   3   5
HETATM    5  C   UNL     1     -10.995   7.297  69.854  1.00  0.00    -0.243 C  
HETATM    6  C   UNL     1     -10.507   8.766  69.741  1.00  0.00    -0.222 C  
HETATM    7  C   UNL     1      -9.460   9.441  70.648  1.00  0.00    -0.262 C  
HETATM    8  S   UNL     1      -8.655   8.479  71.914  1.00  0.00    -0.173 S  
HETATM    9  C   UNL     1      -8.427  10.168  69.779  1.00  0.00    -0.147 C  
HETATM   10  C   UNL     1      -9.195   6.847  71.591  1.00  0.00    -0.146 A  
HETATM   11  O   UNL     1      -9.218   8.822  73.201  1.00  0.00    -0.199 OA 
HETATM   12  O   UNL     1      -7.228   8.446  71.673  1.00  0.00    -0.077 OA 
HETATM   13  C   UNL     1     -10.149   6.390  70.711  1.00  0.00    -0.220 A  
HETATM   14  C   UNL     1     -10.182   4.951  70.723  1.00  0.00    -0.276 A  
HETATM   15  C   UNL     1      -9.280   4.401  71.618  1.00  0.00    -0.135 A  
HETATM   16  S   UNL     1      -8.418   5.609  72.458  1.00  0.00    -0.117 SA 
BRANCH  15  17
HETATM   17  S   UNL     1      -8.831   2.723  72.023  1.00  0.00    -0.076 S  
HETATM   18  O   UNL     1      -7.386   2.724  72.017  1.00  0.00    -0.041 OA 
HETATM   19  N   UNL     1      -9.320   2.470  73.611  1.00  0.00    -0.083 N  
HETATM   20  O   UNL     1      -9.627   1.877  71.169  1.00  0.00    -0.128 OA 
HETATM   21  H1  UNL     1      -9.064   1.510  73.842  1.00  0.00     0.000 HD 
HETATM   22  H2  UNL     1      -9.782   3.142  74.222  1.00  0.00     0.000 HD 
ENDBRANCH  15  17
ENDBRANCH   3   5
ENDBRANCH   2   3
TORSDOF 3
ENDMDL
MODEL      130
REMARK 921   NORMALIZED FREE ENERGY PREDICTED BY IDOCK:   -3.25 KCAL/MOL
REMARK 922        TOTAL FREE ENERGY PREDICTED BY IDOCK:   -4.17 KCAL/MOL
REMARK 923 INTER-LIGAND FREE ENERGY PREDICTED BY IDOCK:   -4.23 KCAL/MOL
REMARK 924 INTRA-LIGAND FREE ENERGY PREDICTED BY IDOCK:    0.06 KCAL/MOL
REMARK 927      BINDING AFFINITY PREDICTED BY RF-SCORE:    0.00 PKD
ROOT
HETATM    1  C   UNL     1      -9.168   7.630  66.403  1.00  0.00    -0.223 C  
HETATM    2  C   UNL     1      -9.538   7.294  67.840  1.00  0.00    -0.139 C  
ENDROOT
BRANCH   2   3
HETATM    3  N   UNL     1     -10.745   8.030  68.245  1.00  0.00    -0.421 NA 
HETATM    4  H   UNL     1     -11.561   7.419  68.237  1.00  0.00     0.000 HD 
BRANCH   3   5
HETATM    5  C   UNL     1     -10.608   8.703  69.546  1.00  0.00    -0.213 C  
HETATM    6  C   UNL     1     -11.589   9.894  69.703  1.00  0.00    -0.095 C  
HETATM    7  C   UNL     1     -12.818   9.934  70.633  1.00  0.00    -0.137 C  
HETATM    8  S   UNL     1     -13.152   8.542  71.694  1.00  0.00    -0.329 S  
HETATM    9  C   UNL     1     -12.806  11.239  71.437  1.00  0.00    -0.515 C  
HETATM   10  C   UNL     1     -11.740   7.530  71.495  1.00  0.00    -0.280 A  
HETATM   11  O   UNL     1     -14.252   7.779  71.144  1.00  0.00    -0.307 OA 
HETATM   12  O   UNL     1     -13.111   8.959  73.079  1.00  0.00    -0.309 OA 
HETATM   13  C   UNL     1     -10.690   7.640  70.612  1.00  0.00    -0.237 A  
HETATM   14  C   UNL     1      -9.706   6.626  70.887  1.00  0.00    -0.190 A  
HETATM   15  C   UNL     1     -10.068   5.796  71.934  1.00  0.00    -0.185 A  
HETATM   16  S   UNL     1     -11.594   6.217  72.565  1.00  0.00    -0.184 SA 
BRANCH  15  17
HETATM   17  S   UNL     1      -9.253   4.437  72.751  1.00  0.00    -0.128 S  
HETATM   18  O   UNL     1     -10.125   3.307  72.528  1.00  0.00    -0.149 OA 
HETATM   19  N   UNL     1      -7.837   4.147  71.894  1.00  0.00    -0.078 N  
HETATM   20  O   UNL     1      -8.893   4.914  74.063  1.00  0.00    -0.114 OA 
HETATM   21  H1  UNL     1      -7.370   3.369  72.361  1.00  0.00     0.000 HD 
HETATM   22  H2  UNL     1      -7.508   4.649  71.069  1.00  0.00     0.000 HD 
ENDBRANCH  15  17
ENDBRANCH   3   5
ENDBRANCH   2   3
TORSDOF 3
ENDMDL
MODEL      131
REMARK 921   NORMALIZED FREE ENERGY PREDICTED BY IDOCK:   -3.24 KCAL/MOL
REMARK 922        TOTAL FREE ENERGY PREDICTED BY IDOCK:   -4.17 KCAL/MOL
REMARK 923 INTER-LIGAND FREE ENERGY PREDICTED BY IDOCK:   -3.84 KCAL/MOL
REMARK 924 INTRA-LIGAND FREE ENERGY PREDICTED BY IDOCK:   -0.32 KCAL/MOL
REMARK 927      BINDING AFFINITY PREDICTED BY RF-SCORE:    0.00 PKD
ROOT
HETATM    1  C   UNL     1      -5.695  16.185  67.211  1.00  0.00    -0.108 C  
HETATM    2  C   UNL     1      -6.106  14.967  68.026  1.00  0.00    -0.150 C  
ENDROOT
BRANCH   2   3
HETATM    3  N   UNL     1      -7.027  14.120  67.252  1.00  0.00    -0.390 NA 
HETATM    4  H   UNL     1      -6.562  13.266  66.945  1.00  0.00     0.000 HD 
BRANCH   3   5
HETATM    5  C   UNL     1      -8.272  13.808  67.970  1.00  0.00    -0.164 C  
HETATM    6  C   UNL     1      -9.493  14.578  67.401  1.00  0.00    -0.202 C  
HETATM    7  C   UNL     1     -10.657  13.960  66.601  1.00  0.00    -0.274 C  
HETATM    8  S   UNL     1     -10.690  12.199  66.333  1.00  0.00    -0.267 S  
HETATM    9  C   UNL     1     -11.989  14.446  67.184  1.00  0.00    -0.419 C  
HETATM   10  C   UNL     1      -9.373  11.611  67.323  1.00  0.00    -0.169 A  
HETATM   11  O   UNL     1     -10.299  11.919  64.968  1.00  0.00    -0.267 OA 
HETATM   12  O   UNL     1     -11.879  11.632  66.934  1.00  0.00    -0.577 OA 
HETATM   13  C   UNL     1      -8.404  12.307  68.009  1.00  0.00    -0.165 A  
HETATM   14  C   UNL     1      -7.587  11.396  68.767  1.00  0.00    -0.132 A  
HETATM   15  C   UNL     1      -7.958  10.073  68.598  1.00  0.00    -0.097 A  
HETATM   16  S   UNL     1      -9.265   9.925  67.514  1.00  0.00    -0.133 SA 
BRANCH  15  17
HETATM   17  S   UNL     1      -7.376   8.542  69.304  1.00  0.00    -0.072 S  
HETATM   18  O   UNL     1      -6.124   8.890  69.935  1.00  0.00    -0.034 OA 
HETATM   19  N   UNL     1      -8.455   8.143  70.530  1.00  0.00    -0.122 N  
HETATM   20  O   UNL     1      -7.493   7.551  68.264  1.00  0.00    -0.102 OA 
HETATM   21  H1  UNL     1      -8.122   7.268  70.934  1.00  0.00     0.000 HD 
HETATM   22  H2  UNL     1      -9.279   8.672  70.814  1.00  0.00     0.000 HD 
ENDBRANCH  15  17
ENDBRANCH   3   5
ENDBRANCH   2   3
TORSDOF 3
ENDMDL
MODEL      132
REMARK 921   NORMALIZED FREE ENERGY PREDICTED BY IDOCK:   -3.22 KCAL/MOL
REMARK 922        TOTAL FREE ENERGY PREDICTED BY IDOCK:   -4.14 KCAL/MOL
REMARK 923 INTER-LIGAND FREE ENERGY PREDICTED BY IDOCK:   -3.83 KCAL/MOL
REMARK 924 INTRA-LIGAND FREE ENERGY PREDICTED BY IDOCK:   -0.31 KCAL/MOL
REMARK 927      BINDING AFFINITY PREDICTED BY RF-SCORE:    0.00 PKD
ROOT
HETATM    1  C   UNL     1      -5.565   9.387  71.612  1.00  0.00    -0.074 C  
HETATM    2  C   UNL     1      -6.557   9.593  70.476  1.00  0.00    -0.107 C  
ENDROOT
BRANCH   2   3
HETATM    3  N   UNL     1      -7.122   8.304  70.049  1.00  0.00    -0.043 NA 
HETATM    4  H   UNL     1      -7.540   7.812  70.840  1.00  0.00     0.000 HD 
BRANCH   3   5
HETATM    5  C   UNL     1      -8.085   8.428  68.944  1.00  0.00    -0.114 C  
HETATM    6  C   UNL     1      -7.676   7.589  67.705  1.00  0.00    -0.115 C  
HETATM    7  C   UNL     1      -8.381   6.311  67.209  1.00  0.00    -0.109 C  
HETATM    8  S   UNL     1      -9.839   5.737  68.054  1.00  0.00    -0.140 S  
HETATM    9  C   UNL     1      -8.635   6.424  65.701  1.00  0.00    -0.138 C  
HETATM   10  C   UNL     1     -10.192   7.027  69.181  1.00  0.00    -0.187 A  
HETATM   11  O   UNL     1      -9.495   4.595  68.873  1.00  0.00    -0.131 OA 
HETATM   12  O   UNL     1     -10.965   5.730  67.143  1.00  0.00    -0.268 OA 
HETATM   13  C   UNL     1      -9.454   8.142  69.506  1.00  0.00    -0.156 A  
HETATM   14  C   UNL     1     -10.196   8.975  70.417  1.00  0.00    -0.250 A  
HETATM   15  C   UNL     1     -11.430   8.442  70.749  1.00  0.00    -0.255 A  
HETATM   16  S   UNL     1     -11.684   6.936  69.991  1.00  0.00    -0.139 SA 
BRANCH  15  17
HETATM   17  S   UNL     1     -12.780   9.026  71.756  1.00  0.00    -0.393 S  
HETATM   18  O   UNL     1     -12.743  10.463  71.611  1.00  0.00    -0.400 OA 
HETATM   19  N   UNL     1     -14.191   8.490  71.017  1.00  0.00    -0.622 N  
HETATM   20  O   UNL     1     -12.656   8.354  73.025  1.00  0.00    -0.191 OA 
HETATM   21  H1  UNL     1     -14.964   8.824  71.593  1.00  0.00     0.000 HD 
HETATM   22  H2  UNL     1     -14.262   7.939  70.162  1.00  0.00     0.000 HD 
ENDBRANCH  15  17
ENDBRANCH   3   5
ENDBRANCH   2   3
TORSDOF 3
ENDMDL
MODEL      133
REMARK 921   NORMALIZED FREE ENERGY PREDICTED BY IDOCK:   -3.17 KCAL/MOL
REMARK 922        TOTAL FREE ENERGY PREDICTED BY IDOCK:   -4.08 KCAL/MOL
REMARK 923 INTER-LIGAND FREE ENERGY PREDICTED BY IDOCK:   -3.72 KCAL/MOL
REMARK 924 INTRA-LIGAND FREE ENERGY PREDICTED BY IDOCK:   -0.36 KCAL/MOL
REMARK 927      BINDING AFFINITY PREDICTED BY RF-SCORE:    0.00 PKD
ROOT
HETATM    1  C   UNL     1      -6.984   9.218  69.757  1.00  0.00    -0.058 C  
HETATM    2  C   UNL     1      -7.112   9.586  68.285  1.00  0.00    -0.075 C  
ENDROOT
BRANCH   2   3
HETATM    3  N   UNL     1      -6.541  10.918  68.039  1.00  0.00    -0.062 NA 
HETATM    4  H   UNL     1      -6.646  11.182  67.059  1.00  0.00     0.000 HD 
BRANCH   3   5
HETATM    5  C   UNL     1      -7.089  11.959  68.921  1.00  0.00    -0.110 C  
HETATM    6  C   UNL     1      -5.988  12.683  69.740  1.00  0.00    -0.129 C  
HETATM    7  C   UNL     1      -5.517  14.135  69.531  1.00  0.00    -0.091 C  
HETATM    8  S   UNL     1      -6.318  15.142  68.298  1.00  0.00    -0.128 S  
HETATM    9  C   UNL     1      -5.480  14.858  70.882  1.00  0.00    -0.134 C  
HETATM   10  C   UNL     1      -7.665  14.155  67.779  1.00  0.00    -0.168 A  
HETATM   11  O   UNL     1      -5.455  15.253  67.142  1.00  0.00    -0.283 OA 
HETATM   12  O   UNL     1      -6.929  16.294  68.926  1.00  0.00    -0.147 OA 
HETATM   13  C   UNL     1      -7.969  12.846  68.078  1.00  0.00    -0.158 A  
HETATM   14  C   UNL     1      -9.236  12.490  67.496  1.00  0.00    -0.188 A  
HETATM   15  C   UNL     1      -9.807  13.525  66.775  1.00  0.00    -0.267 A  
HETATM   16  S   UNL     1      -8.812  14.909  66.777  1.00  0.00    -0.246 SA 
BRANCH  15  17
HETATM   17  S   UNL     1     -11.354  13.698  65.904  1.00  0.00    -0.315 S  
HETATM   18  O   UNL     1     -11.008  14.402  64.691  1.00  0.00    -0.390 OA 
HETATM   19  N   UNL     1     -11.825  12.147  65.460  1.00  0.00    -0.351 N  
HETATM   20  O   UNL     1     -12.303  14.196  66.868  1.00  0.00    -0.419 OA 
HETATM   21  H1  UNL     1     -12.709  12.246  64.962  1.00  0.00     0.000 HD 
HETATM   22  H2  UNL     1     -11.326  11.279  65.650  1.00  0.00     0.000 HD 
ENDBRANCH  15  17
ENDBRANCH   3   5
ENDBRANCH   2   3
TORSDOF 3
ENDMDL
MODEL      134
REMARK 921   NORMALIZED FREE ENERGY PREDICTED BY IDOCK:   -3.14 KCAL/MOL
REMARK 922        TOTAL FREE ENERGY PREDICTED BY IDOCK:   -4.05 KCAL/MOL
REMARK 923 INTER-LIGAND FREE ENERGY PREDICTED BY IDOCK:   -3.89 KCAL/MOL
REMARK 924 INTRA-LIGAND FREE ENERGY PREDICTED BY IDOCK:   -0.15 KCAL/MOL
REMARK 927      BINDING AFFINITY PREDICTED BY RF-SCORE:    0.00 PKD
ROOT
HETATM    1  C   UNL     1      -9.988   8.047  66.288  1.00  0.00    -0.116 C  
HETATM    2  C   UNL     1      -9.591   9.158  67.249  1.00  0.00    -0.154 C  
ENDROOT
BRANCH   2   3
HETATM    3  N   UNL     1     -10.666  10.155  67.354  1.00  0.00    -0.277 NA 
HETATM    4  H   UNL     1     -10.825  10.415  68.328  1.00  0.00     0.000 HD 
BRANCH   3   5
HETATM    5  C   UNL     1     -10.437  11.348  66.525  1.00  0.00    -0.249 C  
HETATM    6  C   UNL     1     -11.754  11.927  65.944  1.00  0.00    -0.208 C  
HETATM    7  C   UNL     1     -12.423  13.249  66.371  1.00  0.00    -0.165 C  
HETATM    8  S   UNL     1     -11.624  14.276  67.588  1.00  0.00    -0.387 S  
HETATM    9  C   UNL     1     -12.782  14.064  65.123  1.00  0.00    -0.419 C  
HETATM   10  C   UNL     1     -10.069  13.507  67.812  1.00  0.00    -0.236 A  
HETATM   11  O   UNL     1     -12.309  14.133  68.854  1.00  0.00    -0.284 OA 
HETATM   12  O   UNL     1     -11.314  15.568  67.013  1.00  0.00    -0.244 OA 
HETATM   13  C   UNL     1      -9.600  12.305  67.335  1.00  0.00    -0.179 A  
HETATM   14  C   UNL     1      -8.218  12.134  67.700  1.00  0.00    -0.163 A  
HETATM   15  C   UNL     1      -7.725  13.192  68.446  1.00  0.00    -0.138 A  
HETATM   16  S   UNL     1      -8.925  14.369  68.728  1.00  0.00    -0.077 SA 
BRANCH  15  17
HETATM   17  S   UNL     1      -6.116  13.566  69.116  1.00  0.00    -0.097 S  
HETATM   18  O   UNL     1      -6.160  14.985  69.388  1.00  0.00    -0.101 OA 
HETATM   19  N   UNL     1      -6.023  12.780  70.598  1.00  0.00    -0.338 N  
HETATM   20  O   UNL     1      -5.159  12.958  68.226  1.00  0.00    -0.064 OA 
HETATM   21  H1  UNL     1      -5.103  12.995  70.982  1.00  0.00     0.000 HD 
HETATM   22  H2  UNL     1      -6.745  12.204  71.030  1.00  0.00     0.000 HD 
ENDBRANCH  15  17
ENDBRANCH   3   5
ENDBRANCH   2   3
TORSDOF 3
ENDMDL
MODEL      135
REMARK 921   NORMALIZED FREE ENERGY PREDICTED BY IDOCK:   -3.13 KCAL/MOL
REMARK 922        TOTAL FREE ENERGY PREDICTED BY IDOCK:   -4.04 KCAL/MOL
REMARK 923 INTER-LIGAND FREE ENERGY PREDICTED BY IDOCK:   -3.58 KCAL/MOL
REMARK 924 INTRA-LIGAND FREE ENERGY PREDICTED BY IDOCK:   -0.46 KCAL/MOL
REMARK 927      BINDING AFFINITY PREDICTED BY RF-SCORE:    0.00 PKD
ROOT
HETATM    1  C   UNL     1      -5.747   8.199  67.899  1.00  0.00    -0.038 C  
HETATM    2  C   UNL     1      -6.583   8.595  66.691  1.00  0.00    -0.060 C  
ENDROOT
BRANCH   2   3
HETATM    3  N   UNL     1      -7.913   9.056  67.117  1.00  0.00    -0.102 NA 
HETATM    4  H   UNL     1      -8.120   9.975  66.726  1.00  0.00     0.000 HD 
BRANCH   3   5
HETATM    5  C   UNL     1      -8.988   8.102  66.804  1.00  0.00    -0.146 C  
HETATM    6  C   UNL     1      -8.533   7.002  65.809  1.00  0.00    -0.154 C  
HETATM    7  C   UNL     1      -8.307   5.516  66.151  1.00  0.00    -0.119 C  
HETATM    8  S   UNL     1      -8.647   4.940  67.802  1.00  0.00    -0.103 S  
HETATM    9  C   UNL     1      -9.020   4.641  65.113  1.00  0.00    -0.150 C  
HETATM   10  C   UNL     1      -9.401   6.320  68.568  1.00  0.00    -0.121 A  
HETATM   11  O   UNL     1      -7.397   4.746  68.504  1.00  0.00    -0.063 OA 
HETATM   12  O   UNL     1      -9.684   3.930  67.766  1.00  0.00    -0.168 OA 
HETATM   13  C   UNL     1      -9.548   7.611  68.114  1.00  0.00    -0.158 A  
HETATM   14  C   UNL     1     -10.325   8.377  69.054  1.00  0.00    -0.231 A  
HETATM   15  C   UNL     1     -10.699   7.643  70.166  1.00  0.00    -0.240 A  
HETATM   16  S   UNL     1     -10.097   6.050  70.094  1.00  0.00    -0.207 SA 
BRANCH  15  17
HETATM   17  S   UNL     1     -11.692   8.019  71.599  1.00  0.00    -0.299 S  
HETATM   18  O   UNL     1     -11.613   9.457  71.725  1.00  0.00    -0.377 OA 
HETATM   19  N   UNL     1     -13.278   7.644  71.191  1.00  0.00    -0.569 N  
HETATM   20  O   UNL     1     -11.268   7.108  72.632  1.00  0.00    -0.277 OA 
HETATM   21  H1  UNL     1     -13.846   7.859  72.010  1.00  0.00     0.000 HD 
HETATM   22  H2  UNL     1     -13.609   7.274  70.300  1.00  0.00     0.000 HD 
ENDBRANCH  15  17
ENDBRANCH   3   5
ENDBRANCH   2   3
TORSDOF 3
ENDMDL
MODEL      136
REMARK 921   NORMALIZED FREE ENERGY PREDICTED BY IDOCK:   -3.13 KCAL/MOL
REMARK 922        TOTAL FREE ENERGY PREDICTED BY IDOCK:   -4.03 KCAL/MOL
REMARK 923 INTER-LIGAND FREE ENERGY PREDICTED BY IDOCK:   -3.64 KCAL/MOL
REMARK 924 INTRA-LIGAND FREE ENERGY PREDICTED BY IDOCK:   -0.40 KCAL/MOL
REMARK 927      BINDING AFFINITY PREDICTED BY RF-SCORE:    0.00 PKD
ROOT
HETATM    1  C   UNL     1      -8.517   5.161  63.694  1.00  0.00    -0.115 C  
HETATM    2  C   UNL     1      -9.135   4.314  64.798  1.00  0.00    -0.149 C  
ENDROOT
BRANCH   2   3
HETATM    3  N   UNL     1     -10.316   4.987  65.359  1.00  0.00    -0.437 NA 
HETATM    4  H   UNL     1     -11.175   4.587  64.981  1.00  0.00     0.000 HD 
BRANCH   3   5
HETATM    5  C   UNL     1     -10.342   4.985  66.830  1.00  0.00    -0.218 C  
HETATM    6  C   UNL     1      -9.565   3.786  67.435  1.00  0.00    -0.208 C  
HETATM    7  C   UNL     1      -8.221   3.870  68.186  1.00  0.00    -0.087 C  
HETATM    8  S   UNL     1      -7.482   5.465  68.473  1.00  0.00    -0.076 S  
HETATM    9  C   UNL     1      -8.318   3.073  69.492  1.00  0.00    -0.089 C  
HETATM   10  C   UNL     1      -8.716   6.587  67.945  1.00  0.00    -0.116 A  
HETATM   11  O   UNL     1      -6.378   5.649  67.556  1.00  0.00    -0.038 OA 
HETATM   12  O   UNL     1      -7.359   5.701  69.896  1.00  0.00    -0.066 OA 
HETATM   13  C   UNL     1      -9.903   6.351  67.290  1.00  0.00    -0.169 A  
HETATM   14  C   UNL     1     -10.641   7.580  67.149  1.00  0.00    -0.415 A  
HETATM   15  C   UNL     1      -9.972   8.671  67.677  1.00  0.00    -0.194 A  
HETATM   16  S   UNL     1      -8.454   8.226  68.312  1.00  0.00    -0.137 SA 
BRANCH  15  17
HETATM   17  S   UNL     1     -10.395  10.395  67.848  1.00  0.00    -0.206 S  
HETATM   18  O   UNL     1     -10.680  10.832  66.501  1.00  0.00    -0.240 OA 
HETATM   19  N   UNL     1     -11.841  10.447  68.703  1.00  0.00    -0.495 N  
HETATM   20  O   UNL     1      -9.367  10.981  68.672  1.00  0.00    -0.183 OA 
HETATM   21  H1  UNL     1     -12.083  11.433  68.801  1.00  0.00     0.000 HD 
HETATM   22  H2  UNL     1     -12.372   9.650  69.054  1.00  0.00     0.000 HD 
ENDBRANCH  15  17
ENDBRANCH   3   5
ENDBRANCH   2   3
TORSDOF 3
ENDMDL
MODEL      137
REMARK 921   NORMALIZED FREE ENERGY PREDICTED BY IDOCK:   -3.03 KCAL/MOL
REMARK 922        TOTAL FREE ENERGY PREDICTED BY IDOCK:   -3.91 KCAL/MOL
REMARK 923 INTER-LIGAND FREE ENERGY PREDICTED BY IDOCK:   -3.51 KCAL/MOL
REMARK 924 INTRA-LIGAND FREE ENERGY PREDICTED BY IDOCK:   -0.40 KCAL/MOL
REMARK 927      BINDING AFFINITY PREDICTED BY RF-SCORE:    0.00 PKD
ROOT
HETATM    1  C   UNL     1      -5.954   7.376  64.334  1.00  0.00    -0.037 C  
HETATM    2  C   UNL     1      -6.947   6.501  65.084  1.00  0.00    -0.052 C  
ENDROOT
BRANCH   2   3
HETATM    3  N   UNL     1      -8.291   7.098  65.042  1.00  0.00    -0.293 NA 
HETATM    4  H   UNL     1      -8.930   6.514  64.503  1.00  0.00     0.000 HD 
BRANCH   3   5
HETATM    5  C   UNL     1      -8.843   7.385  66.375  1.00  0.00    -0.156 C  
HETATM    6  C   UNL     1      -7.999   6.754  67.514  1.00  0.00    -0.115 C  
HETATM    7  C   UNL     1      -7.116   7.526  68.515  1.00  0.00    -0.081 C  
HETATM    8  S   UNL     1      -7.076   9.305  68.449  1.00  0.00    -0.073 S  
HETATM    9  C   UNL     1      -7.420   7.042  69.938  1.00  0.00    -0.090 C  
HETATM   10  C   UNL     1      -8.324   9.698  67.288  1.00  0.00    -0.114 A  
HETATM   11  O   UNL     1      -5.835   9.730  67.838  1.00  0.00    -0.040 OA 
HETATM   12  O   UNL     1      -7.555   9.855  69.700  1.00  0.00    -0.101 OA 
HETATM   13  C   UNL     1      -9.055   8.874  66.463  1.00  0.00    -0.206 A  
HETATM   14  C   UNL     1     -10.041   9.642  65.748  1.00  0.00    -0.274 A  
HETATM   15  C   UNL     1      -9.989  10.993  66.045  1.00  0.00    -0.237 A  
HETATM   16  S   UNL     1      -8.745  11.340  67.158  1.00  0.00    -0.156 SA 
BRANCH  15  17
HETATM   17  S   UNL     1     -10.968  12.393  65.534  1.00  0.00    -0.304 S  
HETATM   18  O   UNL     1     -11.196  13.138  66.751  1.00  0.00    -0.282 OA 
HETATM   19  N   UNL     1      -9.978  13.334  64.555  1.00  0.00    -0.634 N  
HETATM   20  O   UNL     1     -12.031  11.863  64.718  1.00  0.00    -0.263 OA 
HETATM   21  H1  UNL     1     -10.537  14.135  64.263  1.00  0.00     0.000 HD 
HETATM   22  H2  UNL     1      -9.008  13.142  64.303  1.00  0.00     0.000 HD 
ENDBRANCH  15  17
ENDBRANCH   3   5
ENDBRANCH   2   3
TORSDOF 3
ENDMDL
MODEL      138
REMARK 921   NORMALIZED FREE ENERGY PREDICTED BY IDOCK:   -3.02 KCAL/MOL
REMARK 922        TOTAL FREE ENERGY PREDICTED BY IDOCK:   -3.90 KCAL/MOL
REMARK 923 INTER-LIGAND FREE ENERGY PREDICTED BY IDOCK:   -3.56 KCAL/MOL
REMARK 924 INTRA-LIGAND FREE ENERGY PREDICTED BY IDOCK:   -0.34 KCAL/MOL
REMARK 927      BINDING AFFINITY PREDICTED BY RF-SCORE:    0.00 PKD
ROOT
HETATM    1  C   UNL     1      -8.942   9.104  64.531  1.00  0.00    -0.129 C  
HETATM    2  C   UNL     1      -8.372   9.884  65.707  1.00  0.00    -0.128 C  
ENDROOT
BRANCH   2   3
HETATM    3  N   UNL     1      -9.454  10.521  66.472  1.00  0.00    -0.162 NA 
HETATM    4  H   UNL     1     -10.229   9.874  66.611  1.00  0.00     0.000 HD 
BRANCH   3   5
HETATM    5  C   UNL     1      -9.006  11.083  67.756  1.00  0.00    -0.140 C  
HETATM    6  C   UNL     1      -7.794  10.316  68.348  1.00  0.00    -0.102 C  
HETATM    7  C   UNL     1      -6.351  10.849  68.444  1.00  0.00    -0.053 C  
HETATM    8  S   UNL     1      -5.998  12.510  67.906  1.00  0.00    -0.116 S  
HETATM    9  C   UNL     1      -5.814  10.612  69.861  1.00  0.00    -0.067 C  
HETATM   10  C   UNL     1      -7.581  13.179  67.584  1.00  0.00    -0.171 A  
HETATM   11  O   UNL     1      -5.333  12.462  66.621  1.00  0.00    -0.308 OA 
HETATM   12  O   UNL     1      -5.490  13.289  69.015  1.00  0.00    -0.068 OA 
HETATM   13  C   UNL     1      -8.812  12.564  67.556  1.00  0.00    -0.184 A  
HETATM   14  C   UNL     1      -9.847  13.541  67.342  1.00  0.00    -0.227 A  
HETATM   15  C   UNL     1      -9.351  14.826  67.196  1.00  0.00    -0.224 A  
HETATM   16  S   UNL     1      -7.649  14.852  67.289  1.00  0.00    -0.121 SA 
BRANCH  15  17
HETATM   17  S   UNL     1     -10.128  16.415  66.974  1.00  0.00    -0.278 S  
HETATM   18  O   UNL     1     -11.161  16.456  67.983  1.00  0.00    -0.348 OA 
HETATM   19  N   UNL     1      -8.979  17.568  67.393  1.00  0.00    -0.228 N  
HETATM   20  O   UNL     1     -10.392  16.539  65.562  1.00  0.00    -0.509 OA 
HETATM   21  H1  UNL     1      -9.423  18.478  67.266  1.00  0.00     0.000 HD 
HETATM   22  H2  UNL     1      -8.026  17.394  67.712  1.00  0.00     0.000 HD 
ENDBRANCH  15  17
ENDBRANCH   3   5
ENDBRANCH   2   3
TORSDOF 3
ENDMDL
MODEL      139
REMARK 921   NORMALIZED FREE ENERGY PREDICTED BY IDOCK:   -2.98 KCAL/MOL
REMARK 922        TOTAL FREE ENERGY PREDICTED BY IDOCK:   -3.85 KCAL/MOL
REMARK 923 INTER-LIGAND FREE ENERGY PREDICTED BY IDOCK:   -3.40 KCAL/MOL
REMARK 924 INTRA-LIGAND FREE ENERGY PREDICTED BY IDOCK:   -0.45 KCAL/MOL
REMARK 927      BINDING AFFINITY PREDICTED BY RF-SCORE:    0.00 PKD
ROOT
HETATM    1  C   UNL     1      -8.003   7.737  70.696  1.00  0.00    -0.098 C  
HETATM    2  C   UNL     1      -8.794   9.013  70.445  1.00  0.00    -0.200 C  
ENDROOT
BRANCH   2   3
HETATM    3  N   UNL     1     -10.189   8.693  70.108  1.00  0.00    -0.188 NA 
HETATM    4  H   UNL     1     -10.821   9.014  70.841  1.00  0.00     0.000 HD 
BRANCH   3   5
HETATM    5  C   UNL     1     -10.605   9.214  68.796  1.00  0.00    -0.181 C  
HETATM    6  C   UNL     1     -10.329  10.733  68.647  1.00  0.00    -0.208 C  
HETATM    7  C   UNL     1      -9.253  11.368  67.743  1.00  0.00    -0.159 C  
HETATM    8  S   UNL     1      -8.256  10.318  66.705  1.00  0.00    -0.126 S  
HETATM    9  C   UNL     1      -9.882  12.502  66.924  1.00  0.00    -0.229 C  
HETATM   10  C   UNL     1      -8.998   8.744  66.885  1.00  0.00    -0.132 A  
HETATM   11  O   UNL     1      -6.938  10.190  67.287  1.00  0.00    -0.081 OA 
HETATM   12  O   UNL     1      -8.463  10.663  65.314  1.00  0.00    -0.169 OA 
HETATM   13  C   UNL     1      -9.989   8.328  67.744  1.00  0.00    -0.235 A  
HETATM   14  C   UNL     1     -10.345   6.962  67.460  1.00  0.00    -0.277 A  
HETATM   15  C   UNL     1      -9.599   6.415  66.430  1.00  0.00    -0.113 A  
HETATM   16  S   UNL     1      -8.458   7.529  65.827  1.00  0.00    -0.132 SA 
BRANCH  15  17
HETATM   17  S   UNL     1      -9.625   4.831  65.612  1.00  0.00    -0.165 S  
HETATM   18  O   UNL     1     -11.024   4.469  65.572  1.00  0.00    -0.247 OA 
HETATM   19  N   UNL     1      -9.140   5.107  64.027  1.00  0.00    -0.351 N  
HETATM   20  O   UNL     1      -8.616   4.029  66.257  1.00  0.00    -0.108 OA 
HETATM   21  H1  UNL     1      -9.155   4.201  63.558  1.00  0.00     0.000 HD 
HETATM   22  H2  UNL     1      -8.882   6.003  63.614  1.00  0.00     0.000 HD 
ENDBRANCH  15  17
ENDBRANCH   3   5
ENDBRANCH   2   3
TORSDOF 3
ENDMDL
MODEL      140
REMARK 921   NORMALIZED FREE ENERGY PREDICTED BY IDOCK:   -2.94 KCAL/MOL
REMARK 922        TOTAL FREE ENERGY PREDICTED BY IDOCK:   -3.81 KCAL/MOL
REMARK 923 INTER-LIGAND FREE ENERGY PREDICTED BY IDOCK:   -3.40 KCAL/MOL
REMARK 924 INTRA-LIGAND FREE ENERGY PREDICTED BY IDOCK:   -0.41 KCAL/MOL
REMARK 927      BINDING AFFINITY PREDICTED BY RF-SCORE:    0.00 PKD
ROOT
HETATM    1  C   UNL     1      -8.173   5.312  63.481  1.00  0.00    -0.122 C  
HETATM    2  C   UNL     1      -8.791   4.806  64.777  1.00  0.00    -0.153 C  
ENDROOT
BRANCH   2   3
HETATM    3  N   UNL     1      -9.647   5.842  65.375  1.00  0.00    -0.343 NA 
HETATM    4  H   UNL     1     -10.578   5.474  65.567  1.00  0.00     0.000 HD 
BRANCH   3   5
HETATM    5  C   UNL     1      -9.067   6.451  66.581  1.00  0.00    -0.146 C  
HETATM    6  C   UNL     1      -7.752   5.756  67.023  1.00  0.00    -0.101 C  
HETATM    7  C   UNL     1      -6.337   6.359  66.924  1.00  0.00    -0.041 C  
HETATM    8  S   UNL     1      -6.139   8.022  66.320  1.00  0.00    -0.046 S  
HETATM    9  C   UNL     1      -5.612   6.178  68.263  1.00  0.00    -0.012 C  
HETATM   10  C   UNL     1      -7.782   8.609  66.194  1.00  0.00    -0.097 A  
HETATM   11  O   UNL     1      -5.642   7.978  64.961  1.00  0.00    -0.042 OA 
HETATM   12  O   UNL     1      -5.533   8.848  67.342  1.00  0.00    -0.037 OA 
HETATM   13  C   UNL     1      -8.974   7.935  66.335  1.00  0.00    -0.200 A  
HETATM   14  C   UNL     1     -10.075   8.858  66.241  1.00  0.00    -0.284 A  
HETATM   15  C   UNL     1      -9.666  10.161  66.013  1.00  0.00    -0.226 A  
HETATM   16  S   UNL     1      -7.970  10.270  65.885  1.00  0.00    -0.142 SA 
BRANCH  15  17
HETATM   17  S   UNL     1     -10.543  11.707  65.869  1.00  0.00    -0.279 S  
HETATM   18  O   UNL     1     -11.474  11.698  66.973  1.00  0.00    -0.418 OA 
HETATM   19  N   UNL     1      -9.422  12.920  66.175  1.00  0.00    -0.412 N  
HETATM   20  O   UNL     1     -10.950  11.811  64.489  1.00  0.00    -0.301 OA 
HETATM   21  H1  UNL     1      -9.923  13.804  66.093  1.00  0.00     0.000 HD 
HETATM   22  H2  UNL     1      -8.434  12.797  66.400  1.00  0.00     0.000 HD 
ENDBRANCH  15  17
ENDBRANCH   3   5
ENDBRANCH   2   3
TORSDOF 3
ENDMDL
MODEL      141
REMARK 921   NORMALIZED FREE ENERGY PREDICTED BY IDOCK:   -2.94 KCAL/MOL
REMARK 922        TOTAL FREE ENERGY PREDICTED BY IDOCK:   -3.81 KCAL/MOL
REMARK 923 INTER-LIGAND FREE ENERGY PREDICTED BY IDOCK:   -3.31 KCAL/MOL
REMARK 924 INTRA-LIGAND FREE ENERGY PREDICTED BY IDOCK:   -0.50 KCAL/MOL
REMARK 927      BINDING AFFINITY PREDICTED BY RF-SCORE:    0.00 PKD
ROOT
HETATM    1  C   UNL     1      -8.069   6.635  69.589  1.00  0.00    -0.126 C  
HETATM    2  C   UNL     1      -9.433   7.302  69.485  1.00  0.00    -0.155 C  
ENDROOT
BRANCH   2   3
HETATM    3  N   UNL     1     -10.390   6.409  68.814  1.00  0.00    -0.180 NA 
HETATM    4  H   UNL     1     -11.242   6.311  69.366  1.00  0.00     0.000 HD 
BRANCH   3   5
HETATM    5  C   UNL     1     -10.703   6.821  67.437  1.00  0.00    -0.335 C  
HETATM    6  C   UNL     1     -10.526   8.346  67.220  1.00  0.00    -0.373 C  
HETATM    7  C   UNL     1      -9.412   9.015  66.390  1.00  0.00    -0.226 C  
HETATM    8  S   UNL     1      -8.236   7.994  65.527  1.00  0.00    -0.143 S  
HETATM    9  C   UNL     1     -10.034  10.047  65.442  1.00  0.00    -0.364 C  
HETATM   10  C   UNL     1      -8.874   6.377  65.731  1.00  0.00    -0.099 A  
HETATM   11  O   UNL     1      -6.980   8.004  66.245  1.00  0.00    -0.061 OA 
HETATM   12  O   UNL     1      -8.320   8.243  64.103  1.00  0.00    -0.137 OA 
HETATM   13  C   UNL     1      -9.915   5.930  66.511  1.00  0.00    -0.196 A  
HETATM   14  C   UNL     1     -10.137   4.527  66.279  1.00  0.00    -0.280 A  
HETATM   15  C   UNL     1      -9.248   3.986  65.366  1.00  0.00    -0.150 A  
HETATM   16  S   UNL     1      -8.136   5.153  64.811  1.00  0.00    -0.123 SA 
BRANCH  15  17
HETATM   17  S   UNL     1      -9.070   2.362  64.651  1.00  0.00    -0.129 S  
HETATM   18  O   UNL     1     -10.350   2.097  64.035  1.00  0.00    -0.071 OA 
HETATM   19  N   UNL     1      -7.944   2.508  63.412  1.00  0.00    -0.072 N  
HETATM   20  O   UNL     1      -8.498   1.530  65.680  1.00  0.00    -0.087 OA 
HETATM   21  H1  UNL     1      -7.842   1.580  63.003  1.00  0.00     0.000 HD 
HETATM   22  H2  UNL     1      -7.458   3.358  63.125  1.00  0.00     0.000 HD 
ENDBRANCH  15  17
ENDBRANCH   3   5
ENDBRANCH   2   3
TORSDOF 3
ENDMDL
MODEL      142
REMARK 921   NORMALIZED FREE ENERGY PREDICTED BY IDOCK:   -2.94 KCAL/MOL
REMARK 922        TOTAL FREE ENERGY PREDICTED BY IDOCK:   -3.81 KCAL/MOL
REMARK 923 INTER-LIGAND FREE ENERGY PREDICTED BY IDOCK:   -3.46 KCAL/MOL
REMARK 924 INTRA-LIGAND FREE ENERGY PREDICTED BY IDOCK:   -0.35 KCAL/MOL
REMARK 927      BINDING AFFINITY PREDICTED BY RF-SCORE:    0.00 PKD
ROOT
HETATM    1  C   UNL     1      -6.121  13.860  69.980  1.00  0.00    -0.146 C  
HETATM    2  C   UNL     1      -6.753  13.385  68.679  1.00  0.00    -0.095 C  
ENDROOT
BRANCH   2   3
HETATM    3  N   UNL     1      -7.821  12.413  68.953  1.00  0.00    -0.330 NA 
HETATM    4  H   UNL     1      -8.652  12.623  68.400  1.00  0.00     0.000 HD 
BRANCH   3   5
HETATM    5  C   UNL     1      -7.402  11.017  68.756  1.00  0.00    -0.111 C  
HETATM    6  C   UNL     1      -7.537  10.170  70.049  1.00  0.00    -0.164 C  
HETATM    7  C   UNL     1      -8.576   9.058  70.294  1.00  0.00    -0.178 C  
HETATM    8  S   UNL     1      -9.704   8.617  68.988  1.00  0.00    -0.177 S  
HETATM    9  C   UNL     1      -7.869   7.813  70.844  1.00  0.00    -0.089 C  
HETATM   10  C   UNL     1      -9.111   9.523  67.614  1.00  0.00    -0.120 A  
HETATM   11  O   UNL     1     -11.009   9.171  69.280  1.00  0.00    -0.179 OA 
HETATM   12  O   UNL     1      -9.513   7.230  68.621  1.00  0.00    -0.139 OA 
HETATM   13  C   UNL     1      -8.137  10.492  67.549  1.00  0.00    -0.107 A  
HETATM   14  C   UNL     1      -7.924  10.885  66.180  1.00  0.00    -0.155 A  
HETATM   15  C   UNL     1      -8.754  10.220  65.295  1.00  0.00    -0.172 A  
HETATM   16  S   UNL     1      -9.802   9.149  66.107  1.00  0.00    -0.259 SA 
BRANCH  15  17
HETATM   17  S   UNL     1      -8.908  10.237  63.518  1.00  0.00    -0.245 S  
HETATM   18  O   UNL     1     -10.018  11.125  63.262  1.00  0.00    -0.320 OA 
HETATM   19  N   UNL     1      -7.526  10.989  62.929  1.00  0.00    -0.351 N  
HETATM   20  O   UNL     1      -8.881   8.858  63.099  1.00  0.00    -0.124 OA 
HETATM   21  H1  UNL     1      -7.613  11.000  61.913  1.00  0.00     0.000 HD 
HETATM   22  H2  UNL     1      -6.752  11.362  63.478  1.00  0.00     0.000 HD 
ENDBRANCH  15  17
ENDBRANCH   3   5
ENDBRANCH   2   3
TORSDOF 3
ENDMDL
MODEL      143
REMARK 921   NORMALIZED FREE ENERGY PREDICTED BY IDOCK:   -2.89 KCAL/MOL
REMARK 922        TOTAL FREE ENERGY PREDICTED BY IDOCK:   -3.75 KCAL/MOL
REMARK 923 INTER-LIGAND FREE ENERGY PREDICTED BY IDOCK:   -3.37 KCAL/MOL
REMARK 924 INTRA-LIGAND FREE ENERGY PREDICTED BY IDOCK:   -0.38 KCAL/MOL
REMARK 927      BINDING AFFINITY PREDICTED BY RF-SCORE:    0.00 PKD
ROOT
HETATM    1  C   UNL     1      -9.908   8.559  72.083  1.00  0.00    -0.388 C  
HETATM    2  C   UNL     1     -11.018   8.431  71.051  1.00  0.00    -0.246 C  
ENDROOT
BRANCH   2   3
HETATM    3  N   UNL     1     -10.794   7.253  70.199  1.00  0.00    -0.251 NA 
HETATM    4  H   UNL     1     -11.403   7.275  69.382  1.00  0.00     0.000 HD 
BRANCH   3   5
HETATM    5  C   UNL     1      -9.389   7.084  69.798  1.00  0.00    -0.146 C  
HETATM    6  C   UNL     1      -8.878   5.637  70.022  1.00  0.00    -0.136 C  
HETATM    7  C   UNL     1      -8.556   4.613  68.915  1.00  0.00    -0.084 C  
HETATM    8  S   UNL     1      -8.701   5.102  67.208  1.00  0.00    -0.102 S  
HETATM    9  C   UNL     1      -7.184   3.985  69.186  1.00  0.00    -0.054 C  
HETATM   10  C   UNL     1      -8.999   6.823  67.301  1.00  0.00    -0.117 A  
HETATM   11  O   UNL     1      -9.909   4.533  66.652  1.00  0.00    -0.192 OA 
HETATM   12  O   UNL     1      -7.415   4.989  66.554  1.00  0.00    -0.084 OA 
HETATM   13  C   UNL     1      -9.254   7.618  68.395  1.00  0.00    -0.140 A  
HETATM   14  C   UNL     1      -9.339   8.998  67.993  1.00  0.00    -0.153 A  
HETATM   15  C   UNL     1      -9.169   9.171  66.629  1.00  0.00    -0.164 A  
HETATM   16  S   UNL     1      -8.938   7.681  65.835  1.00  0.00    -0.047 SA 
BRANCH  15  17
HETATM   17  S   UNL     1      -9.111  10.612  65.581  1.00  0.00    -0.191 S  
HETATM   18  O   UNL     1      -9.090  11.727  66.500  1.00  0.00    -0.194 OA 
HETATM   19  N   UNL     1      -7.618  10.579  64.809  1.00  0.00    -0.333 N  
HETATM   20  O   UNL     1     -10.135  10.425  64.583  1.00  0.00    -0.345 OA 
HETATM   21  H1  UNL     1      -7.584  11.403  64.210  1.00  0.00     0.000 HD 
HETATM   22  H2  UNL     1      -6.889   9.874  64.919  1.00  0.00     0.000 HD 
ENDBRANCH  15  17
ENDBRANCH   3   5
ENDBRANCH   2   3
TORSDOF 3
ENDMDL
MODEL      144
REMARK 921   NORMALIZED FREE ENERGY PREDICTED BY IDOCK:   -2.88 KCAL/MOL
REMARK 922        TOTAL FREE ENERGY PREDICTED BY IDOCK:   -3.75 KCAL/MOL
REMARK 923 INTER-LIGAND FREE ENERGY PREDICTED BY IDOCK:   -3.80 KCAL/MOL
REMARK 924 INTRA-LIGAND FREE ENERGY PREDICTED BY IDOCK:    0.05 KCAL/MOL
REMARK 927      BINDING AFFINITY PREDICTED BY RF-SCORE:    0.00 PKD
ROOT
HETATM    1  C   UNL     1     -11.173   9.273  71.485  1.00  0.00    -0.457 C  
HETATM    2  C   UNL     1     -12.346   8.385  71.095  1.00  0.00    -0.200 C  
ENDROOT
BRANCH   2   3
HETATM    3  N   UNL     1     -11.926   6.978  71.031  1.00  0.00    -0.346 NA 
HETATM    4  H   UNL     1     -12.195   6.560  70.141  1.00  0.00     0.000 HD 
BRANCH   3   5
HETATM    5  C   UNL     1     -10.490   6.787  71.285  1.00  0.00    -0.213 C  
HETATM    6  C   UNL     1     -10.167   6.657  72.797  1.00  0.00    -0.208 C  
HETATM    7  C   UNL     1      -9.722   5.368  73.516  1.00  0.00    -0.148 C  
HETATM    8  S   UNL     1      -9.473   3.882  72.566  1.00  0.00    -0.129 S  
HETATM    9  C   UNL     1      -8.495   5.669  74.385  1.00  0.00    -0.108 C  
HETATM   10  C   UNL     1      -9.628   4.427  70.911  1.00  0.00    -0.185 A  
HETATM   11  O   UNL     1     -10.589   2.988  72.782  1.00  0.00    -0.151 OA 
HETATM   12  O   UNL     1      -8.096   3.450  72.681  1.00  0.00    -0.073 OA 
HETATM   13  C   UNL     1     -10.027   5.647  70.415  1.00  0.00    -0.267 A  
HETATM   14  C   UNL     1      -9.903   5.660  68.981  1.00  0.00    -0.210 A  
HETATM   15  C   UNL     1      -9.447   4.458  68.469  1.00  0.00    -0.156 A  
HETATM   16  S   UNL     1      -9.194   3.310  69.704  1.00  0.00    -0.157 SA 
BRANCH  15  17
HETATM   17  S   UNL     1      -9.047   3.906  66.821  1.00  0.00    -0.162 S  
HETATM   18  O   UNL     1      -7.603   3.864  66.794  1.00  0.00    -0.082 OA 
HETATM   19  N   UNL     1      -9.591   2.320  66.707  1.00  0.00    -0.363 N  
HETATM   20  O   UNL     1      -9.835   4.715  65.925  1.00  0.00    -0.182 OA 
HETATM   21  H1  UNL     1      -9.363   2.004  65.764  1.00  0.00     0.000 HD 
HETATM   22  H2  UNL     1     -10.056   1.779  67.435  1.00  0.00     0.000 HD 
ENDBRANCH  15  17
ENDBRANCH   3   5
ENDBRANCH   2   3
TORSDOF 3
ENDMDL
MODEL      145
REMARK 921   NORMALIZED FREE ENERGY PREDICTED BY IDOCK:   -2.87 KCAL/MOL
REMARK 922        TOTAL FREE ENERGY PREDICTED BY IDOCK:   -3.73 KCAL/MOL
REMARK 923 INTER-LIGAND FREE ENERGY PREDICTED BY IDOCK:   -3.46 KCAL/MOL
REMARK 924 INTRA-LIGAND FREE ENERGY PREDICTED BY IDOCK:   -0.27 KCAL/MOL
REMARK 927      BINDING AFFINITY PREDICTED BY RF-SCORE:    0.00 PKD
ROOT
HETATM    1  C   UNL     1     -11.556   4.411  73.368  1.00  0.00    -0.225 C  
HETATM    2  C   UNL     1     -10.453   3.502  72.847  1.00  0.00    -0.154 C  
ENDROOT
BRANCH   2   3
HETATM    3  N   UNL     1      -9.390   4.296  72.213  1.00  0.00    -0.121 NA 
HETATM    4  H   UNL     1      -9.313   4.071  71.222  1.00  0.00     0.000 HD 
BRANCH   3   5
HETATM    5  C   UNL     1      -9.551   5.745  72.410  1.00  0.00    -0.149 C  
HETATM    6  C   UNL     1      -8.745   6.271  73.626  1.00  0.00    -0.127 C  
HETATM    7  C   UNL     1      -7.485   7.157  73.558  1.00  0.00    -0.078 C  
HETATM    8  S   UNL     1      -6.896   7.713  71.972  1.00  0.00    -0.066 S  
HETATM    9  C   UNL     1      -7.641   8.338  74.524  1.00  0.00    -0.287 C  
HETATM   10  C   UNL     1      -8.156   7.207  70.869  1.00  0.00    -0.111 A  
HETATM   11  O   UNL     1      -5.729   6.941  71.601  1.00  0.00    -0.035 OA 
HETATM   12  O   UNL     1      -6.921   9.159  71.917  1.00  0.00    -0.303 OA 
HETATM   13  C   UNL     1      -9.257   6.413  71.090  1.00  0.00    -0.159 A  
HETATM   14  C   UNL     1     -10.069   6.353  69.902  1.00  0.00    -0.206 A  
HETATM   15  C   UNL     1      -9.534   7.076  68.850  1.00  0.00    -0.137 A  
HETATM   16  S   UNL     1      -8.052   7.800  69.280  1.00  0.00    -0.129 SA 
BRANCH  15  17
HETATM   17  S   UNL     1     -10.098   7.417  67.193  1.00  0.00    -0.272 S  
HETATM   18  O   UNL     1      -8.891   7.444  66.399  1.00  0.00    -0.143 OA 
HETATM   19  N   UNL     1     -10.982   6.074  66.705  1.00  0.00    -0.641 N  
HETATM   20  O   UNL     1     -11.003   8.535  67.299  1.00  0.00    -0.117 OA 
HETATM   21  H1  UNL     1     -11.305   6.269  65.758  1.00  0.00     0.000 HD 
HETATM   22  H2  UNL     1     -11.160   5.230  67.249  1.00  0.00     0.000 HD 
ENDBRANCH  15  17
ENDBRANCH   3   5
ENDBRANCH   2   3
TORSDOF 3
ENDMDL
MODEL      146
REMARK 921   NORMALIZED FREE ENERGY PREDICTED BY IDOCK:   -2.83 KCAL/MOL
REMARK 922        TOTAL FREE ENERGY PREDICTED BY IDOCK:   -3.68 KCAL/MOL
REMARK 923 INTER-LIGAND FREE ENERGY PREDICTED BY IDOCK:   -3.38 KCAL/MOL
REMARK 924 INTRA-LIGAND FREE ENERGY PREDICTED BY IDOCK:   -0.30 KCAL/MOL
REMARK 927      BINDING AFFINITY PREDICTED BY RF-SCORE:    0.00 PKD
ROOT
HETATM    1  C   UNL     1      -9.546   3.687  68.272  1.00  0.00    -0.165 C  
HETATM    2  C   UNL     1      -9.886   4.743  69.313  1.00  0.00    -0.199 C  
ENDROOT
BRANCH   2   3
HETATM    3  N   UNL     1      -8.960   5.881  69.210  1.00  0.00    -0.117 NA 
HETATM    4  H   UNL     1      -9.168   6.443  68.385  1.00  0.00     0.000 HD 
BRANCH   3   5
HETATM    5  C   UNL     1      -8.932   6.720  70.418  1.00  0.00    -0.152 C  
HETATM    6  C   UNL     1      -7.770   6.342  71.375  1.00  0.00    -0.099 C  
HETATM    7  C   UNL     1      -6.510   7.190  71.641  1.00  0.00    -0.047 C  
HETATM    8  S   UNL     1      -6.352   8.783  70.862  1.00  0.00    -0.055 S  
HETATM    9  C   UNL     1      -6.282   7.300  73.153  1.00  0.00    -0.056 C  
HETATM   10  C   UNL     1      -7.913   9.027  70.111  1.00  0.00    -0.114 A  
HETATM   11  O   UNL     1      -5.411   8.685  69.767  1.00  0.00    -0.029 OA 
HETATM   12  O   UNL     1      -6.266   9.818  71.871  1.00  0.00    -0.301 OA 
HETATM   13  C   UNL     1      -8.970   8.158  69.969  1.00  0.00    -0.143 A  
HETATM   14  C   UNL     1     -10.088   8.837  69.367  1.00  0.00    -0.203 A  
HETATM   15  C   UNL     1      -9.815  10.160  69.067  1.00  0.00    -0.205 A  
HETATM   16  S   UNL     1      -8.215  10.577  69.481  1.00  0.00    -0.007 SA 
BRANCH  15  17
HETATM   17  S   UNL     1     -10.796  11.485  68.386  1.00  0.00    -0.228 S  
HETATM   18  O   UNL     1     -12.029  10.849  67.981  1.00  0.00    -0.586 OA 
HETATM   19  N   UNL     1     -11.164  12.510  69.665  1.00  0.00    -0.482 N  
HETATM   20  O   UNL     1      -9.934  12.196  67.475  1.00  0.00    -0.194 OA 
HETATM   21  H1  UNL     1     -11.725  13.268  69.276  1.00  0.00     0.000 HD 
HETATM   22  H2  UNL     1     -10.883  12.398  70.639  1.00  0.00     0.000 HD 
ENDBRANCH  15  17
ENDBRANCH   3   5
ENDBRANCH   2   3
TORSDOF 3
ENDMDL
MODEL      147
REMARK 921   NORMALIZED FREE ENERGY PREDICTED BY IDOCK:   -2.81 KCAL/MOL
REMARK 922        TOTAL FREE ENERGY PREDICTED BY IDOCK:   -3.65 KCAL/MOL
REMARK 923 INTER-LIGAND FREE ENERGY PREDICTED BY IDOCK:   -3.62 KCAL/MOL
REMARK 924 INTRA-LIGAND FREE ENERGY PREDICTED BY IDOCK:   -0.03 KCAL/MOL
REMARK 927      BINDING AFFINITY PREDICTED BY RF-SCORE:    0.00 PKD
ROOT
HETATM    1  C   UNL     1      -9.055   4.907  66.000  1.00  0.00    -0.139 C  
HETATM    2  C   UNL     1     -10.558   4.946  66.238  1.00  0.00    -0.255 C  
ENDROOT
BRANCH   2   3
HETATM    3  N   UNL     1     -10.976   6.293  66.655  1.00  0.00    -0.697 NA 
HETATM    4  H   UNL     1     -11.628   6.243  67.438  1.00  0.00     0.000 HD 
BRANCH   3   5
HETATM    5  C   UNL     1      -9.847   7.182  66.970  1.00  0.00    -0.198 C  
HETATM    6  C   UNL     1     -10.021   8.599  66.364  1.00  0.00    -0.331 C  
HETATM    7  C   UNL     1     -10.312   9.889  67.156  1.00  0.00    -0.243 C  
HETATM    8  S   UNL     1     -10.399   9.818  68.933  1.00  0.00    -0.219 S  
HETATM    9  C   UNL     1      -9.348  10.992  66.703  1.00  0.00    -0.196 C  
HETATM   10  C   UNL     1      -9.881   8.189  69.303  1.00  0.00    -0.182 A  
HETATM   11  O   UNL     1     -11.785   9.883  69.344  1.00  0.00    -0.042 OA 
HETATM   12  O   UNL     1      -9.377  10.666  69.510  1.00  0.00    -0.125 OA 
HETATM   13  C   UNL     1      -9.636   7.128  68.462  1.00  0.00    -0.139 A  
HETATM   14  C   UNL     1      -9.133   6.008  69.215  1.00  0.00    -0.126 A  
HETATM   15  C   UNL     1      -9.048   6.269  70.572  1.00  0.00    -0.154 A  
HETATM   16  S   UNL     1      -9.595   7.840  70.942  1.00  0.00    -0.167 SA 
BRANCH  15  17
HETATM   17  S   UNL     1      -8.459   5.319  71.962  1.00  0.00    -0.127 S  
HETATM   18  O   UNL     1      -9.335   4.172  72.012  1.00  0.00    -0.120 OA 
HETATM   19  N   UNL     1      -6.931   4.759  71.541  1.00  0.00    -0.042 N  
HETATM   20  O   UNL     1      -8.309   6.252  73.051  1.00  0.00    -0.117 OA 
HETATM   21  H1  UNL     1      -6.594   4.216  72.336  1.00  0.00     0.000 HD 
HETATM   22  H2  UNL     1      -6.439   4.927  70.665  1.00  0.00     0.000 HD 
ENDBRANCH  15  17
ENDBRANCH   3   5
ENDBRANCH   2   3
TORSDOF 3
ENDMDL
MODEL      148
REMARK 921   NORMALIZED FREE ENERGY PREDICTED BY IDOCK:   -2.73 KCAL/MOL
REMARK 922        TOTAL FREE ENERGY PREDICTED BY IDOCK:   -3.56 KCAL/MOL
REMARK 923 INTER-LIGAND FREE ENERGY PREDICTED BY IDOCK:   -3.23 KCAL/MOL
REMARK 924 INTRA-LIGAND FREE ENERGY PREDICTED BY IDOCK:   -0.34 KCAL/MOL
REMARK 927      BINDING AFFINITY PREDICTED BY RF-SCORE:    0.00 PKD
ROOT
HETATM    1  C   UNL     1      -9.542   5.194  66.465  1.00  0.00    -0.166 C  
HETATM    2  C   UNL     1     -10.653   6.030  67.083  1.00  0.00    -0.302 C  
ENDROOT
BRANCH   2   3
HETATM    3  N   UNL     1     -10.493   7.446  66.718  1.00  0.00    -0.477 NA 
HETATM    4  H   UNL     1     -11.030   8.044  67.345  1.00  0.00     0.000 HD 
BRANCH   3   5
HETATM    5  C   UNL     1      -9.088   7.877  66.661  1.00  0.00    -0.163 C  
HETATM    6  C   UNL     1      -8.793   8.775  65.432  1.00  0.00    -0.221 C  
HETATM    7  C   UNL     1      -8.495  10.288  65.471  1.00  0.00    -0.162 C  
HETATM    8  S   UNL     1      -8.402  11.116  67.045  1.00  0.00    -0.150 S  
HETATM    9  C   UNL     1      -7.249  10.583  64.627  1.00  0.00     0.068 C  
HETATM   10  C   UNL     1      -8.484   9.806  68.201  1.00  0.00    -0.114 A  
HETATM   11  O   UNL     1      -9.610  11.885  67.250  1.00  0.00    -0.176 OA 
HETATM   12  O   UNL     1      -7.081  11.681  67.226  1.00  0.00    -0.114 OA 
HETATM   13  C   UNL     1      -8.745   8.469  68.004  1.00  0.00    -0.142 A  
HETATM   14  C   UNL     1      -8.610   7.753  69.246  1.00  0.00    -0.138 A  
HETATM   15  C   UNL     1      -8.282   8.577  70.309  1.00  0.00    -0.115 A  
HETATM   16  S   UNL     1      -8.165  10.207  69.822  1.00  0.00    -0.091 SA 
BRANCH  15  17
HETATM   17  S   UNL     1      -7.933   8.268  72.030  1.00  0.00    -0.135 S  
HETATM   18  O   UNL     1      -9.182   8.535  72.705  1.00  0.00    -0.250 OA 
HETATM   19  N   UNL     1      -7.638   6.620  72.167  1.00  0.00    -0.095 N  
HETATM   20  O   UNL     1      -6.707   8.969  72.323  1.00  0.00    -0.285 OA 
HETATM   21  H1  UNL     1      -7.438   6.443  73.151  1.00  0.00     0.000 HD 
HETATM   22  H2  UNL     1      -7.656   5.931  71.415  1.00  0.00     0.000 HD 
ENDBRANCH  15  17
ENDBRANCH   3   5
ENDBRANCH   2   3
TORSDOF 3
ENDMDL
MODEL      149
REMARK 921   NORMALIZED FREE ENERGY PREDICTED BY IDOCK:   -2.70 KCAL/MOL
REMARK 922        TOTAL FREE ENERGY PREDICTED BY IDOCK:   -3.53 KCAL/MOL
REMARK 923 INTER-LIGAND FREE ENERGY PREDICTED BY IDOCK:   -3.22 KCAL/MOL
REMARK 924 INTRA-LIGAND FREE ENERGY PREDICTED BY IDOCK:   -0.31 KCAL/MOL
REMARK 927      BINDING AFFINITY PREDICTED BY RF-SCORE:    0.00 PKD
ROOT
HETATM    1  C   UNL     1      -5.131  11.928  70.102  1.00  0.00    -0.082 C  
HETATM    2  C   UNL     1      -6.046  10.745  70.383  1.00  0.00    -0.135 C  
ENDROOT
BRANCH   2   3
HETATM    3  N   UNL     1      -6.221   9.932  69.171  1.00  0.00    -0.043 NA 
HETATM    4  H   UNL     1      -7.075   9.378  69.226  1.00  0.00     0.000 HD 
BRANCH   3   5
HETATM    5  C   UNL     1      -6.192  10.723  67.931  1.00  0.00    -0.054 C  
HETATM    6  C   UNL     1      -5.373  10.034  66.808  1.00  0.00    -0.041 C  
HETATM    7  C   UNL     1      -5.954   9.400  65.528  1.00  0.00    -0.059 C  
HETATM    8  S   UNL     1      -7.707   9.497  65.226  1.00  0.00    -0.115 S  
HETATM    9  C   UNL     1      -5.165   9.898  64.311  1.00  0.00    -0.074 C  
HETATM   10  C   UNL     1      -8.280  10.560  66.492  1.00  0.00    -0.133 A  
HETATM   11  O   UNL     1      -8.308   8.211  65.503  1.00  0.00    -0.138 OA 
HETATM   12  O   UNL     1      -7.955  10.224  63.999  1.00  0.00    -0.156 OA 
HETATM   13  C   UNL     1      -7.617  11.070  67.585  1.00  0.00    -0.104 A  
HETATM   14  C   UNL     1      -8.473  11.981  68.299  1.00  0.00    -0.167 A  
HETATM   15  C   UNL     1      -9.731  12.093  67.731  1.00  0.00    -0.197 A  
HETATM   16  S   UNL     1      -9.890  11.088  66.364  1.00  0.00    -0.220 SA 
BRANCH  15  17
HETATM   17  S   UNL     1     -11.161  13.085  68.120  1.00  0.00    -0.293 S  
HETATM   18  O   UNL     1     -12.277  12.328  67.600  1.00  0.00    -0.442 OA 
HETATM   19  N   UNL     1     -11.300  13.083  69.795  1.00  0.00    -0.497 N  
HETATM   20  O   UNL     1     -10.846  14.426  67.698  1.00  0.00    -0.265 OA 
HETATM   21  H1  UNL     1     -12.117  13.650  70.018  1.00  0.00     0.000 HD 
HETATM   22  H2  UNL     1     -10.687  12.609  70.458  1.00  0.00     0.000 HD 
ENDBRANCH  15  17
ENDBRANCH   3   5
ENDBRANCH   2   3
TORSDOF 3
ENDMDL
MODEL      150
REMARK 921   NORMALIZED FREE ENERGY PREDICTED BY IDOCK:   -2.68 KCAL/MOL
REMARK 922        TOTAL FREE ENERGY PREDICTED BY IDOCK:   -3.51 KCAL/MOL
REMARK 923 INTER-LIGAND FREE ENERGY PREDICTED BY IDOCK:   -3.13 KCAL/MOL
REMARK 924 INTRA-LIGAND FREE ENERGY PREDICTED BY IDOCK:   -0.37 KCAL/MOL
REMARK 927      BINDING AFFINITY PREDICTED BY RF-SCORE:    0.00 PKD
ROOT
HETATM    1  C   UNL     1      -8.943   9.032  64.628  1.00  0.00    -0.112 C  
HETATM    2  C   UNL     1      -8.551   9.749  65.911  1.00  0.00    -0.137 C  
ENDROOT
BRANCH   2   3
HETATM    3  N   UNL     1      -9.623  10.661  66.338  1.00  0.00    -0.184 NA 
HETATM    4  H   UNL     1     -10.539  10.257  66.144  1.00  0.00     0.000 HD 
BRANCH   3   5
HETATM    5  C   UNL     1      -9.517  11.064  67.749  1.00  0.00    -0.162 C  
HETATM    6  C   UNL     1      -9.101   9.888  68.671  1.00  0.00    -0.132 C  
HETATM    7  C   UNL     1      -7.736   9.732  69.371  1.00  0.00    -0.109 C  
HETATM    8  S   UNL     1      -6.515  11.017  69.196  1.00  0.00    -0.076 S  
HETATM    9  C   UNL     1      -7.959   9.393  70.850  1.00  0.00    -0.096 C  
HETATM   10  C   UNL     1      -7.381  12.291  68.368  1.00  0.00    -0.109 A  
HETATM   11  O   UNL     1      -5.495  10.580  68.268  1.00  0.00    -0.035 OA 
HETATM   12  O   UNL     1      -6.198  11.575  70.494  1.00  0.00    -0.293 OA 
HETATM   13  C   UNL     1      -8.635  12.285  67.803  1.00  0.00    -0.170 A  
HETATM   14  C   UNL     1      -8.964  13.600  67.318  1.00  0.00    -0.226 A  
HETATM   15  C   UNL     1      -7.945  14.516  67.515  1.00  0.00    -0.191 A  
HETATM   16  S   UNL     1      -6.590  13.792  68.256  1.00  0.00    -0.127 SA 
BRANCH  15  17
HETATM   17  S   UNL     1      -7.794  16.262  67.189  1.00  0.00    -0.214 S  
HETATM   18  O   UNL     1      -6.552  16.388  66.461  1.00  0.00    -0.245 OA 
HETATM   19  N   UNL     1      -9.034  16.657  66.126  1.00  0.00    -0.300 N  
HETATM   20  O   UNL     1      -8.050  16.928  68.442  1.00  0.00    -0.216 OA 
HETATM   21  H1  UNL     1      -8.948  17.655  65.939  1.00  0.00     0.000 HD 
HETATM   22  H2  UNL     1      -9.734  16.022  65.742  1.00  0.00     0.000 HD 
ENDBRANCH  15  17
ENDBRANCH   3   5
ENDBRANCH   2   3
TORSDOF 3
ENDMDL
MODEL      151
REMARK 921   NORMALIZED FREE ENERGY PREDICTED BY IDOCK:   -2.66 KCAL/MOL
REMARK 922        TOTAL FREE ENERGY PREDICTED BY IDOCK:   -3.48 KCAL/MOL
REMARK 923 INTER-LIGAND FREE ENERGY PREDICTED BY IDOCK:   -3.17 KCAL/MOL
REMARK 924 INTRA-LIGAND FREE ENERGY PREDICTED BY IDOCK:   -0.31 KCAL/MOL
REMARK 927      BINDING AFFINITY PREDICTED BY RF-SCORE:    0.00 PKD
ROOT
HETATM    1  C   UNL     1     -10.107   4.482  71.804  1.00  0.00    -0.254 C  
HETATM    2  C   UNL     1     -10.190   4.845  70.328  1.00  0.00    -0.229 C  
ENDROOT
BRANCH   2   3
HETATM    3  N   UNL     1      -9.420   6.068  70.058  1.00  0.00    -0.155 NA 
HETATM    4  H   UNL     1      -8.506   5.842  69.666  1.00  0.00     0.000 HD 
BRANCH   3   5
HETATM    5  C   UNL     1     -10.132   7.027  69.200  1.00  0.00    -0.180 C  
HETATM    6  C   UNL     1     -10.821   8.154  70.014  1.00  0.00    -0.233 C  
HETATM    7  C   UNL     1     -10.384   9.631  70.057  1.00  0.00    -0.257 C  
HETATM    8  S   UNL     1      -9.015  10.164  69.050  1.00  0.00    -0.176 S  
HETATM    9  C   UNL     1     -11.606  10.530  69.832  1.00  0.00    -0.384 C  
HETATM   10  C   UNL     1      -8.665   8.762  68.063  1.00  0.00    -0.141 A  
HETATM   11  O   UNL     1      -7.849  10.343  69.889  1.00  0.00    -0.146 OA 
HETATM   12  O   UNL     1      -9.459  11.171  68.110  1.00  0.00    -0.167 OA 
HETATM   13  C   UNL     1      -9.167   7.483  68.136  1.00  0.00    -0.137 A  
HETATM   14  C   UNL     1      -8.656   6.691  67.048  1.00  0.00    -0.113 A  
HETATM   15  C   UNL     1      -7.786   7.395  66.233  1.00  0.00    -0.106 A  
HETATM   16  S   UNL     1      -7.565   8.992  66.788  1.00  0.00    -0.090 SA 
BRANCH  15  17
HETATM   17  S   UNL     1      -6.910   6.979  64.736  1.00  0.00    -0.048 S  
HETATM   18  O   UNL     1      -6.077   5.858  65.106  1.00  0.00    -0.024 OA 
HETATM   19  N   UNL     1      -8.061   6.407  63.654  1.00  0.00    -0.260 N  
HETATM   20  O   UNL     1      -6.387   8.219  64.220  1.00  0.00    -0.065 OA 
HETATM   21  H1  UNL     1      -7.559   6.169  62.799  1.00  0.00     0.000 HD 
HETATM   22  H2  UNL     1      -9.063   6.315  63.820  1.00  0.00     0.000 HD 
ENDBRANCH  15  17
ENDBRANCH   3   5
ENDBRANCH   2   3
TORSDOF 3
ENDMDL
MODEL      152
REMARK 921   NORMALIZED FREE ENERGY PREDICTED BY IDOCK:   -2.65 KCAL/MOL
REMARK 922        TOTAL FREE ENERGY PREDICTED BY IDOCK:   -3.47 KCAL/MOL
REMARK 923 INTER-LIGAND FREE ENERGY PREDICTED BY IDOCK:   -3.16 KCAL/MOL
REMARK 924 INTRA-LIGAND FREE ENERGY PREDICTED BY IDOCK:   -0.31 KCAL/MOL
REMARK 927      BINDING AFFINITY PREDICTED BY RF-SCORE:    0.00 PKD
ROOT
HETATM    1  C   UNL     1      -9.134   8.193  65.638  1.00  0.00    -0.092 C  
HETATM    2  C   UNL     1      -8.664   8.550  67.041  1.00  0.00    -0.125 C  
ENDROOT
BRANCH   2   3
HETATM    3  N   UNL     1      -9.806   8.599  67.967  1.00  0.00    -0.162 NA 
HETATM    4  H   UNL     1      -9.880   7.731  68.497  1.00  0.00     0.000 HD 
BRANCH   3   5
HETATM    5  C   UNL     1      -9.774   9.760  68.869  1.00  0.00    -0.171 C  
HETATM    6  C   UNL     1     -10.855  10.815  68.516  1.00  0.00    -0.270 C  
HETATM    7  C   UNL     1     -12.117  11.124  69.346  1.00  0.00    -0.326 C  
HETATM    8  S   UNL     1     -12.374  10.275  70.891  1.00  0.00    -0.404 S  
HETATM    9  C   UNL     1     -12.243  12.641  69.533  1.00  0.00    -0.149 C  
HETATM   10  C   UNL     1     -10.876   9.405  71.131  1.00  0.00    -0.357 A  
HETATM   11  O   UNL     1     -13.385   9.256  70.711  1.00  0.00    -0.034 OA 
HETATM   12  O   UNL     1     -12.419  11.232  71.977  1.00  0.00    -0.033 OA 
HETATM   13  C   UNL     1      -9.807   9.233  70.281  1.00  0.00    -0.265 A  
HETATM   14  C   UNL     1      -8.753   8.519  70.953  1.00  0.00    -0.196 A  
HETATM   15  C   UNL     1      -9.083   8.170  72.251  1.00  0.00    -0.199 A  
HETATM   16  S   UNL     1     -10.662   8.674  72.651  1.00  0.00     0.202 SA 
BRANCH  15  17
HETATM   17  S   UNL     1      -8.189   7.352  73.560  1.00  0.00    -0.144 S  
HETATM   18  O   UNL     1      -9.215   6.913  74.478  1.00  0.00    -0.204 OA 
HETATM   19  N   UNL     1      -7.508   5.974  72.882  1.00  0.00    -0.094 N  
HETATM   20  O   UNL     1      -7.119   8.243  73.932  1.00  0.00    -0.134 OA 
HETATM   21  H1  UNL     1      -6.997   5.506  73.630  1.00  0.00     0.000 HD 
HETATM   22  H2  UNL     1      -7.591   5.665  71.913  1.00  0.00     0.000 HD 
ENDBRANCH  15  17
ENDBRANCH   3   5
ENDBRANCH   2   3
TORSDOF 3
ENDMDL
MODEL      153
REMARK 921   NORMALIZED FREE ENERGY PREDICTED BY IDOCK:   -2.61 KCAL/MOL
REMARK 922        TOTAL FREE ENERGY PREDICTED BY IDOCK:   -3.42 KCAL/MOL
REMARK 923 INTER-LIGAND FREE ENERGY PREDICTED BY IDOCK:   -3.20 KCAL/MOL
REMARK 924 INTRA-LIGAND FREE ENERGY PREDICTED BY IDOCK:   -0.23 KCAL/MOL
REMARK 927      BINDING AFFINITY PREDICTED BY RF-SCORE:    0.00 PKD
ROOT
HETATM    1  C   UNL     1      -7.987   1.686  67.270  1.00  0.00    -0.065 C  
HETATM    2  C   UNL     1      -7.060   2.485  68.174  1.00  0.00    -0.048 C  
ENDROOT
BRANCH   2   3
HETATM    3  N   UNL     1      -7.840   3.292  69.124  1.00  0.00    -0.050 NA 
HETATM    4  H   UNL     1      -7.575   3.077  70.085  1.00  0.00     0.000 HD 
BRANCH   3   5
HETATM    5  C   UNL     1      -7.751   4.738  68.869  1.00  0.00    -0.072 C  
HETATM    6  C   UNL     1      -7.455   5.060  67.380  1.00  0.00    -0.083 C  
HETATM    7  C   UNL     1      -8.447   5.684  66.378  1.00  0.00    -0.121 C  
HETATM    8  S   UNL     1     -10.069   6.159  66.940  1.00  0.00    -0.200 S  
HETATM    9  C   UNL     1      -7.766   6.844  65.643  1.00  0.00    -0.102 C  
HETATM   10  C   UNL     1      -9.980   5.943  68.674  1.00  0.00    -0.148 A  
HETATM   11  O   UNL     1     -11.035   5.184  66.481  1.00  0.00    -0.178 OA 
HETATM   12  O   UNL     1     -10.255   7.583  66.758  1.00  0.00    -0.263 OA 
HETATM   13  C   UNL     1      -8.991   5.373  69.443  1.00  0.00    -0.124 A  
HETATM   14  C   UNL     1      -9.315   5.509  70.840  1.00  0.00    -0.191 A  
HETATM   15  C   UNL     1     -10.527   6.143  71.051  1.00  0.00    -0.229 A  
HETATM   16  S   UNL     1     -11.284   6.549  69.579  1.00  0.00    -0.356 SA 
BRANCH  15  17
HETATM   17  S   UNL     1     -11.406   6.636  72.523  1.00  0.00    -0.227 S  
HETATM   18  O   UNL     1     -10.552   6.218  73.610  1.00  0.00    -0.257 OA 
HETATM   19  N   UNL     1     -11.423   8.317  72.525  1.00  0.00    -0.392 N  
HETATM   20  O   UNL     1     -12.761   6.174  72.355  1.00  0.00    -0.090 OA 
HETATM   21  H1  UNL     1     -11.926   8.599  73.366  1.00  0.00     0.000 HD 
HETATM   22  H2  UNL     1     -11.012   8.933  71.824  1.00  0.00     0.000 HD 
ENDBRANCH  15  17
ENDBRANCH   3   5
ENDBRANCH   2   3
TORSDOF 3
ENDMDL
MODEL      154
REMARK 921   NORMALIZED FREE ENERGY PREDICTED BY IDOCK:   -2.55 KCAL/MOL
REMARK 922        TOTAL FREE ENERGY PREDICTED BY IDOCK:   -3.35 KCAL/MOL
REMARK 923 INTER-LIGAND FREE ENERGY PREDICTED BY IDOCK:   -3.00 KCAL/MOL
REMARK 924 INTRA-LIGAND FREE ENERGY PREDICTED BY IDOCK:   -0.36 KCAL/MOL
REMARK 927      BINDING AFFINITY PREDICTED BY RF-SCORE:    0.00 PKD
ROOT
HETATM    1  C   UNL     1      -8.534  13.103  67.032  1.00  0.00    -0.139 C  
HETATM    2  C   UNL     1      -7.338  12.891  67.950  1.00  0.00    -0.127 C  
ENDROOT
BRANCH   2   3
HETATM    3  N   UNL     1      -7.024  11.459  68.060  1.00  0.00    -0.067 NA 
HETATM    4  H   UNL     1      -6.965  11.175  69.038  1.00  0.00     0.000 HD 
BRANCH   3   5
HETATM    5  C   UNL     1      -7.961  10.599  67.322  1.00  0.00    -0.116 C  
HETATM    6  C   UNL     1      -7.322   9.976  66.054  1.00  0.00    -0.112 C  
HETATM    7  C   UNL     1      -6.952   8.491  65.866  1.00  0.00    -0.071 C  
HETATM    8  S   UNL     1      -7.331   7.329  67.162  1.00  0.00    -0.096 S  
HETATM    9  C   UNL     1      -7.493   7.998  64.519  1.00  0.00    -0.102 C  
HETATM   10  C   UNL     1      -8.284   8.270  68.288  1.00  0.00    -0.128 A  
HETATM   11  O   UNL     1      -6.115   6.997  67.873  1.00  0.00    -0.030 OA 
HETATM   12  O   UNL     1      -8.243   6.320  66.666  1.00  0.00    -0.108 OA 
HETATM   13  C   UNL     1      -8.546   9.621  68.309  1.00  0.00    -0.119 A  
HETATM   14  C   UNL     1      -9.464   9.927  69.376  1.00  0.00    -0.226 A  
HETATM   15  C   UNL     1      -9.824   8.811  70.111  1.00  0.00    -0.176 A  
HETATM   16  S   UNL     1      -9.043   7.408  69.540  1.00  0.00    -0.142 SA 
BRANCH  15  17
HETATM   17  S   UNL     1     -10.944   8.559  71.476  1.00  0.00    -0.293 S  
HETATM   18  O   UNL     1     -10.094   8.556  72.645  1.00  0.00    -0.282 OA 
HETATM   19  N   UNL     1     -11.903   9.936  71.565  1.00  0.00    -0.385 N  
HETATM   20  O   UNL     1     -11.786   7.449  71.105  1.00  0.00    -0.277 OA 
HETATM   21  H1  UNL     1     -12.544   9.792  72.346  1.00  0.00     0.000 HD 
HETATM   22  H2  UNL     1     -11.855  10.754  70.959  1.00  0.00     0.000 HD 
ENDBRANCH  15  17
ENDBRANCH   3   5
ENDBRANCH   2   3
TORSDOF 3
ENDMDL
MODEL      155
REMARK 921   NORMALIZED FREE ENERGY PREDICTED BY IDOCK:   -2.53 KCAL/MOL
REMARK 922        TOTAL FREE ENERGY PREDICTED BY IDOCK:   -3.33 KCAL/MOL
REMARK 923 INTER-LIGAND FREE ENERGY PREDICTED BY IDOCK:   -2.90 KCAL/MOL
REMARK 924 INTRA-LIGAND FREE ENERGY PREDICTED BY IDOCK:   -0.43 KCAL/MOL
REMARK 927      BINDING AFFINITY PREDICTED BY RF-SCORE:    0.00 PKD
ROOT
HETATM    1  C   UNL     1     -11.372   9.612  70.944  1.00  0.00    -0.431 C  
HETATM    2  C   UNL     1     -10.520   8.630  70.153  1.00  0.00    -0.217 C  
ENDROOT
BRANCH   2   3
HETATM    3  N   UNL     1      -9.147   8.604  70.678  1.00  0.00    -0.158 NA 
HETATM    4  H   UNL     1      -9.033   7.850  71.355  1.00  0.00     0.000 HD 
BRANCH   3   5
HETATM    5  C   UNL     1      -8.122   8.520  69.626  1.00  0.00    -0.113 C  
HETATM    6  C   UNL     1      -8.257   7.234  68.769  1.00  0.00    -0.129 C  
HETATM    7  C   UNL     1      -8.726   7.174  67.301  1.00  0.00    -0.120 C  
HETATM    8  S   UNL     1      -9.094   8.690  66.442  1.00  0.00    -0.188 S  
HETATM    9  C   UNL     1      -7.750   6.314  66.490  1.00  0.00    -0.099 C  
HETATM   10  C   UNL     1      -8.573   9.930  67.561  1.00  0.00    -0.122 A  
HETATM   11  O   UNL     1     -10.530   8.843  66.342  1.00  0.00    -0.219 OA 
HETATM   12  O   UNL     1      -8.216   8.835  65.301  1.00  0.00    -0.127 OA 
HETATM   13  C   UNL     1      -8.151   9.821  68.866  1.00  0.00    -0.101 A  
HETATM   14  C   UNL     1      -7.728  11.107  69.356  1.00  0.00     0.026 A  
HETATM   15  C   UNL     1      -7.872  12.114  68.416  1.00  0.00    -0.149 A  
HETATM   16  S   UNL     1      -8.538  11.521  66.964  1.00  0.00    -0.166 SA 
BRANCH  15  17
HETATM   17  S   UNL     1      -7.473  13.852  68.419  1.00  0.00    -0.127 S  
HETATM   18  O   UNL     1      -8.691  14.501  68.847  1.00  0.00    -0.169 OA 
HETATM   19  N   UNL     1      -6.338  14.077  69.638  1.00  0.00    -0.125 N  
HETATM   20  O   UNL     1      -6.833  14.119  67.155  1.00  0.00    -0.165 OA 
HETATM   21  H1  UNL     1      -6.110  15.071  69.639  1.00  0.00     0.000 HD 
HETATM   22  H2  UNL     1      -5.953  13.362  70.254  1.00  0.00     0.000 HD 
ENDBRANCH  15  17
ENDBRANCH   3   5
ENDBRANCH   2   3
TORSDOF 3
ENDMDL
MODEL      156
REMARK 921   NORMALIZED FREE ENERGY PREDICTED BY IDOCK:   -2.51 KCAL/MOL
REMARK 922        TOTAL FREE ENERGY PREDICTED BY IDOCK:   -3.30 KCAL/MOL
REMARK 923 INTER-LIGAND FREE ENERGY PREDICTED BY IDOCK:   -2.93 KCAL/MOL
REMARK 924 INTRA-LIGAND FREE ENERGY PREDICTED BY IDOCK:   -0.37 KCAL/MOL
REMARK 927      BINDING AFFINITY PREDICTED BY RF-SCORE:    0.00 PKD
ROOT
HETATM    1  C   UNL     1     -11.285   9.517  70.684  1.00  0.00    -0.364 C  
HETATM    2  C   UNL     1      -9.913   8.925  70.394  1.00  0.00    -0.194 C  
ENDROOT
BRANCH   2   3
HETATM    3  N   UNL     1      -9.055   9.920  69.733  1.00  0.00    -0.235 NA 
HETATM    4  H   UNL     1      -8.868  10.707  70.355  1.00  0.00     0.000 HD 
BRANCH   3   5
HETATM    5  C   UNL     1      -7.800   9.354  69.216  1.00  0.00    -0.085 C  
HETATM    6  C   UNL     1      -7.229   8.240  70.132  1.00  0.00    -0.055 C  
HETATM    7  C   UNL     1      -7.192   6.734  69.805  1.00  0.00    -0.077 C  
HETATM    8  S   UNL     1      -7.781   6.173  68.220  1.00  0.00    -0.104 S  
HETATM    9  C   UNL     1      -5.788   6.186  70.087  1.00  0.00    -0.018 C  
HETATM   10  C   UNL     1      -8.068   7.659  67.342  1.00  0.00    -0.119 A  
HETATM   11  O   UNL     1      -9.084   5.567  68.385  1.00  0.00    -0.110 OA 
HETATM   12  O   UNL     1      -6.707   5.524  67.498  1.00  0.00    -0.055 OA 
HETATM   13  C   UNL     1      -8.041   8.963  67.780  1.00  0.00    -0.106 A  
HETATM   14  C   UNL     1      -8.246   9.859  66.672  1.00  0.00    -0.121 A  
HETATM   15  C   UNL     1      -8.438   9.195  65.472  1.00  0.00    -0.147 A  
HETATM   16  S   UNL     1      -8.400   7.503  65.682  1.00  0.00    -0.133 SA 
BRANCH  15  17
HETATM   17  S   UNL     1      -8.673   9.750  63.794  1.00  0.00    -0.239 S  
HETATM   18  O   UNL     1      -9.847  10.590  63.853  1.00  0.00    -0.300 OA 
HETATM   19  N   UNL     1      -7.368  10.746  63.436  1.00  0.00    -0.344 N  
HETATM   20  O   UNL     1      -8.579   8.574  62.965  1.00  0.00    -0.127 OA 
HETATM   21  H1  UNL     1      -7.502  11.064  62.476  1.00  0.00     0.000 HD 
HETATM   22  H2  UNL     1      -6.594  10.987  64.056  1.00  0.00     0.000 HD 
ENDBRANCH  15  17
ENDBRANCH   3   5
ENDBRANCH   2   3
TORSDOF 3
ENDMDL
MODEL      157
REMARK 921   NORMALIZED FREE ENERGY PREDICTED BY IDOCK:   -2.40 KCAL/MOL
REMARK 922        TOTAL FREE ENERGY PREDICTED BY IDOCK:   -3.18 KCAL/MOL
REMARK 923 INTER-LIGAND FREE ENERGY PREDICTED BY IDOCK:   -2.83 KCAL/MOL
REMARK 924 INTRA-LIGAND FREE ENERGY PREDICTED BY IDOCK:   -0.35 KCAL/MOL
REMARK 927      BINDING AFFINITY PREDICTED BY RF-SCORE:    0.00 PKD
ROOT
HETATM    1  C   UNL     1     -10.898   8.956  69.861  1.00  0.00    -0.219 C  
HETATM    2  C   UNL     1     -10.520   7.900  68.833  1.00  0.00    -0.190 C  
ENDROOT
BRANCH   2   3
HETATM    3  N   UNL     1     -11.397   6.726  68.957  1.00  0.00    -0.558 NA 
HETATM    4  H   UNL     1     -12.262   6.864  68.435  1.00  0.00     0.000 HD 
BRANCH   3   5
HETATM    5  C   UNL     1     -10.744   5.468  68.565  1.00  0.00    -0.091 C  
HETATM    6  C   UNL     1     -10.508   5.374  67.035  1.00  0.00    -0.319 C  
HETATM    7  C   UNL     1      -9.141   5.455  66.327  1.00  0.00    -0.143 C  
HETATM    8  S   UNL     1      -7.661   5.600  67.306  1.00  0.00    -0.089 S  
HETATM    9  C   UNL     1      -9.019   4.301  65.325  1.00  0.00    -0.137 C  
HETATM   10  C   UNL     1      -8.233   5.386  68.945  1.00  0.00    -0.100 A  
HETATM   11  O   UNL     1      -7.181   6.964  67.243  1.00  0.00    -0.084 OA 
HETATM   12  O   UNL     1      -6.800   4.461  67.068  1.00  0.00    -0.050 OA 
HETATM   13  C   UNL     1      -9.519   5.308  69.429  1.00  0.00    -0.190 A  
HETATM   14  C   UNL     1      -9.498   5.030  70.841  1.00  0.00    -0.222 A  
HETATM   15  C   UNL     1      -8.215   4.936  71.351  1.00  0.00    -0.112 A  
HETATM   16  S   UNL     1      -7.042   5.209  70.144  1.00  0.00    -0.055 SA 
BRANCH  15  17
HETATM   17  S   UNL     1      -7.570   4.559  72.971  1.00  0.00    -0.088 S  
HETATM   18  O   UNL     1      -8.233   3.332  73.347  1.00  0.00    -0.073 OA 
HETATM   19  N   UNL     1      -5.942   4.199  72.762  1.00  0.00    -0.014 N  
HETATM   20  O   UNL     1      -7.664   5.779  73.734  1.00  0.00    -0.096 OA 
HETATM   21  H1  UNL     1      -5.573   3.983  73.688  1.00  0.00     0.000 HD 
HETATM   22  H2  UNL     1      -5.424   4.195  71.883  1.00  0.00     0.000 HD 
ENDBRANCH  15  17
ENDBRANCH   3   5
ENDBRANCH   2   3
TORSDOF 3
ENDMDL
MODEL      158
REMARK 921   NORMALIZED FREE ENERGY PREDICTED BY IDOCK:   -2.31 KCAL/MOL
REMARK 922        TOTAL FREE ENERGY PREDICTED BY IDOCK:   -3.06 KCAL/MOL
REMARK 923 INTER-LIGAND FREE ENERGY PREDICTED BY IDOCK:   -2.74 KCAL/MOL
REMARK 924 INTRA-LIGAND FREE ENERGY PREDICTED BY IDOCK:   -0.33 KCAL/MOL
REMARK 927      BINDING AFFINITY PREDICTED BY RF-SCORE:    0.00 PKD
ROOT
HETATM    1  C   UNL     1      -5.598  11.431  70.343  1.00  0.00    -0.139 C  
HETATM    2  C   UNL     1      -6.525  10.337  70.851  1.00  0.00     0.089 C  
ENDROOT
BRANCH   2   3
HETATM    3  N   UNL     1      -6.970   9.484  69.739  1.00  0.00    -0.063 NA 
HETATM    4  H   UNL     1      -6.635   8.529  69.859  1.00  0.00     0.000 HD 
BRANCH   3   5
HETATM    5  C   UNL     1      -8.427   9.505  69.537  1.00  0.00    -0.155 C  
HETATM    6  C   UNL     1      -8.828  10.136  68.178  1.00  0.00    -0.126 C  
HETATM    7  C   UNL     1      -9.404   9.376  66.966  1.00  0.00    -0.148 C  
HETATM    8  S   UNL     1      -9.722   7.629  67.105  1.00  0.00    -0.202 S  
HETATM    9  C   UNL     1     -10.643  10.114  66.445  1.00  0.00    -0.155 C  
HETATM   10  C   UNL     1      -9.450   7.299  68.801  1.00  0.00    -0.142 A  
HETATM   11  O   UNL     1      -8.689   6.900  66.401  1.00  0.00    -0.130 OA 
HETATM   12  O   UNL     1     -11.132   7.369  66.904  1.00  0.00    -0.236 OA 
HETATM   13  C   UNL     1      -8.936   8.109  69.788  1.00  0.00    -0.144 A  
HETATM   14  C   UNL     1      -8.992   7.434  71.058  1.00  0.00    -0.151 A  
HETATM   15  C   UNL     1      -9.516   6.156  70.965  1.00  0.00    -0.171 A  
HETATM   16  S   UNL     1      -9.913   5.760  69.355  1.00  0.00    -0.205 SA 
BRANCH  15  17
HETATM   17  S   UNL     1      -9.880   4.895  72.172  1.00  0.00    -0.179 S  
HETATM   18  O   UNL     1     -10.147   3.711  71.389  1.00  0.00    -0.137 OA 
HETATM   19  N   UNL     1      -8.453   4.619  73.017  1.00  0.00    -0.100 N  
HETATM   20  O   UNL     1     -10.835   5.476  73.083  1.00  0.00    -0.244 OA 
HETATM   21  H1  UNL     1      -8.661   3.899  73.708  1.00  0.00     0.000 HD 
HETATM   22  H2  UNL     1      -7.556   5.081  72.868  1.00  0.00     0.000 HD 
ENDBRANCH  15  17
ENDBRANCH   3   5
ENDBRANCH   2   3
TORSDOF 3
ENDMDL
MODEL      159
REMARK 921   NORMALIZED FREE ENERGY PREDICTED BY IDOCK:   -2.20 KCAL/MOL
REMARK 922        TOTAL FREE ENERGY PREDICTED BY IDOCK:   -2.95 KCAL/MOL
REMARK 923 INTER-LIGAND FREE ENERGY PREDICTED BY IDOCK:   -2.57 KCAL/MOL
REMARK 924 INTRA-LIGAND FREE ENERGY PREDICTED BY IDOCK:   -0.38 KCAL/MOL
REMARK 927      BINDING AFFINITY PREDICTED BY RF-SCORE:    0.00 PKD
ROOT
HETATM    1  C   UNL     1      -5.596   7.714  64.763  1.00  0.00    -0.033 C  
HETATM    2  C   UNL     1      -6.595   6.611  64.444  1.00  0.00    -0.041 C  
ENDROOT
BRANCH   2   3
HETATM    3  N   UNL     1      -7.969   7.078  64.684  1.00  0.00    -0.144 NA 
HETATM    4  H   UNL     1      -8.404   7.385  63.814  1.00  0.00     0.000 HD 
BRANCH   3   5
HETATM    5  C   UNL     1      -8.810   6.084  65.367  1.00  0.00    -0.031 C  
HETATM    6  C   UNL     1      -8.263   4.640  65.217  1.00  0.00    -0.117 C  
HETATM    7  C   UNL     1      -7.626   3.796  66.339  1.00  0.00    -0.084 C  
HETATM    8  S   UNL     1      -7.545   4.461  67.989  1.00  0.00    -0.069 S  
HETATM    9  C   UNL     1      -8.258   2.399  66.346  1.00  0.00    -0.088 C  
HETATM   10  C   UNL     1      -8.484   5.933  67.882  1.00  0.00    -0.107 A  
HETATM   11  O   UNL     1      -6.191   4.889  68.264  1.00  0.00    -0.032 OA 
HETATM   12  O   UNL     1      -8.293   3.616  68.897  1.00  0.00    -0.070 OA 
HETATM   13  C   UNL     1      -9.016   6.564  66.781  1.00  0.00    -0.136 A  
HETATM   14  C   UNL     1      -9.798   7.700  67.194  1.00  0.00    -0.265 A  
HETATM   15  C   UNL     1      -9.797   7.883  68.566  1.00  0.00    -0.177 A  
HETATM   16  S   UNL     1      -8.840   6.711  69.351  1.00  0.00    -0.134 SA 
BRANCH  15  17
HETATM   17  S   UNL     1     -10.610   9.049  69.643  1.00  0.00    -0.215 S  
HETATM   18  O   UNL     1     -11.362   8.227  70.563  1.00  0.00    -0.267 OA 
HETATM   19  N   UNL     1      -9.398   9.804  70.528  1.00  0.00    -0.350 N  
HETATM   20  O   UNL     1     -11.216  10.034  68.782  1.00  0.00    -0.205 OA 
HETATM   21  H1  UNL     1      -9.863  10.472  71.144  1.00  0.00     0.000 HD 
HETATM   22  H2  UNL     1      -8.395   9.630  70.464  1.00  0.00     0.000 HD 
ENDBRANCH  15  17
ENDBRANCH   3   5
ENDBRANCH   2   3
TORSDOF 3
ENDMDL
MODEL      160
REMARK 921   NORMALIZED FREE ENERGY PREDICTED BY IDOCK:   -2.17 KCAL/MOL
REMARK 922        TOTAL FREE ENERGY PREDICTED BY IDOCK:   -2.91 KCAL/MOL
REMARK 923 INTER-LIGAND FREE ENERGY PREDICTED BY IDOCK:   -2.59 KCAL/MOL
REMARK 924 INTRA-LIGAND FREE ENERGY PREDICTED BY IDOCK:   -0.32 KCAL/MOL
REMARK 927      BINDING AFFINITY PREDICTED BY RF-SCORE:    0.00 PKD
ROOT
HETATM    1  C   UNL     1      -8.222  12.518  67.764  1.00  0.00    -0.166 C  
HETATM    2  C   UNL     1      -7.357  11.500  68.493  1.00  0.00    -0.104 C  
ENDROOT
BRANCH   2   3
HETATM    3  N   UNL     1      -7.461  10.183  67.846  1.00  0.00    -0.088 NA 
HETATM    4  H   UNL     1      -7.200  10.242  66.862  1.00  0.00     0.000 HD 
BRANCH   3   5
HETATM    5  C   UNL     1      -6.687   9.136  68.530  1.00  0.00    -0.059 C  
HETATM    6  C   UNL     1      -6.087   9.626  69.874  1.00  0.00    -0.043 C  
HETATM    7  C   UNL     1      -6.544   9.185  71.279  1.00  0.00    -0.080 C  
HETATM    8  S   UNL     1      -7.825   7.956  71.432  1.00  0.00    -0.095 S  
HETATM    9  C   UNL     1      -5.318   8.798  72.115  1.00  0.00    -0.051 C  
HETATM   10  C   UNL     1      -8.069   7.414  69.787  1.00  0.00    -0.127 A  
HETATM   11  O   UNL     1      -9.062   8.605  71.810  1.00  0.00    -0.208 OA 
HETATM   12  O   UNL     1      -7.312   6.795  72.128  1.00  0.00    -0.086 OA 
HETATM   13  C   UNL     1      -7.560   7.910  68.609  1.00  0.00    -0.101 A  
HETATM   14  C   UNL     1      -7.963   7.074  67.508  1.00  0.00    -0.113 A  
HETATM   15  C   UNL     1      -8.765   6.017  67.902  1.00  0.00    -0.112 A  
HETATM   16  S   UNL     1      -9.054   6.045  69.581  1.00  0.00    -0.135 SA 
BRANCH  15  17
HETATM   17  S   UNL     1      -9.501   4.651  67.023  1.00  0.00    -0.173 S  
HETATM   18  O   UNL     1     -10.027   3.795  68.062  1.00  0.00    -0.019 OA 
HETATM   19  N   UNL     1     -10.815   5.277  66.184  1.00  0.00    -0.715 N  
HETATM   20  O   UNL     1      -8.519   4.218  66.060  1.00  0.00    -0.112 OA 
HETATM   21  H1  UNL     1     -11.236   4.496  65.681  1.00  0.00     0.000 HD 
HETATM   22  H2  UNL     1     -11.130   6.247  66.178  1.00  0.00     0.000 HD 
ENDBRANCH  15  17
ENDBRANCH   3   5
ENDBRANCH   2   3
TORSDOF 3
ENDMDL
MODEL      161
REMARK 921   NORMALIZED FREE ENERGY PREDICTED BY IDOCK:   -2.10 KCAL/MOL
REMARK 922        TOTAL FREE ENERGY PREDICTED BY IDOCK:   -2.82 KCAL/MOL
REMARK 923 INTER-LIGAND FREE ENERGY PREDICTED BY IDOCK:   -2.48 KCAL/MOL
REMARK 924 INTRA-LIGAND FREE ENERGY PREDICTED BY IDOCK:   -0.35 KCAL/MOL
REMARK 927      BINDING AFFINITY PREDICTED BY RF-SCORE:    0.00 PKD
ROOT
HETATM    1  C   UNL     1      -5.169   8.697  71.250  1.00  0.00    -0.033 C  
HETATM    2  C   UNL     1      -6.440   9.534  71.219  1.00  0.00     0.006 C  
ENDROOT
BRANCH   2   3
HETATM    3  N   UNL     1      -7.492   8.842  70.459  1.00  0.00    -0.077 NA 
HETATM    4  H   UNL     1      -7.320   8.913  69.457  1.00  0.00     0.000 HD 
BRANCH   3   5
HETATM    5  C   UNL     1      -7.672   7.438  70.860  1.00  0.00    -0.088 C  
HETATM    6  C   UNL     1      -8.312   7.301  72.267  1.00  0.00    -0.117 C  
HETATM    7  C   UNL     1      -9.742   6.808  72.562  1.00  0.00    -0.153 C  
HETATM    8  S   UNL     1     -10.774   6.270  71.214  1.00  0.00    -0.258 S  
HETATM    9  C   UNL     1      -9.696   5.746  73.667  1.00  0.00    -0.158 C  
HETATM   10  C   UNL     1      -9.687   6.271  69.843  1.00  0.00    -0.166 A  
HETATM   11  O   UNL     1     -11.754   7.296  70.927  1.00  0.00    -0.298 OA 
HETATM   12  O   UNL     1     -11.134   4.880  71.394  1.00  0.00     0.133 OA 
HETATM   13  C   UNL     1      -8.397   6.740  69.739  1.00  0.00    -0.132 A  
HETATM   14  C   UNL     1      -7.866   6.434  68.436  1.00  0.00    -0.105 A  
HETATM   15  C   UNL     1      -8.778   5.781  67.624  1.00  0.00    -0.107 A  
HETATM   16  S   UNL     1     -10.272   5.561  68.414  1.00  0.00    -0.169 SA 
BRANCH  15  17
HETATM   17  S   UNL     1      -8.682   5.112  65.974  1.00  0.00    -0.135 S  
HETATM   18  O   UNL     1      -9.948   4.443  65.781  1.00  0.00    -0.203 OA 
HETATM   19  N   UNL     1      -8.652   6.428  64.928  1.00  0.00    -0.345 N  
HETATM   20  O   UNL     1      -7.408   4.442  65.886  1.00  0.00    -0.074 OA 
HETATM   21  H1  UNL     1      -8.597   6.046  63.984  1.00  0.00     0.000 HD 
HETATM   22  H2  UNL     1      -8.684   7.414  65.186  1.00  0.00     0.000 HD 
ENDBRANCH  15  17
ENDBRANCH   3   5
ENDBRANCH   2   3
TORSDOF 3
ENDMDL
MODEL      162
REMARK 921   NORMALIZED FREE ENERGY PREDICTED BY IDOCK:   -2.07 KCAL/MOL
REMARK 922        TOTAL FREE ENERGY PREDICTED BY IDOCK:   -2.79 KCAL/MOL
REMARK 923 INTER-LIGAND FREE ENERGY PREDICTED BY IDOCK:   -2.44 KCAL/MOL
REMARK 924 INTRA-LIGAND FREE ENERGY PREDICTED BY IDOCK:   -0.36 KCAL/MOL
REMARK 927      BINDING AFFINITY PREDICTED BY RF-SCORE:    0.00 PKD
ROOT
HETATM    1  C   UNL     1      -8.869   2.506  67.081  1.00  0.00    -0.155 C  
HETATM    2  C   UNL     1      -9.258   3.925  66.690  1.00  0.00    -0.169 C  
ENDROOT
BRANCH   2   3
HETATM    3  N   UNL     1      -9.476   4.746  67.890  1.00  0.00    -0.137 NA 
HETATM    4  H   UNL     1     -10.056   4.250  68.567  1.00  0.00     0.000 HD 
BRANCH   3   5
HETATM    5  C   UNL     1      -8.227   5.211  68.513  1.00  0.00    -0.089 C  
HETATM    6  C   UNL     1      -7.324   5.989  67.521  1.00  0.00    -0.077 C  
HETATM    7  C   UNL     1      -7.049   7.506  67.552  1.00  0.00    -0.085 C  
HETATM    8  S   UNL     1      -7.748   8.491  68.860  1.00  0.00    -0.102 S  
HETATM    9  C   UNL     1      -5.540   7.751  67.434  1.00  0.00    -0.036 C  
HETATM   10  C   UNL     1      -8.441   7.302  69.940  1.00  0.00    -0.140 A  
HETATM   11  O   UNL     1      -8.872   9.241  68.342  1.00  0.00    -0.128 OA 
HETATM   12  O   UNL     1      -6.690   9.110  69.630  1.00  0.00    -0.044 OA 
HETATM   13  C   UNL     1      -8.600   5.945  69.775  1.00  0.00    -0.129 A  
HETATM   14  C   UNL     1      -9.135   5.362  70.978  1.00  0.00    -0.167 A  
HETATM   15  C   UNL     1      -9.373   6.299  71.969  1.00  0.00    -0.152 A  
HETATM   16  S   UNL     1      -8.981   7.874  71.447  1.00  0.00    -0.141 SA 
BRANCH  15  17
HETATM   17  S   UNL     1      -9.957   6.176  73.650  1.00  0.00    -0.226 S  
HETATM   18  O   UNL     1      -9.217   5.068  74.208  1.00  0.00    -0.114 OA 
HETATM   19  N   UNL     1      -9.436   7.566  74.437  1.00  0.00    -0.378 N  
HETATM   20  O   UNL     1     -11.396   6.214  73.579  1.00  0.00     0.030 OA 
HETATM   21  H1  UNL     1      -9.770   7.496  75.399  1.00  0.00     0.000 HD 
HETATM   22  H2  UNL     1      -8.893   8.330  74.035  1.00  0.00     0.000 HD 
ENDBRANCH  15  17
ENDBRANCH   3   5
ENDBRANCH   2   3
TORSDOF 3
ENDMDL
MODEL      163
REMARK 921   NORMALIZED FREE ENERGY PREDICTED BY IDOCK:   -2.02 KCAL/MOL
REMARK 922        TOTAL FREE ENERGY PREDICTED BY IDOCK:   -2.73 KCAL/MOL
REMARK 923 INTER-LIGAND FREE ENERGY PREDICTED BY IDOCK:   -2.38 KCAL/MOL
REMARK 924 INTRA-LIGAND FREE ENERGY PREDICTED BY IDOCK:   -0.35 KCAL/MOL
REMARK 927      BINDING AFFINITY PREDICTED BY RF-SCORE:    0.00 PKD
ROOT
HETATM    1  C   UNL     1      -9.147   1.547  67.297  1.00  0.00    -0.131 C  
HETATM    2  C   UNL     1      -9.335   2.760  66.397  1.00  0.00    -0.010 C  
ENDROOT
BRANCH   2   3
HETATM    3  N   UNL     1      -9.421   3.988  67.202  1.00  0.00    -0.185 NA 
HETATM    4  H   UNL     1     -10.015   3.845  68.018  1.00  0.00     0.000 HD 
BRANCH   3   5
HETATM    5  C   UNL     1      -8.107   4.517  67.599  1.00  0.00    -0.099 C  
HETATM    6  C   UNL     1      -7.139   4.664  66.396  1.00  0.00    -0.075 C  
HETATM    7  C   UNL     1      -6.672   5.994  65.772  1.00  0.00    -0.048 C  
HETATM    8  S   UNL     1      -7.206   7.531  66.497  1.00  0.00    -0.077 S  
HETATM    9  C   UNL     1      -5.148   5.971  65.607  1.00  0.00    -0.013 C  
HETATM   10  C   UNL     1      -8.016   7.029  67.964  1.00  0.00    -0.115 A  
HETATM   11  O   UNL     1      -8.239   8.113  65.668  1.00  0.00    -0.117 OA 
HETATM   12  O   UNL     1      -6.058   8.285  66.953  1.00  0.00    -0.051 OA 
HETATM   13  C   UNL     1      -8.350   5.769  68.402  1.00  0.00    -0.107 A  
HETATM   14  C   UNL     1      -8.923   5.841  69.721  1.00  0.00    -0.137 A  
HETATM   15  C   UNL     1      -9.014   7.138  70.197  1.00  0.00    -0.145 A  
HETATM   16  S   UNL     1      -8.439   8.264  69.053  1.00  0.00    -0.132 SA 
BRANCH  15  17
HETATM   17  S   UNL     1      -9.564   7.835  71.743  1.00  0.00    -0.169 S  
HETATM   18  O   UNL     1      -8.681   8.956  71.969  1.00  0.00    -0.365 OA 
HETATM   19  N   UNL     1     -11.098   8.461  71.464  1.00  0.00    -0.252 N  
HETATM   20  O   UNL     1      -9.692   6.729  72.659  1.00  0.00    -0.150 OA 
HETATM   21  H1  UNL     1     -11.413   8.859  72.348  1.00  0.00     0.000 HD 
HETATM   22  H2  UNL     1     -11.613   8.446  70.584  1.00  0.00     0.000 HD 
ENDBRANCH  15  17
ENDBRANCH   3   5
ENDBRANCH   2   3
TORSDOF 3
ENDMDL
MODEL      164
REMARK 921   NORMALIZED FREE ENERGY PREDICTED BY IDOCK:   -2.01 KCAL/MOL
REMARK 922        TOTAL FREE ENERGY PREDICTED BY IDOCK:   -2.71 KCAL/MOL
REMARK 923 INTER-LIGAND FREE ENERGY PREDICTED BY IDOCK:   -2.58 KCAL/MOL
REMARK 924 INTRA-LIGAND FREE ENERGY PREDICTED BY IDOCK:   -0.13 KCAL/MOL
REMARK 927      BINDING AFFINITY PREDICTED BY RF-SCORE:    0.00 PKD
ROOT
HETATM    1  C   UNL     1      -7.931   2.211  66.993  1.00  0.00    -0.067 C  
HETATM    2  C   UNL     1      -7.107   3.483  67.130  1.00  0.00    -0.059 C  
ENDROOT
BRANCH   2   3
HETATM    3  N   UNL     1      -7.403   4.150  68.407  1.00  0.00    -0.059 NA 
HETATM    4  H   UNL     1      -6.619   4.732  68.702  1.00  0.00     0.000 HD 
BRANCH   3   5
HETATM    5  C   UNL     1      -8.651   4.929  68.381  1.00  0.00    -0.097 C  
HETATM    6  C   UNL     1      -9.344   4.984  69.768  1.00  0.00    -0.191 C  
HETATM    7  C   UNL     1      -9.444   6.225  70.677  1.00  0.00    -0.168 C  
HETATM    8  S   UNL     1      -8.783   7.777  70.108  1.00  0.00    -0.141 S  
HETATM    9  C   UNL     1     -10.893   6.392  71.151  1.00  0.00    -0.308 C  
HETATM   10  C   UNL     1      -8.354   7.452  68.444  1.00  0.00    -0.125 A  
HETATM   11  O   UNL     1      -7.530   8.037  70.784  1.00  0.00    -0.068 OA 
HETATM   12  O   UNL     1      -9.841   8.762  70.026  1.00  0.00    -0.171 OA 
HETATM   13  C   UNL     1      -8.335   6.262  67.752  1.00  0.00    -0.117 A  
HETATM   14  C   UNL     1      -8.006   6.500  66.371  1.00  0.00    -0.110 A  
HETATM   15  C   UNL     1      -7.771   7.837  66.098  1.00  0.00    -0.089 A  
HETATM   16  S   UNL     1      -7.919   8.796  67.499  1.00  0.00    -0.102 SA 
BRANCH  15  17
HETATM   17  S   UNL     1      -7.393   8.728  64.600  1.00  0.00    -0.101 S  
HETATM   18  O   UNL     1      -6.121   8.192  64.173  1.00  0.00    -0.063 OA 
HETATM   19  N   UNL     1      -8.536   8.254  63.463  1.00  0.00    -0.408 N  
HETATM   20  O   UNL     1      -7.607  10.122  64.897  1.00  0.00    -0.137 OA 
HETATM   21  H1  UNL     1      -8.320   8.763  62.606  1.00  0.00     0.000 HD 
HETATM   22  H2  UNL     1      -9.296   7.588  63.601  1.00  0.00     0.000 HD 
ENDBRANCH  15  17
ENDBRANCH   3   5
ENDBRANCH   2   3
TORSDOF 3
ENDMDL
MODEL      165
REMARK 921   NORMALIZED FREE ENERGY PREDICTED BY IDOCK:   -1.93 KCAL/MOL
REMARK 922        TOTAL FREE ENERGY PREDICTED BY IDOCK:   -2.62 KCAL/MOL
REMARK 923 INTER-LIGAND FREE ENERGY PREDICTED BY IDOCK:   -2.34 KCAL/MOL
REMARK 924 INTRA-LIGAND FREE ENERGY PREDICTED BY IDOCK:   -0.28 KCAL/MOL
REMARK 927      BINDING AFFINITY PREDICTED BY RF-SCORE:    0.00 PKD
ROOT
HETATM    1  C   UNL     1      -8.524  12.155  67.829  1.00  0.00    -0.160 C  
HETATM    2  C   UNL     1      -8.287  11.087  68.888  1.00  0.00    -0.123 C  
ENDROOT
BRANCH   2   3
HETATM    3  N   UNL     1      -8.690   9.766  68.383  1.00  0.00    -0.119 NA 
HETATM    4  H   UNL     1      -8.271   9.584  67.471  1.00  0.00     0.000 HD 
BRANCH   3   5
HETATM    5  C   UNL     1      -8.398   8.671  69.320  1.00  0.00    -0.118 C  
HETATM    6  C   UNL     1      -9.252   8.753  70.612  1.00  0.00    -0.233 C  
HETATM    7  C   UNL     1     -10.401   7.798  70.995  1.00  0.00    -0.202 C  
HETATM    8  S   UNL     1     -10.781   6.422  69.931  1.00  0.00    -0.308 S  
HETATM    9  C   UNL     1     -10.211   7.330  72.443  1.00  0.00    -0.229 C  
HETATM   10  C   UNL     1      -9.485   6.444  68.757  1.00  0.00    -0.127 A  
HETATM   11  O   UNL     1     -11.983   6.718  69.182  1.00  0.00     0.201 OA 
HETATM   12  O   UNL     1     -10.600   5.179  70.651  1.00  0.00    -0.233 OA 
HETATM   13  C   UNL     1      -8.498   7.380  68.548  1.00  0.00    -0.125 A  
HETATM   14  C   UNL     1      -7.592   6.921  67.527  1.00  0.00    -0.109 A  
HETATM   15  C   UNL     1      -7.950   5.690  67.005  1.00  0.00    -0.102 A  
HETATM   16  S   UNL     1      -9.381   5.101  67.720  1.00  0.00    -0.128 SA 
BRANCH  15  17
HETATM   17  S   UNL     1      -7.204   4.615  65.794  1.00  0.00    -0.077 S  
HETATM   18  O   UNL     1      -7.270   5.362  64.559  1.00  0.00    -0.052 OA 
HETATM   19  N   UNL     1      -5.581   4.485  66.208  1.00  0.00    -0.013 N  
HETATM   20  O   UNL     1      -7.817   3.322  65.973  1.00  0.00    -0.083 OA 
HETATM   21  H1  UNL     1      -5.154   3.870  65.515  1.00  0.00     0.000 HD 
HETATM   22  H2  UNL     1      -5.114   4.933  66.996  1.00  0.00     0.000 HD 
ENDBRANCH  15  17
ENDBRANCH   3   5
ENDBRANCH   2   3
TORSDOF 3
ENDMDL
MODEL      166
REMARK 921   NORMALIZED FREE ENERGY PREDICTED BY IDOCK:   -1.83 KCAL/MOL
REMARK 922        TOTAL FREE ENERGY PREDICTED BY IDOCK:   -2.50 KCAL/MOL
REMARK 923 INTER-LIGAND FREE ENERGY PREDICTED BY IDOCK:   -2.17 KCAL/MOL
REMARK 924 INTRA-LIGAND FREE ENERGY PREDICTED BY IDOCK:   -0.33 KCAL/MOL
REMARK 927      BINDING AFFINITY PREDICTED BY RF-SCORE:    0.00 PKD
ROOT
HETATM    1  C   UNL     1     -11.263  15.765  67.048  1.00  0.00    -0.082 C  
HETATM    2  C   UNL     1     -11.365  14.251  66.923  1.00  0.00    -0.343 C  
ENDROOT
BRANCH   2   3
HETATM    3  N   UNL     1     -10.412  13.596  67.832  1.00  0.00    -0.242 NA 
HETATM    4  H   UNL     1     -10.629  12.605  67.930  1.00  0.00     0.000 HD 
BRANCH   3   5
HETATM    5  C   UNL     1      -9.008  13.788  67.440  1.00  0.00    -0.224 C  
HETATM    6  C   UNL     1      -8.205  14.600  68.490  1.00  0.00    -0.152 C  
HETATM    7  C   UNL     1      -7.109  14.039  69.418  1.00  0.00    -0.008 C  
HETATM    8  S   UNL     1      -6.633  12.329  69.268  1.00  0.00    -0.073 S  
HETATM    9  C   UNL     1      -5.878  14.952  69.362  1.00  0.00    -0.102 C  
HETATM   10  C   UNL     1      -7.489  11.791  67.841  1.00  0.00    -0.108 A  
HETATM   11  O   UNL     1      -7.205  11.579  70.365  1.00  0.00     0.502 OA 
HETATM   12  O   UNL     1      -5.233  12.238  68.911  1.00  0.00    -0.055 OA 
HETATM   13  C   UNL     1      -8.449  12.432  67.092  1.00  0.00    -0.185 A  
HETATM   14  C   UNL     1      -8.794  11.633  65.945  1.00  0.00    -0.057 A  
HETATM   15  C   UNL     1      -8.105  10.433  65.900  1.00  0.00    -0.149 A  
HETATM   16  S   UNL     1      -7.069  10.257  67.242  1.00  0.00    -0.089 SA 
BRANCH  15  17
HETATM   17  S   UNL     1      -8.065   9.093  64.724  1.00  0.00    -0.149 S  
HETATM   18  O   UNL     1      -6.695   8.637  64.743  1.00  0.00    -0.068 OA 
HETATM   19  N   UNL     1      -9.007   7.862  65.374  1.00  0.00    -0.385 N  
HETATM   20  O   UNL     1      -8.723   9.581  63.537  1.00  0.00    -0.205 OA 
HETATM   21  H1  UNL     1      -8.984   7.095  64.701  1.00  0.00     0.000 HD 
HETATM   22  H2  UNL     1      -9.502   7.877  66.265  1.00  0.00     0.000 HD 
ENDBRANCH  15  17
ENDBRANCH   3   5
ENDBRANCH   2   3
TORSDOF 3
ENDMDL
MODEL      167
REMARK 921   NORMALIZED FREE ENERGY PREDICTED BY IDOCK:   -1.81 KCAL/MOL
REMARK 922        TOTAL FREE ENERGY PREDICTED BY IDOCK:   -2.48 KCAL/MOL
REMARK 923 INTER-LIGAND FREE ENERGY PREDICTED BY IDOCK:   -2.42 KCAL/MOL
REMARK 924 INTRA-LIGAND FREE ENERGY PREDICTED BY IDOCK:   -0.06 KCAL/MOL
REMARK 927      BINDING AFFINITY PREDICTED BY RF-SCORE:    0.00 PKD
ROOT
HETATM    1  C   UNL     1     -11.372  15.958  65.725  1.00  0.00     0.164 C  
HETATM    2  C   UNL     1     -11.399  14.451  65.936  1.00  0.00    -0.332 C  
ENDROOT
BRANCH   2   3
HETATM    3  N   UNL     1     -10.502  14.072  67.038  1.00  0.00    -0.273 NA 
HETATM    4  H   UNL     1     -10.789  13.184  67.448  1.00  0.00     0.000 HD 
BRANCH   3   5
HETATM    5  C   UNL     1      -9.085  14.033  66.647  1.00  0.00    -0.200 C  
HETATM    6  C   UNL     1      -8.372  15.393  66.867  1.00  0.00    -0.290 C  
HETATM    7  C   UNL     1      -7.312  15.691  67.947  1.00  0.00    -0.137 C  
HETATM    8  S   UNL     1      -6.771  14.378  69.022  1.00  0.00    -0.114 S  
HETATM    9  C   UNL     1      -6.112  16.394  67.301  1.00  0.00    -0.201 C  
HETATM   10  C   UNL     1      -7.525  12.955  68.339  1.00  0.00    -0.124 A  
HETATM   11  O   UNL     1      -7.380  14.548  70.323  1.00  0.00     0.139 OA 
HETATM   12  O   UNL     1      -5.350  14.156  68.851  1.00  0.00    -0.080 OA 
HETATM   13  C   UNL     1      -8.461  12.846  67.336  1.00  0.00    -0.196 A  
HETATM   14  C   UNL     1      -8.713  11.458  67.046  1.00  0.00    -0.160 A  
HETATM   15  C   UNL     1      -7.983  10.600  67.850  1.00  0.00    -0.106 A  
HETATM   16  S   UNL     1      -7.020  11.458  68.966  1.00  0.00    -0.112 SA 
BRANCH  15  17
HETATM   17  S   UNL     1      -7.830   8.825  67.918  1.00  0.00    -0.103 S  
HETATM   18  O   UNL     1      -6.460   8.566  67.540  1.00  0.00    -0.056 OA 
HETATM   19  N   UNL     1      -7.988   8.395  69.534  1.00  0.00    -0.108 N  
HETATM   20  O   UNL     1      -8.964   8.297  67.201  1.00  0.00    -0.134 OA 
HETATM   21  H1  UNL     1      -7.901   7.379  69.573  1.00  0.00     0.000 HD 
HETATM   22  H2  UNL     1      -8.141   9.024  70.322  1.00  0.00     0.000 HD 
ENDBRANCH  15  17
ENDBRANCH   3   5
ENDBRANCH   2   3
TORSDOF 3
ENDMDL
MODEL      168
REMARK 921   NORMALIZED FREE ENERGY PREDICTED BY IDOCK:   -1.81 KCAL/MOL
REMARK 922        TOTAL FREE ENERGY PREDICTED BY IDOCK:   -2.48 KCAL/MOL
REMARK 923 INTER-LIGAND FREE ENERGY PREDICTED BY IDOCK:   -2.13 KCAL/MOL
REMARK 924 INTRA-LIGAND FREE ENERGY PREDICTED BY IDOCK:   -0.35 KCAL/MOL
REMARK 927      BINDING AFFINITY PREDICTED BY RF-SCORE:    0.00 PKD
ROOT
HETATM    1  C   UNL     1      -6.129   9.751  69.215  1.00  0.00    -0.036 C  
HETATM    2  C   UNL     1      -6.491  10.126  67.786  1.00  0.00    -0.062 C  
ENDROOT
BRANCH   2   3
HETATM    3  N   UNL     1      -7.926  10.430  67.683  1.00  0.00    -0.106 NA 
HETATM    4  H   UNL     1      -8.072  11.390  67.373  1.00  0.00     0.000 HD 
BRANCH   3   5
HETATM    5  C   UNL     1      -8.661   9.487  66.825  1.00  0.00    -0.127 C  
HETATM    6  C   UNL     1      -8.178   9.526  65.352  1.00  0.00    -0.128 C  
HETATM    7  C   UNL     1      -7.378   8.420  64.636  1.00  0.00    -0.093 C  
HETATM    8  S   UNL     1      -7.005   6.912  65.507  1.00  0.00    -0.061 S  
HETATM    9  C   UNL     1      -8.029   8.117  63.281  1.00  0.00    -0.149 C  
HETATM   10  C   UNL     1      -7.916   7.064  66.992  1.00  0.00    -0.116 A  
HETATM   11  O   UNL     1      -5.614   6.927  65.907  1.00  0.00    -0.028 OA 
HETATM   12  O   UNL     1      -7.605   5.787  64.823  1.00  0.00    -0.076 OA 
HETATM   13  C   UNL     1      -8.613   8.138  67.496  1.00  0.00    -0.129 A  
HETATM   14  C   UNL     1      -9.289   7.761  68.710  1.00  0.00    -0.146 A  
HETATM   15  C   UNL     1      -9.052   6.446  69.071  1.00  0.00    -0.130 A  
HETATM   16  S   UNL     1      -8.001   5.677  67.972  1.00  0.00    -0.097 SA 
BRANCH  15  17
HETATM   17  S   UNL     1      -9.645   5.421  70.404  1.00  0.00    -0.186 S  
HETATM   18  O   UNL     1     -10.074   4.202  69.758  1.00  0.00    -0.137 OA 
HETATM   19  N   UNL     1      -8.305   5.039  71.344  1.00  0.00    -0.116 N  
HETATM   20  O   UNL     1     -10.522   6.252  71.191  1.00  0.00    -0.210 OA 
HETATM   21  H1  UNL     1      -8.644   4.453  72.106  1.00  0.00     0.000 HD 
HETATM   22  H2  UNL     1      -7.342   5.335  71.183  1.00  0.00     0.000 HD 
ENDBRANCH  15  17
ENDBRANCH   3   5
ENDBRANCH   2   3
TORSDOF 3
ENDMDL
MODEL      169
REMARK 921   NORMALIZED FREE ENERGY PREDICTED BY IDOCK:   -1.72 KCAL/MOL
REMARK 922        TOTAL FREE ENERGY PREDICTED BY IDOCK:   -2.38 KCAL/MOL
REMARK 923 INTER-LIGAND FREE ENERGY PREDICTED BY IDOCK:   -1.99 KCAL/MOL
REMARK 924 INTRA-LIGAND FREE ENERGY PREDICTED BY IDOCK:   -0.39 KCAL/MOL
REMARK 927      BINDING AFFINITY PREDICTED BY RF-SCORE:    0.00 PKD
ROOT
HETATM    1  C   UNL     1      -6.197   9.118  71.316  1.00  0.00    -0.073 C  
HETATM    2  C   UNL     1      -7.365  10.009  70.917  1.00  0.00     0.455 C  
ENDROOT
BRANCH   2   3
HETATM    3  N   UNL     1      -8.642   9.349  71.227  1.00  0.00    -0.302 NA 
HETATM    4  H   UNL     1      -9.108   9.810  72.008  1.00  0.00     0.000 HD 
BRANCH   3   5
HETATM    5  C   UNL     1      -9.541   9.247  70.068  1.00  0.00    -0.209 C  
HETATM    6  C   UNL     1     -10.033  10.634  69.577  1.00  0.00    -0.138 C  
HETATM    7  C   UNL     1      -9.611  11.327  68.266  1.00  0.00    -0.193 C  
HETATM    8  S   UNL     1      -8.516  10.480  67.146  1.00  0.00    -0.127 S  
HETATM    9  C   UNL     1     -10.860  11.828  67.530  1.00  0.00    -0.286 C  
HETATM   10  C   UNL     1      -8.391   8.876  67.833  1.00  0.00    -0.118 A  
HETATM   11  O   UNL     1      -7.190  11.049  67.256  1.00  0.00    -0.091 OA 
HETATM   12  O   UNL     1      -9.173  10.281  65.872  1.00  0.00    -0.155 OA 
HETATM   13  C   UNL     1      -8.851   8.392  69.036  1.00  0.00    -0.146 A  
HETATM   14  C   UNL     1      -8.598   6.978  69.128  1.00  0.00    -0.133 A  
HETATM   15  C   UNL     1      -7.946   6.476  68.014  1.00  0.00    -0.109 A  
HETATM   16  S   UNL     1      -7.616   7.703  66.878  1.00  0.00    -0.104 SA 
BRANCH  15  17
HETATM   17  S   UNL     1      -7.435   4.836  67.536  1.00  0.00    -0.079 S  
HETATM   18  O   UNL     1      -5.999   4.930  67.403  1.00  0.00    -0.021 OA 
HETATM   19  N   UNL     1      -7.745   3.838  68.852  1.00  0.00    -0.053 N  
HETATM   20  O   UNL     1      -8.307   4.441  66.459  1.00  0.00    -0.106 OA 
HETATM   21  H1  UNL     1      -7.453   2.900  68.579  1.00  0.00     0.000 HD 
HETATM   22  H2  UNL     1      -8.147   4.115  69.748  1.00  0.00     0.000 HD 
ENDBRANCH  15  17
ENDBRANCH   3   5
ENDBRANCH   2   3
TORSDOF 3
ENDMDL
MODEL      170
REMARK 921   NORMALIZED FREE ENERGY PREDICTED BY IDOCK:   -1.71 KCAL/MOL
REMARK 922        TOTAL FREE ENERGY PREDICTED BY IDOCK:   -2.37 KCAL/MOL
REMARK 923 INTER-LIGAND FREE ENERGY PREDICTED BY IDOCK:   -2.04 KCAL/MOL
REMARK 924 INTRA-LIGAND FREE ENERGY PREDICTED BY IDOCK:   -0.33 KCAL/MOL
REMARK 927      BINDING AFFINITY PREDICTED BY RF-SCORE:    0.00 PKD
ROOT
HETATM    1  C   UNL     1      -5.375   7.828  71.717  1.00  0.00    -0.035 C  
HETATM    2  C   UNL     1      -6.612   8.057  70.860  1.00  0.00    -0.037 C  
ENDROOT
BRANCH   2   3
HETATM    3  N   UNL     1      -7.184   6.772  70.432  1.00  0.00    -0.074 NA 
HETATM    4  H   UNL     1      -7.282   6.137  71.224  1.00  0.00     0.000 HD 
BRANCH   3   5
HETATM    5  C   UNL     1      -8.461   6.914  69.715  1.00  0.00    -0.133 C  
HETATM    6  C   UNL     1      -9.179   8.249  70.042  1.00  0.00    -0.151 C  
HETATM    7  C   UNL     1      -9.344   9.443  69.080  1.00  0.00    -0.159 C  
HETATM    8  S   UNL     1      -8.736   9.308  67.412  1.00  0.00    -0.117 S  
HETATM    9  C   UNL     1     -10.807   9.905  69.089  1.00  0.00    -0.248 C  
HETATM   10  C   UNL     1      -8.266   7.628  67.284  1.00  0.00    -0.119 A  
HETATM   11  O   UNL     1      -7.506  10.061  67.293  1.00  0.00    -0.090 OA 
HETATM   12  O   UNL     1      -9.830   9.453  66.476  1.00  0.00    -0.217 OA 
HETATM   13  C   UNL     1      -8.189   6.656  68.255  1.00  0.00    -0.114 A  
HETATM   14  C   UNL     1      -7.846   5.390  67.659  1.00  0.00    -0.100 A  
HETATM   15  C   UNL     1      -7.660   5.474  66.290  1.00  0.00    -0.091 A  
HETATM   16  S   UNL     1      -7.869   7.070  65.728  1.00  0.00    -0.116 SA 
BRANCH  15  17
HETATM   17  S   UNL     1      -7.291   4.265  65.033  1.00  0.00    -0.073 S  
HETATM   18  O   UNL     1      -8.512   3.504  64.895  1.00  0.00    -0.099 OA 
HETATM   19  N   UNL     1      -7.076   5.118  63.601  1.00  0.00    -0.047 N  
HETATM   20  O   UNL     1      -6.027   3.677  65.399  1.00  0.00    -0.022 OA 
HETATM   21  H1  UNL     1      -6.865   4.427  62.881  1.00  0.00     0.000 HD 
HETATM   22  H2  UNL     1      -7.143   6.128  63.475  1.00  0.00     0.000 HD 
ENDBRANCH  15  17
ENDBRANCH   3   5
ENDBRANCH   2   3
TORSDOF 3
ENDMDL
MODEL      171
REMARK 921   NORMALIZED FREE ENERGY PREDICTED BY IDOCK:   -1.65 KCAL/MOL
REMARK 922        TOTAL FREE ENERGY PREDICTED BY IDOCK:   -2.29 KCAL/MOL
REMARK 923 INTER-LIGAND FREE ENERGY PREDICTED BY IDOCK:   -2.22 KCAL/MOL
REMARK 924 INTRA-LIGAND FREE ENERGY PREDICTED BY IDOCK:   -0.07 KCAL/MOL
REMARK 927      BINDING AFFINITY PREDICTED BY RF-SCORE:    0.00 PKD
ROOT
HETATM    1  C   UNL     1      -7.416   2.105  66.635  1.00  0.00    -0.065 C  
HETATM    2  C   UNL     1      -6.469   2.659  67.689  1.00  0.00    -0.036 C  
ENDROOT
BRANCH   2   3
HETATM    3  N   UNL     1      -7.017   3.891  68.275  1.00  0.00    -0.050 NA 
HETATM    4  H   UNL     1      -6.849   3.920  69.280  1.00  0.00     0.000 HD 
BRANCH   3   5
HETATM    5  C   UNL     1      -6.522   5.115  67.626  1.00  0.00    -0.045 C  
HETATM    6  C   UNL     1      -5.827   4.827  66.270  1.00  0.00    -0.022 C  
HETATM    7  C   UNL     1      -6.383   5.188  64.878  1.00  0.00    -0.034 C  
HETATM    8  S   UNL     1      -7.923   6.075  64.758  1.00  0.00    -0.129 S  
HETATM    9  C   UNL     1      -5.290   5.885  64.058  1.00  0.00    -0.017 C  
HETATM   10  C   UNL     1      -8.284   6.491  66.419  1.00  0.00    -0.116 A  
HETATM   11  O   UNL     1      -8.969   5.159  64.356  1.00  0.00    -0.103 OA 
HETATM   12  O   UNL     1      -7.709   7.347  64.102  1.00  0.00    -0.110 OA 
HETATM   13  C   UNL     1      -7.665   6.096  67.583  1.00  0.00    -0.098 A  
HETATM   14  C   UNL     1      -8.253   6.775  68.708  1.00  0.00    -0.121 A  
HETATM   15  C   UNL     1      -9.288   7.619  68.345  1.00  0.00    -0.146 A  
HETATM   16  S   UNL     1      -9.570   7.575  66.664  1.00  0.00    -0.186 SA 
BRANCH  15  17
HETATM   17  S   UNL     1     -10.328   8.740  69.263  1.00  0.00    -0.213 S  
HETATM   18  O   UNL     1     -11.149   7.880  70.084  1.00  0.00    -0.255 OA 
HETATM   19  N   UNL     1      -9.314   9.591  70.297  1.00  0.00    -0.246 N  
HETATM   20  O   UNL     1     -10.867   9.668  68.300  1.00  0.00    -0.231 OA 
HETATM   21  H1  UNL     1      -9.908  10.232  70.823  1.00  0.00     0.000 HD 
HETATM   22  H2  UNL     1      -8.303   9.487  70.384  1.00  0.00     0.000 HD 
ENDBRANCH  15  17
ENDBRANCH   3   5
ENDBRANCH   2   3
TORSDOF 3
ENDMDL
MODEL      172
REMARK 921   NORMALIZED FREE ENERGY PREDICTED BY IDOCK:   -1.61 KCAL/MOL
REMARK 922        TOTAL FREE ENERGY PREDICTED BY IDOCK:   -2.25 KCAL/MOL
REMARK 923 INTER-LIGAND FREE ENERGY PREDICTED BY IDOCK:   -1.93 KCAL/MOL
REMARK 924 INTRA-LIGAND FREE ENERGY PREDICTED BY IDOCK:   -0.32 KCAL/MOL
REMARK 927      BINDING AFFINITY PREDICTED BY RF-SCORE:    0.00 PKD
ROOT
HETATM    1  C   UNL     1      -5.462   8.589  72.107  1.00  0.00    -0.045 C  
HETATM    2  C   UNL     1      -6.848   8.121  71.689  1.00  0.00    -0.063 C  
ENDROOT
BRANCH   2   3
HETATM    3  N   UNL     1      -6.968   8.118  70.224  1.00  0.00    -0.040 NA 
HETATM    4  H   UNL     1      -6.205   8.644  69.797  1.00  0.00     0.000 HD 
BRANCH   3   5
HETATM    5  C   UNL     1      -7.056   6.767  69.649  1.00  0.00    -0.068 C  
HETATM    6  C   UNL     1      -7.925   5.812  70.509  1.00  0.00    -0.105 C  
HETATM    7  C   UNL     1      -9.319   5.274  70.129  1.00  0.00    -0.153 C  
HETATM    8  S   UNL     1     -10.014   5.697  68.545  1.00  0.00    -0.170 S  
HETATM    9  C   UNL     1      -9.356   3.757  70.351  1.00  0.00    -0.235 C  
HETATM   10  C   UNL     1      -8.699   6.512  67.728  1.00  0.00    -0.115 A  
HETATM   11  O   UNL     1     -11.035   6.706  68.728  1.00  0.00    -0.263 OA 
HETATM   12  O   UNL     1     -10.238   4.496  67.769  1.00  0.00    -0.051 OA 
HETATM   13  C   UNL     1      -7.475   6.917  68.209  1.00  0.00    -0.099 A  
HETATM   14  C   UNL     1      -6.680   7.460  67.139  1.00  0.00    -0.069 A  
HETATM   15  C   UNL     1      -7.343   7.461  65.924  1.00  0.00    -0.075 A  
HETATM   16  S   UNL     1      -8.922   6.837  66.074  1.00  0.00    -0.057 SA 
BRANCH  15  17
HETATM   17  S   UNL     1      -6.866   7.939  64.273  1.00  0.00    -0.062 S  
HETATM   18  O   UNL     1      -8.068   8.496  63.697  1.00  0.00    -0.156 OA 
HETATM   19  N   UNL     1      -5.767   9.199  64.442  1.00  0.00    -0.067 N  
HETATM   20  O   UNL     1      -6.168   6.808  63.714  1.00  0.00    -0.037 OA 
HETATM   21  H1  UNL     1      -5.494   9.473  63.499  1.00  0.00     0.000 HD 
HETATM   22  H2  UNL     1      -5.438   9.610  65.316  1.00  0.00     0.000 HD 
ENDBRANCH  15  17
ENDBRANCH   3   5
ENDBRANCH   2   3
TORSDOF 3
ENDMDL
MODEL      173
REMARK 921   NORMALIZED FREE ENERGY PREDICTED BY IDOCK:   -1.20 KCAL/MOL
REMARK 922        TOTAL FREE ENERGY PREDICTED BY IDOCK:   -1.76 KCAL/MOL
REMARK 923 INTER-LIGAND FREE ENERGY PREDICTED BY IDOCK:   -1.46 KCAL/MOL
REMARK 924 INTRA-LIGAND FREE ENERGY PREDICTED BY IDOCK:   -0.30 KCAL/MOL
REMARK 927      BINDING AFFINITY PREDICTED BY RF-SCORE:    0.00 PKD
ROOT
HETATM    1  C   UNL     1      -8.752  12.845  67.914  1.00  0.00    -0.186 C  
HETATM    2  C   UNL     1      -8.561  11.855  69.054  1.00  0.00     0.291 C  
ENDROOT
BRANCH   2   3
HETATM    3  N   UNL     1      -8.720  10.476  68.568  1.00  0.00    -0.133 NA 
HETATM    4  H   UNL     1      -8.792  10.457  67.551  1.00  0.00     0.000 HD 
BRANCH   3   5
HETATM    5  C   UNL     1      -7.661   9.568  69.034  1.00  0.00    -0.076 C  
HETATM    6  C   UNL     1      -7.748   9.289  70.557  1.00  0.00    -0.160 C  
HETATM    7  C   UNL     1      -8.168   7.955  71.207  1.00  0.00    -0.101 C  
HETATM    8  S   UNL     1      -8.532   6.556  70.166  1.00  0.00    -0.136 S  
HETATM    9  C   UNL     1      -7.153   7.575  72.291  1.00  0.00    -0.068 C  
HETATM   10  C   UNL     1      -8.067   7.103  68.571  1.00  0.00    -0.125 A  
HETATM   11  O   UNL     1      -9.966   6.370  70.104  1.00  0.00    -0.168 OA 
HETATM   12  O   UNL     1      -7.620   5.472  70.461  1.00  0.00    -0.080 OA 
HETATM   13  C   UNL     1      -7.685   8.354  68.142  1.00  0.00    -0.103 A  
HETATM   14  C   UNL     1      -7.299   8.302  66.756  1.00  0.00    -0.083 A  
HETATM   15  C   UNL     1      -7.429   7.038  66.208  1.00  0.00    -0.080 A  
HETATM   16  S   UNL     1      -8.038   5.924  67.346  1.00  0.00    -0.102 SA 
BRANCH  15  17
HETATM   17  S   UNL     1      -7.058   6.360  64.601  1.00  0.00    -0.060 S  
HETATM   18  O   UNL     1      -8.318   6.397  63.894  1.00  0.00    -0.017 OA 
HETATM   19  N   UNL     1      -6.034   7.458  63.847  1.00  0.00    -0.044 N  
HETATM   20  O   UNL     1      -6.317   5.146  64.839  1.00  0.00    -0.032 OA 
HETATM   21  H1  UNL     1      -5.821   7.070  62.927  1.00  0.00     0.000 HD 
HETATM   22  H2  UNL     1      -5.692   8.338  64.231  1.00  0.00     0.000 HD 
ENDBRANCH  15  17
ENDBRANCH   3   5
ENDBRANCH   2   3
TORSDOF 3
ENDMDL
MODEL      174
REMARK 921   NORMALIZED FREE ENERGY PREDICTED BY IDOCK:   -1.12 KCAL/MOL
REMARK 922        TOTAL FREE ENERGY PREDICTED BY IDOCK:   -1.67 KCAL/MOL
REMARK 923 INTER-LIGAND FREE ENERGY PREDICTED BY IDOCK:   -1.41 KCAL/MOL
REMARK 924 INTRA-LIGAND FREE ENERGY PREDICTED BY IDOCK:   -0.26 KCAL/MOL
REMARK 927      BINDING AFFINITY PREDICTED BY RF-SCORE:    0.00 PKD
ROOT
HETATM    1  C   UNL     1     -12.190  13.748  67.650  1.00  0.00    -0.229 C  
HETATM    2  C   UNL     1     -12.334  12.233  67.627  1.00  0.00     0.680 C  
ENDROOT
BRANCH   2   3
HETATM    3  N   UNL     1     -11.405  11.615  68.586  1.00  0.00    -0.240 NA 
HETATM    4  H   UNL     1     -11.911  11.045  69.263  1.00  0.00     0.000 HD 
BRANCH   3   5
HETATM    5  C   UNL     1     -10.336  10.837  67.942  1.00  0.00    -0.185 C  
HETATM    6  C   UNL     1      -9.235  11.740  67.325  1.00  0.00    -0.173 C  
HETATM    7  C   UNL     1      -7.798  11.901  67.858  1.00  0.00    -0.138 C  
HETATM    8  S   UNL     1      -7.278  10.939  69.265  1.00  0.00    -0.124 S  
HETATM    9  C   UNL     1      -6.805  11.749  66.700  1.00  0.00     0.020 C  
HETATM   10  C   UNL     1      -8.616   9.843  69.526  1.00  0.00    -0.185 A  
HETATM   11  O   UNL     1      -7.244  11.789  70.435  1.00  0.00     0.715 OA 
HETATM   12  O   UNL     1      -6.171  10.083  68.893  1.00  0.00    -0.044 OA 
HETATM   13  C   UNL     1      -9.861   9.813  68.941  1.00  0.00    -0.177 A  
HETATM   14  C   UNL     1     -10.595   8.665  69.404  1.00  0.00    -0.207 A  
HETATM   15  C   UNL     1      -9.887   7.908  70.322  1.00  0.00    -0.184 A  
HETATM   16  S   UNL     1      -8.358   8.590  70.645  1.00  0.00    -0.147 SA 
BRANCH  15  17
HETATM   17  S   UNL     1     -10.238   6.383  71.176  1.00  0.00    -0.193 S  
HETATM   18  O   UNL     1      -8.956   5.727  71.285  1.00  0.00    -0.138 OA 
HETATM   19  N   UNL     1     -10.711   6.808  72.732  1.00  0.00    -0.232 N  
HETATM   20  O   UNL     1     -11.374   5.800  70.507  1.00  0.00    -0.228 OA 
HETATM   21  H1  UNL     1     -10.912   5.937  73.221  1.00  0.00     0.000 HD 
HETATM   22  H2  UNL     1     -10.782   7.752  73.113  1.00  0.00     0.000 HD 
ENDBRANCH  15  17
ENDBRANCH   3   5
ENDBRANCH   2   3
TORSDOF 3
ENDMDL
MODEL      175
REMARK 921   NORMALIZED FREE ENERGY PREDICTED BY IDOCK:    1.01 KCAL/MOL
REMARK 922        TOTAL FREE ENERGY PREDICTED BY IDOCK:    0.83 KCAL/MOL
REMARK 923 INTER-LIGAND FREE ENERGY PREDICTED BY IDOCK:   -3.75 KCAL/MOL
REMARK 924 INTRA-LIGAND FREE ENERGY PREDICTED BY IDOCK:    4.58 KCAL/MOL
REMARK 927      BINDING AFFINITY PREDICTED BY RF-SCORE:    0.00 PKD
ROOT
HETATM    1  C   UNL     1     -11.390  13.635  67.531  1.00  0.00    -0.335 C  
HETATM    2  C   UNL     1     -12.145  12.733  66.565  1.00  0.00    -0.268 C  
ENDROOT
BRANCH   2   3
HETATM    3  N   UNL     1     -11.756  13.029  65.178  1.00  0.00    -0.327 NA 
HETATM    4  H   UNL     1     -12.364  13.742  64.776  1.00  0.00     0.000 HD 
BRANCH   3   5
HETATM    5  C   UNL     1     -10.342  13.408  65.038  1.00  0.00    -0.347 C  
HETATM    6  C   UNL     1     -10.038  14.799  65.652  1.00  0.00    -0.393 C  
HETATM    7  C   UNL     1      -9.225  15.060  66.935  1.00  0.00    -0.246 C  
HETATM    8  S   UNL     1      -8.488  13.684  67.794  1.00  0.00    -0.199 S  
HETATM    9  C   UNL     1      -8.183  16.152  66.664  1.00  0.00    -0.321 C  
HETATM   10  C   UNL     1      -8.762  12.336  66.714  1.00  0.00    -0.175 A  
HETATM   11  O   UNL     1      -9.267  13.391  68.978  1.00  0.00     0.162 OA 
HETATM   12  O   UNL     1      -7.049  13.839  67.828  1.00  0.00    -0.134 OA 
HETATM   13  C   UNL     1      -9.515  12.263  65.564  1.00  0.00    -0.029 A  
HETATM   14  C   UNL     1      -9.362  10.967  64.956  1.00  0.00    -0.250 A  
HETATM   15  C   UNL     1      -8.531  10.129  65.680  1.00  0.00    -0.153 A  
HETATM   16  S   UNL     1      -7.960  10.887  67.096  1.00  0.00    -0.132 SA 
BRANCH  15  17
HETATM   17  S   UNL     1      -7.930   8.472  65.406  1.00  0.00    -0.120 S  
HETATM   18  O   UNL     1      -7.211   8.144  66.615  1.00  0.00    -0.078 OA 
HETATM   19  N   UNL     1      -9.284   7.479  65.350  1.00  0.00    -0.303 N  
HETATM   20  O   UNL     1      -7.323   8.477  64.098  1.00  0.00    -0.095 OA 
HETATM   21  H1  UNL     1      -8.941   6.531  65.193  1.00  0.00     0.000 HD 
HETATM   22  H2  UNL     1     -10.258   7.766  65.453  1.00  0.00     0.000 HD 
ENDBRANCH  15  17
ENDBRANCH   3   5
ENDBRANCH   2   3
TORSDOF 3
ENDMDL
MODEL      176
REMARK 921   NORMALIZED FREE ENERGY PREDICTED BY IDOCK:    1.47 KCAL/MOL
REMARK 922        TOTAL FREE ENERGY PREDICTED BY IDOCK:    1.37 KCAL/MOL
REMARK 923 INTER-LIGAND FREE ENERGY PREDICTED BY IDOCK:   -0.03 KCAL/MOL
REMARK 924 INTRA-LIGAND FREE ENERGY PREDICTED BY IDOCK:    1.40 KCAL/MOL
REMARK 927      BINDING AFFINITY PREDICTED BY RF-SCORE:    0.00 PKD
ROOT
HETATM    1  C   UNL     1     -11.914  10.469  66.850  1.00  0.00     2.136 C  
HETATM    2  C   UNL     1     -11.029   9.307  67.276  1.00  0.00     0.081 C  
ENDROOT
BRANCH   2   3
HETATM    3  N   UNL     1      -9.711   9.797  67.706  1.00  0.00    -0.139 NA 
HETATM    4  H   UNL     1      -9.148   9.036  68.085  1.00  0.00     0.000 HD 
BRANCH   3   5
HETATM    5  C   UNL     1      -8.980  10.509  66.646  1.00  0.00    -0.141 C  
HETATM    6  C   UNL     1      -9.785  10.587  65.321  1.00  0.00    -0.328 C  
HETATM    7  C   UNL     1     -10.423  11.859  64.728  1.00  0.00    -0.289 C  
HETATM    8  S   UNL     1     -10.191  13.418  65.557  1.00  0.00    -0.271 S  
HETATM    9  C   UNL     1     -10.048  11.971  63.245  1.00  0.00    -0.379 C  
HETATM   10  C   UNL     1      -9.030  13.044  66.811  1.00  0.00    -0.175 A  
HETATM   11  O   UNL     1     -11.409  13.770  66.255  1.00  0.00    -0.310 OA 
HETATM   12  O   UNL     1      -9.501  14.342  64.683  1.00  0.00     0.443 OA 
HETATM   13  C   UNL     1      -8.529  11.828  67.218  1.00  0.00    -0.160 A  
HETATM   14  C   UNL     1      -7.519  12.024  68.224  1.00  0.00    -0.106 A  
HETATM   15  C   UNL     1      -7.326  13.358  68.540  1.00  0.00    -0.111 A  
HETATM   16  S   UNL     1      -8.373  14.367  67.652  1.00  0.00    -0.193 SA 
BRANCH  15  17
HETATM   17  S   UNL     1      -6.201  14.202  69.637  1.00  0.00    -0.134 S  
HETATM   18  O   UNL     1      -7.036  14.672  70.718  1.00  0.00     0.223 OA 
HETATM   19  N   UNL     1      -5.184  13.025  70.272  1.00  0.00    -0.097 N  
HETATM   20  O   UNL     1      -5.411  15.076  68.806  1.00  0.00    -0.084 OA 
HETATM   21  H1  UNL     1      -4.540  13.507  70.900  1.00  0.00     0.000 HD 
HETATM   22  H2  UNL     1      -5.205  12.025  70.072  1.00  0.00     0.000 HD 
ENDBRANCH  15  17
ENDBRANCH   3   5
ENDBRANCH   2   3
TORSDOF 3
ENDMDL
MODEL      177
REMARK 921   NORMALIZED FREE ENERGY PREDICTED BY IDOCK:    5.84 KCAL/MOL
REMARK 922        TOTAL FREE ENERGY PREDICTED BY IDOCK:    6.51 KCAL/MOL
REMARK 923 INTER-LIGAND FREE ENERGY PREDICTED BY IDOCK:    6.61 KCAL/MOL
REMARK 924 INTRA-LIGAND FREE ENERGY PREDICTED BY IDOCK:   -0.10 KCAL/MOL
REMARK 927      BINDING AFFINITY PREDICTED BY RF-SCORE:    0.00 PKD
ROOT
HETATM    1  C   UNL     1      -9.881  15.492  65.413  1.00  0.00    -0.291 C  
HETATM    2  C   UNL     1      -8.964  14.301  65.174  1.00  0.00     2.041 C  
ENDROOT
BRANCH   2   3
HETATM    3  N   UNL     1      -8.540  13.716  66.455  1.00  0.00    -0.367 NA 
HETATM    4  H   UNL     1      -8.696  12.708  66.461  1.00  0.00     0.000 HD 
BRANCH   3   5
HETATM    5  C   UNL     1      -7.147  14.031  66.806  1.00  0.00     1.337 C  
HETATM    6  C   UNL     1      -6.790  15.517  66.539  1.00  0.00     1.241 C  
HETATM    7  C   UNL     1      -6.537  16.591  67.616  1.00  0.00    -0.148 C  
HETATM    8  S   UNL     1      -6.579  16.126  69.335  1.00  0.00    -0.201 S  
HETATM    9  C   UNL     1      -5.243  17.345  67.288  1.00  0.00    -0.149 C  
HETATM   10  C   UNL     1      -6.707  14.383  69.283  1.00  0.00    -0.126 A  
HETATM   11  O   UNL     1      -7.820  16.585  69.921  1.00  0.00     0.426 OA 
HETATM   12  O   UNL     1      -5.290  16.380  69.944  1.00  0.00    -0.139 OA 
HETATM   13  C   UNL     1      -6.916  13.543  68.213  1.00  0.00    -0.108 A  
HETATM   14  C   UNL     1      -6.850  12.171  68.643  1.00  0.00    -0.089 A  
HETATM   15  C   UNL     1      -6.622  12.044  70.003  1.00  0.00     0.137 A  
HETATM   16  S   UNL     1      -6.515  13.567  70.762  1.00  0.00     0.758 SA 
BRANCH  15  17
HETATM   17  S   UNL     1      -6.388  10.639  71.075  1.00  0.00     0.537 S  
HETATM   18  O   UNL     1      -5.770  11.188  72.260  1.00  0.00     0.113 OA 
HETATM   19  N   UNL     1      -7.923  10.115  71.515  1.00  0.00     1.678 N  
HETATM   20  O   UNL     1      -5.779   9.613  70.265  1.00  0.00    -0.038 OA 
HETATM   21  H1  UNL     1      -7.789   9.311  72.128  1.00  0.00     0.000 HD 
HETATM   22  H2  UNL     1      -8.813  10.520  71.226  1.00  0.00     0.000 HD 
ENDBRANCH  15  17
ENDBRANCH   3   5
ENDBRANCH   2   3
TORSDOF 3
ENDMDL
MODEL      178
REMARK 921   NORMALIZED FREE ENERGY PREDICTED BY IDOCK:   46.72 KCAL/MOL
REMARK 922        TOTAL FREE ENERGY PREDICTED BY IDOCK:   54.56 KCAL/MOL
REMARK 923 INTER-LIGAND FREE ENERGY PREDICTED BY IDOCK:   52.64 KCAL/MOL
REMARK 924 INTRA-LIGAND FREE ENERGY PREDICTED BY IDOCK:    1.92 KCAL/MOL
REMARK 927      BINDING AFFINITY PREDICTED BY RF-SCORE:    0.00 PKD
ROOT
HETATM    1  C   UNL     1     -10.877  14.949  66.015  1.00  0.00    -0.328 C  
HETATM    2  C   UNL     1      -9.792  13.884  65.961  1.00  0.00    -0.289 C  
ENDROOT
BRANCH   2   3
HETATM    3  N   UNL     1      -9.427  13.454  67.319  1.00  0.00    -0.225 NA 
HETATM    4  H   UNL     1      -8.484  13.066  67.334  1.00  0.00     0.000 HD 
BRANCH   3   5
HETATM    5  C   UNL     1      -9.572  14.517  68.325  1.00  0.00    -0.212 C  
HETATM    6  C   UNL     1     -10.914  15.283  68.188  1.00  0.00    -0.292 C  
HETATM    7  C   UNL     1     -12.102  15.200  69.167  1.00  0.00    -0.224 C  
HETATM    8  S   UNL     1     -11.952  14.205  70.637  1.00  0.00    -0.290 S  
HETATM    9  C   UNL     1     -12.573  16.617  69.516  1.00  0.00     2.306 C  
HETATM   10  C   UNL     1     -10.269  13.731  70.638  1.00  0.00     3.008 A  
HETATM   11  O   UNL     1     -12.697  12.978  70.457  1.00  0.00    -0.170 OA 
HETATM   12  O   UNL     1     -12.098  15.038  71.812  1.00  0.00    -0.320 OA 
HETATM   13  C   UNL     1      -9.302  13.900  69.673  1.00  0.00     1.086 A  
HETATM   14  C   UNL     1      -8.031  13.432  70.162  1.00  0.00     2.473 A  
HETATM   15  C   UNL     1      -8.105  12.918  71.445  1.00  0.00    11.009 A  
HETATM   16  S   UNL     1      -9.699  12.973  72.049  1.00  0.00    17.190 SA 
BRANCH  15  17
HETATM   17  S   UNL     1      -6.885  12.264  72.570  1.00  0.00     8.590 S  
HETATM   18  O   UNL     1      -5.676  12.987  72.249  1.00  0.00    -0.261 OA 
HETATM   19  N   UNL     1      -7.355  12.743  74.111  1.00  0.00     6.127 N  
HETATM   20  O   UNL     1      -6.997  10.829  72.493  1.00  0.00     3.464 OA 
HETATM   21  H1  UNL     1      -6.657  12.369  74.754  1.00  0.00     0.000 HD 
HETATM   22  H2  UNL     1      -8.175  13.297  74.355  1.00  0.00     0.000 HD 
ENDBRANCH  15  17
ENDBRANCH   3   5
ENDBRANCH   2   3
TORSDOF 3
ENDMDL
