MODEL        1
REMARK 921   NORMALIZED FREE ENERGY PREDICTED BY IDOCK:   -6.59 KCAL/MOL
REMARK 922        TOTAL FREE ENERGY PREDICTED BY IDOCK:   -8.02 KCAL/MOL
REMARK 923 INTER-LIGAND FREE ENERGY PREDICTED BY IDOCK:   -7.75 KCAL/MOL
REMARK 924 INTRA-LIGAND FREE ENERGY PREDICTED BY IDOCK:   -0.27 KCAL/MOL
REMARK 927      BINDING AFFINITY PREDICTED BY RF-SCORE:    0.00 PKD
ROOT
HETATM    1  C   UNL     1     -13.652  13.609  72.230  1.00  0.00    -0.571 C  
HETATM    2  N   UNL     1     -13.667  15.031  71.888  1.00  0.00    -0.401 NA 
HETATM    3  C   UNL     1     -13.226  15.823  73.039  1.00  0.00    -0.573 C  
ENDROOT
BRANCH   2   4
HETATM    4  C   UNL     1     -12.857  15.282  70.676  1.00  0.00    -0.409 C  
BRANCH   4   5
HETATM    5  C   UNL     1     -11.854  14.149  70.387  1.00  0.00    -0.367 C  
BRANCH   5   6
HETATM    6  C   UNL     1     -11.661  13.810  68.923  1.00  0.00    -0.374 C  
HETATM    7  C   UNL     1     -11.541  12.558  68.413  1.00  0.00    -0.368 C  
HETATM    8  C   UNL     1     -11.506  11.421  69.359  1.00  0.00    -0.378 A  
HETATM    9  C   UNL     1     -12.653  11.028  70.065  1.00  0.00    -0.240 A  
HETATM   10  C   UNL     1     -12.585   9.997  71.000  1.00  0.00    -0.463 A  
HETATM   11  C   UNL     1     -11.379   9.335  71.217  1.00  0.00    -0.423 A  
HETATM   12  C   UNL     1     -10.236   9.704  70.505  1.00  0.00    -0.351 A  
HETATM   13  C   UNL     1     -10.289  10.755  69.576  1.00  0.00    -0.178 A  
HETATM   14  C   UNL     1      -9.071  11.162  68.797  1.00  0.00    -0.139 C  
HETATM   15  S   UNL     1      -9.138  10.555  67.088  1.00  0.00    -0.143 SA 
HETATM   16  C   UNL     1     -10.466  11.506  66.324  1.00  0.00    -0.251 A  
HETATM   17  C   UNL     1     -10.525  11.321  64.926  1.00  0.00    -0.375 A  
HETATM   18  C   UNL     1     -11.479  11.964  64.137  1.00  0.00    -0.449 A  
HETATM   19  C   UNL     1     -12.403  12.806  64.734  1.00  0.00    -0.540 A  
HETATM   20  C   UNL     1     -12.373  12.994  66.117  1.00  0.00    -0.335 A  
HETATM   21  C   UNL     1     -11.411  12.361  66.938  1.00  0.00    -0.423 A  
ENDBRANCH   5   6
ENDBRANCH   4   5
ENDBRANCH   2   4
TORSDOF 3
ENDMDL
MODEL        2
REMARK 921   NORMALIZED FREE ENERGY PREDICTED BY IDOCK:   -6.52 KCAL/MOL
REMARK 922        TOTAL FREE ENERGY PREDICTED BY IDOCK:   -7.93 KCAL/MOL
REMARK 923 INTER-LIGAND FREE ENERGY PREDICTED BY IDOCK:   -7.45 KCAL/MOL
REMARK 924 INTRA-LIGAND FREE ENERGY PREDICTED BY IDOCK:   -0.48 KCAL/MOL
REMARK 927      BINDING AFFINITY PREDICTED BY RF-SCORE:    0.00 PKD
ROOT
HETATM    1  C   UNL     1     -12.656  12.203  63.518  1.00  0.00    -0.506 C  
HETATM    2  N   UNL     1     -12.199  12.501  64.876  1.00  0.00    -0.465 NA 
HETATM    3  C   UNL     1     -10.797  12.106  65.025  1.00  0.00    -0.300 C  
ENDROOT
BRANCH   2   4
HETATM    4  C   UNL     1     -12.431  13.926  65.200  1.00  0.00    -0.453 C  
BRANCH   4   5
HETATM    5  C   UNL     1     -11.525  14.431  66.339  1.00  0.00    -0.365 C  
BRANCH   5   6
HETATM    6  C   UNL     1     -12.158  14.443  67.715  1.00  0.00    -0.304 C  
HETATM    7  C   UNL     1     -11.671  13.810  68.813  1.00  0.00    -0.391 C  
HETATM    8  C   UNL     1     -10.469  12.962  68.652  1.00  0.00    -0.231 A  
HETATM    9  C   UNL     1      -9.208  13.527  68.413  1.00  0.00    -0.159 A  
HETATM   10  C   UNL     1      -8.100  12.710  68.199  1.00  0.00    -0.164 A  
HETATM   11  C   UNL     1      -8.238  11.325  68.249  1.00  0.00    -0.143 A  
HETATM   12  C   UNL     1      -9.486  10.752  68.507  1.00  0.00    -0.181 A  
HETATM   13  C   UNL     1     -10.612  11.566  68.703  1.00  0.00    -0.236 A  
HETATM   14  C   UNL     1     -11.960  10.968  68.987  1.00  0.00    -0.293 C  
HETATM   15  S   UNL     1     -12.397  11.110  70.742  1.00  0.00    -0.399 SA 
HETATM   16  C   UNL     1     -12.656  12.875  71.000  1.00  0.00    -0.287 A  
HETATM   17  C   UNL     1     -13.214  13.159  72.266  1.00  0.00    -0.555 A  
HETATM   18  C   UNL     1     -13.496  14.463  72.671  1.00  0.00    -0.605 A  
HETATM   19  C   UNL     1     -13.219  15.519  71.817  1.00  0.00    -0.567 A  
HETATM   20  C   UNL     1     -12.655  15.265  70.566  1.00  0.00    -0.450 A  
HETATM   21  C   UNL     1     -12.367  13.951  70.127  1.00  0.00    -0.400 A  
ENDBRANCH   5   6
ENDBRANCH   4   5
ENDBRANCH   2   4
TORSDOF 3
ENDMDL
MODEL        3
REMARK 921   NORMALIZED FREE ENERGY PREDICTED BY IDOCK:   -6.43 KCAL/MOL
REMARK 922        TOTAL FREE ENERGY PREDICTED BY IDOCK:   -7.82 KCAL/MOL
REMARK 923 INTER-LIGAND FREE ENERGY PREDICTED BY IDOCK:   -7.61 KCAL/MOL
REMARK 924 INTRA-LIGAND FREE ENERGY PREDICTED BY IDOCK:   -0.22 KCAL/MOL
REMARK 927      BINDING AFFINITY PREDICTED BY RF-SCORE:    0.00 PKD
ROOT
HETATM    1  C   UNL     1     -13.016  15.375  73.562  1.00  0.00    -0.528 C  
HETATM    2  N   UNL     1     -12.898  14.569  72.347  1.00  0.00    -0.347 NA 
HETATM    3  C   UNL     1     -13.779  13.403  72.437  1.00  0.00    -0.597 C  
ENDROOT
BRANCH   2   4
HETATM    4  C   UNL     1     -13.162  15.396  71.148  1.00  0.00    -0.513 C  
BRANCH   4   5
HETATM    5  C   UNL     1     -12.257  15.022  69.958  1.00  0.00    -0.373 C  
BRANCH   5   6
HETATM    6  C   UNL     1     -11.462  16.166  69.364  1.00  0.00    -0.296 C  
HETATM    7  C   UNL     1     -10.858  16.159  68.149  1.00  0.00    -0.329 C  
HETATM    8  C   UNL     1     -10.895  14.907  67.360  1.00  0.00    -0.304 A  
HETATM    9  C   UNL     1     -12.086  14.452  66.776  1.00  0.00    -0.393 A  
HETATM   10  C   UNL     1     -12.116  13.238  66.092  1.00  0.00    -0.477 A  
HETATM   11  C   UNL     1     -10.951  12.484  65.965  1.00  0.00    -0.318 A  
HETATM   12  C   UNL     1      -9.755  12.938  66.526  1.00  0.00    -0.257 A  
HETATM   13  C   UNL     1      -9.719  14.149  67.234  1.00  0.00    -0.236 A  
HETATM   14  C   UNL     1      -8.441  14.656  67.838  1.00  0.00    -0.158 C  
HETATM   15  S   UNL     1      -7.722  15.998  66.850  1.00  0.00    -0.235 SA 
HETATM   16  C   UNL     1      -8.865  17.376  67.064  1.00  0.00    -0.234 A  
HETATM   17  C   UNL     1      -8.358  18.583  66.537  1.00  0.00    -0.297 A  
HETATM   18  C   UNL     1      -9.081  19.774  66.596  1.00  0.00    -0.452 A  
HETATM   19  C   UNL     1     -10.337  19.783  67.181  1.00  0.00    -0.589 A  
HETATM   20  C   UNL     1     -10.866  18.598  67.697  1.00  0.00    -0.347 A  
HETATM   21  C   UNL     1     -10.150  17.379  67.658  1.00  0.00    -0.327 A  
ENDBRANCH   5   6
ENDBRANCH   4   5
ENDBRANCH   2   4
TORSDOF 3
ENDMDL
MODEL        4
REMARK 921   NORMALIZED FREE ENERGY PREDICTED BY IDOCK:   -6.18 KCAL/MOL
REMARK 922        TOTAL FREE ENERGY PREDICTED BY IDOCK:   -7.53 KCAL/MOL
REMARK 923 INTER-LIGAND FREE ENERGY PREDICTED BY IDOCK:   -6.97 KCAL/MOL
REMARK 924 INTRA-LIGAND FREE ENERGY PREDICTED BY IDOCK:   -0.56 KCAL/MOL
REMARK 927      BINDING AFFINITY PREDICTED BY RF-SCORE:    0.00 PKD
ROOT
HETATM    1  C   UNL     1      -8.190  10.336  65.772  1.00  0.00    -0.147 C  
HETATM    2  N   UNL     1      -9.462  10.962  66.136  1.00  0.00    -0.193 NA 
HETATM    3  C   UNL     1     -10.444  10.744  65.072  1.00  0.00    -0.237 C  
ENDROOT
BRANCH   2   4
HETATM    4  C   UNL     1      -9.924  10.469  67.452  1.00  0.00    -0.179 C  
BRANCH   4   5
HETATM    5  C   UNL     1     -11.388  10.846  67.747  1.00  0.00    -0.366 C  
BRANCH   5   6
HETATM    6  C   UNL     1     -11.590  11.839  68.873  1.00  0.00    -0.370 C  
HETATM    7  C   UNL     1     -11.650  13.187  68.734  1.00  0.00    -0.348 C  
HETATM    8  C   UNL     1     -11.415  13.760  67.389  1.00  0.00    -0.372 A  
HETATM    9  C   UNL     1     -12.357  13.607  66.361  1.00  0.00    -0.441 A  
HETATM   10  C   UNL     1     -12.090  14.096  65.084  1.00  0.00    -0.416 A  
HETATM   11  C   UNL     1     -10.893  14.764  64.832  1.00  0.00    -0.433 A  
HETATM   12  C   UNL     1      -9.958  14.939  65.855  1.00  0.00    -0.357 A  
HETATM   13  C   UNL     1     -10.208  14.432  67.139  1.00  0.00    -0.257 A  
HETATM   14  C   UNL     1      -9.217  14.617  68.252  1.00  0.00    -0.198 C  
HETATM   15  S   UNL     1      -9.741  15.917  69.404  1.00  0.00    -0.252 SA 
HETATM   16  C   UNL     1     -11.185  15.226  70.235  1.00  0.00    -0.297 A  
HETATM   17  C   UNL     1     -11.607  16.016  71.327  1.00  0.00    -0.506 A  
HETATM   18  C   UNL     1     -12.707  15.664  72.108  1.00  0.00    -0.513 A  
HETATM   19  C   UNL     1     -13.416  14.511  71.811  1.00  0.00    -0.458 A  
HETATM   20  C   UNL     1     -13.026  13.721  70.728  1.00  0.00    -0.238 A  
HETATM   21  C   UNL     1     -11.910  14.051  69.924  1.00  0.00    -0.393 A  
ENDBRANCH   5   6
ENDBRANCH   4   5
ENDBRANCH   2   4
TORSDOF 3
ENDMDL
MODEL        5
REMARK 921   NORMALIZED FREE ENERGY PREDICTED BY IDOCK:   -6.12 KCAL/MOL
REMARK 922        TOTAL FREE ENERGY PREDICTED BY IDOCK:   -7.46 KCAL/MOL
REMARK 923 INTER-LIGAND FREE ENERGY PREDICTED BY IDOCK:   -7.23 KCAL/MOL
REMARK 924 INTRA-LIGAND FREE ENERGY PREDICTED BY IDOCK:   -0.23 KCAL/MOL
REMARK 927      BINDING AFFINITY PREDICTED BY RF-SCORE:    0.00 PKD
ROOT
HETATM    1  C   UNL     1     -10.557   7.519  66.868  1.00  0.00    -0.297 C  
HETATM    2  N   UNL     1     -10.039   8.862  67.132  1.00  0.00    -0.226 NA 
HETATM    3  C   UNL     1     -10.000   9.631  65.887  1.00  0.00    -0.281 C  
ENDROOT
BRANCH   2   4
HETATM    4  C   UNL     1     -10.830   9.525  68.191  1.00  0.00    -0.156 C  
BRANCH   4   5
HETATM    5  C   UNL     1     -11.321  10.925  67.778  1.00  0.00    -0.366 C  
BRANCH   5   6
HETATM    6  C   UNL     1     -11.501  11.912  68.913  1.00  0.00    -0.358 C  
HETATM    7  C   UNL     1     -11.634  13.255  68.777  1.00  0.00    -0.350 C  
HETATM    8  C   UNL     1     -11.508  13.834  67.421  1.00  0.00    -0.372 A  
HETATM    9  C   UNL     1     -12.502  13.632  66.451  1.00  0.00    -0.377 A  
HETATM   10  C   UNL     1     -12.336  14.130  65.160  1.00  0.00    -0.460 A  
HETATM   11  C   UNL     1     -11.189  14.852  64.836  1.00  0.00    -0.415 A  
HETATM   12  C   UNL     1     -10.204  15.076  65.800  1.00  0.00    -0.361 A  
HETATM   13  C   UNL     1     -10.352  14.562  67.097  1.00  0.00    -0.265 A  
HETATM   14  C   UNL     1      -9.305  14.797  68.148  1.00  0.00    -0.197 C  
HETATM   15  S   UNL     1      -9.820  16.075  69.329  1.00  0.00    -0.254 SA 
HETATM   16  C   UNL     1     -11.176  15.319  70.246  1.00  0.00    -0.297 A  
HETATM   17  C   UNL     1     -11.569  16.092  71.361  1.00  0.00    -0.520 A  
HETATM   18  C   UNL     1     -12.602  15.690  72.208  1.00  0.00    -0.506 A  
HETATM   19  C   UNL     1     -13.272  14.505  71.955  1.00  0.00    -0.440 A  
HETATM   20  C   UNL     1     -12.911  13.730  70.850  1.00  0.00    -0.341 A  
HETATM   21  C   UNL     1     -11.862  14.110  69.980  1.00  0.00    -0.388 A  
ENDBRANCH   5   6
ENDBRANCH   4   5
ENDBRANCH   2   4
TORSDOF 3
ENDMDL
MODEL        6
REMARK 921   NORMALIZED FREE ENERGY PREDICTED BY IDOCK:   -6.12 KCAL/MOL
REMARK 922        TOTAL FREE ENERGY PREDICTED BY IDOCK:   -7.46 KCAL/MOL
REMARK 923 INTER-LIGAND FREE ENERGY PREDICTED BY IDOCK:   -6.86 KCAL/MOL
REMARK 924 INTRA-LIGAND FREE ENERGY PREDICTED BY IDOCK:   -0.59 KCAL/MOL
REMARK 927      BINDING AFFINITY PREDICTED BY RF-SCORE:    0.00 PKD
ROOT
HETATM    1  C   UNL     1      -5.688  17.675  69.908  1.00  0.00    -0.247 C  
HETATM    2  N   UNL     1      -6.389  18.001  68.666  1.00  0.00    -0.203 NA 
HETATM    3  C   UNL     1      -6.249  19.430  68.378  1.00  0.00    -0.234 C  
ENDROOT
BRANCH   2   4
HETATM    4  C   UNL     1      -5.909  17.144  67.560  1.00  0.00    -0.134 C  
BRANCH   4   5
HETATM    5  C   UNL     1      -6.790  17.251  66.300  1.00  0.00    -0.283 C  
BRANCH   5   6
HETATM    6  C   UNL     1      -7.922  16.248  66.212  1.00  0.00    -0.208 C  
HETATM    7  C   UNL     1      -9.215  16.487  66.548  1.00  0.00    -0.300 C  
HETATM    8  C   UNL     1      -9.551  17.805  67.133  1.00  0.00    -0.276 A  
HETATM    9  C   UNL     1      -9.533  18.970  66.353  1.00  0.00    -0.375 A  
HETATM   10  C   UNL     1      -9.789  20.211  66.935  1.00  0.00    -0.593 A  
HETATM   11  C   UNL     1     -10.088  20.291  68.294  1.00  0.00    -0.386 A  
HETATM   12  C   UNL     1     -10.129  19.134  69.075  1.00  0.00    -0.365 A  
HETATM   13  C   UNL     1      -9.853  17.883  68.502  1.00  0.00    -0.367 A  
HETATM   14  C   UNL     1      -9.898  16.627  69.325  1.00  0.00    -0.194 C  
HETATM   15  S   UNL     1     -11.411  15.677  69.011  1.00  0.00    -0.383 SA 
HETATM   16  C   UNL     1     -11.219  15.069  67.324  1.00  0.00    -0.338 A  
HETATM   17  C   UNL     1     -12.209  14.125  66.976  1.00  0.00    -0.374 A  
HETATM   18  C   UNL     1     -12.247  13.528  65.716  1.00  0.00    -0.505 A  
HETATM   19  C   UNL     1     -11.293  13.867  64.770  1.00  0.00    -0.365 A  
HETATM   20  C   UNL     1     -10.311  14.809  65.087  1.00  0.00    -0.439 A  
HETATM   21  C   UNL     1     -10.246  15.423  66.359  1.00  0.00    -0.296 A  
ENDBRANCH   5   6
ENDBRANCH   4   5
ENDBRANCH   2   4
TORSDOF 3
ENDMDL
MODEL        7
REMARK 921   NORMALIZED FREE ENERGY PREDICTED BY IDOCK:   -6.10 KCAL/MOL
REMARK 922        TOTAL FREE ENERGY PREDICTED BY IDOCK:   -7.44 KCAL/MOL
REMARK 923 INTER-LIGAND FREE ENERGY PREDICTED BY IDOCK:   -7.27 KCAL/MOL
REMARK 924 INTRA-LIGAND FREE ENERGY PREDICTED BY IDOCK:   -0.17 KCAL/MOL
REMARK 927      BINDING AFFINITY PREDICTED BY RF-SCORE:    0.00 PKD
ROOT
HETATM    1  C   UNL     1     -14.208  15.093  72.172  1.00  0.00    -0.559 C  
HETATM    2  N   UNL     1     -13.016  15.868  72.516  1.00  0.00    -0.458 NA 
HETATM    3  C   UNL     1     -12.577  15.527  73.871  1.00  0.00    -0.629 C  
ENDROOT
BRANCH   2   4
HETATM    4  C   UNL     1     -11.956  15.666  71.503  1.00  0.00    -0.417 C  
BRANCH   4   5
HETATM    5  C   UNL     1     -12.523  15.335  70.109  1.00  0.00    -0.374 C  
BRANCH   5   6
HETATM    6  C   UNL     1     -12.259  13.926  69.620  1.00  0.00    -0.374 C  
HETATM    7  C   UNL     1     -11.423  13.586  68.607  1.00  0.00    -0.343 C  
HETATM    8  C   UNL     1     -10.770  14.676  67.847  1.00  0.00    -0.250 A  
HETATM    9  C   UNL     1      -9.760  15.459  68.425  1.00  0.00    -0.211 A  
HETATM   10  C   UNL     1      -9.203  16.523  67.717  1.00  0.00    -0.202 A  
HETATM   11  C   UNL     1      -9.633  16.795  66.420  1.00  0.00    -0.303 A  
HETATM   12  C   UNL     1     -10.623  16.007  65.828  1.00  0.00    -0.366 A  
HETATM   13  C   UNL     1     -11.205  14.947  66.540  1.00  0.00    -0.335 A  
HETATM   14  C   UNL     1     -12.267  14.087  65.918  1.00  0.00    -0.456 C  
HETATM   15  S   UNL     1     -11.605  12.478  65.400  1.00  0.00    -0.392 SA 
HETATM   16  C   UNL     1     -11.226  11.630  66.945  1.00  0.00    -0.313 A  
HETATM   17  C   UNL     1     -10.897  10.271  66.746  1.00  0.00    -0.157 A  
HETATM   18  C   UNL     1     -10.570   9.430  67.809  1.00  0.00    -0.317 A  
HETATM   19  C   UNL     1     -10.559   9.932  69.100  1.00  0.00    -0.240 A  
HETATM   20  C   UNL     1     -10.868  11.276  69.321  1.00  0.00    -0.259 A  
HETATM   21  C   UNL     1     -11.212  12.148  68.261  1.00  0.00    -0.319 A  
ENDBRANCH   5   6
ENDBRANCH   4   5
ENDBRANCH   2   4
TORSDOF 3
ENDMDL
MODEL        8
REMARK 921   NORMALIZED FREE ENERGY PREDICTED BY IDOCK:   -6.08 KCAL/MOL
REMARK 922        TOTAL FREE ENERGY PREDICTED BY IDOCK:   -7.41 KCAL/MOL
REMARK 923 INTER-LIGAND FREE ENERGY PREDICTED BY IDOCK:   -7.07 KCAL/MOL
REMARK 924 INTRA-LIGAND FREE ENERGY PREDICTED BY IDOCK:   -0.34 KCAL/MOL
REMARK 927      BINDING AFFINITY PREDICTED BY RF-SCORE:    0.00 PKD
ROOT
HETATM    1  C   UNL     1     -10.434  17.491  68.385  1.00  0.00    -0.372 C  
HETATM    2  N   UNL     1      -9.964  16.154  68.750  1.00  0.00    -0.221 NA 
HETATM    3  C   UNL     1      -8.521  16.186  68.999  1.00  0.00    -0.251 C  
ENDROOT
BRANCH   2   4
HETATM    4  C   UNL     1     -10.733  15.630  69.900  1.00  0.00    -0.322 C  
BRANCH   4   5
HETATM    5  C   UNL     1     -11.573  14.390  69.538  1.00  0.00    -0.352 C  
BRANCH   5   6
HETATM    6  C   UNL     1     -11.487  13.947  68.092  1.00  0.00    -0.346 C  
HETATM    7  C   UNL     1     -11.334  12.668  67.667  1.00  0.00    -0.362 C  
HETATM    8  C   UNL     1     -11.148  11.612  68.687  1.00  0.00    -0.287 A  
HETATM    9  C   UNL     1     -12.204  11.214  69.521  1.00  0.00    -0.347 A  
HETATM   10  C   UNL     1     -11.992  10.265  70.519  1.00  0.00    -0.415 A  
HETATM   11  C   UNL     1     -10.733   9.689  70.675  1.00  0.00    -0.388 A  
HETATM   12  C   UNL     1      -9.681  10.063  69.836  1.00  0.00    -0.245 A  
HETATM   13  C   UNL     1      -9.878  11.033  68.841  1.00  0.00    -0.189 A  
HETATM   14  C   UNL     1      -8.760  11.443  67.926  1.00  0.00    -0.145 C  
HETATM   15  S   UNL     1      -8.936  10.700  66.280  1.00  0.00    -0.171 SA 
HETATM   16  C   UNL     1     -10.381  11.514  65.572  1.00  0.00    -0.273 A  
HETATM   17  C   UNL     1     -10.549  11.216  64.202  1.00  0.00    -0.436 A  
HETATM   18  C   UNL     1     -11.605  11.742  63.459  1.00  0.00    -0.487 A  
HETATM   19  C   UNL     1     -12.524  12.577  64.073  1.00  0.00    -0.527 A  
HETATM   20  C   UNL     1     -12.387  12.875  65.430  1.00  0.00    -0.538 A  
HETATM   21  C   UNL     1     -11.321  12.362  66.205  1.00  0.00    -0.398 A  
ENDBRANCH   5   6
ENDBRANCH   4   5
ENDBRANCH   2   4
TORSDOF 3
ENDMDL
MODEL        9
REMARK 921   NORMALIZED FREE ENERGY PREDICTED BY IDOCK:   -6.03 KCAL/MOL
REMARK 922        TOTAL FREE ENERGY PREDICTED BY IDOCK:   -7.36 KCAL/MOL
REMARK 923 INTER-LIGAND FREE ENERGY PREDICTED BY IDOCK:   -7.02 KCAL/MOL
REMARK 924 INTRA-LIGAND FREE ENERGY PREDICTED BY IDOCK:   -0.33 KCAL/MOL
REMARK 927      BINDING AFFINITY PREDICTED BY RF-SCORE:    0.00 PKD
ROOT
HETATM    1  C   UNL     1     -10.967   8.300  70.245  1.00  0.00    -0.232 C  
HETATM    2  N   UNL     1     -10.367   9.527  69.721  1.00  0.00    -0.214 NA 
HETATM    3  C   UNL     1      -8.950   9.581  70.087  1.00  0.00    -0.236 C  
ENDROOT
BRANCH   2   4
HETATM    4  C   UNL     1     -10.587   9.631  68.262  1.00  0.00    -0.225 C  
BRANCH   4   5
HETATM    5  C   UNL     1     -11.453  10.845  67.877  1.00  0.00    -0.344 C  
BRANCH   5   6
HETATM    6  C   UNL     1     -11.615  11.896  68.955  1.00  0.00    -0.376 C  
HETATM    7  C   UNL     1     -11.653  13.237  68.750  1.00  0.00    -0.350 C  
HETATM    8  C   UNL     1     -11.435  13.738  67.375  1.00  0.00    -0.372 A  
HETATM    9  C   UNL     1     -12.399  13.552  66.373  1.00  0.00    -0.413 A  
HETATM   10  C   UNL     1     -12.147  13.973  65.068  1.00  0.00    -0.427 A  
HETATM   11  C   UNL     1     -10.944  14.604  64.762  1.00  0.00    -0.399 A  
HETATM   12  C   UNL     1      -9.986  14.813  65.757  1.00  0.00    -0.375 A  
HETATM   13  C   UNL     1     -10.221  14.374  67.069  1.00  0.00    -0.263 A  
HETATM   14  C   UNL     1      -9.205  14.595  68.153  1.00  0.00    -0.192 C  
HETATM   15  S   UNL     1      -9.684  15.960  69.249  1.00  0.00    -0.268 SA 
HETATM   16  C   UNL     1     -11.123  15.338  70.139  1.00  0.00    -0.293 A  
HETATM   17  C   UNL     1     -11.510  16.189  71.198  1.00  0.00    -0.433 A  
HETATM   18  C   UNL     1     -12.600  15.897  72.016  1.00  0.00    -0.517 A  
HETATM   19  C   UNL     1     -13.336  14.744  71.790  1.00  0.00    -0.444 A  
HETATM   20  C   UNL     1     -12.981  13.895  70.740  1.00  0.00    -0.265 A  
HETATM   21  C   UNL     1     -11.875  14.163  69.901  1.00  0.00    -0.387 A  
ENDBRANCH   5   6
ENDBRANCH   4   5
ENDBRANCH   2   4
TORSDOF 3
ENDMDL
MODEL       10
REMARK 921   NORMALIZED FREE ENERGY PREDICTED BY IDOCK:   -6.03 KCAL/MOL
REMARK 922        TOTAL FREE ENERGY PREDICTED BY IDOCK:   -7.36 KCAL/MOL
REMARK 923 INTER-LIGAND FREE ENERGY PREDICTED BY IDOCK:   -6.92 KCAL/MOL
REMARK 924 INTRA-LIGAND FREE ENERGY PREDICTED BY IDOCK:   -0.43 KCAL/MOL
REMARK 927      BINDING AFFINITY PREDICTED BY RF-SCORE:    0.00 PKD
ROOT
HETATM    1  C   UNL     1      -8.541  16.495  66.313  1.00  0.00    -0.332 C  
HETATM    2  N   UNL     1      -9.958  16.527  66.676  1.00  0.00    -0.263 NA 
HETATM    3  C   UNL     1     -10.391  17.913  66.866  1.00  0.00    -0.355 C  
ENDROOT
BRANCH   2   4
HETATM    4  C   UNL     1     -10.768  15.806  65.670  1.00  0.00    -0.348 C  
BRANCH   4   5
HETATM    5  C   UNL     1     -11.293  14.453  66.188  1.00  0.00    -0.350 C  
BRANCH   5   6
HETATM    6  C   UNL     1     -11.958  14.492  67.548  1.00  0.00    -0.358 C  
HETATM    7  C   UNL     1     -11.517  13.852  68.660  1.00  0.00    -0.333 C  
HETATM    8  C   UNL     1     -10.338  12.967  68.534  1.00  0.00    -0.239 A  
HETATM    9  C   UNL     1      -9.055  13.493  68.323  1.00  0.00    -0.189 A  
HETATM   10  C   UNL     1      -7.967  12.642  68.140  1.00  0.00    -0.158 A  
HETATM   11  C   UNL     1      -8.148  11.261  68.193  1.00  0.00    -0.134 A  
HETATM   12  C   UNL     1      -9.418  10.728  68.424  1.00  0.00    -0.174 A  
HETATM   13  C   UNL     1     -10.524  11.576  68.588  1.00  0.00    -0.224 A  
HETATM   14  C   UNL     1     -11.896  11.020  68.842  1.00  0.00    -0.308 C  
HETATM   15  S   UNL     1     -12.371  11.186  70.586  1.00  0.00    -0.388 SA 
HETATM   16  C   UNL     1     -12.582  12.960  70.828  1.00  0.00    -0.232 A  
HETATM   17  C   UNL     1     -13.162  13.268  72.078  1.00  0.00    -0.541 A  
HETATM   18  C   UNL     1     -13.415  14.582  72.469  1.00  0.00    -0.580 A  
HETATM   19  C   UNL     1     -13.086  15.624  71.617  1.00  0.00    -0.554 A  
HETATM   20  C   UNL     1     -12.499  15.346  70.381  1.00  0.00    -0.447 A  
HETATM   21  C   UNL     1     -12.240  14.021  69.957  1.00  0.00    -0.414 A  
ENDBRANCH   5   6
ENDBRANCH   4   5
ENDBRANCH   2   4
TORSDOF 3
ENDMDL
MODEL       11
REMARK 921   NORMALIZED FREE ENERGY PREDICTED BY IDOCK:   -6.03 KCAL/MOL
REMARK 922        TOTAL FREE ENERGY PREDICTED BY IDOCK:   -7.35 KCAL/MOL
REMARK 923 INTER-LIGAND FREE ENERGY PREDICTED BY IDOCK:   -7.03 KCAL/MOL
REMARK 924 INTRA-LIGAND FREE ENERGY PREDICTED BY IDOCK:   -0.32 KCAL/MOL
REMARK 927      BINDING AFFINITY PREDICTED BY RF-SCORE:    0.00 PKD
ROOT
HETATM    1  C   UNL     1      -9.476  10.708  64.020  1.00  0.00    -0.285 C  
HETATM    2  N   UNL     1      -9.306   9.470  64.781  1.00  0.00    -0.223 NA 
HETATM    3  C   UNL     1      -7.907   9.041  64.722  1.00  0.00    -0.122 C  
ENDROOT
BRANCH   2   4
HETATM    4  C   UNL     1      -9.795   9.641  66.167  1.00  0.00    -0.265 C  
BRANCH   4   5
HETATM    5  C   UNL     1      -9.361  10.982  66.789  1.00  0.00    -0.199 C  
BRANCH   5   6
HETATM    6  C   UNL     1     -10.076  11.366  68.068  1.00  0.00    -0.193 C  
HETATM    7  C   UNL     1     -11.091  12.261  68.166  1.00  0.00    -0.285 C  
HETATM    8  C   UNL     1     -11.489  12.999  66.947  1.00  0.00    -0.387 A  
HETATM    9  C   UNL     1     -12.154  12.354  65.893  1.00  0.00    -0.352 A  
HETATM   10  C   UNL     1     -12.463  13.049  64.725  1.00  0.00    -0.485 A  
HETATM   11  C   UNL     1     -12.134  14.399  64.613  1.00  0.00    -0.485 A  
HETATM   12  C   UNL     1     -11.491  15.055  65.665  1.00  0.00    -0.248 A  
HETATM   13  C   UNL     1     -11.157  14.358  66.836  1.00  0.00    -0.325 A  
HETATM   14  C   UNL     1     -10.471  15.049  67.980  1.00  0.00    -0.242 C  
HETATM   15  S   UNL     1     -11.625  15.406  69.334  1.00  0.00    -0.364 SA 
HETATM   16  C   UNL     1     -12.042  13.787  70.008  1.00  0.00    -0.349 A  
HETATM   17  C   UNL     1     -12.769  13.877  71.215  1.00  0.00    -0.444 A  
HETATM   18  C   UNL     1     -13.194  12.743  71.906  1.00  0.00    -0.511 A  
HETATM   19  C   UNL     1     -12.903  11.486  71.400  1.00  0.00    -0.489 A  
HETATM   20  C   UNL     1     -12.196  11.371  70.201  1.00  0.00    -0.401 A  
HETATM   21  C   UNL     1     -11.747  12.506  69.485  1.00  0.00    -0.375 A  
ENDBRANCH   5   6
ENDBRANCH   4   5
ENDBRANCH   2   4
TORSDOF 3
ENDMDL
MODEL       12
REMARK 921   NORMALIZED FREE ENERGY PREDICTED BY IDOCK:   -5.98 KCAL/MOL
REMARK 922        TOTAL FREE ENERGY PREDICTED BY IDOCK:   -7.29 KCAL/MOL
REMARK 923 INTER-LIGAND FREE ENERGY PREDICTED BY IDOCK:   -7.03 KCAL/MOL
REMARK 924 INTRA-LIGAND FREE ENERGY PREDICTED BY IDOCK:   -0.26 KCAL/MOL
REMARK 927      BINDING AFFINITY PREDICTED BY RF-SCORE:    0.00 PKD
ROOT
HETATM    1  C   UNL     1     -13.117  11.451  71.765  1.00  0.00    -0.418 C  
HETATM    2  N   UNL     1     -12.396  10.190  71.589  1.00  0.00    -0.397 NA 
HETATM    3  C   UNL     1     -13.348   9.078  71.541  1.00  0.00    -0.339 C  
ENDROOT
BRANCH   2   4
HETATM    4  C   UNL     1     -11.526  10.252  70.394  1.00  0.00    -0.335 C  
BRANCH   4   5
HETATM    5  C   UNL     1     -12.019  11.276  69.353  1.00  0.00    -0.410 C  
BRANCH   5   6
HETATM    6  C   UNL     1     -11.619  10.989  67.921  1.00  0.00    -0.306 C  
HETATM    7  C   UNL     1     -11.054  11.879  67.066  1.00  0.00    -0.354 C  
HETATM    8  C   UNL     1     -10.885  13.275  67.526  1.00  0.00    -0.276 A  
HETATM    9  C   UNL     1      -9.938  13.607  68.506  1.00  0.00    -0.208 A  
HETATM   10  C   UNL     1      -9.838  14.917  68.973  1.00  0.00    -0.220 A  
HETATM   11  C   UNL     1     -10.666  15.907  68.447  1.00  0.00    -0.281 A  
HETATM   12  C   UNL     1     -11.598  15.590  67.456  1.00  0.00    -0.110 A  
HETATM   13  C   UNL     1     -11.720  14.271  66.994  1.00  0.00    -0.427 A  
HETATM   14  C   UNL     1     -12.713  13.914  65.925  1.00  0.00    -0.421 C  
HETATM   15  S   UNL     1     -11.907  13.682  64.316  1.00  0.00    -0.421 SA 
HETATM   16  C   UNL     1     -10.937  12.175  64.512  1.00  0.00    -0.314 A  
HETATM   17  C   UNL     1     -10.404  11.715  63.288  1.00  0.00    -0.444 A  
HETATM   18  C   UNL     1      -9.620  10.564  63.212  1.00  0.00    -0.373 A  
HETATM   19  C   UNL     1      -9.348   9.846  64.365  1.00  0.00    -0.326 A  
HETATM   20  C   UNL     1      -9.852  10.288  65.590  1.00  0.00    -0.332 A  
HETATM   21  C   UNL     1     -10.656  11.448  65.693  1.00  0.00    -0.314 A  
ENDBRANCH   5   6
ENDBRANCH   4   5
ENDBRANCH   2   4
TORSDOF 3
ENDMDL
MODEL       13
REMARK 921   NORMALIZED FREE ENERGY PREDICTED BY IDOCK:   -5.97 KCAL/MOL
REMARK 922        TOTAL FREE ENERGY PREDICTED BY IDOCK:   -7.28 KCAL/MOL
REMARK 923 INTER-LIGAND FREE ENERGY PREDICTED BY IDOCK:   -6.77 KCAL/MOL
REMARK 924 INTRA-LIGAND FREE ENERGY PREDICTED BY IDOCK:   -0.52 KCAL/MOL
REMARK 927      BINDING AFFINITY PREDICTED BY RF-SCORE:    0.00 PKD
ROOT
HETATM    1  C   UNL     1      -6.936  11.270  69.185  1.00  0.00    -0.114 C  
HETATM    2  N   UNL     1      -8.170  11.660  68.502  1.00  0.00    -0.153 NA 
HETATM    3  C   UNL     1      -7.849  12.281  67.215  1.00  0.00    -0.171 C  
ENDROOT
BRANCH   2   4
HETATM    4  C   UNL     1      -9.078  10.500  68.369  1.00  0.00    -0.148 C  
BRANCH   4   5
HETATM    5  C   UNL     1     -10.556  10.915  68.236  1.00  0.00    -0.223 C  
BRANCH   5   6
HETATM    6  C   UNL     1     -11.102  11.746  69.379  1.00  0.00    -0.245 C  
HETATM    7  C   UNL     1     -11.618  12.996  69.268  1.00  0.00    -0.367 C  
HETATM    8  C   UNL     1     -11.574  13.653  67.942  1.00  0.00    -0.376 A  
HETATM    9  C   UNL     1     -12.390  13.218  66.889  1.00  0.00    -0.220 A  
HETATM   10  C   UNL     1     -12.287  13.806  65.629  1.00  0.00    -0.517 A  
HETATM   11  C   UNL     1     -11.387  14.849  65.421  1.00  0.00    -0.346 A  
HETATM   12  C   UNL     1     -10.585  15.304  66.470  1.00  0.00    -0.304 A  
HETATM   13  C   UNL     1     -10.666  14.705  67.736  1.00  0.00    -0.265 A  
HETATM   14  C   UNL     1      -9.815  15.185  68.876  1.00  0.00    -0.229 C  
HETATM   15  S   UNL     1     -10.770  16.194  70.044  1.00  0.00    -0.285 SA 
HETATM   16  C   UNL     1     -11.902  15.027  70.824  1.00  0.00    -0.320 A  
HETATM   17  C   UNL     1     -12.586  15.593  71.923  1.00  0.00    -0.509 A  
HETATM   18  C   UNL     1     -13.510  14.863  72.670  1.00  0.00    -0.573 A  
HETATM   19  C   UNL     1     -13.777  13.547  72.330  1.00  0.00    -0.700 A  
HETATM   20  C   UNL     1     -13.124  12.970  71.239  1.00  0.00    -0.263 A  
HETATM   21  C   UNL     1     -12.176  13.685  70.470  1.00  0.00    -0.438 A  
ENDBRANCH   5   6
ENDBRANCH   4   5
ENDBRANCH   2   4
TORSDOF 3
ENDMDL
MODEL       14
REMARK 921   NORMALIZED FREE ENERGY PREDICTED BY IDOCK:   -5.94 KCAL/MOL
REMARK 922        TOTAL FREE ENERGY PREDICTED BY IDOCK:   -7.25 KCAL/MOL
REMARK 923 INTER-LIGAND FREE ENERGY PREDICTED BY IDOCK:   -6.82 KCAL/MOL
REMARK 924 INTRA-LIGAND FREE ENERGY PREDICTED BY IDOCK:   -0.43 KCAL/MOL
REMARK 927      BINDING AFFINITY PREDICTED BY RF-SCORE:    0.00 PKD
ROOT
HETATM    1  C   UNL     1      -8.613  19.512  66.209  1.00  0.00    -0.361 C  
HETATM    2  N   UNL     1      -9.081  18.147  65.971  1.00  0.00    -0.521 NA 
HETATM    3  C   UNL     1      -7.966  17.208  66.112  1.00  0.00    -0.262 C  
ENDROOT
BRANCH   2   4
HETATM    4  C   UNL     1     -10.218  17.825  66.862  1.00  0.00    -0.346 C  
BRANCH   4   5
HETATM    5  C   UNL     1      -9.831  17.855  68.353  1.00  0.00    -0.355 C  
BRANCH   5   6
HETATM    6  C   UNL     1     -10.754  17.090  69.278  1.00  0.00    -0.226 C  
HETATM    7  C   UNL     1     -10.589  15.801  69.668  1.00  0.00    -0.295 C  
HETATM    8  C   UNL     1      -9.467  15.034  69.081  1.00  0.00    -0.195 A  
HETATM    9  C   UNL     1      -8.137  15.314  69.428  1.00  0.00    -0.230 A  
HETATM   10  C   UNL     1      -7.091  14.625  68.817  1.00  0.00    -0.113 A  
HETATM   11  C   UNL     1      -7.367  13.636  67.875  1.00  0.00    -0.148 A  
HETATM   12  C   UNL     1      -8.689  13.336  67.538  1.00  0.00    -0.202 A  
HETATM   13  C   UNL     1      -9.748  14.038  68.132  1.00  0.00    -0.220 A  
HETATM   14  C   UNL     1     -11.176  13.725  67.787  1.00  0.00    -0.288 C  
HETATM   15  S   UNL     1     -11.982  12.756  69.092  1.00  0.00    -0.188 SA 
HETATM   16  C   UNL     1     -12.125  13.901  70.478  1.00  0.00    -0.356 A  
HETATM   17  C   UNL     1     -12.926  13.386  71.521  1.00  0.00    -0.429 A  
HETATM   18  C   UNL     1     -13.167  14.109  72.689  1.00  0.00    -0.612 A  
HETATM   19  C   UNL     1     -12.607  15.367  72.842  1.00  0.00    -0.524 A  
HETATM   20  C   UNL     1     -11.801  15.892  71.830  1.00  0.00    -0.595 A  
HETATM   21  C   UNL     1     -11.547  15.183  70.633  1.00  0.00    -0.351 A  
ENDBRANCH   5   6
ENDBRANCH   4   5
ENDBRANCH   2   4
TORSDOF 3
ENDMDL
MODEL       15
REMARK 921   NORMALIZED FREE ENERGY PREDICTED BY IDOCK:   -5.88 KCAL/MOL
REMARK 922        TOTAL FREE ENERGY PREDICTED BY IDOCK:   -7.18 KCAL/MOL
REMARK 923 INTER-LIGAND FREE ENERGY PREDICTED BY IDOCK:   -6.93 KCAL/MOL
REMARK 924 INTRA-LIGAND FREE ENERGY PREDICTED BY IDOCK:   -0.25 KCAL/MOL
REMARK 927      BINDING AFFINITY PREDICTED BY RF-SCORE:    0.00 PKD
ROOT
HETATM    1  C   UNL     1     -14.098  15.662  72.408  1.00  0.00    -0.490 C  
HETATM    2  N   UNL     1     -12.680  15.840  72.724  1.00  0.00    -0.414 NA 
HETATM    3  C   UNL     1     -12.471  15.693  74.166  1.00  0.00    -0.661 C  
ENDROOT
BRANCH   2   4
HETATM    4  C   UNL     1     -11.851  14.911  71.926  1.00  0.00    -0.344 C  
BRANCH   4   5
HETATM    5  C   UNL     1     -11.117  15.614  70.768  1.00  0.00    -0.382 C  
BRANCH   5   6
HETATM    6  C   UNL     1     -11.478  15.127  69.380  1.00  0.00    -0.322 C  
HETATM    7  C   UNL     1     -10.674  15.191  68.289  1.00  0.00    -0.251 C  
HETATM    8  C   UNL     1      -9.365  15.867  68.426  1.00  0.00    -0.201 A  
HETATM    9  C   UNL     1      -8.323  15.287  69.165  1.00  0.00    -0.233 A  
HETATM   10  C   UNL     1      -7.119  15.968  69.337  1.00  0.00    -0.217 A  
HETATM   11  C   UNL     1      -6.939  17.219  68.752  1.00  0.00    -0.230 A  
HETATM   12  C   UNL     1      -7.963  17.796  67.997  1.00  0.00    -0.244 A  
HETATM   13  C   UNL     1      -9.186  17.128  67.835  1.00  0.00    -0.241 A  
HETATM   14  C   UNL     1     -10.296  17.730  67.021  1.00  0.00    -0.344 C  
HETATM   15  S   UNL     1     -10.429  16.946  65.390  1.00  0.00    -0.034 SA 
HETATM   16  C   UNL     1     -11.018  15.278  65.739  1.00  0.00    -0.338 A  
HETATM   17  C   UNL     1     -11.387  14.582  64.567  1.00  0.00    -0.323 A  
HETATM   18  C   UNL     1     -11.871  13.274  64.610  1.00  0.00    -0.420 A  
HETATM   19  C   UNL     1     -11.991  12.629  65.830  1.00  0.00    -0.503 A  
HETATM   20  C   UNL     1     -11.620  13.293  67.001  1.00  0.00    -0.404 A  
HETATM   21  C   UNL     1     -11.135  14.621  66.987  1.00  0.00    -0.333 A  
ENDBRANCH   5   6
ENDBRANCH   4   5
ENDBRANCH   2   4
TORSDOF 3
ENDMDL
MODEL       16
REMARK 921   NORMALIZED FREE ENERGY PREDICTED BY IDOCK:   -5.88 KCAL/MOL
REMARK 922        TOTAL FREE ENERGY PREDICTED BY IDOCK:   -7.17 KCAL/MOL
REMARK 923 INTER-LIGAND FREE ENERGY PREDICTED BY IDOCK:   -6.96 KCAL/MOL
REMARK 924 INTRA-LIGAND FREE ENERGY PREDICTED BY IDOCK:   -0.22 KCAL/MOL
REMARK 927      BINDING AFFINITY PREDICTED BY RF-SCORE:    0.00 PKD
ROOT
HETATM    1  C   UNL     1     -13.678  13.385  72.342  1.00  0.00    -0.597 C  
HETATM    2  N   UNL     1     -13.337  14.158  71.147  1.00  0.00    -0.304 NA 
HETATM    3  C   UNL     1     -13.159  15.567  71.503  1.00  0.00    -0.496 C  
ENDROOT
BRANCH   2   4
HETATM    4  C   UNL     1     -12.152  13.581  70.476  1.00  0.00    -0.335 C  
BRANCH   4   5
HETATM    5  C   UNL     1     -12.131  13.862  68.962  1.00  0.00    -0.365 C  
BRANCH   5   6
HETATM    6  C   UNL     1     -11.625  12.725  68.097  1.00  0.00    -0.380 C  
HETATM    7  C   UNL     1     -10.874  12.862  66.976  1.00  0.00    -0.282 C  
HETATM    8  C   UNL     1     -10.587  14.230  66.492  1.00  0.00    -0.286 A  
HETATM    9  C   UNL     1      -9.711  15.077  67.187  1.00  0.00    -0.228 A  
HETATM   10  C   UNL     1      -9.504  16.385  66.752  1.00  0.00    -0.265 A  
HETATM   11  C   UNL     1     -10.149  16.847  65.607  1.00  0.00    -0.175 A  
HETATM   12  C   UNL     1     -11.007  16.004  64.896  1.00  0.00    -0.399 A  
HETATM   13  C   UNL     1     -11.238  14.693  65.337  1.00  0.00    -0.347 A  
HETATM   14  C   UNL     1     -12.153  13.771  64.582  1.00  0.00    -0.421 C  
HETATM   15  S   UNL     1     -11.221  12.555  63.610  1.00  0.00    -0.475 SA 
HETATM   16  C   UNL     1     -10.463  11.480  64.843  1.00  0.00    -0.291 A  
HETATM   17  C   UNL     1      -9.867  10.337  64.267  1.00  0.00    -0.357 A  
HETATM   18  C   UNL     1      -9.223   9.372  65.042  1.00  0.00    -0.280 A  
HETATM   19  C   UNL     1      -9.157   9.533  66.417  1.00  0.00    -0.195 A  
HETATM   20  C   UNL     1      -9.727  10.662  67.008  1.00  0.00    -0.207 A  
HETATM   21  C   UNL     1     -10.393  11.650  66.246  1.00  0.00    -0.273 A  
ENDBRANCH   5   6
ENDBRANCH   4   5
ENDBRANCH   2   4
TORSDOF 3
ENDMDL
MODEL       17
REMARK 921   NORMALIZED FREE ENERGY PREDICTED BY IDOCK:   -5.84 KCAL/MOL
REMARK 922        TOTAL FREE ENERGY PREDICTED BY IDOCK:   -7.13 KCAL/MOL
REMARK 923 INTER-LIGAND FREE ENERGY PREDICTED BY IDOCK:   -6.84 KCAL/MOL
REMARK 924 INTRA-LIGAND FREE ENERGY PREDICTED BY IDOCK:   -0.29 KCAL/MOL
REMARK 927      BINDING AFFINITY PREDICTED BY RF-SCORE:    0.00 PKD
ROOT
HETATM    1  C   UNL     1     -12.034  14.855  64.508  1.00  0.00    -0.410 C  
HETATM    2  N   UNL     1     -11.850  13.423  64.271  1.00  0.00    -0.403 NA 
HETATM    3  C   UNL     1     -10.422  13.117  64.161  1.00  0.00    -0.326 C  
ENDROOT
BRANCH   2   4
HETATM    4  C   UNL     1     -12.526  12.632  65.323  1.00  0.00    -0.416 C  
BRANCH   4   5
HETATM    5  C   UNL     1     -11.646  12.429  66.571  1.00  0.00    -0.447 C  
BRANCH   5   6
HETATM    6  C   UNL     1     -12.148  13.094  67.836  1.00  0.00    -0.247 C  
HETATM    7  C   UNL     1     -11.795  12.752  69.100  1.00  0.00    -0.352 C  
HETATM    8  C   UNL     1     -10.914  11.578  69.284  1.00  0.00    -0.261 A  
HETATM    9  C   UNL     1      -9.562  11.620  68.913  1.00  0.00    -0.006 A  
HETATM   10  C   UNL     1      -8.764  10.483  69.033  1.00  0.00    -0.160 A  
HETATM   11  C   UNL     1      -9.304   9.306  69.548  1.00  0.00    -0.177 A  
HETATM   12  C   UNL     1     -10.644   9.261  69.940  1.00  0.00    -0.246 A  
HETATM   13  C   UNL     1     -11.461  10.393  69.804  1.00  0.00    -0.348 A  
HETATM   14  C   UNL     1     -12.902  10.364  70.225  1.00  0.00    -0.105 C  
HETATM   15  S   UNL     1     -13.153  11.214  71.809  1.00  0.00    -0.327 SA 
HETATM   16  C   UNL     1     -12.857  12.953  71.437  1.00  0.00    -0.283 A  
HETATM   17  C   UNL     1     -13.215  13.801  72.508  1.00  0.00    -0.599 A  
HETATM   18  C   UNL     1     -13.068  15.185  72.432  1.00  0.00    -0.468 A  
HETATM   19  C   UNL     1     -12.551  15.756  71.280  1.00  0.00    -0.504 A  
HETATM   20  C   UNL     1     -12.177  14.937  70.213  1.00  0.00    -0.389 A  
HETATM   21  C   UNL     1     -12.324  13.531  70.260  1.00  0.00    -0.370 A  
ENDBRANCH   5   6
ENDBRANCH   4   5
ENDBRANCH   2   4
TORSDOF 3
ENDMDL
MODEL       18
REMARK 921   NORMALIZED FREE ENERGY PREDICTED BY IDOCK:   -5.79 KCAL/MOL
REMARK 922        TOTAL FREE ENERGY PREDICTED BY IDOCK:   -7.07 KCAL/MOL
REMARK 923 INTER-LIGAND FREE ENERGY PREDICTED BY IDOCK:   -6.78 KCAL/MOL
REMARK 924 INTRA-LIGAND FREE ENERGY PREDICTED BY IDOCK:   -0.29 KCAL/MOL
REMARK 927      BINDING AFFINITY PREDICTED BY RF-SCORE:    0.00 PKD
ROOT
HETATM    1  C   UNL     1      -8.383  20.208  67.151  1.00  0.00    -0.337 C  
HETATM    2  N   UNL     1      -9.784  19.950  67.482  1.00  0.00    -0.368 NA 
HETATM    3  C   UNL     1     -10.534  19.644  66.262  1.00  0.00    -0.519 C  
ENDROOT
BRANCH   2   4
HETATM    4  C   UNL     1      -9.888  18.884  68.502  1.00  0.00    -0.399 C  
BRANCH   4   5
HETATM    5  C   UNL     1     -10.383  17.548  67.916  1.00  0.00    -0.371 C  
BRANCH   5   6
HETATM    6  C   UNL     1     -11.228  16.703  68.847  1.00  0.00    -0.200 C  
HETATM    7  C   UNL     1     -10.887  15.484  69.333  1.00  0.00    -0.261 C  
HETATM    8  C   UNL     1      -9.627  14.872  68.857  1.00  0.00    -0.215 A  
HETATM    9  C   UNL     1      -8.380  15.381  69.248  1.00  0.00    -0.254 A  
HETATM   10  C   UNL     1      -7.204  14.833  68.738  1.00  0.00    -0.125 A  
HETATM   11  C   UNL     1      -7.266  13.756  67.855  1.00  0.00    -0.156 A  
HETATM   12  C   UNL     1      -8.502  13.228  67.476  1.00  0.00    -0.202 A  
HETATM   13  C   UNL     1      -9.692  13.787  67.968  1.00  0.00    -0.232 A  
HETATM   14  C   UNL     1     -11.030  13.228  67.577  1.00  0.00    -0.263 C  
HETATM   15  S   UNL     1     -11.750  12.225  68.907  1.00  0.00    -0.323 SA 
HETATM   16  C   UNL     1     -12.152  13.416  70.200  1.00  0.00    -0.344 A  
HETATM   17  C   UNL     1     -12.922  12.845  71.237  1.00  0.00    -0.317 A  
HETATM   18  C   UNL     1     -13.342  13.590  72.338  1.00  0.00    -0.641 A  
HETATM   19  C   UNL     1     -12.996  14.928  72.430  1.00  0.00    -0.439 A  
HETATM   20  C   UNL     1     -12.224  15.512  71.423  1.00  0.00    -0.453 A  
HETATM   21  C   UNL     1     -11.792  14.781  70.292  1.00  0.00    -0.357 A  
ENDBRANCH   5   6
ENDBRANCH   4   5
ENDBRANCH   2   4
TORSDOF 3
ENDMDL
MODEL       19
REMARK 921   NORMALIZED FREE ENERGY PREDICTED BY IDOCK:   -5.70 KCAL/MOL
REMARK 922        TOTAL FREE ENERGY PREDICTED BY IDOCK:   -6.97 KCAL/MOL
REMARK 923 INTER-LIGAND FREE ENERGY PREDICTED BY IDOCK:   -6.43 KCAL/MOL
REMARK 924 INTRA-LIGAND FREE ENERGY PREDICTED BY IDOCK:   -0.54 KCAL/MOL
REMARK 927      BINDING AFFINITY PREDICTED BY RF-SCORE:    0.00 PKD
ROOT
HETATM    1  C   UNL     1      -7.598  19.310  68.276  1.00  0.00    -0.304 C  
HETATM    2  N   UNL     1      -8.825  18.561  68.006  1.00  0.00    -0.291 NA 
HETATM    3  C   UNL     1      -9.949  19.180  68.712  1.00  0.00    -0.427 C  
ENDROOT
BRANCH   2   4
HETATM    4  C   UNL     1      -9.055  18.448  66.549  1.00  0.00    -0.290 C  
BRANCH   4   5
HETATM    5  C   UNL     1     -10.495  18.022  66.206  1.00  0.00    -0.340 C  
BRANCH   5   6
HETATM    6  C   UNL     1     -10.625  16.695  65.487  1.00  0.00    -0.273 C  
HETATM    7  C   UNL     1     -10.768  15.485  66.084  1.00  0.00    -0.315 C  
HETATM    8  C   UNL     1     -10.707  15.426  67.561  1.00  0.00    -0.295 A  
HETATM    9  C   UNL     1     -11.744  15.943  68.352  1.00  0.00    -0.246 A  
HETATM   10  C   UNL     1     -11.639  15.938  69.742  1.00  0.00    -0.340 A  
HETATM   11  C   UNL     1     -10.511  15.392  70.351  1.00  0.00    -0.209 A  
HETATM   12  C   UNL     1      -9.482  14.855  69.573  1.00  0.00    -0.004 A  
HETATM   13  C   UNL     1      -9.569  14.875  68.173  1.00  0.00    -0.210 A  
HETATM   14  C   UNL     1      -8.476  14.297  67.320  1.00  0.00    -0.210 C  
HETATM   15  S   UNL     1      -8.939  12.677  66.647  1.00  0.00    -0.110 SA 
HETATM   16  C   UNL     1     -10.249  13.041  65.463  1.00  0.00    -0.285 A  
HETATM   17  C   UNL     1     -10.592  11.919  64.677  1.00  0.00    -0.353 A  
HETATM   18  C   UNL     1     -11.584  11.980  63.698  1.00  0.00    -0.578 A  
HETATM   19  C   UNL     1     -12.261  13.170  63.485  1.00  0.00    -0.552 A  
HETATM   20  C   UNL     1     -11.949  14.290  64.259  1.00  0.00    -0.449 A  
HETATM   21  C   UNL     1     -10.943  14.257  65.252  1.00  0.00    -0.347 A  
ENDBRANCH   5   6
ENDBRANCH   4   5
ENDBRANCH   2   4
TORSDOF 3
ENDMDL
MODEL       20
REMARK 921   NORMALIZED FREE ENERGY PREDICTED BY IDOCK:   -5.65 KCAL/MOL
REMARK 922        TOTAL FREE ENERGY PREDICTED BY IDOCK:   -6.91 KCAL/MOL
REMARK 923 INTER-LIGAND FREE ENERGY PREDICTED BY IDOCK:   -6.46 KCAL/MOL
REMARK 924 INTRA-LIGAND FREE ENERGY PREDICTED BY IDOCK:   -0.45 KCAL/MOL
REMARK 927      BINDING AFFINITY PREDICTED BY RF-SCORE:    0.00 PKD
ROOT
HETATM    1  C   UNL     1     -12.476  12.000  63.584  1.00  0.00    -0.525 C  
HETATM    2  N   UNL     1     -11.725  12.525  64.724  1.00  0.00    -0.342 NA 
HETATM    3  C   UNL     1     -10.379  12.911  64.295  1.00  0.00    -0.372 C  
ENDROOT
BRANCH   2   4
HETATM    4  C   UNL     1     -12.463  13.635  65.365  1.00  0.00    -0.499 C  
BRANCH   4   5
HETATM    5  C   UNL     1     -11.912  13.987  66.760  1.00  0.00    -0.473 C  
BRANCH   5   6
HETATM    6  C   UNL     1     -11.985  12.876  67.787  1.00  0.00    -0.336 C  
HETATM    7  C   UNL     1     -10.951  12.436  68.547  1.00  0.00    -0.277 C  
HETATM    8  C   UNL     1      -9.612  13.019  68.308  1.00  0.00    -0.213 A  
HETATM    9  C   UNL     1      -9.322  14.343  68.670  1.00  0.00    -0.188 A  
HETATM   10  C   UNL     1      -8.076  14.895  68.377  1.00  0.00    -0.137 A  
HETATM   11  C   UNL     1      -7.105  14.122  67.744  1.00  0.00    -0.185 A  
HETATM   12  C   UNL     1      -7.377  12.796  67.398  1.00  0.00    -0.135 A  
HETATM   13  C   UNL     1      -8.635  12.238  67.670  1.00  0.00    -0.169 A  
HETATM   14  C   UNL     1      -8.944  10.812  67.311  1.00  0.00    -0.140 C  
HETATM   15  S   UNL     1      -8.905   9.732  68.768  1.00  0.00    -0.134 SA 
HETATM   16  C   UNL     1     -10.334  10.241  69.742  1.00  0.00    -0.246 A  
HETATM   17  C   UNL     1     -10.592   9.363  70.819  1.00  0.00    -0.371 A  
HETATM   18  C   UNL     1     -11.653   9.571  71.700  1.00  0.00    -0.451 A  
HETATM   19  C   UNL     1     -12.480  10.668  71.527  1.00  0.00    -0.471 A  
HETATM   20  C   UNL     1     -12.237  11.558  70.479  1.00  0.00    -0.469 A  
HETATM   21  C   UNL     1     -11.174  11.366  69.566  1.00  0.00    -0.322 A  
ENDBRANCH   5   6
ENDBRANCH   4   5
ENDBRANCH   2   4
TORSDOF 3
ENDMDL
MODEL       21
REMARK 921   NORMALIZED FREE ENERGY PREDICTED BY IDOCK:   -5.64 KCAL/MOL
REMARK 922        TOTAL FREE ENERGY PREDICTED BY IDOCK:   -6.90 KCAL/MOL
REMARK 923 INTER-LIGAND FREE ENERGY PREDICTED BY IDOCK:   -6.47 KCAL/MOL
REMARK 924 INTRA-LIGAND FREE ENERGY PREDICTED BY IDOCK:   -0.43 KCAL/MOL
REMARK 927      BINDING AFFINITY PREDICTED BY RF-SCORE:    0.00 PKD
ROOT
HETATM    1  C   UNL     1      -6.310  13.955  68.806  1.00  0.00    -0.091 C  
HETATM    2  N   UNL     1      -7.560  13.521  68.181  1.00  0.00    -0.124 NA 
HETATM    3  C   UNL     1      -8.135  14.623  67.406  1.00  0.00    -0.196 C  
ENDROOT
BRANCH   2   4
HETATM    4  C   UNL     1      -7.339  12.303  67.371  1.00  0.00    -0.151 C  
BRANCH   4   5
HETATM    5  C   UNL     1      -8.636  11.508  67.128  1.00  0.00    -0.155 C  
BRANCH   5   6
HETATM    6  C   UNL     1      -9.471  11.236  68.363  1.00  0.00    -0.192 C  
HETATM    7  C   UNL     1     -10.752  11.640  68.552  1.00  0.00    -0.250 C  
HETATM    8  C   UNL     1     -11.375  12.494  67.516  1.00  0.00    -0.368 A  
HETATM    9  C   UNL     1     -11.720  11.974  66.259  1.00  0.00    -0.319 A  
HETATM   10  C   UNL     1     -12.245  12.807  65.273  1.00  0.00    -0.535 A  
HETATM   11  C   UNL     1     -12.452  14.159  65.543  1.00  0.00    -0.495 A  
HETATM   12  C   UNL     1     -12.130  14.681  66.798  1.00  0.00    -0.223 A  
HETATM   13  C   UNL     1     -11.582  13.855  67.791  1.00  0.00    -0.381 A  
HETATM   14  C   UNL     1     -11.236  14.398  69.148  1.00  0.00    -0.272 C  
HETATM   15  S   UNL     1     -12.469  13.924  70.392  1.00  0.00    -0.307 SA 
HETATM   16  C   UNL     1     -12.253  12.144  70.582  1.00  0.00    -0.300 A  
HETATM   17  C   UNL     1     -12.987  11.626  71.672  1.00  0.00    -0.483 A  
HETATM   18  C   UNL     1     -12.963  10.271  71.999  1.00  0.00    -0.503 A  
HETATM   19  C   UNL     1     -12.204   9.397  71.236  1.00  0.00    -0.425 A  
HETATM   20  C   UNL     1     -11.481   9.883  70.145  1.00  0.00    -0.309 A  
HETATM   21  C   UNL     1     -11.482  11.255  69.798  1.00  0.00    -0.386 A  
ENDBRANCH   5   6
ENDBRANCH   4   5
ENDBRANCH   2   4
TORSDOF 3
ENDMDL
MODEL       22
REMARK 921   NORMALIZED FREE ENERGY PREDICTED BY IDOCK:   -5.63 KCAL/MOL
REMARK 922        TOTAL FREE ENERGY PREDICTED BY IDOCK:   -6.89 KCAL/MOL
REMARK 923 INTER-LIGAND FREE ENERGY PREDICTED BY IDOCK:   -6.51 KCAL/MOL
REMARK 924 INTRA-LIGAND FREE ENERGY PREDICTED BY IDOCK:   -0.38 KCAL/MOL
REMARK 927      BINDING AFFINITY PREDICTED BY RF-SCORE:    0.00 PKD
ROOT
HETATM    1  C   UNL     1     -10.482  13.420  64.420  1.00  0.00    -0.384 C  
HETATM    2  N   UNL     1     -11.921  13.511  64.175  1.00  0.00    -0.434 NA 
HETATM    3  C   UNL     1     -12.387  12.299  63.498  1.00  0.00    -0.565 C  
ENDROOT
BRANCH   2   4
HETATM    4  C   UNL     1     -12.647  13.777  65.437  1.00  0.00    -0.497 C  
BRANCH   4   5
HETATM    5  C   UNL     1     -11.712  13.823  66.661  1.00  0.00    -0.421 C  
BRANCH   5   6
HETATM    6  C   UNL     1     -12.002  12.798  67.737  1.00  0.00    -0.316 C  
HETATM    7  C   UNL     1     -11.070  12.071  68.405  1.00  0.00    -0.290 C  
HETATM    8  C   UNL     1      -9.654  12.216  68.002  1.00  0.00    -0.204 A  
HETATM    9  C   UNL     1      -8.938  13.391  68.273  1.00  0.00    -0.176 A  
HETATM   10  C   UNL     1      -7.625  13.534  67.828  1.00  0.00    -0.163 A  
HETATM   11  C   UNL     1      -7.010  12.495  67.132  1.00  0.00    -0.060 A  
HETATM   12  C   UNL     1      -7.708  11.312  66.876  1.00  0.00    -0.152 A  
HETATM   13  C   UNL     1      -9.037  11.167  67.301  1.00  0.00    -0.152 A  
HETATM   14  C   UNL     1      -9.800   9.900  67.039  1.00  0.00    -0.191 C  
HETATM   15  S   UNL     1      -9.926   8.875  68.532  1.00  0.00    -0.183 SA 
HETATM   16  C   UNL     1     -11.016   9.805  69.626  1.00  0.00    -0.241 A  
HETATM   17  C   UNL     1     -11.403   9.060  70.760  1.00  0.00    -0.329 A  
HETATM   18  C   UNL     1     -12.246   9.590  71.737  1.00  0.00    -0.465 A  
HETATM   19  C   UNL     1     -12.717  10.886  71.603  1.00  0.00    -0.498 A  
HETATM   20  C   UNL     1     -12.336  11.648  70.497  1.00  0.00    -0.410 A  
HETATM   21  C   UNL     1     -11.490  11.131  69.487  1.00  0.00    -0.374 A  
ENDBRANCH   5   6
ENDBRANCH   4   5
ENDBRANCH   2   4
TORSDOF 3
ENDMDL
MODEL       23
REMARK 921   NORMALIZED FREE ENERGY PREDICTED BY IDOCK:   -5.60 KCAL/MOL
REMARK 922        TOTAL FREE ENERGY PREDICTED BY IDOCK:   -6.85 KCAL/MOL
REMARK 923 INTER-LIGAND FREE ENERGY PREDICTED BY IDOCK:   -6.58 KCAL/MOL
REMARK 924 INTRA-LIGAND FREE ENERGY PREDICTED BY IDOCK:   -0.27 KCAL/MOL
REMARK 927      BINDING AFFINITY PREDICTED BY RF-SCORE:    0.00 PKD
ROOT
HETATM    1  C   UNL     1      -7.670  18.264  68.563  1.00  0.00    -0.305 C  
HETATM    2  N   UNL     1      -8.992  18.835  68.304  1.00  0.00    -0.314 NA 
HETATM    3  C   UNL     1      -9.171  19.037  66.864  1.00  0.00    -0.303 C  
ENDROOT
BRANCH   2   4
HETATM    4  C   UNL     1     -10.048  17.989  68.900  1.00  0.00    -0.344 C  
BRANCH   4   5
HETATM    5  C   UNL     1      -9.667  16.497  68.933  1.00  0.00    -0.257 C  
BRANCH   5   6
HETATM    6  C   UNL     1     -10.048  15.702  67.701  1.00  0.00    -0.248 C  
HETATM    7  C   UNL     1     -11.043  14.784  67.633  1.00  0.00    -0.311 C  
HETATM    8  C   UNL     1     -11.774  14.453  68.877  1.00  0.00    -0.357 A  
HETATM    9  C   UNL     1     -12.655  15.371  69.466  1.00  0.00    -0.006 A  
HETATM   10  C   UNL     1     -13.284  15.068  70.672  1.00  0.00    -0.339 A  
HETATM   11  C   UNL     1     -13.057  13.837  71.284  1.00  0.00    -0.370 A  
HETATM   12  C   UNL     1     -12.197  12.907  70.694  1.00  0.00    -0.386 A  
HETATM   13  C   UNL     1     -11.543  13.211  69.490  1.00  0.00    -0.347 A  
HETATM   14  C   UNL     1     -10.620  12.222  68.839  1.00  0.00    -0.137 C  
HETATM   15  S   UNL     1     -11.404  11.412  67.417  1.00  0.00    -0.251 SA 
HETATM   16  C   UNL     1     -11.560  12.719  66.185  1.00  0.00    -0.379 A  
HETATM   17  C   UNL     1     -11.959  12.224  64.924  1.00  0.00    -0.420 A  
HETATM   18  C   UNL     1     -12.140  13.066  63.826  1.00  0.00    -0.574 A  
HETATM   19  C   UNL     1     -11.931  14.428  63.968  1.00  0.00    -0.288 A  
HETATM   20  C   UNL     1     -11.550  14.942  65.209  1.00  0.00    -0.300 A  
HETATM   21  C   UNL     1     -11.351  14.110  66.335  1.00  0.00    -0.342 A  
ENDBRANCH   5   6
ENDBRANCH   4   5
ENDBRANCH   2   4
TORSDOF 3
ENDMDL
MODEL       24
REMARK 921   NORMALIZED FREE ENERGY PREDICTED BY IDOCK:   -5.57 KCAL/MOL
REMARK 922        TOTAL FREE ENERGY PREDICTED BY IDOCK:   -6.82 KCAL/MOL
REMARK 923 INTER-LIGAND FREE ENERGY PREDICTED BY IDOCK:   -6.51 KCAL/MOL
REMARK 924 INTRA-LIGAND FREE ENERGY PREDICTED BY IDOCK:   -0.30 KCAL/MOL
REMARK 927      BINDING AFFINITY PREDICTED BY RF-SCORE:    0.00 PKD
ROOT
HETATM    1  C   UNL     1      -7.715   8.816  66.266  1.00  0.00    -0.098 C  
HETATM    2  N   UNL     1      -9.108   8.598  65.877  1.00  0.00    -0.201 NA 
HETATM    3  C   UNL     1      -9.655   7.456  66.613  1.00  0.00    -0.190 C  
ENDROOT
BRANCH   2   4
HETATM    4  C   UNL     1      -9.899   9.834  66.066  1.00  0.00    -0.274 C  
BRANCH   4   5
HETATM    5  C   UNL     1     -10.910   9.721  67.222  1.00  0.00    -0.247 C  
BRANCH   5   6
HETATM    6  C   UNL     1     -11.368  11.038  67.815  1.00  0.00    -0.365 C  
HETATM    7  C   UNL     1     -11.228  11.409  69.113  1.00  0.00    -0.335 C  
HETATM    8  C   UNL     1     -10.661  10.425  70.062  1.00  0.00    -0.321 A  
HETATM    9  C   UNL     1      -9.306  10.067  70.013  1.00  0.00    -0.165 A  
HETATM   10  C   UNL     1      -8.805   9.090  70.872  1.00  0.00    -0.294 A  
HETATM   11  C   UNL     1      -9.648   8.484  71.802  1.00  0.00    -0.337 A  
HETATM   12  C   UNL     1     -10.995   8.849  71.872  1.00  0.00    -0.439 A  
HETATM   13  C   UNL     1     -11.513   9.816  70.998  1.00  0.00    -0.458 A  
HETATM   14  C   UNL     1     -12.957  10.225  71.063  1.00  0.00    -0.397 C  
HETATM   15  S   UNL     1     -13.159  11.835  71.876  1.00  0.00    -0.232 SA 
HETATM   16  C   UNL     1     -12.437  13.016  70.720  1.00  0.00    -0.302 A  
HETATM   17  C   UNL     1     -12.695  14.355  71.087  1.00  0.00    -0.422 A  
HETATM   18  C   UNL     1     -12.227  15.429  70.331  1.00  0.00    -0.430 A  
HETATM   19  C   UNL     1     -11.483  15.187  69.187  1.00  0.00    -0.322 A  
HETATM   20  C   UNL     1     -11.204  13.872  68.810  1.00  0.00    -0.302 A  
HETATM   21  C   UNL     1     -11.674  12.764  69.555  1.00  0.00    -0.383 A  
ENDBRANCH   5   6
ENDBRANCH   4   5
ENDBRANCH   2   4
TORSDOF 3
ENDMDL
MODEL       25
REMARK 921   NORMALIZED FREE ENERGY PREDICTED BY IDOCK:   -5.49 KCAL/MOL
REMARK 922        TOTAL FREE ENERGY PREDICTED BY IDOCK:   -6.72 KCAL/MOL
REMARK 923 INTER-LIGAND FREE ENERGY PREDICTED BY IDOCK:   -6.29 KCAL/MOL
REMARK 924 INTRA-LIGAND FREE ENERGY PREDICTED BY IDOCK:   -0.43 KCAL/MOL
REMARK 927      BINDING AFFINITY PREDICTED BY RF-SCORE:    0.00 PKD
ROOT
HETATM    1  C   UNL     1     -10.641   5.319  66.372  1.00  0.00    -0.276 C  
HETATM    2  N   UNL     1     -10.942   6.244  67.465  1.00  0.00    -0.350 NA 
HETATM    3  C   UNL     1     -10.237   5.823  68.678  1.00  0.00    -0.197 C  
ENDROOT
BRANCH   2   4
HETATM    4  C   UNL     1     -10.625   7.634  67.071  1.00  0.00    -0.336 C  
BRANCH   4   5
HETATM    5  C   UNL     1      -9.971   8.440  68.209  1.00  0.00    -0.214 C  
BRANCH   5   6
HETATM    6  C   UNL     1     -10.839   9.518  68.823  1.00  0.00    -0.173 C  
HETATM    7  C   UNL     1     -11.042   9.705  70.152  1.00  0.00    -0.314 C  
HETATM    8  C   UNL     1     -10.443   8.732  71.092  1.00  0.00    -0.315 A  
HETATM    9  C   UNL     1      -9.057   8.688  71.305  1.00  0.00    -0.272 A  
HETATM   10  C   UNL     1      -8.504   7.722  72.144  1.00  0.00    -0.159 A  
HETATM   11  C   UNL     1      -9.334   6.811  72.796  1.00  0.00    -0.150 A  
HETATM   12  C   UNL     1     -10.717   6.860  72.606  1.00  0.00    -0.275 A  
HETATM   13  C   UNL     1     -11.281   7.816  71.747  1.00  0.00    -0.298 A  
HETATM   14  C   UNL     1     -12.766   7.887  71.536  1.00  0.00    -0.322 C  
HETATM   15  S   UNL     1     -13.505   9.269  72.451  1.00  0.00    -0.407 SA 
HETATM   16  C   UNL     1     -12.889  10.742  71.614  1.00  0.00    -0.457 A  
HETATM   17  C   UNL     1     -13.530  11.920  72.057  1.00  0.00    -0.336 A  
HETATM   18  C   UNL     1     -13.205  13.174  71.540  1.00  0.00    -0.368 A  
HETATM   19  C   UNL     1     -12.222  13.279  70.569  1.00  0.00    -0.416 A  
HETATM   20  C   UNL     1     -11.564  12.130  70.125  1.00  0.00    -0.202 A  
HETATM   21  C   UNL     1     -11.881  10.846  70.627  1.00  0.00    -0.453 A  
ENDBRANCH   5   6
ENDBRANCH   4   5
ENDBRANCH   2   4
TORSDOF 3
ENDMDL
MODEL       26
REMARK 921   NORMALIZED FREE ENERGY PREDICTED BY IDOCK:   -5.41 KCAL/MOL
REMARK 922        TOTAL FREE ENERGY PREDICTED BY IDOCK:   -6.62 KCAL/MOL
REMARK 923 INTER-LIGAND FREE ENERGY PREDICTED BY IDOCK:   -6.32 KCAL/MOL
REMARK 924 INTRA-LIGAND FREE ENERGY PREDICTED BY IDOCK:   -0.31 KCAL/MOL
REMARK 927      BINDING AFFINITY PREDICTED BY RF-SCORE:    0.00 PKD
ROOT
HETATM    1  C   UNL     1     -10.189  13.246  65.663  1.00  0.00    -0.289 C  
HETATM    2  N   UNL     1     -10.617  11.866  65.433  1.00  0.00    -0.261 NA 
HETATM    3  C   UNL     1     -10.399  11.507  64.030  1.00  0.00    -0.355 C  
ENDROOT
BRANCH   2   4
HETATM    4  C   UNL     1      -9.937  10.948  66.372  1.00  0.00    -0.221 C  
BRANCH   4   5
HETATM    5  C   UNL     1     -10.921  10.221  67.309  1.00  0.00    -0.277 C  
BRANCH   5   6
HETATM    6  C   UNL     1     -11.621  11.099  68.324  1.00  0.00    -0.359 C  
HETATM    7  C   UNL     1     -11.513  10.987  69.672  1.00  0.00    -0.375 C  
HETATM    8  C   UNL     1     -10.718   9.863  70.216  1.00  0.00    -0.367 A  
HETATM    9  C   UNL     1      -9.320   9.839  70.097  1.00  0.00    -0.261 A  
HETATM   10  C   UNL     1      -8.594   8.742  70.557  1.00  0.00    -0.187 A  
HETATM   11  C   UNL     1      -9.256   7.674  71.161  1.00  0.00    -0.153 A  
HETATM   12  C   UNL     1     -10.645   7.699  71.302  1.00  0.00    -0.237 A  
HETATM   13  C   UNL     1     -11.387   8.789  70.824  1.00  0.00    -0.313 A  
HETATM   14  C   UNL     1     -12.881   8.835  70.973  1.00  0.00    -0.001 C  
HETATM   15  S   UNL     1     -13.385   9.952  72.312  1.00  0.00    -0.213 SA 
HETATM   16  C   UNL     1     -12.971  11.598  71.704  1.00  0.00    -0.378 A  
HETATM   17  C   UNL     1     -13.488  12.622  72.527  1.00  0.00    -0.281 A  
HETATM   18  C   UNL     1     -13.285  13.971  72.240  1.00  0.00    -0.558 A  
HETATM   19  C   UNL     1     -12.551  14.328  71.121  1.00  0.00    -0.432 A  
HETATM   20  C   UNL     1     -12.017  13.334  70.299  1.00  0.00    -0.372 A  
HETATM   21  C   UNL     1     -12.216  11.958  70.563  1.00  0.00    -0.426 A  
ENDBRANCH   5   6
ENDBRANCH   4   5
ENDBRANCH   2   4
TORSDOF 3
ENDMDL
MODEL       27
REMARK 921   NORMALIZED FREE ENERGY PREDICTED BY IDOCK:   -5.36 KCAL/MOL
REMARK 922        TOTAL FREE ENERGY PREDICTED BY IDOCK:   -6.57 KCAL/MOL
REMARK 923 INTER-LIGAND FREE ENERGY PREDICTED BY IDOCK:   -6.15 KCAL/MOL
REMARK 924 INTRA-LIGAND FREE ENERGY PREDICTED BY IDOCK:   -0.42 KCAL/MOL
REMARK 927      BINDING AFFINITY PREDICTED BY RF-SCORE:    0.00 PKD
ROOT
HETATM    1  C   UNL     1      -9.000   5.290  67.949  1.00  0.00    -0.109 C  
HETATM    2  N   UNL     1     -10.326   5.349  68.564  1.00  0.00    -0.171 NA 
HETATM    3  C   UNL     1     -10.216   5.099  70.003  1.00  0.00    -0.284 C  
ENDROOT
BRANCH   2   4
HETATM    4  C   UNL     1     -10.984   6.637  68.255  1.00  0.00    -0.244 C  
BRANCH   4   5
HETATM    5  C   UNL     1      -9.993   7.816  68.209  1.00  0.00    -0.201 C  
BRANCH   5   6
HETATM    6  C   UNL     1     -10.602   9.186  68.424  1.00  0.00    -0.217 C  
HETATM    7  C   UNL     1     -10.709   9.822  69.617  1.00  0.00    -0.264 C  
HETATM    8  C   UNL     1     -10.279   9.099  70.834  1.00  0.00    -0.351 A  
HETATM    9  C   UNL     1      -8.923   8.844  71.087  1.00  0.00    -0.305 A  
HETATM   10  C   UNL     1      -8.543   8.104  72.205  1.00  0.00    -0.234 A  
HETATM   11  C   UNL     1      -9.511   7.636  73.091  1.00  0.00    -0.300 A  
HETATM   12  C   UNL     1     -10.863   7.902  72.859  1.00  0.00    -0.451 A  
HETATM   13  C   UNL     1     -11.258   8.628  71.726  1.00  0.00    -0.396 A  
HETATM   14  C   UNL     1     -12.705   8.929  71.464  1.00  0.00    -0.335 C  
HETATM   15  S   UNL     1     -13.115  10.650  71.869  1.00  0.00    -0.358 SA 
HETATM   16  C   UNL     1     -12.250  11.623  70.623  1.00  0.00    -0.366 A  
HETATM   17  C   UNL     1     -12.623  12.985  70.648  1.00  0.00    -0.270 A  
HETATM   18  C   UNL     1     -12.074  13.916  69.767  1.00  0.00    -0.404 A  
HETATM   19  C   UNL     1     -11.130  13.505  68.840  1.00  0.00    -0.305 A  
HETATM   20  C   UNL     1     -10.735  12.166  68.804  1.00  0.00    -0.252 A  
HETATM   21  C   UNL     1     -11.282  11.200  69.681  1.00  0.00    -0.333 A  
ENDBRANCH   5   6
ENDBRANCH   4   5
ENDBRANCH   2   4
TORSDOF 3
ENDMDL
MODEL       28
REMARK 921   NORMALIZED FREE ENERGY PREDICTED BY IDOCK:   -5.33 KCAL/MOL
REMARK 922        TOTAL FREE ENERGY PREDICTED BY IDOCK:   -6.53 KCAL/MOL
REMARK 923 INTER-LIGAND FREE ENERGY PREDICTED BY IDOCK:   -6.15 KCAL/MOL
REMARK 924 INTRA-LIGAND FREE ENERGY PREDICTED BY IDOCK:   -0.38 KCAL/MOL
REMARK 927      BINDING AFFINITY PREDICTED BY RF-SCORE:    0.00 PKD
ROOT
HETATM    1  C   UNL     1     -10.512   7.726  70.847  1.00  0.00    -0.206 C  
HETATM    2  N   UNL     1     -11.479   8.788  70.569  1.00  0.00    -0.238 NA 
HETATM    3  C   UNL     1     -12.497   8.821  71.622  1.00  0.00    -0.339 C  
ENDROOT
BRANCH   2   4
HETATM    4  C   UNL     1     -10.790  10.086  70.398  1.00  0.00    -0.318 C  
BRANCH   4   5
HETATM    5  C   UNL     1      -9.727  10.051  69.283  1.00  0.00    -0.227 C  
BRANCH   5   6
HETATM    6  C   UNL     1     -10.080  10.817  68.025  1.00  0.00    -0.198 C  
HETATM    7  C   UNL     1     -10.253  10.274  66.794  1.00  0.00    -0.286 C  
HETATM    8  C   UNL     1      -9.994   8.826  66.628  1.00  0.00    -0.355 A  
HETATM    9  C   UNL     1     -10.858   7.867  67.177  1.00  0.00    -0.187 A  
HETATM   10  C   UNL     1     -10.563   6.510  67.067  1.00  0.00    -0.402 A  
HETATM   11  C   UNL     1      -9.418   6.101  66.386  1.00  0.00    -0.172 A  
HETATM   12  C   UNL     1      -8.562   7.047  65.818  1.00  0.00    -0.138 A  
HETATM   13  C   UNL     1      -8.840   8.417  65.941  1.00  0.00    -0.212 A  
HETATM   14  C   UNL     1      -7.935   9.449  65.332  1.00  0.00    -0.105 C  
HETATM   15  S   UNL     1      -8.638  10.138  63.807  1.00  0.00    -0.216 SA 
HETATM   16  C   UNL     1     -10.059  11.099  64.363  1.00  0.00    -0.320 A  
HETATM   17  C   UNL     1     -10.612  11.888  63.330  1.00  0.00    -0.485 A  
HETATM   18  C   UNL     1     -11.719  12.709  63.543  1.00  0.00    -0.604 A  
HETATM   19  C   UNL     1     -12.304  12.755  64.798  1.00  0.00    -0.540 A  
HETATM   20  C   UNL     1     -11.783  11.974  65.832  1.00  0.00    -0.312 A  
HETATM   21  C   UNL     1     -10.657  11.139  65.645  1.00  0.00    -0.286 A  
ENDBRANCH   5   6
ENDBRANCH   4   5
ENDBRANCH   2   4
TORSDOF 3
ENDMDL
MODEL       29
REMARK 921   NORMALIZED FREE ENERGY PREDICTED BY IDOCK:   -5.31 KCAL/MOL
REMARK 922        TOTAL FREE ENERGY PREDICTED BY IDOCK:   -6.51 KCAL/MOL
REMARK 923 INTER-LIGAND FREE ENERGY PREDICTED BY IDOCK:   -6.19 KCAL/MOL
REMARK 924 INTRA-LIGAND FREE ENERGY PREDICTED BY IDOCK:   -0.32 KCAL/MOL
REMARK 927      BINDING AFFINITY PREDICTED BY RF-SCORE:    0.00 PKD
ROOT
HETATM    1  C   UNL     1      -8.502   8.032  66.450  1.00  0.00    -0.136 C  
HETATM    2  N   UNL     1      -7.977   8.889  67.513  1.00  0.00    -0.101 NA 
HETATM    3  C   UNL     1      -6.833   8.237  68.155  1.00  0.00    -0.069 C  
ENDROOT
BRANCH   2   4
HETATM    4  C   UNL     1      -7.650  10.231  66.985  1.00  0.00    -0.099 C  
BRANCH   4   5
HETATM    5  C   UNL     1      -8.769  11.259  67.239  1.00  0.00    -0.145 C  
BRANCH   5   6
HETATM    6  C   UNL     1      -9.626  10.997  68.460  1.00  0.00    -0.187 C  
HETATM    7  C   UNL     1     -10.876  11.482  68.665  1.00  0.00    -0.253 C  
HETATM    8  C   UNL     1     -11.434  12.417  67.662  1.00  0.00    -0.399 A  
HETATM    9  C   UNL     1     -11.810  11.974  66.386  1.00  0.00    -0.232 A  
HETATM   10  C   UNL     1     -12.271  12.881  65.433  1.00  0.00    -0.528 A  
HETATM   11  C   UNL     1     -12.384  14.231  65.758  1.00  0.00    -0.420 A  
HETATM   12  C   UNL     1     -12.032  14.679  67.033  1.00  0.00    -0.301 A  
HETATM   13  C   UNL     1     -11.547  13.778  67.992  1.00  0.00    -0.368 A  
HETATM   14  C   UNL     1     -11.169  14.241  69.369  1.00  0.00    -0.273 C  
HETATM   15  S   UNL     1     -12.436  13.805  70.592  1.00  0.00    -0.341 SA 
HETATM   16  C   UNL     1     -12.346  12.008  70.712  1.00  0.00    -0.308 A  
HETATM   17  C   UNL     1     -13.119  11.500  71.779  1.00  0.00    -0.503 A  
HETATM   18  C   UNL     1     -13.190  10.134  72.051  1.00  0.00    -0.534 A  
HETATM   19  C   UNL     1     -12.492   9.241  71.255  1.00  0.00    -0.389 A  
HETATM   20  C   UNL     1     -11.732   9.718  70.185  1.00  0.00    -0.190 A  
HETATM   21  C   UNL     1     -11.636  11.099  69.893  1.00  0.00    -0.416 A  
ENDBRANCH   5   6
ENDBRANCH   4   5
ENDBRANCH   2   4
TORSDOF 3
ENDMDL
MODEL       30
REMARK 921   NORMALIZED FREE ENERGY PREDICTED BY IDOCK:   -5.28 KCAL/MOL
REMARK 922        TOTAL FREE ENERGY PREDICTED BY IDOCK:   -6.47 KCAL/MOL
REMARK 923 INTER-LIGAND FREE ENERGY PREDICTED BY IDOCK:   -6.26 KCAL/MOL
REMARK 924 INTRA-LIGAND FREE ENERGY PREDICTED BY IDOCK:   -0.22 KCAL/MOL
REMARK 927      BINDING AFFINITY PREDICTED BY RF-SCORE:    0.00 PKD
ROOT
HETATM    1  C   UNL     1     -12.165  15.999  72.682  1.00  0.00    -0.522 C  
HETATM    2  N   UNL     1     -12.966  15.066  71.889  1.00  0.00    -0.323 NA 
HETATM    3  C   UNL     1     -14.390  15.348  72.081  1.00  0.00    -0.544 C  
ENDROOT
BRANCH   2   4
HETATM    4  C   UNL     1     -12.559  15.110  70.468  1.00  0.00    -0.380 C  
BRANCH   4   5
HETATM    5  C   UNL     1     -11.046  15.342  70.291  1.00  0.00    -0.316 C  
BRANCH   5   6
HETATM    6  C   UNL     1     -10.667  16.573  69.493  1.00  0.00    -0.321 C  
HETATM    7  C   UNL     1      -9.714  16.624  68.528  1.00  0.00    -0.244 C  
HETATM    8  C   UNL     1      -8.907  15.409  68.281  1.00  0.00    -0.176 A  
HETATM    9  C   UNL     1      -9.468  14.277  67.672  1.00  0.00    -0.211 A  
HETATM   10  C   UNL     1      -8.710  13.119  67.506  1.00  0.00    -0.201 A  
HETATM   11  C   UNL     1      -7.381  13.093  67.923  1.00  0.00    -0.131 A  
HETATM   12  C   UNL     1      -6.807  14.223  68.512  1.00  0.00    -0.100 A  
HETATM   13  C   UNL     1      -7.567  15.386  68.702  1.00  0.00    -0.129 A  
HETATM   14  C   UNL     1      -6.966  16.612  69.327  1.00  0.00    -0.225 C  
HETATM   15  S   UNL     1      -6.588  17.879  68.085  1.00  0.00    -0.202 SA 
HETATM   16  C   UNL     1      -8.203  18.445  67.516  1.00  0.00    -0.248 A  
HETATM   17  C   UNL     1      -8.113  19.590  66.693  1.00  0.00    -0.324 A  
HETATM   18  C   UNL     1      -9.244  20.193  66.145  1.00  0.00    -0.338 A  
HETATM   19  C   UNL     1     -10.496  19.660  66.402  1.00  0.00    -0.618 A  
HETATM   20  C   UNL     1     -10.609  18.520  67.201  1.00  0.00    -0.439 A  
HETATM   21  C   UNL     1      -9.479  17.894  67.777  1.00  0.00    -0.263 A  
ENDBRANCH   5   6
ENDBRANCH   4   5
ENDBRANCH   2   4
TORSDOF 3
ENDMDL
MODEL       31
REMARK 921   NORMALIZED FREE ENERGY PREDICTED BY IDOCK:   -5.27 KCAL/MOL
REMARK 922        TOTAL FREE ENERGY PREDICTED BY IDOCK:   -6.46 KCAL/MOL
REMARK 923 INTER-LIGAND FREE ENERGY PREDICTED BY IDOCK:   -6.19 KCAL/MOL
REMARK 924 INTRA-LIGAND FREE ENERGY PREDICTED BY IDOCK:   -0.27 KCAL/MOL
REMARK 927      BINDING AFFINITY PREDICTED BY RF-SCORE:    0.00 PKD
ROOT
HETATM    1  C   UNL     1     -12.199  12.124  63.349  1.00  0.00    -0.530 C  
HETATM    2  N   UNL     1     -11.130  11.236  63.807  1.00  0.00    -0.332 NA 
HETATM    3  C   UNL     1      -9.869  11.604  63.161  1.00  0.00    -0.382 C  
ENDROOT
BRANCH   2   4
HETATM    4  C   UNL     1     -11.043  11.246  65.283  1.00  0.00    -0.076 C  
BRANCH   4   5
HETATM    5  C   UNL     1     -11.754  12.461  65.911  1.00  0.00    -0.476 C  
BRANCH   5   6
HETATM    6  C   UNL     1     -10.848  13.607  66.312  1.00  0.00    -0.282 C  
HETATM    7  C   UNL     1     -10.418  13.868  67.572  1.00  0.00    -0.248 C  
HETATM    8  C   UNL     1     -10.934  13.025  68.674  1.00  0.00    -0.297 A  
HETATM    9  C   UNL     1     -10.538  11.687  68.811  1.00  0.00    -0.241 A  
HETATM   10  C   UNL     1     -11.085  10.890  69.815  1.00  0.00    -0.328 A  
HETATM   11  C   UNL     1     -12.012  11.432  70.704  1.00  0.00    -0.413 A  
HETATM   12  C   UNL     1     -12.397  12.770  70.589  1.00  0.00    -0.381 A  
HETATM   13  C   UNL     1     -11.867  13.574  69.568  1.00  0.00    -0.392 A  
HETATM   14  C   UNL     1     -12.266  15.015  69.433  1.00  0.00    -0.199 C  
HETATM   15  S   UNL     1     -10.970  16.127  70.049  1.00  0.00    -0.351 SA 
HETATM   16  C   UNL     1      -9.623  15.948  68.864  1.00  0.00    -0.230 A  
HETATM   17  C   UNL     1      -8.602  16.903  69.061  1.00  0.00    -0.148 A  
HETATM   18  C   UNL     1      -7.465  16.943  68.254  1.00  0.00    -0.192 A  
HETATM   19  C   UNL     1      -7.322  16.022  67.229  1.00  0.00    -0.243 A  
HETATM   20  C   UNL     1      -8.312  15.060  67.023  1.00  0.00    -0.254 A  
HETATM   21  C   UNL     1      -9.478  15.002  67.822  1.00  0.00    -0.195 A  
ENDBRANCH   5   6
ENDBRANCH   4   5
ENDBRANCH   2   4
TORSDOF 3
ENDMDL
MODEL       32
REMARK 921   NORMALIZED FREE ENERGY PREDICTED BY IDOCK:   -5.25 KCAL/MOL
REMARK 922        TOTAL FREE ENERGY PREDICTED BY IDOCK:   -6.44 KCAL/MOL
REMARK 923 INTER-LIGAND FREE ENERGY PREDICTED BY IDOCK:   -6.18 KCAL/MOL
REMARK 924 INTRA-LIGAND FREE ENERGY PREDICTED BY IDOCK:   -0.26 KCAL/MOL
REMARK 927      BINDING AFFINITY PREDICTED BY RF-SCORE:    0.00 PKD
ROOT
HETATM    1  C   UNL     1     -12.397  14.627  64.119  1.00  0.00    -0.265 C  
HETATM    2  N   UNL     1     -12.569  13.320  64.753  1.00  0.00    -0.641 NA 
HETATM    3  C   UNL     1     -11.941  12.284  63.930  1.00  0.00    -0.491 C  
ENDROOT
BRANCH   2   4
HETATM    4  C   UNL     1     -12.052  13.343  66.139  1.00  0.00    -0.429 C  
BRANCH   4   5
HETATM    5  C   UNL     1     -11.348  12.031  66.533  1.00  0.00    -0.413 C  
BRANCH   5   6
HETATM    6  C   UNL     1     -11.860  11.374  67.799  1.00  0.00    -0.196 C  
HETATM    7  C   UNL     1     -11.097  10.727  68.715  1.00  0.00    -0.312 C  
HETATM    8  C   UNL     1      -9.654  10.562  68.428  1.00  0.00    -0.164 A  
HETATM    9  C   UNL     1      -8.777  11.656  68.465  1.00  0.00    -0.130 A  
HETATM   10  C   UNL     1      -7.434  11.494  68.128  1.00  0.00    -0.101 A  
HETATM   11  C   UNL     1      -6.954  10.233  67.779  1.00  0.00    -0.083 A  
HETATM   12  C   UNL     1      -7.815   9.133  67.760  1.00  0.00    -0.100 A  
HETATM   13  C   UNL     1      -9.172   9.291  68.077  1.00  0.00    -0.138 A  
HETATM   14  C   UNL     1     -10.111   8.118  68.068  1.00  0.00    -0.197 C  
HETATM   15  S   UNL     1     -10.485   7.549  69.749  1.00  0.00    -0.233 SA 
HETATM   16  C   UNL     1     -11.475   8.876  70.464  1.00  0.00    -0.200 A  
HETATM   17  C   UNL     1     -12.042   8.516  71.706  1.00  0.00    -0.391 A  
HETATM   18  C   UNL     1     -12.844   9.396  72.431  1.00  0.00    -0.394 A  
HETATM   19  C   UNL     1     -13.094  10.664  71.932  1.00  0.00    -0.563 A  
HETATM   20  C   UNL     1     -12.533  11.048  70.712  1.00  0.00    -0.491 A  
HETATM   21  C   UNL     1     -11.723  10.172  69.952  1.00  0.00    -0.248 A  
ENDBRANCH   5   6
ENDBRANCH   4   5
ENDBRANCH   2   4
TORSDOF 3
ENDMDL
MODEL       33
REMARK 921   NORMALIZED FREE ENERGY PREDICTED BY IDOCK:   -5.24 KCAL/MOL
REMARK 922        TOTAL FREE ENERGY PREDICTED BY IDOCK:   -6.43 KCAL/MOL
REMARK 923 INTER-LIGAND FREE ENERGY PREDICTED BY IDOCK:   -6.06 KCAL/MOL
REMARK 924 INTRA-LIGAND FREE ENERGY PREDICTED BY IDOCK:   -0.37 KCAL/MOL
REMARK 927      BINDING AFFINITY PREDICTED BY RF-SCORE:    0.00 PKD
ROOT
HETATM    1  C   UNL     1      -8.809   8.038  67.276  1.00  0.00    -0.131 C  
HETATM    2  N   UNL     1      -8.391   9.321  66.709  1.00  0.00    -0.122 NA 
HETATM    3  C   UNL     1      -7.933   9.128  65.331  1.00  0.00    -0.106 C  
ENDROOT
BRANCH   2   4
HETATM    4  C   UNL     1      -9.481  10.315  66.817  1.00  0.00    -0.163 C  
BRANCH   4   5
HETATM    5  C   UNL     1     -10.722   9.761  67.543  1.00  0.00    -0.327 C  
BRANCH   5   6
HETATM    6  C   UNL     1     -11.461  10.754  68.415  1.00  0.00    -0.358 C  
HETATM    7  C   UNL     1     -11.424  10.793  69.771  1.00  0.00    -0.386 C  
HETATM    8  C   UNL     1     -10.672   9.732  70.478  1.00  0.00    -0.381 A  
HETATM    9  C   UNL     1      -9.270   9.685  70.436  1.00  0.00    -0.258 A  
HETATM   10  C   UNL     1      -8.583   8.642  71.053  1.00  0.00    -0.211 A  
HETATM   11  C   UNL     1      -9.288   7.654  71.738  1.00  0.00    -0.176 A  
HETATM   12  C   UNL     1     -10.682   7.704  71.804  1.00  0.00    -0.252 A  
HETATM   13  C   UNL     1     -11.385   8.739  71.168  1.00  0.00    -0.345 A  
HETATM   14  C   UNL     1     -12.883   8.812  71.233  1.00  0.00    -0.215 C  
HETATM   15  S   UNL     1     -13.441  10.076  72.409  1.00  0.00     0.063 SA 
HETATM   16  C   UNL     1     -12.975  11.640  71.642  1.00  0.00    -0.378 A  
HETATM   17  C   UNL     1     -13.521  12.754  72.317  1.00  0.00    -0.591 A  
HETATM   18  C   UNL     1     -13.286  14.060  71.891  1.00  0.00    -0.489 A  
HETATM   19  C   UNL     1     -12.492  14.284  70.778  1.00  0.00    -0.428 A  
HETATM   20  C   UNL     1     -11.929  13.199  70.103  1.00  0.00    -0.381 A  
HETATM   21  C   UNL     1     -12.159  11.864  70.509  1.00  0.00    -0.422 A  
ENDBRANCH   5   6
ENDBRANCH   4   5
ENDBRANCH   2   4
TORSDOF 3
ENDMDL
MODEL       34
REMARK 921   NORMALIZED FREE ENERGY PREDICTED BY IDOCK:   -5.21 KCAL/MOL
REMARK 922        TOTAL FREE ENERGY PREDICTED BY IDOCK:   -6.40 KCAL/MOL
REMARK 923 INTER-LIGAND FREE ENERGY PREDICTED BY IDOCK:   -6.05 KCAL/MOL
REMARK 924 INTRA-LIGAND FREE ENERGY PREDICTED BY IDOCK:   -0.35 KCAL/MOL
REMARK 927      BINDING AFFINITY PREDICTED BY RF-SCORE:    0.00 PKD
ROOT
HETATM    1  C   UNL     1      -8.325  19.846  66.936  1.00  0.00    -0.321 C  
HETATM    2  N   UNL     1      -9.769  19.899  67.164  1.00  0.00    -0.366 NA 
HETATM    3  C   UNL     1     -10.478  19.502  65.946  1.00  0.00    -0.491 C  
ENDROOT
BRANCH   2   4
HETATM    4  C   UNL     1     -10.140  19.078  68.337  1.00  0.00    -0.403 C  
BRANCH   4   5
HETATM    5  C   UNL     1     -10.644  17.676  67.945  1.00  0.00    -0.390 C  
BRANCH   5   6
HETATM    6  C   UNL     1      -9.722  16.530  68.306  1.00  0.00    -0.231 C  
HETATM    7  C   UNL     1      -9.658  15.337  67.663  1.00  0.00    -0.206 C  
HETATM    8  C   UNL     1     -10.622  15.082  66.570  1.00  0.00    -0.305 A  
HETATM    9  C   UNL     1     -10.523  15.754  65.343  1.00  0.00    -0.438 A  
HETATM   10  C   UNL     1     -11.478  15.549  64.349  1.00  0.00    -0.264 A  
HETATM   11  C   UNL     1     -12.524  14.654  64.564  1.00  0.00    -0.312 A  
HETATM   12  C   UNL     1     -12.620  13.965  65.775  1.00  0.00    -0.533 A  
HETATM   13  C   UNL     1     -11.675  14.179  66.790  1.00  0.00    -0.432 A  
HETATM   14  C   UNL     1     -11.760  13.442  68.095  1.00  0.00    -0.362 C  
HETATM   15  S   UNL     1     -10.543  12.098  68.184  1.00  0.00    -0.224 SA 
HETATM   16  C   UNL     1      -8.951  12.939  68.276  1.00  0.00    -0.175 A  
HETATM   17  C   UNL     1      -7.890  12.052  68.567  1.00  0.00    -0.129 A  
HETATM   18  C   UNL     1      -6.573  12.494  68.683  1.00  0.00    -0.083 A  
HETATM   19  C   UNL     1      -6.284  13.837  68.505  1.00  0.00    -0.092 A  
HETATM   20  C   UNL     1      -7.314  14.731  68.203  1.00  0.00    -0.122 A  
HETATM   21  C   UNL     1      -8.659  14.310  68.088  1.00  0.00    -0.172 A  
ENDBRANCH   5   6
ENDBRANCH   4   5
ENDBRANCH   2   4
TORSDOF 3
ENDMDL
MODEL       35
REMARK 921   NORMALIZED FREE ENERGY PREDICTED BY IDOCK:   -5.16 KCAL/MOL
REMARK 922        TOTAL FREE ENERGY PREDICTED BY IDOCK:   -6.34 KCAL/MOL
REMARK 923 INTER-LIGAND FREE ENERGY PREDICTED BY IDOCK:   -6.09 KCAL/MOL
REMARK 924 INTRA-LIGAND FREE ENERGY PREDICTED BY IDOCK:   -0.24 KCAL/MOL
REMARK 927      BINDING AFFINITY PREDICTED BY RF-SCORE:    0.00 PKD
ROOT
HETATM    1  C   UNL     1     -10.296  18.022  66.472  1.00  0.00    -0.373 C  
HETATM    2  N   UNL     1      -8.925  18.147  65.976  1.00  0.00    -0.511 NA 
HETATM    3  C   UNL     1      -8.278  19.306  66.595  1.00  0.00    -0.293 C  
ENDROOT
BRANCH   2   4
HETATM    4  C   UNL     1      -8.178  16.889  66.194  1.00  0.00    -0.260 C  
BRANCH   4   5
HETATM    5  C   UNL     1      -9.053  15.637  65.998  1.00  0.00    -0.346 C  
BRANCH   5   6
HETATM    6  C   UNL     1      -8.804  14.510  66.979  1.00  0.00    -0.256 C  
HETATM    7  C   UNL     1      -9.340  13.266  66.903  1.00  0.00    -0.244 C  
HETATM    8  C   UNL     1     -10.319  12.993  65.828  1.00  0.00    -0.296 A  
HETATM    9  C   UNL     1      -9.918  12.907  64.486  1.00  0.00    -0.160 A  
HETATM   10  C   UNL     1     -10.864  12.715  63.480  1.00  0.00    -0.373 A  
HETATM   11  C   UNL     1     -12.211  12.581  63.810  1.00  0.00    -0.615 A  
HETATM   12  C   UNL     1     -12.617  12.644  65.145  1.00  0.00    -0.459 A  
HETATM   13  C   UNL     1     -11.676  12.858  66.163  1.00  0.00    -0.451 A  
HETATM   14  C   UNL     1     -12.094  12.923  67.604  1.00  0.00    -0.183 C  
HETATM   15  S   UNL     1     -11.689  11.390  68.486  1.00  0.00    -0.299 SA 
HETATM   16  C   UNL     1      -9.888  11.381  68.569  1.00  0.00    -0.198 A  
HETATM   17  C   UNL     1      -9.392  10.363  69.413  1.00  0.00    -0.186 A  
HETATM   18  C   UNL     1      -8.026  10.178  69.620  1.00  0.00    -0.181 A  
HETATM   19  C   UNL     1      -7.119  11.008  68.980  1.00  0.00    -0.106 A  
HETATM   20  C   UNL     1      -7.584  12.014  68.130  1.00  0.00    -0.120 A  
HETATM   21  C   UNL     1      -8.965  12.228  67.910  1.00  0.00    -0.186 A  
ENDBRANCH   5   6
ENDBRANCH   4   5
ENDBRANCH   2   4
TORSDOF 3
ENDMDL
MODEL       36
REMARK 921   NORMALIZED FREE ENERGY PREDICTED BY IDOCK:   -5.14 KCAL/MOL
REMARK 922        TOTAL FREE ENERGY PREDICTED BY IDOCK:   -6.31 KCAL/MOL
REMARK 923 INTER-LIGAND FREE ENERGY PREDICTED BY IDOCK:   -6.00 KCAL/MOL
REMARK 924 INTRA-LIGAND FREE ENERGY PREDICTED BY IDOCK:   -0.31 KCAL/MOL
REMARK 927      BINDING AFFINITY PREDICTED BY RF-SCORE:    0.00 PKD
ROOT
HETATM    1  C   UNL     1     -10.755  17.419  66.528  1.00  0.00    -0.086 C  
HETATM    2  N   UNL     1     -10.028  16.540  65.611  1.00  0.00    -0.549 NA 
HETATM    3  C   UNL     1      -8.719  16.207  66.176  1.00  0.00    -0.323 C  
ENDROOT
BRANCH   2   4
HETATM    4  C   UNL     1     -10.836  15.343  65.291  1.00  0.00    -0.409 C  
BRANCH   4   5
HETATM    5  C   UNL     1     -10.388  14.096  66.077  1.00  0.00    -0.316 C  
BRANCH   5   6
HETATM    6  C   UNL     1     -11.191  13.793  67.326  1.00  0.00    -0.329 C  
HETATM    7  C   UNL     1     -10.794  12.988  68.342  1.00  0.00    -0.280 C  
HETATM    8  C   UNL     1      -9.509  12.267  68.200  1.00  0.00    -0.213 A  
HETATM    9  C   UNL     1      -8.285  12.950  68.255  1.00  0.00    -0.153 A  
HETATM   10  C   UNL     1      -7.088  12.265  68.053  1.00  0.00    -0.099 A  
HETATM   11  C   UNL     1      -7.104  10.891  67.820  1.00  0.00    -0.082 A  
HETATM   12  C   UNL     1      -8.317  10.199  67.784  1.00  0.00    -0.114 A  
HETATM   13  C   UNL     1      -9.529  10.883  67.965  1.00  0.00    -0.167 A  
HETATM   14  C   UNL     1     -10.842  10.155  67.935  1.00  0.00    -0.284 C  
HETATM   15  S   UNL     1     -11.512   9.916  69.604  1.00  0.00    -0.042 SA 
HETATM   16  C   UNL     1     -11.962  11.574  70.150  1.00  0.00    -0.369 A  
HETATM   17  C   UNL     1     -12.702  11.564  71.352  1.00  0.00    -0.469 A  
HETATM   18  C   UNL     1     -13.151  12.740  71.951  1.00  0.00    -0.474 A  
HETATM   19  C   UNL     1     -12.865  13.960  71.360  1.00  0.00    -0.439 A  
HETATM   20  C   UNL     1     -12.123  13.997  70.178  1.00  0.00    -0.419 A  
HETATM   21  C   UNL     1     -11.663  12.819  69.546  1.00  0.00    -0.383 A  
ENDBRANCH   5   6
ENDBRANCH   4   5
ENDBRANCH   2   4
TORSDOF 3
ENDMDL
MODEL       37
REMARK 921   NORMALIZED FREE ENERGY PREDICTED BY IDOCK:   -5.10 KCAL/MOL
REMARK 922        TOTAL FREE ENERGY PREDICTED BY IDOCK:   -6.26 KCAL/MOL
REMARK 923 INTER-LIGAND FREE ENERGY PREDICTED BY IDOCK:   -6.01 KCAL/MOL
REMARK 924 INTRA-LIGAND FREE ENERGY PREDICTED BY IDOCK:   -0.25 KCAL/MOL
REMARK 927      BINDING AFFINITY PREDICTED BY RF-SCORE:    0.00 PKD
ROOT
HETATM    1  C   UNL     1     -13.306   9.406  72.002  1.00  0.00    -0.450 C  
HETATM    2  N   UNL     1     -11.967   9.879  71.649  1.00  0.00    -0.388 NA 
HETATM    3  C   UNL     1     -11.182   8.774  71.094  1.00  0.00    -0.277 C  
ENDROOT
BRANCH   2   4
HETATM    4  C   UNL     1     -12.051  11.039  70.735  1.00  0.00    -0.366 C  
BRANCH   4   5
HETATM    5  C   UNL     1     -11.088  10.923  69.538  1.00  0.00    -0.326 C  
BRANCH   5   6
HETATM    6  C   UNL     1     -11.543  11.616  68.270  1.00  0.00    -0.378 C  
HETATM    7  C   UNL     1     -10.810  12.503  67.551  1.00  0.00    -0.264 C  
HETATM    8  C   UNL     1      -9.488  12.906  68.080  1.00  0.00    -0.213 A  
HETATM    9  C   UNL     1      -8.407  12.012  68.087  1.00  0.00    -0.165 A  
HETATM   10  C   UNL     1      -7.188  12.388  68.649  1.00  0.00    -0.104 A  
HETATM   11  C   UNL     1      -7.033  13.665  69.182  1.00  0.00    -0.070 A  
HETATM   12  C   UNL     1      -8.097  14.570  69.161  1.00  0.00    -0.032 A  
HETATM   13  C   UNL     1      -9.335  14.194  68.616  1.00  0.00    -0.152 A  
HETATM   14  C   UNL     1     -10.488  15.155  68.579  1.00  0.00    -0.233 C  
HETATM   15  S   UNL     1     -10.734  15.840  66.917  1.00  0.00    -0.263 SA 
HETATM   16  C   UNL     1     -11.316  14.444  65.937  1.00  0.00    -0.332 A  
HETATM   17  C   UNL     1     -11.767  14.835  64.657  1.00  0.00    -0.426 A  
HETATM   18  C   UNL     1     -12.259  13.911  63.735  1.00  0.00    -0.310 A  
HETATM   19  C   UNL     1     -12.308  12.568  64.073  1.00  0.00    -0.557 A  
HETATM   20  C   UNL     1     -11.856  12.155  65.328  1.00  0.00    -0.356 A  
HETATM   21  C   UNL     1     -11.359  13.073  66.284  1.00  0.00    -0.354 A  
ENDBRANCH   5   6
ENDBRANCH   4   5
ENDBRANCH   2   4
TORSDOF 3
ENDMDL
MODEL       38
REMARK 921   NORMALIZED FREE ENERGY PREDICTED BY IDOCK:   -5.07 KCAL/MOL
REMARK 922        TOTAL FREE ENERGY PREDICTED BY IDOCK:   -6.22 KCAL/MOL
REMARK 923 INTER-LIGAND FREE ENERGY PREDICTED BY IDOCK:   -5.96 KCAL/MOL
REMARK 924 INTRA-LIGAND FREE ENERGY PREDICTED BY IDOCK:   -0.26 KCAL/MOL
REMARK 927      BINDING AFFINITY PREDICTED BY RF-SCORE:    0.00 PKD
ROOT
HETATM    1  C   UNL     1     -13.204  14.907  73.156  1.00  0.00    -0.461 C  
HETATM    2  N   UNL     1     -12.812  14.100  72.000  1.00  0.00    -0.339 NA 
HETATM    3  C   UNL     1     -13.434  12.776  72.085  1.00  0.00    -0.492 C  
ENDROOT
BRANCH   2   4
HETATM    4  C   UNL     1     -13.135  14.805  70.741  1.00  0.00    -0.336 C  
BRANCH   4   5
HETATM    5  C   UNL     1     -11.885  15.104  69.890  1.00  0.00    -0.363 C  
BRANCH   5   6
HETATM    6  C   UNL     1     -11.309  13.918  69.143  1.00  0.00    -0.331 C  
HETATM    7  C   UNL     1     -10.521  13.988  68.042  1.00  0.00    -0.241 C  
HETATM    8  C   UNL     1     -10.261  15.321  67.454  1.00  0.00    -0.243 A  
HETATM    9  C   UNL     1      -9.441  16.254  68.105  1.00  0.00    -0.215 A  
HETATM   10  C   UNL     1      -9.261  17.528  67.568  1.00  0.00    -0.242 A  
HETATM   11  C   UNL     1      -9.877  17.869  66.366  1.00  0.00    -0.339 A  
HETATM   12  C   UNL     1     -10.679  16.939  65.699  1.00  0.00    -0.173 A  
HETATM   13  C   UNL     1     -10.883  15.661  66.242  1.00  0.00    -0.262 A  
HETATM   14  C   UNL     1     -11.737  14.648  65.536  1.00  0.00    -0.316 C  
HETATM   15  S   UNL     1     -10.729  13.389  64.704  1.00  0.00    -0.426 SA 
HETATM   16  C   UNL     1      -9.984  12.449  66.049  1.00  0.00    -0.255 A  
HETATM   17  C   UNL     1      -9.328  11.284  65.594  1.00  0.00    -0.245 A  
HETATM   18  C   UNL     1      -8.683  10.411  66.470  1.00  0.00    -0.143 A  
HETATM   19  C   UNL     1      -8.674  10.688  67.827  1.00  0.00    -0.129 A  
HETATM   20  C   UNL     1      -9.304  11.841  68.300  1.00  0.00    -0.193 A  
HETATM   21  C   UNL     1      -9.972  12.738  67.434  1.00  0.00    -0.212 A  
ENDBRANCH   5   6
ENDBRANCH   4   5
ENDBRANCH   2   4
TORSDOF 3
ENDMDL
MODEL       39
REMARK 921   NORMALIZED FREE ENERGY PREDICTED BY IDOCK:   -5.06 KCAL/MOL
REMARK 922        TOTAL FREE ENERGY PREDICTED BY IDOCK:   -6.22 KCAL/MOL
REMARK 923 INTER-LIGAND FREE ENERGY PREDICTED BY IDOCK:   -5.97 KCAL/MOL
REMARK 924 INTRA-LIGAND FREE ENERGY PREDICTED BY IDOCK:   -0.24 KCAL/MOL
REMARK 927      BINDING AFFINITY PREDICTED BY RF-SCORE:    0.00 PKD
ROOT
HETATM    1  C   UNL     1     -14.386  15.339  72.011  1.00  0.00    -0.589 C  
HETATM    2  N   UNL     1     -13.000  15.729  71.753  1.00  0.00    -0.459 NA 
HETATM    3  C   UNL     1     -12.339  16.073  73.013  1.00  0.00    -0.520 C  
ENDROOT
BRANCH   2   4
HETATM    4  C   UNL     1     -12.292  14.667  71.005  1.00  0.00    -0.333 C  
BRANCH   4   5
HETATM    5  C   UNL     1     -11.829  15.130  69.610  1.00  0.00    -0.362 C  
BRANCH   5   6
HETATM    6  C   UNL     1     -10.330  15.152  69.398  1.00  0.00    -0.259 C  
HETATM    7  C   UNL     1      -9.674  14.604  68.344  1.00  0.00    -0.217 C  
HETATM    8  C   UNL     1     -10.464  13.842  67.352  1.00  0.00    -0.256 A  
HETATM    9  C   UNL     1     -11.345  14.490  66.474  1.00  0.00    -0.354 A  
HETATM   10  C   UNL     1     -12.130  13.749  65.591  1.00  0.00    -0.444 A  
HETATM   11  C   UNL     1     -12.020  12.360  65.562  1.00  0.00    -0.453 A  
HETATM   12  C   UNL     1     -11.131  11.708  66.418  1.00  0.00    -0.347 A  
HETATM   13  C   UNL     1     -10.352  12.442  67.325  1.00  0.00    -0.227 A  
HETATM   14  C   UNL     1      -9.386  11.758  68.249  1.00  0.00    -0.193 C  
HETATM   15  S   UNL     1      -7.673  11.940  67.679  1.00  0.00    -0.152 SA 
HETATM   16  C   UNL     1      -7.307  13.691  67.908  1.00  0.00    -0.148 A  
HETATM   17  C   UNL     1      -5.939  13.985  67.716  1.00  0.00    -0.115 A  
HETATM   18  C   UNL     1      -5.439  15.280  67.845  1.00  0.00    -0.132 A  
HETATM   19  C   UNL     1      -6.301  16.317  68.164  1.00  0.00    -0.130 A  
HETATM   20  C   UNL     1      -7.660  16.053  68.345  1.00  0.00    -0.145 A  
HETATM   21  C   UNL     1      -8.192  14.748  68.229  1.00  0.00    -0.142 A  
ENDBRANCH   5   6
ENDBRANCH   4   5
ENDBRANCH   2   4
TORSDOF 3
ENDMDL
MODEL       40
REMARK 921   NORMALIZED FREE ENERGY PREDICTED BY IDOCK:   -5.03 KCAL/MOL
REMARK 922        TOTAL FREE ENERGY PREDICTED BY IDOCK:   -6.18 KCAL/MOL
REMARK 923 INTER-LIGAND FREE ENERGY PREDICTED BY IDOCK:   -6.05 KCAL/MOL
REMARK 924 INTRA-LIGAND FREE ENERGY PREDICTED BY IDOCK:   -0.13 KCAL/MOL
REMARK 927      BINDING AFFINITY PREDICTED BY RF-SCORE:    0.00 PKD
ROOT
HETATM    1  C   UNL     1     -12.750  15.681  72.254  1.00  0.00    -0.430 C  
HETATM    2  N   UNL     1     -12.600  14.254  71.968  1.00  0.00    -0.323 NA 
HETATM    3  C   UNL     1     -13.794  13.531  72.411  1.00  0.00    -0.586 C  
ENDROOT
BRANCH   2   4
HETATM    4  C   UNL     1     -12.300  14.041  70.535  1.00  0.00    -0.367 C  
BRANCH   4   5
HETATM    5  C   UNL     1     -12.296  15.353  69.727  1.00  0.00    -0.288 C  
BRANCH   5   6
HETATM    6  C   UNL     1     -10.926  15.906  69.393  1.00  0.00    -0.309 C  
HETATM    7  C   UNL     1     -10.161  15.532  68.337  1.00  0.00    -0.214 C  
HETATM    8  C   UNL     1     -10.650  14.432  67.477  1.00  0.00    -0.265 A  
HETATM    9  C   UNL     1     -11.748  14.611  66.624  1.00  0.00    -0.345 A  
HETATM   10  C   UNL     1     -12.235  13.545  65.870  1.00  0.00    -0.507 A  
HETATM   11  C   UNL     1     -11.613  12.300  65.944  1.00  0.00    -0.450 A  
HETATM   12  C   UNL     1     -10.506  12.117  66.776  1.00  0.00    -0.245 A  
HETATM   13  C   UNL     1     -10.021  13.179  67.554  1.00  0.00    -0.223 A  
HETATM   14  C   UNL     1      -8.828  13.001  68.449  1.00  0.00    -0.123 C  
HETATM   15  S   UNL     1      -7.337  13.743  67.730  1.00  0.00    -0.179 SA 
HETATM   16  C   UNL     1      -7.646  15.519  67.786  1.00  0.00    -0.145 A  
HETATM   17  C   UNL     1      -6.499  16.276  67.461  1.00  0.00    -0.195 A  
HETATM   18  C   UNL     1      -6.518  17.670  67.444  1.00  0.00    -0.177 A  
HETATM   19  C   UNL     1      -7.691  18.342  67.747  1.00  0.00    -0.239 A  
HETATM   20  C   UNL     1      -8.842  17.615  68.058  1.00  0.00    -0.257 A  
HETATM   21  C   UNL     1      -8.848  16.201  68.091  1.00  0.00    -0.184 A  
ENDBRANCH   5   6
ENDBRANCH   4   5
ENDBRANCH   2   4
TORSDOF 3
ENDMDL
MODEL       41
REMARK 921   NORMALIZED FREE ENERGY PREDICTED BY IDOCK:   -5.00 KCAL/MOL
REMARK 922        TOTAL FREE ENERGY PREDICTED BY IDOCK:   -6.15 KCAL/MOL
REMARK 923 INTER-LIGAND FREE ENERGY PREDICTED BY IDOCK:   -6.03 KCAL/MOL
REMARK 924 INTRA-LIGAND FREE ENERGY PREDICTED BY IDOCK:   -0.12 KCAL/MOL
REMARK 927      BINDING AFFINITY PREDICTED BY RF-SCORE:    0.00 PKD
ROOT
HETATM    1  C   UNL     1     -10.099   7.298  69.090  1.00  0.00    -0.183 C  
HETATM    2  N   UNL     1     -11.158   8.080  69.727  1.00  0.00    -0.135 NA 
HETATM    3  C   UNL     1     -11.727   7.325  70.846  1.00  0.00    -0.315 C  
ENDROOT
BRANCH   2   4
HETATM    4  C   UNL     1     -10.650   9.409  70.132  1.00  0.00    -0.240 C  
BRANCH   4   5
HETATM    5  C   UNL     1     -11.094  10.532  69.174  1.00  0.00    -0.302 C  
BRANCH   5   6
HETATM    6  C   UNL     1     -10.773  10.303  67.712  1.00  0.00    -0.324 C  
HETATM    7  C   UNL     1     -10.447  11.268  66.816  1.00  0.00    -0.291 C  
HETATM    8  C   UNL     1     -10.488  12.677  67.265  1.00  0.00    -0.237 A  
HETATM    9  C   UNL     1      -9.534  13.181  68.161  1.00  0.00    -0.222 A  
HETATM   10  C   UNL     1      -9.626  14.493  68.623  1.00  0.00    -0.219 A  
HETATM   11  C   UNL     1     -10.656  15.317  68.173  1.00  0.00    -0.254 A  
HETATM   12  C   UNL     1     -11.598  14.831  67.264  1.00  0.00    -0.385 A  
HETATM   13  C   UNL     1     -11.526  13.506  66.809  1.00  0.00    -0.374 A  
HETATM   14  C   UNL     1     -12.527  12.968  65.828  1.00  0.00    -0.329 C  
HETATM   15  S   UNL     1     -11.833  12.862  64.154  1.00  0.00    -0.450 SA 
HETATM   16  C   UNL     1     -10.600  11.550  64.262  1.00  0.00    -0.347 A  
HETATM   17  C   UNL     1     -10.100  11.177  62.995  1.00  0.00    -0.311 A  
HETATM   18  C   UNL     1      -9.136  10.180  62.849  1.00  0.00    -0.299 A  
HETATM   19  C   UNL     1      -8.645   9.534  63.972  1.00  0.00    -0.222 A  
HETATM   20  C   UNL     1      -9.115   9.895  65.236  1.00  0.00    -0.256 A  
HETATM   21  C   UNL     1     -10.097  10.897  65.412  1.00  0.00    -0.336 A  
ENDBRANCH   5   6
ENDBRANCH   4   5
ENDBRANCH   2   4
TORSDOF 3
ENDMDL
MODEL       42
REMARK 921   NORMALIZED FREE ENERGY PREDICTED BY IDOCK:   -5.00 KCAL/MOL
REMARK 922        TOTAL FREE ENERGY PREDICTED BY IDOCK:   -6.14 KCAL/MOL
REMARK 923 INTER-LIGAND FREE ENERGY PREDICTED BY IDOCK:   -5.73 KCAL/MOL
REMARK 924 INTRA-LIGAND FREE ENERGY PREDICTED BY IDOCK:   -0.41 KCAL/MOL
REMARK 927      BINDING AFFINITY PREDICTED BY RF-SCORE:    0.00 PKD
ROOT
HETATM    1  C   UNL     1      -7.219  20.064  65.413  1.00  0.00    -0.230 C  
HETATM    2  N   UNL     1      -7.517  19.767  66.815  1.00  0.00    -0.240 NA 
HETATM    3  C   UNL     1      -6.813  20.713  67.682  1.00  0.00    -0.332 C  
ENDROOT
BRANCH   2   4
HETATM    4  C   UNL     1      -8.978  19.757  67.044  1.00  0.00    -0.329 C  
BRANCH   4   5
HETATM    5  C   UNL     1      -9.347  19.474  68.513  1.00  0.00    -0.435 C  
BRANCH   5   6
HETATM    6  C   UNL     1     -10.129  18.199  68.752  1.00  0.00    -0.392 C  
HETATM    7  C   UNL     1      -9.609  16.946  68.764  1.00  0.00    -0.268 C  
HETATM    8  C   UNL     1      -8.176  16.783  68.433  1.00  0.00    -0.224 A  
HETATM    9  C   UNL     1      -7.174  17.212  69.315  1.00  0.00    -0.135 A  
HETATM   10  C   UNL     1      -5.831  17.110  68.958  1.00  0.00    -0.165 A  
HETATM   11  C   UNL     1      -5.479  16.556  67.729  1.00  0.00    -0.147 A  
HETATM   12  C   UNL     1      -6.469  16.106  66.852  1.00  0.00    -0.006 A  
HETATM   13  C   UNL     1      -7.825  16.223  67.194  1.00  0.00    -0.225 A  
HETATM   14  C   UNL     1      -8.903  15.740  66.266  1.00  0.00    -0.343 C  
HETATM   15  S   UNL     1      -9.601  14.159  66.820  1.00  0.00    -0.291 SA 
HETATM   16  C   UNL     1     -10.497  14.569  68.330  1.00  0.00    -0.246 A  
HETATM   17  C   UNL     1     -11.290  13.496  68.794  1.00  0.00    -0.329 A  
HETATM   18  C   UNL     1     -12.065  13.598  69.948  1.00  0.00    -0.406 A  
HETATM   19  C   UNL     1     -12.061  14.780  70.672  1.00  0.00    -0.374 A  
HETATM   20  C   UNL     1     -11.275  15.850  70.241  1.00  0.00    -0.388 A  
HETATM   21  C   UNL     1     -10.486  15.775  69.069  1.00  0.00    -0.225 A  
ENDBRANCH   5   6
ENDBRANCH   4   5
ENDBRANCH   2   4
TORSDOF 3
ENDMDL
MODEL       43
REMARK 921   NORMALIZED FREE ENERGY PREDICTED BY IDOCK:   -4.95 KCAL/MOL
REMARK 922        TOTAL FREE ENERGY PREDICTED BY IDOCK:   -6.08 KCAL/MOL
REMARK 923 INTER-LIGAND FREE ENERGY PREDICTED BY IDOCK:   -5.86 KCAL/MOL
REMARK 924 INTRA-LIGAND FREE ENERGY PREDICTED BY IDOCK:   -0.22 KCAL/MOL
REMARK 927      BINDING AFFINITY PREDICTED BY RF-SCORE:    0.00 PKD
ROOT
HETATM    1  C   UNL     1     -13.898   8.992  72.095  1.00  0.00    -0.466 C  
HETATM    2  N   UNL     1     -12.602   9.640  71.892  1.00  0.00    -0.393 NA 
HETATM    3  C   UNL     1     -11.600   8.639  71.518  1.00  0.00    -0.302 C  
ENDROOT
BRANCH   2   4
HETATM    4  C   UNL     1     -12.718  10.733  70.901  1.00  0.00    -0.384 C  
BRANCH   4   5
HETATM    5  C   UNL     1     -11.555  10.744  69.891  1.00  0.00    -0.410 C  
BRANCH   5   6
HETATM    6  C   UNL     1     -11.753  11.636  68.683  1.00  0.00    -0.386 C  
HETATM    7  C   UNL     1     -10.795  11.967  67.781  1.00  0.00    -0.256 C  
HETATM    8  C   UNL     1      -9.413  11.498  68.029  1.00  0.00    -0.181 A  
HETATM    9  C   UNL     1      -9.072  10.144  67.901  1.00  0.00    -0.133 A  
HETATM   10  C   UNL     1      -7.782   9.711  68.202  1.00  0.00    -0.086 A  
HETATM   11  C   UNL     1      -6.818  10.632  68.608  1.00  0.00    -0.059 A  
HETATM   12  C   UNL     1      -7.142  11.986  68.719  1.00  0.00    -0.111 A  
HETATM   13  C   UNL     1      -8.444  12.428  68.438  1.00  0.00    -0.131 A  
HETATM   14  C   UNL     1      -8.808  13.881  68.546  1.00  0.00    -0.137 C  
HETATM   15  S   UNL     1      -8.921  14.665  66.913  1.00  0.00    -0.250 SA 
HETATM   16  C   UNL     1     -10.377  13.919  66.156  1.00  0.00    -0.301 A  
HETATM   17  C   UNL     1     -10.750  14.564  64.956  1.00  0.00    -0.444 A  
HETATM   18  C   UNL     1     -11.850  14.147  64.207  1.00  0.00    -0.420 A  
HETATM   19  C   UNL     1     -12.603  13.068  64.641  1.00  0.00    -0.425 A  
HETATM   20  C   UNL     1     -12.246  12.406  65.817  1.00  0.00    -0.277 A  
HETATM   21  C   UNL     1     -11.140  12.813  66.599  1.00  0.00    -0.313 A  
ENDBRANCH   5   6
ENDBRANCH   4   5
ENDBRANCH   2   4
TORSDOF 3
ENDMDL
MODEL       44
REMARK 921   NORMALIZED FREE ENERGY PREDICTED BY IDOCK:   -4.94 KCAL/MOL
REMARK 922        TOTAL FREE ENERGY PREDICTED BY IDOCK:   -6.07 KCAL/MOL
REMARK 923 INTER-LIGAND FREE ENERGY PREDICTED BY IDOCK:   -5.85 KCAL/MOL
REMARK 924 INTRA-LIGAND FREE ENERGY PREDICTED BY IDOCK:   -0.22 KCAL/MOL
REMARK 927      BINDING AFFINITY PREDICTED BY RF-SCORE:    0.00 PKD
ROOT
HETATM    1  C   UNL     1     -12.296  12.118  63.571  1.00  0.00    -0.574 C  
HETATM    2  N   UNL     1     -11.513  12.819  64.590  1.00  0.00    -0.310 NA 
HETATM    3  C   UNL     1     -11.759  14.260  64.499  1.00  0.00    -0.418 C  
ENDROOT
BRANCH   2   4
HETATM    4  C   UNL     1     -11.801  12.272  65.933  1.00  0.00    -0.354 C  
BRANCH   4   5
HETATM    5  C   UNL     1     -10.728  11.275  66.411  1.00  0.00    -0.320 C  
BRANCH   5   6
HETATM    6  C   UNL     1     -11.050  10.542  67.697  1.00  0.00    -0.375 C  
HETATM    7  C   UNL     1     -10.389   9.456  68.173  1.00  0.00    -0.255 C  
HETATM    8  C   UNL     1      -9.316   8.873  67.337  1.00  0.00    -0.165 A  
HETATM    9  C   UNL     1      -8.097   9.541  67.152  1.00  0.00    -0.106 A  
HETATM   10  C   UNL     1      -7.123   9.007  66.309  1.00  0.00    -0.086 A  
HETATM   11  C   UNL     1      -7.351   7.792  65.667  1.00  0.00    -0.073 A  
HETATM   12  C   UNL     1      -8.554   7.109  65.861  1.00  0.00    -0.157 A  
HETATM   13  C   UNL     1      -9.548   7.648  66.691  1.00  0.00    -0.271 A  
HETATM   14  C   UNL     1     -10.845   6.925  66.917  1.00  0.00    -0.310 C  
HETATM   15  S   UNL     1     -10.886   6.115  68.540  1.00  0.00    -0.307 SA 
HETATM   16  C   UNL     1     -10.951   7.477  69.720  1.00  0.00    -0.184 A  
HETATM   17  C   UNL     1     -11.204   7.036  71.038  1.00  0.00    -0.309 A  
HETATM   18  C   UNL     1     -11.295   7.927  72.107  1.00  0.00    -0.367 A  
HETATM   19  C   UNL     1     -11.129   9.284  71.883  1.00  0.00    -0.308 A  
HETATM   20  C   UNL     1     -10.865   9.743  70.591  1.00  0.00    -0.396 A  
HETATM   21  C   UNL     1     -10.776   8.862  69.487  1.00  0.00    -0.206 A  
ENDBRANCH   5   6
ENDBRANCH   4   5
ENDBRANCH   2   4
TORSDOF 3
ENDMDL
MODEL       45
REMARK 921   NORMALIZED FREE ENERGY PREDICTED BY IDOCK:   -4.93 KCAL/MOL
REMARK 922        TOTAL FREE ENERGY PREDICTED BY IDOCK:   -6.06 KCAL/MOL
REMARK 923 INTER-LIGAND FREE ENERGY PREDICTED BY IDOCK:   -5.75 KCAL/MOL
REMARK 924 INTRA-LIGAND FREE ENERGY PREDICTED BY IDOCK:   -0.31 KCAL/MOL
REMARK 927      BINDING AFFINITY PREDICTED BY RF-SCORE:    0.00 PKD
ROOT
HETATM    1  C   UNL     1     -10.535  12.428  64.048  1.00  0.00    -0.416 C  
HETATM    2  N   UNL     1     -10.470  10.971  63.936  1.00  0.00    -0.371 NA 
HETATM    3  C   UNL     1      -9.511  10.596  62.895  1.00  0.00    -0.343 C  
ENDROOT
BRANCH   2   4
HETATM    4  C   UNL     1     -10.158  10.363  65.249  1.00  0.00    -0.300 C  
BRANCH   4   5
HETATM    5  C   UNL     1     -10.141  11.395  66.392  1.00  0.00    -0.255 C  
BRANCH   5   6
HETATM    6  C   UNL     1     -10.966  11.029  67.609  1.00  0.00    -0.332 C  
HETATM    7  C   UNL     1     -10.493  10.427  68.729  1.00  0.00    -0.219 C  
HETATM    8  C   UNL     1      -9.075  10.006  68.749  1.00  0.00    -0.148 A  
HETATM    9  C   UNL     1      -8.039  10.949  68.814  1.00  0.00    -0.145 A  
HETATM   10  C   UNL     1      -6.708  10.538  68.765  1.00  0.00    -0.054 A  
HETATM   11  C   UNL     1      -6.404   9.181  68.677  1.00  0.00    -0.049 A  
HETATM   12  C   UNL     1      -7.428   8.232  68.633  1.00  0.00    -0.097 A  
HETATM   13  C   UNL     1      -8.771   8.638  68.661  1.00  0.00    -0.138 A  
HETATM   14  C   UNL     1      -9.885   7.632  68.620  1.00  0.00    -0.171 C  
HETATM   15  S   UNL     1     -10.632   7.395  70.257  1.00  0.00    -0.235 SA 
HETATM   16  C   UNL     1     -11.480   8.951  70.594  1.00  0.00    -0.242 A  
HETATM   17  C   UNL     1     -12.302   8.879  71.739  1.00  0.00    -0.424 A  
HETATM   18  C   UNL     1     -13.049   9.971  72.179  1.00  0.00    -0.482 A  
HETATM   19  C   UNL     1     -12.985  11.168  71.484  1.00  0.00    -0.542 A  
HETATM   20  C   UNL     1     -12.168  11.268  70.356  1.00  0.00    -0.453 A  
HETATM   21  C   UNL     1     -11.407  10.173  69.884  1.00  0.00    -0.335 A  
ENDBRANCH   5   6
ENDBRANCH   4   5
ENDBRANCH   2   4
TORSDOF 3
ENDMDL
MODEL       46
REMARK 921   NORMALIZED FREE ENERGY PREDICTED BY IDOCK:   -4.93 KCAL/MOL
REMARK 922        TOTAL FREE ENERGY PREDICTED BY IDOCK:   -6.06 KCAL/MOL
REMARK 923 INTER-LIGAND FREE ENERGY PREDICTED BY IDOCK:   -5.81 KCAL/MOL
REMARK 924 INTRA-LIGAND FREE ENERGY PREDICTED BY IDOCK:   -0.25 KCAL/MOL
REMARK 927      BINDING AFFINITY PREDICTED BY RF-SCORE:    0.00 PKD
ROOT
HETATM    1  C   UNL     1     -12.585  13.476  64.956  1.00  0.00    -0.391 C  
HETATM    2  N   UNL     1     -12.225  13.320  66.365  1.00  0.00    -0.387 NA 
HETATM    3  C   UNL     1     -11.299  12.196  66.519  1.00  0.00    -0.350 C  
ENDROOT
BRANCH   2   4
HETATM    4  C   UNL     1     -11.684  14.586  66.906  1.00  0.00    -0.382 C  
BRANCH   4   5
HETATM    5  C   UNL     1     -10.403  15.042  66.183  1.00  0.00    -0.310 C  
BRANCH   5   6
HETATM    6  C   UNL     1      -9.140  15.012  67.019  1.00  0.00    -0.249 C  
HETATM    7  C   UNL     1      -8.547  16.091  67.590  1.00  0.00    -0.175 C  
HETATM    8  C   UNL     1      -9.118  17.428  67.314  1.00  0.00    -0.239 A  
HETATM    9  C   UNL     1     -10.353  17.815  67.853  1.00  0.00    -0.388 A  
HETATM   10  C   UNL     1     -10.905  19.053  67.529  1.00  0.00    -0.478 A  
HETATM   11  C   UNL     1     -10.216  19.922  66.685  1.00  0.00    -0.609 A  
HETATM   12  C   UNL     1      -8.975  19.553  66.159  1.00  0.00    -0.342 A  
HETATM   13  C   UNL     1      -8.421  18.301  66.463  1.00  0.00    -0.287 A  
HETATM   14  C   UNL     1      -7.085  17.891  65.911  1.00  0.00    -0.262 C  
HETATM   15  S   UNL     1      -5.778  18.014  67.164  1.00  0.00    -0.137 SA 
HETATM   16  C   UNL     1      -6.165  16.710  68.347  1.00  0.00    -0.133 A  
HETATM   17  C   UNL     1      -5.131  16.512  69.288  1.00  0.00    -0.124 A  
HETATM   18  C   UNL     1      -5.225  15.551  70.294  1.00  0.00    -0.129 A  
HETATM   19  C   UNL     1      -6.362  14.765  70.385  1.00  0.00    -0.135 A  
HETATM   20  C   UNL     1      -7.404  14.951  69.475  1.00  0.00    -0.178 A  
HETATM   21  C   UNL     1      -7.331  15.913  68.440  1.00  0.00    -0.125 A  
ENDBRANCH   5   6
ENDBRANCH   4   5
ENDBRANCH   2   4
TORSDOF 3
ENDMDL
MODEL       47
REMARK 921   NORMALIZED FREE ENERGY PREDICTED BY IDOCK:   -4.91 KCAL/MOL
REMARK 922        TOTAL FREE ENERGY PREDICTED BY IDOCK:   -6.03 KCAL/MOL
REMARK 923 INTER-LIGAND FREE ENERGY PREDICTED BY IDOCK:   -5.76 KCAL/MOL
REMARK 924 INTRA-LIGAND FREE ENERGY PREDICTED BY IDOCK:   -0.27 KCAL/MOL
REMARK 927      BINDING AFFINITY PREDICTED BY RF-SCORE:    0.00 PKD
ROOT
HETATM    1  C   UNL     1     -11.393  15.412  67.868  1.00  0.00    -0.325 C  
HETATM    2  N   UNL     1     -12.021  14.095  67.754  1.00  0.00    -0.372 NA 
HETATM    3  C   UNL     1     -12.220  13.761  66.342  1.00  0.00    -0.436 C  
ENDROOT
BRANCH   2   4
HETATM    4  C   UNL     1     -11.227  13.077  68.477  1.00  0.00    -0.274 C  
BRANCH   4   5
HETATM    5  C   UNL     1     -11.399  11.663  67.892  1.00  0.00    -0.369 C  
BRANCH   5   6
HETATM    6  C   UNL     1     -11.585  10.557  68.910  1.00  0.00    -0.266 C  
HETATM    7  C   UNL     1     -10.756   9.497  69.083  1.00  0.00    -0.228 C  
HETATM    8  C   UNL     1      -9.615   9.345  68.152  1.00  0.00    -0.158 A  
HETATM    9  C   UNL     1      -8.518  10.217  68.200  1.00  0.00    -0.123 A  
HETATM   10  C   UNL     1      -7.484  10.099  67.273  1.00  0.00    -0.091 A  
HETATM   11  C   UNL     1      -7.527   9.094  66.309  1.00  0.00    -0.092 A  
HETATM   12  C   UNL     1      -8.605   8.207  66.266  1.00  0.00    -0.157 A  
HETATM   13  C   UNL     1      -9.661   8.331  67.182  1.00  0.00    -0.255 A  
HETATM   14  C   UNL     1     -10.826   7.383  67.154  1.00  0.00    -0.270 C  
HETATM   15  S   UNL     1     -10.718   6.153  68.484  1.00  0.00    -0.314 SA 
HETATM   16  C   UNL     1     -10.981   7.100  69.995  1.00  0.00    -0.262 A  
HETATM   17  C   UNL     1     -11.144   6.273  71.128  1.00  0.00    -0.356 A  
HETATM   18  C   UNL     1     -11.359   6.801  72.401  1.00  0.00    -0.306 A  
HETATM   19  C   UNL     1     -11.411   8.175  72.571  1.00  0.00    -0.470 A  
HETATM   20  C   UNL     1     -11.239   9.014  71.468  1.00  0.00    -0.418 A  
HETATM   21  C   UNL     1     -11.028   8.504  70.166  1.00  0.00    -0.221 A  
ENDBRANCH   5   6
ENDBRANCH   4   5
ENDBRANCH   2   4
TORSDOF 3
ENDMDL
MODEL       48
REMARK 921   NORMALIZED FREE ENERGY PREDICTED BY IDOCK:   -4.90 KCAL/MOL
REMARK 922        TOTAL FREE ENERGY PREDICTED BY IDOCK:   -6.03 KCAL/MOL
REMARK 923 INTER-LIGAND FREE ENERGY PREDICTED BY IDOCK:   -5.68 KCAL/MOL
REMARK 924 INTRA-LIGAND FREE ENERGY PREDICTED BY IDOCK:   -0.35 KCAL/MOL
REMARK 927      BINDING AFFINITY PREDICTED BY RF-SCORE:    0.00 PKD
ROOT
HETATM    1  C   UNL     1     -11.741  12.529  63.491  1.00  0.00    -0.518 C  
HETATM    2  N   UNL     1     -11.576  13.352  64.690  1.00  0.00    -0.340 NA 
HETATM    3  C   UNL     1     -11.873  14.752  64.375  1.00  0.00    -0.380 C  
ENDROOT
BRANCH   2   4
HETATM    4  C   UNL     1     -12.401  12.826  65.798  1.00  0.00    -0.323 C  
BRANCH   4   5
HETATM    5  C   UNL     1     -11.556  12.357  66.998  1.00  0.00    -0.434 C  
BRANCH   5   6
HETATM    6  C   UNL     1     -10.283  13.141  67.242  1.00  0.00    -0.243 C  
HETATM    7  C   UNL     1     -10.041  13.939  68.312  1.00  0.00    -0.241 C  
HETATM    8  C   UNL     1     -11.132  14.141  69.292  1.00  0.00    -0.286 A  
HETATM    9  C   UNL     1     -11.540  13.107  70.148  1.00  0.00    -0.147 A  
HETATM   10  C   UNL     1     -12.612  13.295  71.018  1.00  0.00    -0.408 A  
HETATM   11  C   UNL     1     -13.268  14.524  71.057  1.00  0.00    -0.414 A  
HETATM   12  C   UNL     1     -12.856  15.567  70.223  1.00  0.00    -0.239 A  
HETATM   13  C   UNL     1     -11.791  15.380  69.329  1.00  0.00    -0.365 A  
HETATM   14  C   UNL     1     -11.331  16.492  68.429  1.00  0.00    -0.209 C  
HETATM   15  S   UNL     1      -9.798  17.250  69.034  1.00  0.00    -0.191 SA 
HETATM   16  C   UNL     1      -8.544  15.975  68.804  1.00  0.00    -0.223 A  
HETATM   17  C   UNL     1      -7.236  16.460  69.023  1.00  0.00    -0.215 A  
HETATM   18  C   UNL     1      -6.116  15.639  68.898  1.00  0.00    -0.108 A  
HETATM   19  C   UNL     1      -6.280  14.307  68.555  1.00  0.00    -0.090 A  
HETATM   20  C   UNL     1      -7.564  13.800  68.346  1.00  0.00    -0.135 A  
HETATM   21  C   UNL     1      -8.717  14.613  68.458  1.00  0.00    -0.176 A  
ENDBRANCH   5   6
ENDBRANCH   4   5
ENDBRANCH   2   4
TORSDOF 3
ENDMDL
MODEL       49
REMARK 921   NORMALIZED FREE ENERGY PREDICTED BY IDOCK:   -4.90 KCAL/MOL
REMARK 922        TOTAL FREE ENERGY PREDICTED BY IDOCK:   -6.02 KCAL/MOL
REMARK 923 INTER-LIGAND FREE ENERGY PREDICTED BY IDOCK:   -5.70 KCAL/MOL
REMARK 924 INTRA-LIGAND FREE ENERGY PREDICTED BY IDOCK:   -0.32 KCAL/MOL
REMARK 927      BINDING AFFINITY PREDICTED BY RF-SCORE:    0.00 PKD
ROOT
HETATM    1  C   UNL     1     -12.149  16.042  72.020  1.00  0.00    -0.525 C  
HETATM    2  N   UNL     1     -12.338  14.657  71.586  1.00  0.00    -0.338 NA 
HETATM    3  C   UNL     1     -13.392  14.027  72.383  1.00  0.00    -0.518 C  
ENDROOT
BRANCH   2   4
HETATM    4  C   UNL     1     -12.606  14.601  70.133  1.00  0.00    -0.283 C  
BRANCH   4   5
HETATM    5  C   UNL     1     -11.498  15.269  69.297  1.00  0.00    -0.334 C  
BRANCH   5   6
HETATM    6  C   UNL     1     -10.220  14.468  69.155  1.00  0.00    -0.172 C  
HETATM    7  C   UNL     1      -9.799  13.850  68.022  1.00  0.00    -0.234 C  
HETATM    8  C   UNL     1     -10.690  13.877  66.841  1.00  0.00    -0.284 A  
HETATM    9  C   UNL     1     -10.904  15.062  66.121  1.00  0.00    -0.329 A  
HETATM   10  C   UNL     1     -11.798  15.083  65.051  1.00  0.00    -0.244 A  
HETATM   11  C   UNL     1     -12.462  13.917  64.678  1.00  0.00    -0.361 A  
HETATM   12  C   UNL     1     -12.240  12.727  65.376  1.00  0.00    -0.532 A  
HETATM   13  C   UNL     1     -11.358  12.700  66.467  1.00  0.00    -0.377 A  
HETATM   14  C   UNL     1     -11.102  11.429  67.225  1.00  0.00    -0.303 C  
HETATM   15  S   UNL     1      -9.500  10.700  66.785  1.00  0.00    -0.165 SA 
HETATM   16  C   UNL     1      -8.283  11.847  67.460  1.00  0.00    -0.155 A  
HETATM   17  C   UNL     1      -6.969  11.334  67.401  1.00  0.00    -0.101 A  
HETATM   18  C   UNL     1      -5.874  12.059  67.870  1.00  0.00    -0.063 A  
HETATM   19  C   UNL     1      -6.069  13.321  68.407  1.00  0.00    -0.086 A  
HETATM   20  C   UNL     1      -7.358  13.855  68.464  1.00  0.00    -0.116 A  
HETATM   21  C   UNL     1      -8.486  13.138  68.003  1.00  0.00    -0.181 A  
ENDBRANCH   5   6
ENDBRANCH   4   5
ENDBRANCH   2   4
TORSDOF 3
ENDMDL
MODEL       50
REMARK 921   NORMALIZED FREE ENERGY PREDICTED BY IDOCK:   -4.84 KCAL/MOL
REMARK 922        TOTAL FREE ENERGY PREDICTED BY IDOCK:   -5.95 KCAL/MOL
REMARK 923 INTER-LIGAND FREE ENERGY PREDICTED BY IDOCK:   -5.44 KCAL/MOL
REMARK 924 INTRA-LIGAND FREE ENERGY PREDICTED BY IDOCK:   -0.52 KCAL/MOL
REMARK 927      BINDING AFFINITY PREDICTED BY RF-SCORE:    0.00 PKD
ROOT
HETATM    1  C   UNL     1      -7.176  10.829  66.022  1.00  0.00    -0.105 C  
HETATM    2  N   UNL     1      -7.754  11.717  67.031  1.00  0.00    -0.161 NA 
HETATM    3  C   UNL     1      -8.288  10.925  68.141  1.00  0.00    -0.123 C  
ENDROOT
BRANCH   2   4
HETATM    4  C   UNL     1      -6.759  12.720  67.470  1.00  0.00    -0.154 C  
BRANCH   4   5
HETATM    5  C   UNL     1      -7.287  13.626  68.598  1.00  0.00    -0.113 C  
BRANCH   5   6
HETATM    6  C   UNL     1      -7.763  14.997  68.162  1.00  0.00    -0.115 C  
HETATM    7  C   UNL     1      -9.038  15.320  67.832  1.00  0.00    -0.175 C  
HETATM    8  C   UNL     1     -10.047  14.237  67.805  1.00  0.00    -0.231 A  
HETATM    9  C   UNL     1     -10.501  13.639  68.989  1.00  0.00    -0.099 A  
HETATM   10  C   UNL     1     -11.402  12.576  68.941  1.00  0.00    -0.346 A  
HETATM   11  C   UNL     1     -11.875  12.122  67.711  1.00  0.00    -0.327 A  
HETATM   12  C   UNL     1     -11.444  12.726  66.527  1.00  0.00    -0.409 A  
HETATM   13  C   UNL     1     -10.522  13.782  66.564  1.00  0.00    -0.282 A  
HETATM   14  C   UNL     1     -10.053  14.446  65.302  1.00  0.00    -0.356 C  
HETATM   15  S   UNL     1     -10.854  16.055  65.056  1.00  0.00    -0.306 SA 
HETATM   16  C   UNL     1     -10.174  17.099  66.359  1.00  0.00    -0.328 A  
HETATM   17  C   UNL     1     -10.524  18.458  66.197  1.00  0.00    -0.422 A  
HETATM   18  C   UNL     1     -10.102  19.439  67.095  1.00  0.00    -0.490 A  
HETATM   19  C   UNL     1      -9.323  19.080  68.183  1.00  0.00    -0.385 A  
HETATM   20  C   UNL     1      -8.977  17.740  68.372  1.00  0.00    -0.281 A  
HETATM   21  C   UNL     1      -9.384  16.728  67.472  1.00  0.00    -0.231 A  
ENDBRANCH   5   6
ENDBRANCH   4   5
ENDBRANCH   2   4
TORSDOF 3
ENDMDL
MODEL       51
REMARK 921   NORMALIZED FREE ENERGY PREDICTED BY IDOCK:   -4.81 KCAL/MOL
REMARK 922        TOTAL FREE ENERGY PREDICTED BY IDOCK:   -5.92 KCAL/MOL
REMARK 923 INTER-LIGAND FREE ENERGY PREDICTED BY IDOCK:   -5.50 KCAL/MOL
REMARK 924 INTRA-LIGAND FREE ENERGY PREDICTED BY IDOCK:   -0.43 KCAL/MOL
REMARK 927      BINDING AFFINITY PREDICTED BY RF-SCORE:    0.00 PKD
ROOT
HETATM    1  C   UNL     1     -10.225   8.213  69.843  1.00  0.00    -0.204 C  
HETATM    2  N   UNL     1     -10.075   9.643  69.571  1.00  0.00    -0.195 NA 
HETATM    3  C   UNL     1     -11.046  10.403  70.361  1.00  0.00    -0.296 C  
ENDROOT
BRANCH   2   4
HETATM    4  C   UNL     1      -8.680  10.073  69.810  1.00  0.00    -0.179 C  
BRANCH   4   5
HETATM    5  C   UNL     1      -8.039  10.726  68.571  1.00  0.00    -0.133 C  
BRANCH   5   6
HETATM    6  C   UNL     1      -8.965  10.923  67.388  1.00  0.00    -0.136 C  
HETATM    7  C   UNL     1      -9.364  12.120  66.891  1.00  0.00    -0.203 C  
HETATM    8  C   UNL     1      -8.939  13.347  67.601  1.00  0.00    -0.202 A  
HETATM    9  C   UNL     1      -7.604  13.775  67.574  1.00  0.00    -0.185 A  
HETATM   10  C   UNL     1      -7.210  14.896  68.303  1.00  0.00    -0.114 A  
HETATM   11  C   UNL     1      -8.151  15.610  69.042  1.00  0.00    -0.222 A  
HETATM   12  C   UNL     1      -9.487  15.203  69.058  1.00  0.00    -0.221 A  
HETATM   13  C   UNL     1      -9.890  14.064  68.345  1.00  0.00    -0.232 A  
HETATM   14  C   UNL     1     -11.323  13.616  68.346  1.00  0.00    -0.295 C  
HETATM   15  S   UNL     1     -12.160  14.048  66.795  1.00  0.00    -0.414 SA 
HETATM   16  C   UNL     1     -11.387  12.989  65.557  1.00  0.00    -0.300 A  
HETATM   17  C   UNL     1     -12.060  13.032  64.316  1.00  0.00    -0.480 A  
HETATM   18  C   UNL     1     -11.629  12.288  63.219  1.00  0.00    -0.434 A  
HETATM   19  C   UNL     1     -10.507  11.483  63.337  1.00  0.00    -0.466 A  
HETATM   20  C   UNL     1      -9.817  11.434  64.550  1.00  0.00    -0.302 A  
HETATM   21  C   UNL     1     -10.238  12.173  65.680  1.00  0.00    -0.285 A  
ENDBRANCH   5   6
ENDBRANCH   4   5
ENDBRANCH   2   4
TORSDOF 3
ENDMDL
MODEL       52
REMARK 921   NORMALIZED FREE ENERGY PREDICTED BY IDOCK:   -4.78 KCAL/MOL
REMARK 922        TOTAL FREE ENERGY PREDICTED BY IDOCK:   -5.88 KCAL/MOL
REMARK 923 INTER-LIGAND FREE ENERGY PREDICTED BY IDOCK:   -5.65 KCAL/MOL
REMARK 924 INTRA-LIGAND FREE ENERGY PREDICTED BY IDOCK:   -0.24 KCAL/MOL
REMARK 927      BINDING AFFINITY PREDICTED BY RF-SCORE:    0.00 PKD
ROOT
HETATM    1  C   UNL     1     -14.396   8.826  71.546  1.00  0.00    -0.262 C  
HETATM    2  N   UNL     1     -13.107   9.150  72.156  1.00  0.00    -0.415 NA 
HETATM    3  C   UNL     1     -12.190   8.017  72.009  1.00  0.00    -0.331 C  
ENDROOT
BRANCH   2   4
HETATM    4  C   UNL     1     -12.565  10.404  71.590  1.00  0.00    -0.417 C  
BRANCH   4   5
HETATM    5  C   UNL     1     -11.694  10.164  70.341  1.00  0.00    -0.390 C  
BRANCH   5   6
HETATM    6  C   UNL     1     -11.587  11.338  69.389  1.00  0.00    -0.390 C  
HETATM    7  C   UNL     1     -10.821  11.378  68.270  1.00  0.00    -0.253 C  
HETATM    8  C   UNL     1      -9.943  10.221  67.985  1.00  0.00    -0.177 A  
HETATM    9  C   UNL     1     -10.475   8.988  67.582  1.00  0.00    -0.324 A  
HETATM   10  C   UNL     1      -9.638   7.892  67.381  1.00  0.00    -0.195 A  
HETATM   11  C   UNL     1      -8.262   8.027  67.557  1.00  0.00    -0.123 A  
HETATM   12  C   UNL     1      -7.720   9.257  67.939  1.00  0.00    -0.088 A  
HETATM   13  C   UNL     1      -8.557  10.361  68.163  1.00  0.00    -0.125 A  
HETATM   14  C   UNL     1      -7.991  11.692  68.568  1.00  0.00    -0.144 C  
HETATM   15  S   UNL     1      -7.964  12.857  67.177  1.00  0.00    -0.038 SA 
HETATM   16  C   UNL     1      -9.702  13.216  66.858  1.00  0.00    -0.243 A  
HETATM   17  C   UNL     1      -9.873  14.276  65.940  1.00  0.00    -0.322 A  
HETATM   18  C   UNL     1     -11.138  14.717  65.552  1.00  0.00    -0.346 A  
HETATM   19  C   UNL     1     -12.265  14.102  66.072  1.00  0.00    -0.464 A  
HETATM   20  C   UNL     1     -12.122  13.043  66.970  1.00  0.00    -0.330 A  
HETATM   21  C   UNL     1     -10.851  12.581  67.386  1.00  0.00    -0.272 A  
ENDBRANCH   5   6
ENDBRANCH   4   5
ENDBRANCH   2   4
TORSDOF 3
ENDMDL
MODEL       53
REMARK 921   NORMALIZED FREE ENERGY PREDICTED BY IDOCK:   -4.77 KCAL/MOL
REMARK 922        TOTAL FREE ENERGY PREDICTED BY IDOCK:   -5.87 KCAL/MOL
REMARK 923 INTER-LIGAND FREE ENERGY PREDICTED BY IDOCK:   -5.50 KCAL/MOL
REMARK 924 INTRA-LIGAND FREE ENERGY PREDICTED BY IDOCK:   -0.37 KCAL/MOL
REMARK 927      BINDING AFFINITY PREDICTED BY RF-SCORE:    0.00 PKD
ROOT
HETATM    1  C   UNL     1      -9.483  19.477  68.160  1.00  0.00    -0.359 C  
HETATM    2  N   UNL     1      -9.852  18.094  68.465  1.00  0.00    -0.363 NA 
HETATM    3  C   UNL     1     -10.784  17.595  67.451  1.00  0.00    -0.258 C  
ENDROOT
BRANCH   2   4
HETATM    4  C   UNL     1      -8.643  17.251  68.597  1.00  0.00    -0.265 C  
BRANCH   4   5
HETATM    5  C   UNL     1      -8.610  16.097  67.577  1.00  0.00    -0.189 C  
BRANCH   5   6
HETATM    6  C   UNL     1      -8.499  14.708  68.171  1.00  0.00    -0.156 C  
HETATM    7  C   UNL     1      -9.218  13.625  67.783  1.00  0.00    -0.214 C  
HETATM    8  C   UNL     1     -10.264  13.816  66.754  1.00  0.00    -0.268 A  
HETATM    9  C   UNL     1      -9.928  14.077  65.417  1.00  0.00    -0.292 A  
HETATM   10  C   UNL     1     -10.927  14.319  64.475  1.00  0.00    -0.311 A  
HETATM   11  C   UNL     1     -12.266  14.275  64.856  1.00  0.00    -0.449 A  
HETATM   12  C   UNL     1     -12.612  13.995  66.180  1.00  0.00    -0.407 A  
HETATM   13  C   UNL     1     -11.613  13.771  67.140  1.00  0.00    -0.392 A  
HETATM   14  C   UNL     1     -11.966  13.462  68.567  1.00  0.00    -0.328 C  
HETATM   15  S   UNL     1     -11.766  11.697  68.938  1.00  0.00    -0.346 SA 
HETATM   16  C   UNL     1      -9.985  11.424  68.875  1.00  0.00    -0.131 A  
HETATM   17  C   UNL     1      -9.619  10.145  69.350  1.00  0.00    -0.249 A  
HETATM   18  C   UNL     1      -8.290   9.726  69.388  1.00  0.00    -0.153 A  
HETATM   19  C   UNL     1      -7.291  10.579  68.946  1.00  0.00    -0.098 A  
HETATM   20  C   UNL     1      -7.629  11.844  68.459  1.00  0.00    -0.127 A  
HETATM   21  C   UNL     1      -8.969  12.296  68.417  1.00  0.00    -0.141 A  
ENDBRANCH   5   6
ENDBRANCH   4   5
ENDBRANCH   2   4
TORSDOF 3
ENDMDL
MODEL       54
REMARK 921   NORMALIZED FREE ENERGY PREDICTED BY IDOCK:   -4.74 KCAL/MOL
REMARK 922        TOTAL FREE ENERGY PREDICTED BY IDOCK:   -5.84 KCAL/MOL
REMARK 923 INTER-LIGAND FREE ENERGY PREDICTED BY IDOCK:   -5.60 KCAL/MOL
REMARK 924 INTRA-LIGAND FREE ENERGY PREDICTED BY IDOCK:   -0.23 KCAL/MOL
REMARK 927      BINDING AFFINITY PREDICTED BY RF-SCORE:    0.00 PKD
ROOT
HETATM    1  C   UNL     1     -11.330   9.432  71.516  1.00  0.00    -0.394 C  
HETATM    2  N   UNL     1     -12.393  10.172  70.837  1.00  0.00    -0.337 NA 
HETATM    3  C   UNL     1     -13.017  11.112  71.770  1.00  0.00    -0.421 C  
ENDROOT
BRANCH   2   4
HETATM    4  C   UNL     1     -11.870  10.834  69.621  1.00  0.00    -0.320 C  
BRANCH   4   5
HETATM    5  C   UNL     1     -10.624  10.130  69.051  1.00  0.00    -0.245 C  
BRANCH   5   6
HETATM    6  C   UNL     1     -10.240  10.530  67.642  1.00  0.00    -0.234 C  
HETATM    7  C   UNL     1      -9.832   9.681  66.665  1.00  0.00    -0.285 C  
HETATM    8  C   UNL     1      -9.659   8.253  67.010  1.00  0.00    -0.249 A  
HETATM    9  C   UNL     1     -10.764   7.430  67.270  1.00  0.00    -0.379 A  
HETATM   10  C   UNL     1     -10.579   6.104  67.657  1.00  0.00    -0.340 A  
HETATM   11  C   UNL     1      -9.290   5.585  67.763  1.00  0.00    -0.119 A  
HETATM   12  C   UNL     1      -8.183   6.390  67.486  1.00  0.00    -0.117 A  
HETATM   13  C   UNL     1      -8.359   7.732  67.115  1.00  0.00    -0.118 A  
HETATM   14  C   UNL     1      -7.181   8.612  66.808  1.00  0.00    -0.078 C  
HETATM   15  S   UNL     1      -6.975   8.854  65.022  1.00  0.00    -0.073 SA 
HETATM   16  C   UNL     1      -8.391   9.861  64.539  1.00  0.00    -0.166 A  
HETATM   17  C   UNL     1      -8.288  10.333  63.212  1.00  0.00    -0.168 A  
HETATM   18  C   UNL     1      -9.276  11.131  62.636  1.00  0.00    -0.357 A  
HETATM   19  C   UNL     1     -10.397  11.473  63.376  1.00  0.00    -0.469 A  
HETATM   20  C   UNL     1     -10.527  11.007  64.686  1.00  0.00    -0.398 A  
HETATM   21  C   UNL     1      -9.536  10.203  65.297  1.00  0.00    -0.338 A  
ENDBRANCH   5   6
ENDBRANCH   4   5
ENDBRANCH   2   4
TORSDOF 3
ENDMDL
MODEL       55
REMARK 921   NORMALIZED FREE ENERGY PREDICTED BY IDOCK:   -4.72 KCAL/MOL
REMARK 922        TOTAL FREE ENERGY PREDICTED BY IDOCK:   -5.82 KCAL/MOL
REMARK 923 INTER-LIGAND FREE ENERGY PREDICTED BY IDOCK:   -5.51 KCAL/MOL
REMARK 924 INTRA-LIGAND FREE ENERGY PREDICTED BY IDOCK:   -0.31 KCAL/MOL
REMARK 927      BINDING AFFINITY PREDICTED BY RF-SCORE:    0.00 PKD
ROOT
HETATM    1  C   UNL     1      -9.601   8.621  66.194  1.00  0.00    -0.235 C  
HETATM    2  N   UNL     1      -9.974   7.330  66.771  1.00  0.00    -0.221 NA 
HETATM    3  C   UNL     1      -8.840   6.406  66.692  1.00  0.00    -0.130 C  
ENDROOT
BRANCH   2   4
HETATM    4  C   UNL     1     -10.475   7.504  68.152  1.00  0.00    -0.183 C  
BRANCH   4   5
HETATM    5  C   UNL     1     -11.153   6.235  68.703  1.00  0.00    -0.409 C  
BRANCH   5   6
HETATM    6  C   UNL     1     -10.479   5.609  69.907  1.00  0.00    -0.378 C  
HETATM    7  C   UNL     1     -10.768   5.884  71.204  1.00  0.00    -0.328 C  
HETATM    8  C   UNL     1     -11.762   6.944  71.486  1.00  0.00    -0.351 A  
HETATM    9  C   UNL     1     -13.125   6.750  71.218  1.00  0.00    -0.170 A  
HETATM   10  C   UNL     1     -14.037   7.782  71.430  1.00  0.00    -0.458 A  
HETATM   11  C   UNL     1     -13.598   9.005  71.934  1.00  0.00    -0.486 A  
HETATM   12  C   UNL     1     -12.246   9.200  72.224  1.00  0.00    -0.348 A  
HETATM   13  C   UNL     1     -11.316   8.174  71.995  1.00  0.00    -0.378 A  
HETATM   14  C   UNL     1      -9.860   8.365  72.306  1.00  0.00    -0.313 C  
HETATM   15  S   UNL     1      -9.389   7.521  73.842  1.00  0.00    -0.187 SA 
HETATM   16  C   UNL     1      -9.510   5.766  73.446  1.00  0.00    -0.138 A  
HETATM   17  C   UNL     1      -8.972   4.947  74.463  1.00  0.00    -0.110 A  
HETATM   18  C   UNL     1      -8.964   3.556  74.361  1.00  0.00    -0.095 A  
HETATM   19  C   UNL     1      -9.501   2.950  73.236  1.00  0.00    -0.120 A  
HETATM   20  C   UNL     1     -10.050   3.739  72.223  1.00  0.00    -0.228 A  
HETATM   21  C   UNL     1     -10.064   5.152  72.298  1.00  0.00    -0.243 A  
ENDBRANCH   5   6
ENDBRANCH   4   5
ENDBRANCH   2   4
TORSDOF 3
ENDMDL
MODEL       56
REMARK 921   NORMALIZED FREE ENERGY PREDICTED BY IDOCK:   -4.71 KCAL/MOL
REMARK 922        TOTAL FREE ENERGY PREDICTED BY IDOCK:   -5.81 KCAL/MOL
REMARK 923 INTER-LIGAND FREE ENERGY PREDICTED BY IDOCK:   -5.40 KCAL/MOL
REMARK 924 INTRA-LIGAND FREE ENERGY PREDICTED BY IDOCK:   -0.40 KCAL/MOL
REMARK 927      BINDING AFFINITY PREDICTED BY RF-SCORE:    0.00 PKD
ROOT
HETATM    1  C   UNL     1     -10.310   8.085  71.441  1.00  0.00    -0.200 C  
HETATM    2  N   UNL     1     -10.012   9.398  70.869  1.00  0.00    -0.291 NA 
HETATM    3  C   UNL     1      -8.634   9.422  70.374  1.00  0.00    -0.230 C  
ENDROOT
BRANCH   2   4
HETATM    4  C   UNL     1     -11.003   9.746  69.826  1.00  0.00    -0.256 C  
BRANCH   4   5
HETATM    5  C   UNL     1     -10.452   9.561  68.399  1.00  0.00    -0.261 C  
BRANCH   5   6
HETATM    6  C   UNL     1     -11.040  10.485  67.352  1.00  0.00    -0.322 C  
HETATM    7  C   UNL     1     -10.412  11.554  66.802  1.00  0.00    -0.275 C  
HETATM    8  C   UNL     1      -9.073  11.917  67.317  1.00  0.00    -0.178 A  
HETATM    9  C   UNL     1      -7.953  11.116  67.051  1.00  0.00    -0.145 A  
HETATM   10  C   UNL     1      -6.712  11.438  67.599  1.00  0.00    -0.075 A  
HETATM   11  C   UNL     1      -6.577  12.574  68.394  1.00  0.00    -0.070 A  
HETATM   12  C   UNL     1      -7.683  13.390  68.647  1.00  0.00    -0.088 A  
HETATM   13  C   UNL     1      -8.940  13.063  68.117  1.00  0.00    -0.198 A  
HETATM   14  C   UNL     1     -10.139  13.931  68.374  1.00  0.00    -0.237 C  
HETATM   15  S   UNL     1     -10.550  14.947  66.928  1.00  0.00    -0.306 SA 
HETATM   16  C   UNL     1     -11.141  13.764  65.701  1.00  0.00    -0.295 A  
HETATM   17  C   UNL     1     -11.711  14.397  64.575  1.00  0.00    -0.430 A  
HETATM   18  C   UNL     1     -12.230  13.668  63.505  1.00  0.00    -0.329 A  
HETATM   19  C   UNL     1     -12.186  12.283  63.536  1.00  0.00    -0.669 A  
HETATM   20  C   UNL     1     -11.615  11.635  64.633  1.00  0.00    -0.199 A  
HETATM   21  C   UNL     1     -11.088  12.351  65.734  1.00  0.00    -0.351 A  
ENDBRANCH   5   6
ENDBRANCH   4   5
ENDBRANCH   2   4
TORSDOF 3
ENDMDL
MODEL       57
REMARK 921   NORMALIZED FREE ENERGY PREDICTED BY IDOCK:   -4.69 KCAL/MOL
REMARK 922        TOTAL FREE ENERGY PREDICTED BY IDOCK:   -5.78 KCAL/MOL
REMARK 923 INTER-LIGAND FREE ENERGY PREDICTED BY IDOCK:   -5.44 KCAL/MOL
REMARK 924 INTRA-LIGAND FREE ENERGY PREDICTED BY IDOCK:   -0.33 KCAL/MOL
REMARK 927      BINDING AFFINITY PREDICTED BY RF-SCORE:    0.00 PKD
ROOT
HETATM    1  C   UNL     1     -10.502   6.303  71.976  1.00  0.00    -0.207 C  
HETATM    2  N   UNL     1     -11.058   7.153  70.923  1.00  0.00    -0.254 NA 
HETATM    3  C   UNL     1     -12.518   7.184  71.031  1.00  0.00    -0.316 C  
ENDROOT
BRANCH   2   4
HETATM    4  C   UNL     1     -10.451   8.502  70.970  1.00  0.00    -0.212 C  
BRANCH   4   5
HETATM    5  C   UNL     1      -9.412   8.724  69.855  1.00  0.00    -0.174 C  
BRANCH   5   6
HETATM    6  C   UNL     1      -9.766   9.792  68.841  1.00  0.00    -0.172 C  
HETATM    7  C   UNL     1     -10.069   9.572  67.537  1.00  0.00    -0.257 C  
HETATM    8  C   UNL     1      -9.965   8.188  67.022  1.00  0.00    -0.329 A  
HETATM    9  C   UNL     1     -10.883   7.200  67.407  1.00  0.00    -0.346 A  
HETATM   10  C   UNL     1     -10.731   5.888  66.963  1.00  0.00    -0.396 A  
HETATM   11  C   UNL     1      -9.678   5.560  66.112  1.00  0.00    -0.147 A  
HETATM   12  C   UNL     1      -8.770   6.541  65.706  1.00  0.00    -0.129 A  
HETATM   13  C   UNL     1      -8.903   7.861  66.164  1.00  0.00    -0.197 A  
HETATM   14  C   UNL     1      -7.940   8.930  65.734  1.00  0.00    -0.101 C  
HETATM   15  S   UNL     1      -8.667  10.016  64.474  1.00  0.00    -0.214 SA 
HETATM   16  C   UNL     1      -9.948  10.930  65.353  1.00  0.00    -0.263 A  
HETATM   17  C   UNL     1     -10.484  11.983  64.580  1.00  0.00    -0.338 A  
HETATM   18  C   UNL     1     -11.489  12.818  65.069  1.00  0.00    -0.356 A  
HETATM   19  C   UNL     1     -11.986  12.613  66.346  1.00  0.00    -0.425 A  
HETATM   20  C   UNL     1     -11.481  11.570  67.125  1.00  0.00    -0.313 A  
HETATM   21  C   UNL     1     -10.457  10.714  66.656  1.00  0.00    -0.296 A  
ENDBRANCH   5   6
ENDBRANCH   4   5
ENDBRANCH   2   4
TORSDOF 3
ENDMDL
MODEL       58
REMARK 921   NORMALIZED FREE ENERGY PREDICTED BY IDOCK:   -4.68 KCAL/MOL
REMARK 922        TOTAL FREE ENERGY PREDICTED BY IDOCK:   -5.77 KCAL/MOL
REMARK 923 INTER-LIGAND FREE ENERGY PREDICTED BY IDOCK:   -5.50 KCAL/MOL
REMARK 924 INTRA-LIGAND FREE ENERGY PREDICTED BY IDOCK:   -0.27 KCAL/MOL
REMARK 927      BINDING AFFINITY PREDICTED BY RF-SCORE:    0.00 PKD
ROOT
HETATM    1  C   UNL     1     -10.879  11.485  63.684  1.00  0.00    -0.415 C  
HETATM    2  N   UNL     1     -12.007  12.322  63.274  1.00  0.00    -0.451 NA 
HETATM    3  C   UNL     1     -13.266  11.641  63.582  1.00  0.00     0.383 C  
ENDROOT
BRANCH   2   4
HETATM    4  C   UNL     1     -11.913  13.661  63.896  1.00  0.00    -0.408 C  
BRANCH   4   5
HETATM    5  C   UNL     1     -10.511  13.956  64.463  1.00  0.00    -0.334 C  
BRANCH   5   6
HETATM    6  C   UNL     1     -10.406  15.197  65.324  1.00  0.00    -0.425 C  
HETATM    7  C   UNL     1     -10.076  15.218  66.640  1.00  0.00    -0.268 C  
HETATM    8  C   UNL     1      -9.881  13.923  67.330  1.00  0.00    -0.237 A  
HETATM    9  C   UNL     1      -8.767  13.116  67.058  1.00  0.00    -0.193 A  
HETATM   10  C   UNL     1      -8.635  11.870  67.669  1.00  0.00    -0.156 A  
HETATM   11  C   UNL     1      -9.601  11.435  68.575  1.00  0.00    -0.190 A  
HETATM   12  C   UNL     1     -10.703  12.241  68.868  1.00  0.00    -0.210 A  
HETATM   13  C   UNL     1     -10.856  13.487  68.242  1.00  0.00    -0.277 A  
HETATM   14  C   UNL     1     -12.032  14.369  68.550  1.00  0.00    -0.298 C  
HETATM   15  S   UNL     1     -11.570  15.740  69.646  1.00  0.00    -0.357 SA 
HETATM   16  C   UNL     1     -10.509  16.788  68.633  1.00  0.00    -0.333 A  
HETATM   17  C   UNL     1     -10.222  18.023  69.254  1.00  0.00    -0.043 A  
HETATM   18  C   UNL     1      -9.418  18.985  68.644  1.00  0.00    -0.457 A  
HETATM   19  C   UNL     1      -8.876  18.730  67.395  1.00  0.00    -0.285 A  
HETATM   20  C   UNL     1      -9.134  17.510  66.766  1.00  0.00    -0.276 A  
HETATM   21  C   UNL     1      -9.953  16.521  67.360  1.00  0.00    -0.267 A  
ENDBRANCH   5   6
ENDBRANCH   4   5
ENDBRANCH   2   4
TORSDOF 3
ENDMDL
MODEL       59
REMARK 921   NORMALIZED FREE ENERGY PREDICTED BY IDOCK:   -4.68 KCAL/MOL
REMARK 922        TOTAL FREE ENERGY PREDICTED BY IDOCK:   -5.76 KCAL/MOL
REMARK 923 INTER-LIGAND FREE ENERGY PREDICTED BY IDOCK:   -5.48 KCAL/MOL
REMARK 924 INTRA-LIGAND FREE ENERGY PREDICTED BY IDOCK:   -0.28 KCAL/MOL
REMARK 927      BINDING AFFINITY PREDICTED BY RF-SCORE:    0.00 PKD
ROOT
HETATM    1  C   UNL     1     -10.985   6.452  66.982  1.00  0.00    -0.389 C  
HETATM    2  N   UNL     1     -10.671   7.324  68.114  1.00  0.00    -0.171 NA 
HETATM    3  C   UNL     1     -10.821   6.582  69.368  1.00  0.00    -0.308 C  
ENDROOT
BRANCH   2   4
HETATM    4  C   UNL     1      -9.324   7.915  67.955  1.00  0.00    -0.145 C  
BRANCH   4   5
HETATM    5  C   UNL     1      -9.320   9.444  68.145  1.00  0.00    -0.142 C  
BRANCH   5   6
HETATM    6  C   UNL     1     -10.150  10.225  67.147  1.00  0.00    -0.259 C  
HETATM    7  C   UNL     1      -9.862  11.467  66.683  1.00  0.00    -0.233 C  
HETATM    8  C   UNL     1      -8.691  12.170  67.254  1.00  0.00    -0.182 A  
HETATM    9  C   UNL     1      -7.383  11.754  66.964  1.00  0.00    -0.133 A  
HETATM   10  C   UNL     1      -6.295  12.387  67.562  1.00  0.00    -0.148 A  
HETATM   11  C   UNL     1      -6.505  13.455  68.432  1.00  0.00    -0.093 A  
HETATM   12  C   UNL     1      -7.803  13.890  68.711  1.00  0.00    -0.079 A  
HETATM   13  C   UNL     1      -8.906  13.246  68.130  1.00  0.00    -0.187 A  
HETATM   14  C   UNL     1     -10.308  13.704  68.413  1.00  0.00    -0.248 C  
HETATM   15  S   UNL     1     -10.994  14.652  67.026  1.00  0.00    -0.324 SA 
HETATM   16  C   UNL     1     -11.204  13.437  65.711  1.00  0.00    -0.290 A  
HETATM   17  C   UNL     1     -11.931  13.951  64.615  1.00  0.00    -0.443 A  
HETATM   18  C   UNL     1     -12.207  13.178  63.487  1.00  0.00    -0.552 A  
HETATM   19  C   UNL     1     -11.757  11.869  63.429  1.00  0.00    -0.500 A  
HETATM   20  C   UNL     1     -11.025  11.342  64.495  1.00  0.00    -0.346 A  
HETATM   21  C   UNL     1     -10.738  12.102  65.653  1.00  0.00    -0.312 A  
ENDBRANCH   5   6
ENDBRANCH   4   5
ENDBRANCH   2   4
TORSDOF 3
ENDMDL
MODEL       60
REMARK 921   NORMALIZED FREE ENERGY PREDICTED BY IDOCK:   -4.65 KCAL/MOL
REMARK 922        TOTAL FREE ENERGY PREDICTED BY IDOCK:   -5.74 KCAL/MOL
REMARK 923 INTER-LIGAND FREE ENERGY PREDICTED BY IDOCK:   -5.30 KCAL/MOL
REMARK 924 INTRA-LIGAND FREE ENERGY PREDICTED BY IDOCK:   -0.43 KCAL/MOL
REMARK 927      BINDING AFFINITY PREDICTED BY RF-SCORE:    0.00 PKD
ROOT
HETATM    1  C   UNL     1     -10.671   9.098  69.557  1.00  0.00    -0.215 C  
HETATM    2  N   UNL     1     -11.764   9.570  70.407  1.00  0.00    -0.216 NA 
HETATM    3  C   UNL     1     -11.468   9.266  71.809  1.00  0.00    -0.378 C  
ENDROOT
BRANCH   2   4
HETATM    4  C   UNL     1     -12.019  11.008  70.174  1.00  0.00    -0.360 C  
BRANCH   4   5
HETATM    5  C   UNL     1     -12.018  11.377  68.678  1.00  0.00    -0.317 C  
BRANCH   5   6
HETATM    6  C   UNL     1     -11.376  12.706  68.337  1.00  0.00    -0.329 C  
HETATM    7  C   UNL     1     -10.318  12.880  67.506  1.00  0.00    -0.223 C  
HETATM    8  C   UNL     1      -9.669  11.675  66.943  1.00  0.00    -0.211 A  
HETATM    9  C   UNL     1     -10.309  10.893  65.971  1.00  0.00    -0.304 A  
HETATM   10  C   UNL     1      -9.710   9.725  65.500  1.00  0.00    -0.382 A  
HETATM   11  C   UNL     1      -8.457   9.347  65.977  1.00  0.00    -0.132 A  
HETATM   12  C   UNL     1      -7.802  10.131  66.930  1.00  0.00    -0.107 A  
HETATM   13  C   UNL     1      -8.406  11.296  67.425  1.00  0.00    -0.137 A  
HETATM   14  C   UNL     1      -7.713  12.154  68.445  1.00  0.00    -0.134 C  
HETATM   15  S   UNL     1      -7.014  13.651  67.695  1.00  0.00    -0.156 SA 
HETATM   16  C   UNL     1      -8.453  14.632  67.225  1.00  0.00    -0.215 A  
HETATM   17  C   UNL     1      -8.104  15.937  66.815  1.00  0.00    -0.301 A  
HETATM   18  C   UNL     1      -9.064  16.863  66.409  1.00  0.00    -0.315 A  
HETATM   19  C   UNL     1     -10.401  16.501  66.399  1.00  0.00    -0.316 A  
HETATM   20  C   UNL     1     -10.770  15.211  66.787  1.00  0.00    -0.311 A  
HETATM   21  C   UNL     1      -9.817  14.256  67.211  1.00  0.00    -0.244 A  
ENDBRANCH   5   6
ENDBRANCH   4   5
ENDBRANCH   2   4
TORSDOF 3
ENDMDL
MODEL       61
REMARK 921   NORMALIZED FREE ENERGY PREDICTED BY IDOCK:   -4.65 KCAL/MOL
REMARK 922        TOTAL FREE ENERGY PREDICTED BY IDOCK:   -5.74 KCAL/MOL
REMARK 923 INTER-LIGAND FREE ENERGY PREDICTED BY IDOCK:   -5.51 KCAL/MOL
REMARK 924 INTRA-LIGAND FREE ENERGY PREDICTED BY IDOCK:   -0.22 KCAL/MOL
REMARK 927      BINDING AFFINITY PREDICTED BY RF-SCORE:    0.00 PKD
ROOT
HETATM    1  C   UNL     1      -9.756  11.399  62.871  1.00  0.00    -0.317 C  
HETATM    2  N   UNL     1     -10.464  12.132  63.920  1.00  0.00    -0.372 NA 
HETATM    3  C   UNL     1     -11.729  12.651  63.396  1.00  0.00    -0.498 C  
ENDROOT
BRANCH   2   4
HETATM    4  C   UNL     1     -10.646  11.280  65.116  1.00  0.00    -0.280 C  
BRANCH   4   5
HETATM    5  C   UNL     1     -11.021  12.090  66.372  1.00  0.00    -0.337 C  
BRANCH   5   6
HETATM    6  C   UNL     1     -11.427  11.268  67.577  1.00  0.00    -0.324 C  
HETATM    7  C   UNL     1     -10.575  10.704  68.470  1.00  0.00    -0.229 C  
HETATM    8  C   UNL     1      -9.122  10.817  68.214  1.00  0.00    -0.157 A  
HETATM    9  C   UNL     1      -8.455  12.044  68.346  1.00  0.00    -0.147 A  
HETATM   10  C   UNL     1      -7.099  12.145  68.037  1.00  0.00    -0.096 A  
HETATM   11  C   UNL     1      -6.396  11.017  67.620  1.00  0.00    -0.060 A  
HETATM   12  C   UNL     1      -7.047   9.786  67.506  1.00  0.00    -0.088 A  
HETATM   13  C   UNL     1      -8.416   9.678  67.794  1.00  0.00    -0.125 A  
HETATM   14  C   UNL     1      -9.130   8.362  67.683  1.00  0.00    -0.135 C  
HETATM   15  S   UNL     1      -9.423   7.621  69.313  1.00  0.00    -0.158 SA 
HETATM   16  C   UNL     1     -10.645   8.700  70.084  1.00  0.00    -0.225 A  
HETATM   17  C   UNL     1     -11.159   8.160  71.284  1.00  0.00    -0.287 A  
HETATM   18  C   UNL     1     -12.116   8.832  72.042  1.00  0.00    -0.447 A  
HETATM   19  C   UNL     1     -12.580  10.067  71.619  1.00  0.00    -0.524 A  
HETATM   20  C   UNL     1     -12.077  10.628  70.443  1.00  0.00    -0.430 A  
HETATM   21  C   UNL     1     -11.112   9.963  69.651  1.00  0.00    -0.279 A  
ENDBRANCH   5   6
ENDBRANCH   4   5
ENDBRANCH   2   4
TORSDOF 3
ENDMDL
MODEL       62
REMARK 921   NORMALIZED FREE ENERGY PREDICTED BY IDOCK:   -4.55 KCAL/MOL
REMARK 922        TOTAL FREE ENERGY PREDICTED BY IDOCK:   -5.61 KCAL/MOL
REMARK 923 INTER-LIGAND FREE ENERGY PREDICTED BY IDOCK:   -5.33 KCAL/MOL
REMARK 924 INTRA-LIGAND FREE ENERGY PREDICTED BY IDOCK:   -0.28 KCAL/MOL
REMARK 927      BINDING AFFINITY PREDICTED BY RF-SCORE:    0.00 PKD
ROOT
HETATM    1  C   UNL     1      -7.433   7.850  66.532  1.00  0.00    -0.088 C  
HETATM    2  N   UNL     1      -8.749   7.528  67.084  1.00  0.00    -0.120 NA 
HETATM    3  C   UNL     1      -8.614   7.137  68.489  1.00  0.00    -0.124 C  
ENDROOT
BRANCH   2   4
HETATM    4  C   UNL     1      -9.683   8.658  66.891  1.00  0.00    -0.214 C  
BRANCH   4   5
HETATM    5  C   UNL     1      -8.999  10.029  67.052  1.00  0.00    -0.152 C  
BRANCH   5   6
HETATM    6  C   UNL     1      -9.646  10.965  68.052  1.00  0.00    -0.170 C  
HETATM    7  C   UNL     1     -10.482  11.989  67.747  1.00  0.00    -0.223 C  
HETATM    8  C   UNL     1     -10.725  12.288  66.318  1.00  0.00    -0.293 A  
HETATM    9  C   UNL     1     -11.484  11.424  65.515  1.00  0.00     0.031 A  
HETATM   10  C   UNL     1     -11.647  11.689  64.156  1.00  0.00    -0.342 A  
HETATM   11  C   UNL     1     -11.076  12.830  63.597  1.00  0.00    -0.443 A  
HETATM   12  C   UNL     1     -10.336  13.708  64.393  1.00  0.00    -0.242 A  
HETATM   13  C   UNL     1     -10.148  13.439  65.758  1.00  0.00    -0.297 A  
HETATM   14  C   UNL     1      -9.361  14.375  66.630  1.00  0.00    -0.278 C  
HETATM   15  S   UNL     1     -10.446  15.386  67.675  1.00  0.00    -0.278 SA 
HETATM   16  C   UNL     1     -11.159  14.216  68.847  1.00  0.00    -0.263 A  
HETATM   17  C   UNL     1     -11.872  14.858  69.883  1.00  0.00    -0.355 A  
HETATM   18  C   UNL     1     -12.504  14.140  70.898  1.00  0.00    -0.436 A  
HETATM   19  C   UNL     1     -12.442  12.756  70.896  1.00  0.00    -0.373 A  
HETATM   20  C   UNL     1     -11.754  12.097  69.874  1.00  0.00    -0.361 A  
HETATM   21  C   UNL     1     -11.097  12.802  68.839  1.00  0.00    -0.310 A  
ENDBRANCH   5   6
ENDBRANCH   4   5
ENDBRANCH   2   4
TORSDOF 3
ENDMDL
MODEL       63
REMARK 921   NORMALIZED FREE ENERGY PREDICTED BY IDOCK:   -4.53 KCAL/MOL
REMARK 922        TOTAL FREE ENERGY PREDICTED BY IDOCK:   -5.59 KCAL/MOL
REMARK 923 INTER-LIGAND FREE ENERGY PREDICTED BY IDOCK:   -5.20 KCAL/MOL
REMARK 924 INTRA-LIGAND FREE ENERGY PREDICTED BY IDOCK:   -0.39 KCAL/MOL
REMARK 927      BINDING AFFINITY PREDICTED BY RF-SCORE:    0.00 PKD
ROOT
HETATM    1  C   UNL     1      -9.673   6.247  67.927  1.00  0.00    -0.122 C  
HETATM    2  N   UNL     1      -8.593   6.718  67.059  1.00  0.00    -0.113 NA 
HETATM    3  C   UNL     1      -8.197   5.651  66.137  1.00  0.00    -0.110 C  
ENDROOT
BRANCH   2   4
HETATM    4  C   UNL     1      -8.993   7.959  66.361  1.00  0.00    -0.166 C  
BRANCH   4   5
HETATM    5  C   UNL     1     -10.298   8.560  66.917  1.00  0.00    -0.367 C  
BRANCH   5   6
HETATM    6  C   UNL     1     -10.355  10.073  66.950  1.00  0.00    -0.297 C  
HETATM    7  C   UNL     1     -10.215  10.843  68.058  1.00  0.00    -0.202 C  
HETATM    8  C   UNL     1     -10.081  10.164  69.367  1.00  0.00    -0.250 A  
HETATM    9  C   UNL     1      -8.916   9.459  69.703  1.00  0.00    -0.181 A  
HETATM   10  C   UNL     1      -8.833   8.771  70.912  1.00  0.00    -0.243 A  
HETATM   11  C   UNL     1      -9.904   8.803  71.804  1.00  0.00    -0.391 A  
HETATM   12  C   UNL     1     -11.061   9.519  71.487  1.00  0.00    -0.406 A  
HETATM   13  C   UNL     1     -11.161  10.198  70.263  1.00  0.00    -0.387 A  
HETATM   14  C   UNL     1     -12.395  10.978  69.908  1.00  0.00    -0.288 C  
HETATM   15  S   UNL     1     -12.135  12.763  70.100  1.00  0.00    -0.222 SA 
HETATM   16  C   UNL     1     -10.974  13.192  68.789  1.00  0.00    -0.262 A  
HETATM   17  C   UNL     1     -10.815  14.588  68.646  1.00  0.00    -0.259 A  
HETATM   18  C   UNL     1      -9.962  15.137  67.689  1.00  0.00    -0.229 A  
HETATM   19  C   UNL     1      -9.241  14.299  66.854  1.00  0.00    -0.268 A  
HETATM   20  C   UNL     1      -9.371  12.915  66.986  1.00  0.00    -0.235 A  
HETATM   21  C   UNL     1     -10.235  12.332  67.942  1.00  0.00    -0.202 A  
ENDBRANCH   5   6
ENDBRANCH   4   5
ENDBRANCH   2   4
TORSDOF 3
ENDMDL
MODEL       64
REMARK 921   NORMALIZED FREE ENERGY PREDICTED BY IDOCK:   -4.52 KCAL/MOL
REMARK 922        TOTAL FREE ENERGY PREDICTED BY IDOCK:   -5.58 KCAL/MOL
REMARK 923 INTER-LIGAND FREE ENERGY PREDICTED BY IDOCK:   -5.29 KCAL/MOL
REMARK 924 INTRA-LIGAND FREE ENERGY PREDICTED BY IDOCK:   -0.29 KCAL/MOL
REMARK 927      BINDING AFFINITY PREDICTED BY RF-SCORE:    0.00 PKD
ROOT
HETATM    1  C   UNL     1     -12.499  14.250  64.189  1.00  0.00    -0.218 C  
HETATM    2  N   UNL     1     -12.646  12.848  64.580  1.00  0.00    -0.657 NA 
HETATM    3  C   UNL     1     -12.499  11.987  63.405  1.00  0.00    -0.509 C  
ENDROOT
BRANCH   2   4
HETATM    4  C   UNL     1     -11.696  12.509  65.662  1.00  0.00    -0.423 C  
BRANCH   4   5
HETATM    5  C   UNL     1     -10.733  13.666  65.991  1.00  0.00    -0.280 C  
BRANCH   5   6
HETATM    6  C   UNL     1      -9.417  13.256  66.619  1.00  0.00    -0.262 C  
HETATM    7  C   UNL     1      -9.061  13.466  67.912  1.00  0.00    -0.208 C  
HETATM    8  C   UNL     1      -9.987  14.234  68.773  1.00  0.00    -0.205 A  
HETATM    9  C   UNL     1     -11.209  13.688  69.193  1.00  0.00    -0.309 A  
HETATM   10  C   UNL     1     -12.098  14.451  69.950  1.00  0.00    -0.398 A  
HETATM   11  C   UNL     1     -11.760  15.753  70.313  1.00  0.00    -0.373 A  
HETATM   12  C   UNL     1     -10.537  16.298  69.918  1.00  0.00    -0.280 A  
HETATM   13  C   UNL     1      -9.645  15.546  69.138  1.00  0.00    -0.253 A  
HETATM   14  C   UNL     1      -8.322  16.114  68.709  1.00  0.00    -0.231 C  
HETATM   15  S   UNL     1      -6.955  15.446  69.697  1.00  0.00    -0.160 SA 
HETATM   16  C   UNL     1      -6.850  13.714  69.206  1.00  0.00    -0.063 A  
HETATM   17  C   UNL     1      -5.698  13.078  69.718  1.00  0.00    -0.114 A  
HETATM   18  C   UNL     1      -5.421  11.736  69.460  1.00  0.00    -0.066 A  
HETATM   19  C   UNL     1      -6.297  10.995  68.684  1.00  0.00    -0.047 A  
HETATM   20  C   UNL     1      -7.451  11.598  68.178  1.00  0.00    -0.103 A  
HETATM   21  C   UNL     1      -7.751  12.959  68.418  1.00  0.00    -0.133 A  
ENDBRANCH   5   6
ENDBRANCH   4   5
ENDBRANCH   2   4
TORSDOF 3
ENDMDL
MODEL       65
REMARK 921   NORMALIZED FREE ENERGY PREDICTED BY IDOCK:   -4.52 KCAL/MOL
REMARK 922        TOTAL FREE ENERGY PREDICTED BY IDOCK:   -5.58 KCAL/MOL
REMARK 923 INTER-LIGAND FREE ENERGY PREDICTED BY IDOCK:   -5.12 KCAL/MOL
REMARK 924 INTRA-LIGAND FREE ENERGY PREDICTED BY IDOCK:   -0.45 KCAL/MOL
REMARK 927      BINDING AFFINITY PREDICTED BY RF-SCORE:    0.00 PKD
ROOT
HETATM    1  C   UNL     1     -12.150  13.104  67.932  1.00  0.00    -0.202 C  
HETATM    2  N   UNL     1     -11.953  11.655  67.919  1.00  0.00    -0.623 NA 
HETATM    3  C   UNL     1     -10.565  11.346  67.570  1.00  0.00    -0.213 C  
ENDROOT
BRANCH   2   4
HETATM    4  C   UNL     1     -12.365  11.063  69.211  1.00  0.00    -0.090 C  
BRANCH   4   5
HETATM    5  C   UNL     1     -11.183  10.875  70.181  1.00  0.00    -0.317 C  
BRANCH   5   6
HETATM    6  C   UNL     1     -11.222   9.609  71.013  1.00  0.00    -0.445 C  
HETATM    7  C   UNL     1     -10.388   8.548  70.873  1.00  0.00    -0.245 C  
HETATM    8  C   UNL     1      -9.408   8.573  69.764  1.00  0.00    -0.161 A  
HETATM    9  C   UNL     1      -8.307   9.441  69.789  1.00  0.00    -0.161 A  
HETATM   10  C   UNL     1      -7.431   9.498  68.706  1.00  0.00    -0.075 A  
HETATM   11  C   UNL     1      -7.635   8.670  67.604  1.00  0.00    -0.098 A  
HETATM   12  C   UNL     1      -8.717   7.787  67.579  1.00  0.00    -0.125 A  
HETATM   13  C   UNL     1      -9.616   7.738  68.655  1.00  0.00    -0.154 A  
HETATM   14  C   UNL     1     -10.782   6.791  68.648  1.00  0.00    -0.234 C  
HETATM   15  S   UNL     1     -10.482   5.355  69.717  1.00  0.00    -0.267 SA 
HETATM   16  C   UNL     1     -10.496   6.028  71.389  1.00  0.00    -0.231 A  
HETATM   17  C   UNL     1     -10.491   5.018  72.376  1.00  0.00    -0.275 A  
HETATM   18  C   UNL     1     -10.499   5.320  73.738  1.00  0.00    -0.304 A  
HETATM   19  C   UNL     1     -10.508   6.644  74.145  1.00  0.00    -0.251 A  
HETATM   20  C   UNL     1     -10.500   7.660  73.187  1.00  0.00    -0.433 A  
HETATM   21  C   UNL     1     -10.499   7.382  71.800  1.00  0.00    -0.221 A  
ENDBRANCH   5   6
ENDBRANCH   4   5
ENDBRANCH   2   4
TORSDOF 3
ENDMDL
MODEL       66
REMARK 921   NORMALIZED FREE ENERGY PREDICTED BY IDOCK:   -4.51 KCAL/MOL
REMARK 922        TOTAL FREE ENERGY PREDICTED BY IDOCK:   -5.56 KCAL/MOL
REMARK 923 INTER-LIGAND FREE ENERGY PREDICTED BY IDOCK:   -5.29 KCAL/MOL
REMARK 924 INTRA-LIGAND FREE ENERGY PREDICTED BY IDOCK:   -0.27 KCAL/MOL
REMARK 927      BINDING AFFINITY PREDICTED BY RF-SCORE:    0.00 PKD
ROOT
HETATM    1  C   UNL     1     -10.669  12.880  64.205  1.00  0.00    -0.415 C  
HETATM    2  N   UNL     1     -10.596  11.443  63.940  1.00  0.00    -0.363 NA 
HETATM    3  C   UNL     1      -9.642  11.186  62.860  1.00  0.00    -0.348 C  
ENDROOT
BRANCH   2   4
HETATM    4  C   UNL     1     -10.273  10.703  65.179  1.00  0.00    -0.299 C  
BRANCH   4   5
HETATM    5  C   UNL     1     -11.050  11.224  66.403  1.00  0.00    -0.257 C  
BRANCH   5   6
HETATM    6  C   UNL     1     -10.849  10.440  67.683  1.00  0.00    -0.361 C  
HETATM    7  C   UNL     1      -9.917  10.706  68.633  1.00  0.00    -0.188 C  
HETATM    8  C   UNL     1      -8.951  11.797  68.375  1.00  0.00    -0.168 A  
HETATM    9  C   UNL     1      -9.354  13.140  68.386  1.00  0.00    -0.154 A  
HETATM   10  C   UNL     1      -8.444  14.150  68.077  1.00  0.00    -0.171 A  
HETATM   11  C   UNL     1      -7.122  13.826  67.779  1.00  0.00    -0.175 A  
HETATM   12  C   UNL     1      -6.706  12.493  67.785  1.00  0.00    -0.123 A  
HETATM   13  C   UNL     1      -7.619  11.468  68.075  1.00  0.00    -0.112 A  
HETATM   14  C   UNL     1      -7.189  10.029  68.092  1.00  0.00    -0.081 C  
HETATM   15  S   UNL     1      -6.997   9.409  69.787  1.00  0.00    -0.074 SA 
HETATM   16  C   UNL     1      -8.677   9.355  70.439  1.00  0.00    -0.240 A  
HETATM   17  C   UNL     1      -8.750   8.692  71.684  1.00  0.00    -0.270 A  
HETATM   18  C   UNL     1      -9.956   8.537  72.366  1.00  0.00    -0.365 A  
HETATM   19  C   UNL     1     -11.121   9.049  71.818  1.00  0.00    -0.444 A  
HETATM   20  C   UNL     1     -11.073   9.720  70.595  1.00  0.00    -0.398 A  
HETATM   21  C   UNL     1      -9.864   9.883  69.879  1.00  0.00    -0.285 A  
ENDBRANCH   5   6
ENDBRANCH   4   5
ENDBRANCH   2   4
TORSDOF 3
ENDMDL
MODEL       67
REMARK 921   NORMALIZED FREE ENERGY PREDICTED BY IDOCK:   -4.51 KCAL/MOL
REMARK 922        TOTAL FREE ENERGY PREDICTED BY IDOCK:   -5.56 KCAL/MOL
REMARK 923 INTER-LIGAND FREE ENERGY PREDICTED BY IDOCK:   -5.34 KCAL/MOL
REMARK 924 INTRA-LIGAND FREE ENERGY PREDICTED BY IDOCK:   -0.22 KCAL/MOL
REMARK 927      BINDING AFFINITY PREDICTED BY RF-SCORE:    0.00 PKD
ROOT
HETATM    1  C   UNL     1     -11.534  12.382  63.549  1.00  0.00    -0.483 C  
HETATM    2  N   UNL     1     -10.833  11.104  63.678  1.00  0.00    -0.328 NA 
HETATM    3  C   UNL     1      -9.547  11.172  62.980  1.00  0.00    -0.369 C  
ENDROOT
BRANCH   2   4
HETATM    4  C   UNL     1     -10.693  10.731  65.103  1.00  0.00    -0.089 C  
BRANCH   4   5
HETATM    5  C   UNL     1      -9.455  11.366  65.764  1.00  0.00    -0.256 C  
BRANCH   5   6
HETATM    6  C   UNL     1      -9.682  12.721  66.402  1.00  0.00    -0.261 C  
HETATM    7  C   UNL     1      -9.765  12.962  67.734  1.00  0.00    -0.214 C  
HETATM    8  C   UNL     1      -9.718  11.805  68.656  1.00  0.00    -0.135 A  
HETATM    9  C   UNL     1      -8.532  11.084  68.855  1.00  0.00    -0.124 A  
HETATM   10  C   UNL     1      -8.522   9.957  69.675  1.00  0.00    -0.198 A  
HETATM   11  C   UNL     1      -9.690   9.559  70.322  1.00  0.00    -0.314 A  
HETATM   12  C   UNL     1     -10.872  10.283  70.147  1.00  0.00    -0.362 A  
HETATM   13  C   UNL     1     -10.897  11.406  69.306  1.00  0.00    -0.242 A  
HETATM   14  C   UNL     1     -12.157  12.199  69.110  1.00  0.00    -0.168 C  
HETATM   15  S   UNL     1     -12.122  13.751  70.051  1.00  0.00    -0.345 SA 
HETATM   16  C   UNL     1     -10.864  14.747  69.229  1.00  0.00    -0.264 A  
HETATM   17  C   UNL     1     -10.845  16.080  69.693  1.00  0.00    -0.329 A  
HETATM   18  C   UNL     1      -9.947  17.022  69.191  1.00  0.00    -0.229 A  
HETATM   19  C   UNL     1      -9.041  16.648  68.212  1.00  0.00    -0.218 A  
HETATM   20  C   UNL     1      -9.032  15.332  67.746  1.00  0.00    -0.177 A  
HETATM   21  C   UNL     1      -9.936  14.360  68.233  1.00  0.00    -0.232 A  
ENDBRANCH   5   6
ENDBRANCH   4   5
ENDBRANCH   2   4
TORSDOF 3
ENDMDL
MODEL       68
REMARK 921   NORMALIZED FREE ENERGY PREDICTED BY IDOCK:   -4.46 KCAL/MOL
REMARK 922        TOTAL FREE ENERGY PREDICTED BY IDOCK:   -5.51 KCAL/MOL
REMARK 923 INTER-LIGAND FREE ENERGY PREDICTED BY IDOCK:   -5.07 KCAL/MOL
REMARK 924 INTRA-LIGAND FREE ENERGY PREDICTED BY IDOCK:   -0.44 KCAL/MOL
REMARK 927      BINDING AFFINITY PREDICTED BY RF-SCORE:    0.00 PKD
ROOT
HETATM    1  C   UNL     1     -10.302   7.020  73.989  1.00  0.00    -0.273 C  
HETATM    2  N   UNL     1      -8.892   6.653  74.125  1.00  0.00    -0.148 NA 
HETATM    3  C   UNL     1      -8.778   5.224  74.424  1.00  0.00    -0.115 C  
ENDROOT
BRANCH   2   4
HETATM    4  C   UNL     1      -8.134   7.049  72.918  1.00  0.00    -0.106 C  
BRANCH   4   5
HETATM    5  C   UNL     1      -8.547   8.433  72.384  1.00  0.00    -0.261 C  
BRANCH   5   6
HETATM    6  C   UNL     1      -8.488   8.592  70.879  1.00  0.00    -0.195 C  
HETATM    7  C   UNL     1      -9.558   8.601  70.045  1.00  0.00    -0.175 C  
HETATM    8  C   UNL     1     -10.896   8.349  70.625  1.00  0.00    -0.256 A  
HETATM    9  C   UNL     1     -11.522   9.299  71.445  1.00  0.00    -0.439 A  
HETATM   10  C   UNL     1     -12.753   9.018  72.035  1.00  0.00    -0.467 A  
HETATM   11  C   UNL     1     -13.378   7.797  71.789  1.00  0.00    -0.362 A  
HETATM   12  C   UNL     1     -12.772   6.852  70.957  1.00  0.00    -0.269 A  
HETATM   13  C   UNL     1     -11.524   7.118  70.375  1.00  0.00    -0.317 A  
HETATM   14  C   UNL     1     -10.861   6.117  69.473  1.00  0.00    -0.361 C  
HETATM   15  S   UNL     1     -11.013   6.588  67.727  1.00  0.00    -0.281 SA 
HETATM   16  C   UNL     1      -9.976   8.054  67.564  1.00  0.00    -0.194 A  
HETATM   17  C   UNL     1      -9.800   8.442  66.218  1.00  0.00    -0.257 A  
HETATM   18  C   UNL     1      -9.033   9.552  65.866  1.00  0.00    -0.210 A  
HETATM   19  C   UNL     1      -8.426  10.306  66.858  1.00  0.00    -0.126 A  
HETATM   20  C   UNL     1      -8.597   9.950  68.197  1.00  0.00    -0.118 A  
HETATM   21  C   UNL     1      -9.363   8.824  68.580  1.00  0.00    -0.141 A  
ENDBRANCH   5   6
ENDBRANCH   4   5
ENDBRANCH   2   4
TORSDOF 3
ENDMDL
MODEL       69
REMARK 921   NORMALIZED FREE ENERGY PREDICTED BY IDOCK:   -4.46 KCAL/MOL
REMARK 922        TOTAL FREE ENERGY PREDICTED BY IDOCK:   -5.50 KCAL/MOL
REMARK 923 INTER-LIGAND FREE ENERGY PREDICTED BY IDOCK:   -5.23 KCAL/MOL
REMARK 924 INTRA-LIGAND FREE ENERGY PREDICTED BY IDOCK:   -0.27 KCAL/MOL
REMARK 927      BINDING AFFINITY PREDICTED BY RF-SCORE:    0.00 PKD
ROOT
HETATM    1  C   UNL     1     -11.417   6.238  69.949  1.00  0.00    -0.389 C  
HETATM    2  N   UNL     1     -12.212   6.711  71.082  1.00  0.00    -0.349 NA 
HETATM    3  C   UNL     1     -11.821   5.992  72.297  1.00  0.00    -0.250 C  
ENDROOT
BRANCH   2   4
HETATM    4  C   UNL     1     -12.093   8.179  71.221  1.00  0.00    -0.288 C  
BRANCH   4   5
HETATM    5  C   UNL     1     -10.746   8.718  70.703  1.00  0.00    -0.267 C  
BRANCH   5   6
HETATM    6  C   UNL     1     -10.766  10.151  70.212  1.00  0.00    -0.352 C  
HETATM    7  C   UNL     1     -10.424  10.563  68.965  1.00  0.00    -0.238 C  
HETATM    8  C   UNL     1      -9.902   9.553  68.017  1.00  0.00    -0.181 A  
HETATM    9  C   UNL     1     -10.740   8.572  67.468  1.00  0.00    -0.211 A  
HETATM   10  C   UNL     1     -10.218   7.590  66.628  1.00  0.00    -0.261 A  
HETATM   11  C   UNL     1      -8.861   7.597  66.311  1.00  0.00    -0.182 A  
HETATM   12  C   UNL     1      -8.022   8.583  66.837  1.00  0.00    -0.095 A  
HETATM   13  C   UNL     1      -8.534   9.563  67.699  1.00  0.00    -0.122 A  
HETATM   14  C   UNL     1      -7.648  10.634  68.269  1.00  0.00    -0.097 C  
HETATM   15  S   UNL     1      -7.891  12.221  67.423  1.00  0.00    -0.177 SA 
HETATM   16  C   UNL     1      -9.547  12.741  67.910  1.00  0.00    -0.211 A  
HETATM   17  C   UNL     1      -9.832  14.067  67.517  1.00  0.00    -0.236 A  
HETATM   18  C   UNL     1     -11.059  14.669  67.794  1.00  0.00    -0.306 A  
HETATM   19  C   UNL     1     -12.035  13.954  68.468  1.00  0.00    -0.394 A  
HETATM   20  C   UNL     1     -11.782  12.636  68.855  1.00  0.00    -0.370 A  
HETATM   21  C   UNL     1     -10.543  12.005  68.595  1.00  0.00    -0.253 A  
ENDBRANCH   5   6
ENDBRANCH   4   5
ENDBRANCH   2   4
TORSDOF 3
ENDMDL
MODEL       70
REMARK 921   NORMALIZED FREE ENERGY PREDICTED BY IDOCK:   -4.45 KCAL/MOL
REMARK 922        TOTAL FREE ENERGY PREDICTED BY IDOCK:   -5.50 KCAL/MOL
REMARK 923 INTER-LIGAND FREE ENERGY PREDICTED BY IDOCK:   -5.29 KCAL/MOL
REMARK 924 INTRA-LIGAND FREE ENERGY PREDICTED BY IDOCK:   -0.21 KCAL/MOL
REMARK 927      BINDING AFFINITY PREDICTED BY RF-SCORE:    0.00 PKD
ROOT
HETATM    1  C   UNL     1      -8.735   4.460  66.006  1.00  0.00    -0.114 C  
HETATM    2  N   UNL     1      -8.601   5.029  67.347  1.00  0.00    -0.105 NA 
HETATM    3  C   UNL     1      -7.240   4.814  67.844  1.00  0.00    -0.066 C  
ENDROOT
BRANCH   2   4
HETATM    4  C   UNL     1      -8.992   6.456  67.347  1.00  0.00    -0.109 C  
BRANCH   4   5
HETATM    5  C   UNL     1      -9.795   6.852  68.600  1.00  0.00    -0.145 C  
BRANCH   5   6
HETATM    6  C   UNL     1     -10.317   8.274  68.615  1.00  0.00    -0.225 C  
HETATM    7  C   UNL     1     -10.436   9.059  69.715  1.00  0.00    -0.227 C  
HETATM    8  C   UNL     1     -10.117   8.466  71.032  1.00  0.00    -0.242 A  
HETATM    9  C   UNL     1      -8.795   8.159  71.389  1.00  0.00    -0.185 A  
HETATM   10  C   UNL     1      -8.521   7.540  72.607  1.00  0.00    -0.150 A  
HETATM   11  C   UNL     1      -9.560   7.248  73.487  1.00  0.00    -0.293 A  
HETATM   12  C   UNL     1     -10.878   7.568  73.151  1.00  0.00    -0.448 A  
HETATM   13  C   UNL     1     -11.166   8.172  71.918  1.00  0.00    -0.351 A  
HETATM   14  C   UNL     1     -12.576   8.530  71.541  1.00  0.00    -0.316 C  
HETATM   15  S   UNL     1     -12.883  10.310  71.714  1.00  0.00    -0.446 SA 
HETATM   16  C   UNL     1     -11.893  11.065  70.409  1.00  0.00    -0.367 A  
HETATM   17  C   UNL     1     -12.171  12.440  70.250  1.00  0.00    -0.345 A  
HETATM   18  C   UNL     1     -11.517  13.218  69.296  1.00  0.00    -0.345 A  
HETATM   19  C   UNL     1     -10.561  12.637  68.478  1.00  0.00    -0.262 A  
HETATM   20  C   UNL     1     -10.259  11.282  68.626  1.00  0.00    -0.214 A  
HETATM   21  C   UNL     1     -10.914  10.468  69.580  1.00  0.00    -0.333 A  
ENDBRANCH   5   6
ENDBRANCH   4   5
ENDBRANCH   2   4
TORSDOF 3
ENDMDL
MODEL       71
REMARK 921   NORMALIZED FREE ENERGY PREDICTED BY IDOCK:   -4.44 KCAL/MOL
REMARK 922        TOTAL FREE ENERGY PREDICTED BY IDOCK:   -5.48 KCAL/MOL
REMARK 923 INTER-LIGAND FREE ENERGY PREDICTED BY IDOCK:   -5.21 KCAL/MOL
REMARK 924 INTRA-LIGAND FREE ENERGY PREDICTED BY IDOCK:   -0.27 KCAL/MOL
REMARK 927      BINDING AFFINITY PREDICTED BY RF-SCORE:    0.00 PKD
ROOT
HETATM    1  C   UNL     1      -8.024   5.090  66.077  1.00  0.00    -0.107 C  
HETATM    2  N   UNL     1      -9.295   5.422  66.721  1.00  0.00    -0.129 NA 
HETATM    3  C   UNL     1     -10.386   4.694  66.069  1.00  0.00    -0.284 C  
ENDROOT
BRANCH   2   4
HETATM    4  C   UNL     1      -9.222   5.163  68.176  1.00  0.00    -0.116 C  
BRANCH   4   5
HETATM    5  C   UNL     1     -10.437   5.722  68.940  1.00  0.00    -0.326 C  
BRANCH   5   6
HETATM    6  C   UNL     1     -10.839   7.137  68.576  1.00  0.00    -0.141 C  
HETATM    7  C   UNL     1     -10.592   8.243  69.322  1.00  0.00    -0.191 C  
HETATM    8  C   UNL     1      -9.955   8.063  70.646  1.00  0.00    -0.198 A  
HETATM    9  C   UNL     1      -8.610   7.681  70.759  1.00  0.00    -0.134 A  
HETATM   10  C   UNL     1      -8.046   7.453  72.013  1.00  0.00    -0.101 A  
HETATM   11  C   UNL     1      -8.814   7.629  73.162  1.00  0.00    -0.231 A  
HETATM   12  C   UNL     1     -10.148   8.029  73.061  1.00  0.00    -0.351 A  
HETATM   13  C   UNL     1     -10.731   8.242  71.803  1.00  0.00    -0.332 A  
HETATM   14  C   UNL     1     -12.163   8.678  71.676  1.00  0.00    -0.333 C  
HETATM   15  S   UNL     1     -12.290  10.443  71.277  1.00  0.00    -0.409 SA 
HETATM   16  C   UNL     1     -11.659  10.570  69.592  1.00  0.00    -0.271 A  
HETATM   17  C   UNL     1     -11.879  11.847  69.030  1.00  0.00    -0.368 A  
HETATM   18  C   UNL     1     -11.469  12.161  67.734  1.00  0.00    -0.398 A  
HETATM   19  C   UNL     1     -10.822  11.203  66.971  1.00  0.00    -0.338 A  
HETATM   20  C   UNL     1     -10.581   9.938  67.510  1.00  0.00    -0.333 A  
HETATM   21  C   UNL     1     -10.994   9.590  68.818  1.00  0.00    -0.116 A  
ENDBRANCH   5   6
ENDBRANCH   4   5
ENDBRANCH   2   4
TORSDOF 3
ENDMDL
MODEL       72
REMARK 921   NORMALIZED FREE ENERGY PREDICTED BY IDOCK:   -4.41 KCAL/MOL
REMARK 922        TOTAL FREE ENERGY PREDICTED BY IDOCK:   -5.45 KCAL/MOL
REMARK 923 INTER-LIGAND FREE ENERGY PREDICTED BY IDOCK:   -5.37 KCAL/MOL
REMARK 924 INTRA-LIGAND FREE ENERGY PREDICTED BY IDOCK:   -0.07 KCAL/MOL
REMARK 927      BINDING AFFINITY PREDICTED BY RF-SCORE:    0.00 PKD
ROOT
HETATM    1  C   UNL     1     -10.768  14.827  64.939  1.00  0.00    -0.417 C  
HETATM    2  N   UNL     1     -11.302  13.730  64.132  1.00  0.00    -0.317 NA 
HETATM    3  C   UNL     1     -10.286  12.686  63.981  1.00  0.00    -0.389 C  
ENDROOT
BRANCH   2   4
HETATM    4  C   UNL     1     -12.563  13.222  64.716  1.00  0.00    -0.337 C  
BRANCH   4   5
HETATM    5  C   UNL     1     -12.529  13.175  66.255  1.00  0.00    -0.210 C  
BRANCH   5   6
HETATM    6  C   UNL     1     -11.649  12.096  66.852  1.00  0.00    -0.408 C  
HETATM    7  C   UNL     1     -10.885  12.228  67.965  1.00  0.00    -0.253 C  
HETATM    8  C   UNL     1     -10.824  13.556  68.615  1.00  0.00    -0.281 A  
HETATM    9  C   UNL     1     -11.927  14.077  69.306  1.00  0.00    -0.396 A  
HETATM   10  C   UNL     1     -11.874  15.357  69.856  1.00  0.00    -0.373 A  
HETATM   11  C   UNL     1     -10.709  16.113  69.742  1.00  0.00    -0.336 A  
HETATM   12  C   UNL     1      -9.597  15.595  69.073  1.00  0.00    -0.243 A  
HETATM   13  C   UNL     1      -9.649  14.316  68.498  1.00  0.00    -0.220 A  
HETATM   14  C   UNL     1      -8.461  13.741  67.782  1.00  0.00    -0.181 C  
HETATM   15  S   UNL     1      -7.602  12.506  68.796  1.00  0.00     0.039 SA 
HETATM   16  C   UNL     1      -8.752  11.120  68.888  1.00  0.00    -0.080 A  
HETATM   17  C   UNL     1      -8.166   9.972  69.465  1.00  0.00    -0.173 A  
HETATM   18  C   UNL     1      -8.880   8.786  69.631  1.00  0.00    -0.141 A  
HETATM   19  C   UNL     1     -10.204   8.723  69.228  1.00  0.00    -0.215 A  
HETATM   20  C   UNL     1     -10.809   9.850  68.668  1.00  0.00    -0.244 A  
HETATM   21  C   UNL     1     -10.105  11.062  68.480  1.00  0.00    -0.198 A  
ENDBRANCH   5   6
ENDBRANCH   4   5
ENDBRANCH   2   4
TORSDOF 3
ENDMDL
MODEL       73
REMARK 921   NORMALIZED FREE ENERGY PREDICTED BY IDOCK:   -4.40 KCAL/MOL
REMARK 922        TOTAL FREE ENERGY PREDICTED BY IDOCK:   -5.44 KCAL/MOL
REMARK 923 INTER-LIGAND FREE ENERGY PREDICTED BY IDOCK:   -4.98 KCAL/MOL
REMARK 924 INTRA-LIGAND FREE ENERGY PREDICTED BY IDOCK:   -0.46 KCAL/MOL
REMARK 927      BINDING AFFINITY PREDICTED BY RF-SCORE:    0.00 PKD
ROOT
HETATM    1  C   UNL     1      -6.098  13.753  70.512  1.00  0.00    -0.122 C  
HETATM    2  N   UNL     1      -5.792  12.909  69.357  1.00  0.00    -0.089 NA 
HETATM    3  C   UNL     1      -6.143  11.518  69.653  1.00  0.00    -0.114 C  
ENDROOT
BRANCH   2   4
HETATM    4  C   UNL     1      -6.463  13.424  68.144  1.00  0.00    -0.119 C  
BRANCH   4   5
HETATM    5  C   UNL     1      -7.958  13.720  68.373  1.00  0.00    -0.144 C  
BRANCH   5   6
HETATM    6  C   UNL     1      -8.824  13.690  67.130  1.00  0.00    -0.237 C  
HETATM    7  C   UNL     1      -9.550  12.627  66.702  1.00  0.00    -0.249 C  
HETATM    8  C   UNL     1      -9.432  11.355  67.449  1.00  0.00    -0.174 A  
HETATM    9  C   UNL     1      -9.977  11.215  68.733  1.00  0.00    -0.207 A  
HETATM   10  C   UNL     1      -9.799  10.031  69.448  1.00  0.00    -0.240 A  
HETATM   11  C   UNL     1      -9.099   8.972  68.874  1.00  0.00    -0.140 A  
HETATM   12  C   UNL     1      -8.570   9.095  67.587  1.00  0.00    -0.117 A  
HETATM   13  C   UNL     1      -8.726  10.289  66.868  1.00  0.00    -0.131 A  
HETATM   14  C   UNL     1      -8.169  10.437  65.481  1.00  0.00    -0.162 C  
HETATM   15  S   UNL     1      -9.469  10.306  64.222  1.00  0.00    -0.318 SA 
HETATM   16  C   UNL     1     -10.458  11.797  64.440  1.00  0.00    -0.311 A  
HETATM   17  C   UNL     1     -11.399  11.976  63.402  1.00  0.00    -0.484 A  
HETATM   18  C   UNL     1     -12.267  13.067  63.375  1.00  0.00    -0.552 A  
HETATM   19  C   UNL     1     -12.217  14.006  64.394  1.00  0.00    -0.457 A  
HETATM   20  C   UNL     1     -11.305  13.843  65.438  1.00  0.00    -0.311 A  
HETATM   21  C   UNL     1     -10.408  12.750  65.485  1.00  0.00    -0.301 A  
ENDBRANCH   5   6
ENDBRANCH   4   5
ENDBRANCH   2   4
TORSDOF 3
ENDMDL
MODEL       74
REMARK 921   NORMALIZED FREE ENERGY PREDICTED BY IDOCK:   -4.37 KCAL/MOL
REMARK 922        TOTAL FREE ENERGY PREDICTED BY IDOCK:   -5.41 KCAL/MOL
REMARK 923 INTER-LIGAND FREE ENERGY PREDICTED BY IDOCK:   -5.15 KCAL/MOL
REMARK 924 INTRA-LIGAND FREE ENERGY PREDICTED BY IDOCK:   -0.26 KCAL/MOL
REMARK 927      BINDING AFFINITY PREDICTED BY RF-SCORE:    0.00 PKD
ROOT
HETATM    1  C   UNL     1      -9.696   9.011  71.754  1.00  0.00    -0.241 C  
HETATM    2  N   UNL     1     -10.789   9.089  70.784  1.00  0.00    -0.233 NA 
HETATM    3  C   UNL     1     -11.988   9.625  71.432  1.00  0.00    -0.399 C  
ENDROOT
BRANCH   2   4
HETATM    4  C   UNL     1     -10.377   9.875  69.601  1.00  0.00    -0.241 C  
BRANCH   4   5
HETATM    5  C   UNL     1     -11.475  10.843  69.118  1.00  0.00    -0.373 C  
BRANCH   5   6
HETATM    6  C   UNL     1     -11.097  12.309  69.125  1.00  0.00    -0.261 C  
HETATM    7  C   UNL     1     -10.419  12.953  68.141  1.00  0.00    -0.245 C  
HETATM    8  C   UNL     1      -9.924  12.153  66.998  1.00  0.00    -0.213 A  
HETATM    9  C   UNL     1     -10.808  11.621  66.048  1.00  0.00    -0.339 A  
HETATM   10  C   UNL     1     -10.329  10.817  65.015  1.00  0.00    -0.357 A  
HETATM   11  C   UNL     1      -8.964  10.559  64.910  1.00  0.00    -0.222 A  
HETATM   12  C   UNL     1      -8.073  11.102  65.840  1.00  0.00    -0.017 A  
HETATM   13  C   UNL     1      -8.547  11.896  66.895  1.00  0.00    -0.185 A  
HETATM   14  C   UNL     1      -7.604  12.492  67.900  1.00  0.00    -0.133 C  
HETATM   15  S   UNL     1      -7.331  14.260  67.594  1.00  0.00    -0.179 SA 
HETATM   16  C   UNL     1      -8.911  15.033  67.987  1.00  0.00    -0.165 A  
HETATM   17  C   UNL     1      -8.829  16.443  68.012  1.00  0.00    -0.184 A  
HETATM   18  C   UNL     1      -9.937  17.240  68.296  1.00  0.00    -0.313 A  
HETATM   19  C   UNL     1     -11.160  16.643  68.557  1.00  0.00    -0.301 A  
HETATM   20  C   UNL     1     -11.269  15.252  68.525  1.00  0.00    -0.308 A  
HETATM   21  C   UNL     1     -10.159  14.420  68.248  1.00  0.00    -0.239 A  
ENDBRANCH   5   6
ENDBRANCH   4   5
ENDBRANCH   2   4
TORSDOF 3
ENDMDL
MODEL       75
REMARK 921   NORMALIZED FREE ENERGY PREDICTED BY IDOCK:   -4.34 KCAL/MOL
REMARK 922        TOTAL FREE ENERGY PREDICTED BY IDOCK:   -5.37 KCAL/MOL
REMARK 923 INTER-LIGAND FREE ENERGY PREDICTED BY IDOCK:   -4.95 KCAL/MOL
REMARK 924 INTRA-LIGAND FREE ENERGY PREDICTED BY IDOCK:   -0.42 KCAL/MOL
REMARK 927      BINDING AFFINITY PREDICTED BY RF-SCORE:    0.00 PKD
ROOT
HETATM    1  C   UNL     1     -11.918  13.177  63.816  1.00  0.00    -0.508 C  
HETATM    2  N   UNL     1     -11.465  13.894  65.008  1.00  0.00    -0.327 NA 
HETATM    3  C   UNL     1     -11.312  15.318  64.702  1.00  0.00    -0.358 C  
ENDROOT
BRANCH   2   4
HETATM    4  C   UNL     1     -12.383  13.647  66.142  1.00  0.00    -0.426 C  
BRANCH   4   5
HETATM    5  C   UNL     1     -11.738  12.797  67.254  1.00  0.00    -0.440 C  
BRANCH   5   6
HETATM    6  C   UNL     1     -10.375  13.264  67.721  1.00  0.00    -0.233 C  
HETATM    7  C   UNL     1      -9.214  12.576  67.578  1.00  0.00    -0.188 C  
HETATM    8  C   UNL     1      -9.277  11.216  66.998  1.00  0.00    -0.172 A  
HETATM    9  C   UNL     1      -9.566  11.019  65.640  1.00  0.00    -0.265 A  
HETATM   10  C   UNL     1      -9.685   9.729  65.126  1.00  0.00    -0.338 A  
HETATM   11  C   UNL     1      -9.491   8.629  65.959  1.00  0.00    -0.278 A  
HETATM   12  C   UNL     1      -9.183   8.815  67.308  1.00  0.00    -0.165 A  
HETATM   13  C   UNL     1      -9.081  10.109  67.840  1.00  0.00    -0.133 A  
HETATM   14  C   UNL     1      -8.744  10.328  69.287  1.00  0.00    -0.174 C  
HETATM   15  S   UNL     1      -7.016  10.840  69.501  1.00  0.00    -0.134 SA 
HETATM   16  C   UNL     1      -6.947  12.498  68.796  1.00  0.00    -0.094 A  
HETATM   17  C   UNL     1      -5.722  13.146  69.064  1.00  0.00    -0.076 A  
HETATM   18  C   UNL     1      -5.458  14.438  68.610  1.00  0.00    -0.094 A  
HETATM   19  C   UNL     1      -6.416  15.112  67.870  1.00  0.00    -0.176 A  
HETATM   20  C   UNL     1      -7.630  14.486  67.580  1.00  0.00    -0.211 A  
HETATM   21  C   UNL     1      -7.926  13.180  68.035  1.00  0.00    -0.156 A  
ENDBRANCH   5   6
ENDBRANCH   4   5
ENDBRANCH   2   4
TORSDOF 3
ENDMDL
MODEL       76
REMARK 921   NORMALIZED FREE ENERGY PREDICTED BY IDOCK:   -4.32 KCAL/MOL
REMARK 922        TOTAL FREE ENERGY PREDICTED BY IDOCK:   -5.35 KCAL/MOL
REMARK 923 INTER-LIGAND FREE ENERGY PREDICTED BY IDOCK:   -5.15 KCAL/MOL
REMARK 924 INTRA-LIGAND FREE ENERGY PREDICTED BY IDOCK:   -0.20 KCAL/MOL
REMARK 927      BINDING AFFINITY PREDICTED BY RF-SCORE:    0.00 PKD
ROOT
HETATM    1  C   UNL     1     -12.900  12.966  71.120  1.00  0.00    -0.238 C  
HETATM    2  N   UNL     1     -12.152  11.864  70.515  1.00  0.00    -0.372 NA 
HETATM    3  C   UNL     1     -12.788  10.589  70.851  1.00  0.00    -0.394 C  
ENDROOT
BRANCH   2   4
HETATM    4  C   UNL     1     -12.014  12.069  69.056  1.00  0.00    -0.264 C  
BRANCH   4   5
HETATM    5  C   UNL     1     -11.987  13.560  68.666  1.00  0.00    -0.378 C  
BRANCH   5   6
HETATM    6  C   UNL     1     -10.632  14.231  68.761  1.00  0.00    -0.255 C  
HETATM    7  C   UNL     1      -9.661  14.184  67.815  1.00  0.00    -0.223 C  
HETATM    8  C   UNL     1      -9.891  13.340  66.621  1.00  0.00    -0.276 A  
HETATM    9  C   UNL     1     -10.830  13.704  65.645  1.00  0.00    -0.280 A  
HETATM   10  C   UNL     1     -11.081  12.864  64.561  1.00  0.00    -0.373 A  
HETATM   11  C   UNL     1     -10.376  11.669  64.432  1.00  0.00    -0.362 A  
HETATM   12  C   UNL     1      -9.424  11.307  65.388  1.00  0.00    -0.251 A  
HETATM   13  C   UNL     1      -9.180  12.136  66.493  1.00  0.00    -0.216 A  
HETATM   14  C   UNL     1      -8.156  11.766  67.528  1.00  0.00    -0.152 C  
HETATM   15  S   UNL     1      -6.629  12.728  67.330  1.00  0.00    -0.079 SA 
HETATM   16  C   UNL     1      -7.097  14.410  67.782  1.00  0.00    -0.176 A  
HETATM   17  C   UNL     1      -5.980  15.267  67.894  1.00  0.00    -0.166 A  
HETATM   18  C   UNL     1      -6.116  16.613  68.234  1.00  0.00    -0.125 A  
HETATM   19  C   UNL     1      -7.378  17.135  68.466  1.00  0.00    -0.231 A  
HETATM   20  C   UNL     1      -8.499  16.310  68.347  1.00  0.00    -0.195 A  
HETATM   21  C   UNL     1      -8.388  14.941  68.012  1.00  0.00    -0.147 A  
ENDBRANCH   5   6
ENDBRANCH   4   5
ENDBRANCH   2   4
TORSDOF 3
ENDMDL
MODEL       77
REMARK 921   NORMALIZED FREE ENERGY PREDICTED BY IDOCK:   -4.30 KCAL/MOL
REMARK 922        TOTAL FREE ENERGY PREDICTED BY IDOCK:   -5.32 KCAL/MOL
REMARK 923 INTER-LIGAND FREE ENERGY PREDICTED BY IDOCK:   -4.78 KCAL/MOL
REMARK 924 INTRA-LIGAND FREE ENERGY PREDICTED BY IDOCK:   -0.55 KCAL/MOL
REMARK 927      BINDING AFFINITY PREDICTED BY RF-SCORE:    0.00 PKD
ROOT
HETATM    1  C   UNL     1      -9.615   7.458  73.891  1.00  0.00    -0.254 C  
HETATM    2  N   UNL     1     -10.412   7.242  72.683  1.00  0.00    -0.226 NA 
HETATM    3  C   UNL     1     -10.591   5.806  72.458  1.00  0.00    -0.221 C  
ENDROOT
BRANCH   2   4
HETATM    4  C   UNL     1     -11.696   7.973  72.771  1.00  0.00    -0.290 C  
BRANCH   4   5
HETATM    5  C   UNL     1     -12.361   8.172  71.396  1.00  0.00    -0.323 C  
BRANCH   5   6
HETATM    6  C   UNL     1     -11.909   9.396  70.627  1.00  0.00    -0.268 C  
HETATM    7  C   UNL     1     -10.963   9.411  69.655  1.00  0.00    -0.216 C  
HETATM    8  C   UNL     1     -10.239   8.153  69.368  1.00  0.00    -0.211 A  
HETATM    9  C   UNL     1     -10.877   7.077  68.735  1.00  0.00    -0.198 A  
HETATM   10  C   UNL     1     -10.198   5.876  68.532  1.00  0.00    -0.240 A  
HETATM   11  C   UNL     1      -8.870   5.753  68.935  1.00  0.00    -0.110 A  
HETATM   12  C   UNL     1      -8.219   6.827  69.547  1.00  0.00    -0.131 A  
HETATM   13  C   UNL     1      -8.900   8.032  69.775  1.00  0.00    -0.144 A  
HETATM   14  C   UNL     1      -8.214   9.198  70.427  1.00  0.00    -0.171 C  
HETATM   15  S   UNL     1      -7.765  10.471  69.214  1.00  0.00    -0.141 SA 
HETATM   16  C   UNL     1      -9.343  11.156  68.676  1.00  0.00    -0.184 A  
HETATM   17  C   UNL     1      -9.185  12.314  67.883  1.00  0.00    -0.190 A  
HETATM   18  C   UNL     1     -10.279  13.005  67.361  1.00  0.00    -0.231 A  
HETATM   19  C   UNL     1     -11.561  12.547  67.617  1.00  0.00    -0.416 A  
HETATM   20  C   UNL     1     -11.743  11.396  68.387  1.00  0.00    -0.373 A  
HETATM   21  C   UNL     1     -10.651  10.682  68.935  1.00  0.00    -0.241 A  
ENDBRANCH   5   6
ENDBRANCH   4   5
ENDBRANCH   2   4
TORSDOF 3
ENDMDL
MODEL       78
REMARK 921   NORMALIZED FREE ENERGY PREDICTED BY IDOCK:   -4.30 KCAL/MOL
REMARK 922        TOTAL FREE ENERGY PREDICTED BY IDOCK:   -5.32 KCAL/MOL
REMARK 923 INTER-LIGAND FREE ENERGY PREDICTED BY IDOCK:   -5.09 KCAL/MOL
REMARK 924 INTRA-LIGAND FREE ENERGY PREDICTED BY IDOCK:   -0.23 KCAL/MOL
REMARK 927      BINDING AFFINITY PREDICTED BY RF-SCORE:    0.00 PKD
ROOT
HETATM    1  C   UNL     1      -9.574   3.926  65.246  1.00  0.00    -0.185 C  
HETATM    2  N   UNL     1      -8.883   4.714  66.266  1.00  0.00    -0.113 NA 
HETATM    3  C   UNL     1      -7.446   4.431  66.222  1.00  0.00    -0.085 C  
ENDROOT
BRANCH   2   4
HETATM    4  C   UNL     1      -9.189   6.152  66.107  1.00  0.00    -0.131 C  
BRANCH   4   5
HETATM    5  C   UNL     1      -9.862   6.758  67.353  1.00  0.00    -0.174 C  
BRANCH   5   6
HETATM    6  C   UNL     1     -10.477   8.129  67.157  1.00  0.00    -0.396 C  
HETATM    7  C   UNL     1     -10.267   9.208  67.952  1.00  0.00    -0.266 C  
HETATM    8  C   UNL     1      -9.440   9.029  69.166  1.00  0.00    -0.153 A  
HETATM    9  C   UNL     1      -8.056   8.819  69.077  1.00  0.00    -0.116 A  
HETATM   10  C   UNL     1      -7.303   8.587  70.227  1.00  0.00    -0.052 A  
HETATM   11  C   UNL     1      -7.924   8.588  71.475  1.00  0.00    -0.169 A  
HETATM   12  C   UNL     1      -9.298   8.817  71.576  1.00  0.00    -0.337 A  
HETATM   13  C   UNL     1     -10.068   9.031  70.422  1.00  0.00    -0.248 A  
HETATM   14  C   UNL     1     -11.545   9.283  70.513  1.00  0.00    -0.217 C  
HETATM   15  S   UNL     1     -11.938  11.039  70.276  1.00  0.00    -0.391 SA 
HETATM   16  C   UNL     1     -11.562  11.354  68.541  1.00  0.00    -0.318 A  
HETATM   17  C   UNL     1     -12.008  12.624  68.115  1.00  0.00    -0.274 A  
HETATM   18  C   UNL     1     -11.819  13.071  66.808  1.00  0.00    -0.451 A  
HETATM   19  C   UNL     1     -11.171  12.256  65.894  1.00  0.00    -0.381 A  
HETATM   20  C   UNL     1     -10.707  11.001  66.295  1.00  0.00    -0.273 A  
HETATM   21  C   UNL     1     -10.894  10.520  67.613  1.00  0.00    -0.355 A  
ENDBRANCH   5   6
ENDBRANCH   4   5
ENDBRANCH   2   4
TORSDOF 3
ENDMDL
MODEL       79
REMARK 921   NORMALIZED FREE ENERGY PREDICTED BY IDOCK:   -4.29 KCAL/MOL
REMARK 922        TOTAL FREE ENERGY PREDICTED BY IDOCK:   -5.31 KCAL/MOL
REMARK 923 INTER-LIGAND FREE ENERGY PREDICTED BY IDOCK:   -4.93 KCAL/MOL
REMARK 924 INTRA-LIGAND FREE ENERGY PREDICTED BY IDOCK:   -0.38 KCAL/MOL
REMARK 927      BINDING AFFINITY PREDICTED BY RF-SCORE:    0.00 PKD
ROOT
HETATM    1  C   UNL     1     -10.460  17.185  67.883  1.00  0.00    -0.369 C  
HETATM    2  N   UNL     1     -10.289  17.182  66.429  1.00  0.00    -0.323 NA 
HETATM    3  C   UNL     1      -8.864  17.244  66.097  1.00  0.00    -0.160 C  
ENDROOT
BRANCH   2   4
HETATM    4  C   UNL     1     -10.968  16.013  65.829  1.00  0.00    -0.140 C  
BRANCH   4   5
HETATM    5  C   UNL     1     -10.179  14.703  66.026  1.00  0.00    -0.326 C  
BRANCH   5   6
HETATM    6  C   UNL     1     -10.772  13.733  67.026  1.00  0.00    -0.283 C  
HETATM    7  C   UNL     1     -10.074  13.035  67.957  1.00  0.00    -0.235 C  
HETATM    8  C   UNL     1      -8.599  13.153  67.954  1.00  0.00    -0.185 A  
HETATM    9  C   UNL     1      -7.964  14.336  68.358  1.00  0.00    -0.143 A  
HETATM   10  C   UNL     1      -6.577  14.451  68.287  1.00  0.00    -0.116 A  
HETATM   11  C   UNL     1      -5.814  13.377  67.835  1.00  0.00    -0.135 A  
HETATM   12  C   UNL     1      -6.435  12.186  67.450  1.00  0.00    -0.149 A  
HETATM   13  C   UNL     1      -7.832  12.068  67.498  1.00  0.00    -0.155 A  
HETATM   14  C   UNL     1      -8.516  10.794  67.093  1.00  0.00    -0.126 C  
HETATM   15  S   UNL     1      -9.066   9.842  68.538  1.00  0.00    -0.128 SA 
HETATM   16  C   UNL     1     -10.398  10.830  69.246  1.00  0.00    -0.205 A  
HETATM   17  C   UNL     1     -11.096  10.142  70.262  1.00  0.00    -0.384 A  
HETATM   18  C   UNL     1     -12.165  10.723  70.944  1.00  0.00    -0.487 A  
HETATM   19  C   UNL     1     -12.558  12.013  70.627  1.00  0.00    -0.255 A  
HETATM   20  C   UNL     1     -11.874  12.719  69.635  1.00  0.00    -0.384 A  
HETATM   21  C   UNL     1     -10.792  12.150  68.923  1.00  0.00    -0.241 A  
ENDBRANCH   5   6
ENDBRANCH   4   5
ENDBRANCH   2   4
TORSDOF 3
ENDMDL
MODEL       80
REMARK 921   NORMALIZED FREE ENERGY PREDICTED BY IDOCK:   -4.28 KCAL/MOL
REMARK 922        TOTAL FREE ENERGY PREDICTED BY IDOCK:   -5.30 KCAL/MOL
REMARK 923 INTER-LIGAND FREE ENERGY PREDICTED BY IDOCK:   -5.09 KCAL/MOL
REMARK 924 INTRA-LIGAND FREE ENERGY PREDICTED BY IDOCK:   -0.21 KCAL/MOL
REMARK 927      BINDING AFFINITY PREDICTED BY RF-SCORE:    0.00 PKD
ROOT
HETATM    1  C   UNL     1     -13.328   9.539  71.829  1.00  0.00    -0.422 C  
HETATM    2  N   UNL     1     -12.128  10.208  71.325  1.00  0.00    -0.377 NA 
HETATM    3  C   UNL     1     -10.944   9.407  71.643  1.00  0.00    -0.312 C  
ENDROOT
BRANCH   2   4
HETATM    4  C   UNL     1     -12.259  10.489  69.879  1.00  0.00    -0.218 C  
BRANCH   4   5
HETATM    5  C   UNL     1     -11.518  11.771  69.453  1.00  0.00    -0.371 C  
BRANCH   5   6
HETATM    6  C   UNL     1     -10.074  11.579  69.038  1.00  0.00    -0.075 C  
HETATM    7  C   UNL     1      -9.560  11.871  67.817  1.00  0.00    -0.190 C  
HETATM    8  C   UNL     1     -10.488  12.336  66.762  1.00  0.00    -0.242 A  
HETATM    9  C   UNL     1     -11.077  13.607  66.823  1.00  0.00    -0.315 A  
HETATM   10  C   UNL     1     -12.000  14.002  65.856  1.00  0.00    -0.424 A  
HETATM   11  C   UNL     1     -12.320  13.141  64.808  1.00  0.00    -0.477 A  
HETATM   12  C   UNL     1     -11.723  11.881  64.727  1.00  0.00    -0.282 A  
HETATM   13  C   UNL     1     -10.809  11.466  65.708  1.00  0.00    -0.290 A  
HETATM   14  C   UNL     1     -10.153  10.117  65.634  1.00  0.00    -0.254 C  
HETATM   15  S   UNL     1      -8.437  10.239  65.056  1.00  0.00    -0.176 SA 
HETATM   16  C   UNL     1      -7.566  11.058  66.405  1.00  0.00    -0.135 A  
HETATM   17  C   UNL     1      -6.165  11.050  66.225  1.00  0.00    -0.126 A  
HETATM   18  C   UNL     1      -5.300  11.631  67.153  1.00  0.00    -0.104 A  
HETATM   19  C   UNL     1      -5.820  12.241  68.283  1.00  0.00    -0.057 A  
HETATM   20  C   UNL     1      -7.202  12.274  68.476  1.00  0.00    -0.103 A  
HETATM   21  C   UNL     1      -8.101  11.685  67.556  1.00  0.00    -0.144 A  
ENDBRANCH   5   6
ENDBRANCH   4   5
ENDBRANCH   2   4
TORSDOF 3
ENDMDL
MODEL       81
REMARK 921   NORMALIZED FREE ENERGY PREDICTED BY IDOCK:   -4.26 KCAL/MOL
REMARK 922        TOTAL FREE ENERGY PREDICTED BY IDOCK:   -5.28 KCAL/MOL
REMARK 923 INTER-LIGAND FREE ENERGY PREDICTED BY IDOCK:   -5.00 KCAL/MOL
REMARK 924 INTRA-LIGAND FREE ENERGY PREDICTED BY IDOCK:   -0.28 KCAL/MOL
REMARK 927      BINDING AFFINITY PREDICTED BY RF-SCORE:    0.00 PKD
ROOT
HETATM    1  C   UNL     1      -6.169  13.905  70.333  1.00  0.00    -0.105 C  
HETATM    2  N   UNL     1      -5.554  12.891  69.475  1.00  0.00    -0.083 NA 
HETATM    3  C   UNL     1      -5.396  11.640  70.221  1.00  0.00    -0.111 C  
ENDROOT
BRANCH   2   4
HETATM    4  C   UNL     1      -6.334  12.723  68.230  1.00  0.00    -0.078 C  
BRANCH   4   5
HETATM    5  C   UNL     1      -7.845  12.932  68.442  1.00  0.00    -0.133 C  
BRANCH   5   6
HETATM    6  C   UNL     1      -8.733  12.442  67.317  1.00  0.00    -0.191 C  
HETATM    7  C   UNL     1      -9.501  13.227  66.520  1.00  0.00    -0.251 C  
HETATM    8  C   UNL     1      -9.556  14.677  66.814  1.00  0.00    -0.266 A  
HETATM    9  C   UNL     1      -8.451  15.508  66.577  1.00  0.00    -0.283 A  
HETATM   10  C   UNL     1      -8.499  16.858  66.921  1.00  0.00    -0.243 A  
HETATM   11  C   UNL     1      -9.658  17.391  67.480  1.00  0.00    -0.257 A  
HETATM   12  C   UNL     1     -10.771  16.576  67.701  1.00  0.00    -0.311 A  
HETATM   13  C   UNL     1     -10.725  15.212  67.378  1.00  0.00    -0.286 A  
HETATM   14  C   UNL     1     -11.914  14.322  67.603  1.00  0.00    -0.365 C  
HETATM   15  S   UNL     1     -12.785  13.964  66.052  1.00  0.00    -0.228 SA 
HETATM   16  C   UNL     1     -11.644  12.917  65.127  1.00  0.00    -0.332 A  
HETATM   17  C   UNL     1     -12.238  12.360  63.974  1.00  0.00    -0.579 A  
HETATM   18  C   UNL     1     -11.532  11.519  63.115  1.00  0.00    -0.039 A  
HETATM   19  C   UNL     1     -10.207  11.219  63.388  1.00  0.00    -0.454 A  
HETATM   20  C   UNL     1      -9.593  11.770  64.515  1.00  0.00    -0.093 A  
HETATM   21  C   UNL     1     -10.289  12.619  65.407  1.00  0.00    -0.311 A  
ENDBRANCH   5   6
ENDBRANCH   4   5
ENDBRANCH   2   4
TORSDOF 3
ENDMDL
MODEL       82
REMARK 921   NORMALIZED FREE ENERGY PREDICTED BY IDOCK:   -4.22 KCAL/MOL
REMARK 922        TOTAL FREE ENERGY PREDICTED BY IDOCK:   -5.22 KCAL/MOL
REMARK 923 INTER-LIGAND FREE ENERGY PREDICTED BY IDOCK:   -5.03 KCAL/MOL
REMARK 924 INTRA-LIGAND FREE ENERGY PREDICTED BY IDOCK:   -0.19 KCAL/MOL
REMARK 927      BINDING AFFINITY PREDICTED BY RF-SCORE:    0.00 PKD
ROOT
HETATM    1  C   UNL     1     -10.027   4.443  65.587  1.00  0.00    -0.236 C  
HETATM    2  N   UNL     1     -10.136   5.029  66.924  1.00  0.00    -0.209 NA 
HETATM    3  C   UNL     1      -8.836   4.975  67.596  1.00  0.00    -0.103 C  
ENDROOT
BRANCH   2   4
HETATM    4  C   UNL     1     -10.686   6.400  66.846  1.00  0.00    -0.338 C  
BRANCH   4   5
HETATM    5  C   UNL     1     -10.321   7.256  68.074  1.00  0.00    -0.243 C  
BRANCH   5   6
HETATM    6  C   UNL     1      -9.471   8.477  67.784  1.00  0.00    -0.168 C  
HETATM    7  C   UNL     1      -9.478   9.630  68.499  1.00  0.00    -0.145 C  
HETATM    8  C   UNL     1     -10.453   9.758  69.605  1.00  0.00    -0.263 A  
HETATM    9  C   UNL     1     -10.308   9.020  70.789  1.00  0.00    -0.305 A  
HETATM   10  C   UNL     1     -11.271   9.105  71.793  1.00  0.00    -0.451 A  
HETATM   11  C   UNL     1     -12.371   9.946  71.632  1.00  0.00    -0.496 A  
HETATM   12  C   UNL     1     -12.513  10.701  70.465  1.00  0.00    -0.445 A  
HETATM   13  C   UNL     1     -11.560  10.607  69.440  1.00  0.00    -0.352 A  
HETATM   14  C   UNL     1     -11.693  11.415  68.181  1.00  0.00    -0.284 C  
HETATM   15  S   UNL     1     -10.562  12.834  68.175  1.00  0.00    -0.235 SA 
HETATM   16  C   UNL     1      -8.921  12.100  68.033  1.00  0.00    -0.189 A  
HETATM   17  C   UNL     1      -7.918  13.065  67.797  1.00  0.00    -0.164 A  
HETATM   18  C   UNL     1      -6.576  12.713  67.655  1.00  0.00    -0.143 A  
HETATM   19  C   UNL     1      -6.205  11.382  67.751  1.00  0.00    -0.050 A  
HETATM   20  C   UNL     1      -7.177  10.410  67.997  1.00  0.00    -0.084 A  
HETATM   21  C   UNL     1      -8.546  10.739  68.137  1.00  0.00    -0.129 A  
ENDBRANCH   5   6
ENDBRANCH   4   5
ENDBRANCH   2   4
TORSDOF 3
ENDMDL
MODEL       83
REMARK 921   NORMALIZED FREE ENERGY PREDICTED BY IDOCK:   -4.20 KCAL/MOL
REMARK 922        TOTAL FREE ENERGY PREDICTED BY IDOCK:   -5.21 KCAL/MOL
REMARK 923 INTER-LIGAND FREE ENERGY PREDICTED BY IDOCK:   -4.96 KCAL/MOL
REMARK 924 INTRA-LIGAND FREE ENERGY PREDICTED BY IDOCK:   -0.25 KCAL/MOL
REMARK 927      BINDING AFFINITY PREDICTED BY RF-SCORE:    0.00 PKD
ROOT
HETATM    1  C   UNL     1      -9.231   5.468  68.255  1.00  0.00    -0.109 C  
HETATM    2  N   UNL     1      -9.276   6.117  66.944  1.00  0.00    -0.125 NA 
HETATM    3  C   UNL     1     -10.002   5.269  65.996  1.00  0.00    -0.124 C  
ENDROOT
BRANCH   2   4
HETATM    4  C   UNL     1      -9.853   7.474  67.057  1.00  0.00    -0.214 C  
BRANCH   4   5
HETATM    5  C   UNL     1      -9.234   8.468  66.056  1.00  0.00    -0.262 C  
BRANCH   5   6
HETATM    6  C   UNL     1     -10.116   9.638  65.672  1.00  0.00    -0.231 C  
HETATM    7  C   UNL     1      -9.827  10.946  65.884  1.00  0.00    -0.285 C  
HETATM    8  C   UNL     1      -8.590  11.275  66.627  1.00  0.00    -0.167 A  
HETATM    9  C   UNL     1      -7.325  11.083  66.053  1.00  0.00    -0.025 A  
HETATM   10  C   UNL     1      -6.171  11.337  66.792  1.00  0.00    -0.134 A  
HETATM   11  C   UNL     1      -6.272  11.807  68.099  1.00  0.00    -0.050 A  
HETATM   12  C   UNL     1      -7.528  12.021  68.673  1.00  0.00    -0.113 A  
HETATM   13  C   UNL     1      -8.696  11.750  67.945  1.00  0.00    -0.164 A  
HETATM   14  C   UNL     1     -10.053  11.979  68.544  1.00  0.00    -0.196 C  
HETATM   15  S   UNL     1     -10.820  13.494  67.901  1.00  0.00    -0.253 SA 
HETATM   16  C   UNL     1     -11.178  13.118  66.175  1.00  0.00    -0.295 A  
HETATM   17  C   UNL     1     -11.975  14.110  65.562  1.00  0.00    -0.394 A  
HETATM   18  C   UNL     1     -12.369  14.017  64.228  1.00  0.00    -0.393 A  
HETATM   19  C   UNL     1     -11.970  12.928  63.471  1.00  0.00    -0.629 A  
HETATM   20  C   UNL     1     -11.170  11.941  64.050  1.00  0.00    -0.470 A  
HETATM   21  C   UNL     1     -10.763  12.006  65.404  1.00  0.00    -0.330 A  
ENDBRANCH   5   6
ENDBRANCH   4   5
ENDBRANCH   2   4
TORSDOF 3
ENDMDL
MODEL       84
REMARK 921   NORMALIZED FREE ENERGY PREDICTED BY IDOCK:   -4.18 KCAL/MOL
REMARK 922        TOTAL FREE ENERGY PREDICTED BY IDOCK:   -5.18 KCAL/MOL
REMARK 923 INTER-LIGAND FREE ENERGY PREDICTED BY IDOCK:   -4.78 KCAL/MOL
REMARK 924 INTRA-LIGAND FREE ENERGY PREDICTED BY IDOCK:   -0.39 KCAL/MOL
REMARK 927      BINDING AFFINITY PREDICTED BY RF-SCORE:    0.00 PKD
ROOT
HETATM    1  C   UNL     1     -12.453  12.195  63.460  1.00  0.00    -0.555 C  
HETATM    2  N   UNL     1     -11.217  11.871  64.173  1.00  0.00    -0.353 NA 
HETATM    3  C   UNL     1     -10.084  11.913  63.246  1.00  0.00    -0.396 C  
ENDROOT
BRANCH   2   4
HETATM    4  C   UNL     1     -11.040  12.767  65.337  1.00  0.00    -0.284 C  
BRANCH   4   5
HETATM    5  C   UNL     1     -10.636  12.008  66.615  1.00  0.00    -0.266 C  
BRANCH   5   6
HETATM    6  C   UNL     1     -10.631  10.498  66.499  1.00  0.00    -0.240 C  
HETATM    7  C   UNL     1      -9.558   9.695  66.710  1.00  0.00    -0.225 C  
HETATM    8  C   UNL     1      -8.254  10.335  66.994  1.00  0.00    -0.122 A  
HETATM    9  C   UNL     1      -8.014  10.984  68.214  1.00  0.00    -0.124 A  
HETATM   10  C   UNL     1      -6.803  11.637  68.438  1.00  0.00    -0.071 A  
HETATM   11  C   UNL     1      -5.815  11.624  67.456  1.00  0.00    -0.075 A  
HETATM   12  C   UNL     1      -6.037  10.963  66.245  1.00  0.00    -0.137 A  
HETATM   13  C   UNL     1      -7.260  10.320  66.002  1.00  0.00    -0.128 A  
HETATM   14  C   UNL     1      -7.513   9.599  64.709  1.00  0.00    -0.122 C  
HETATM   15  S   UNL     1      -7.385   7.800  64.911  1.00  0.00    -0.075 SA 
HETATM   16  C   UNL     1      -8.809   7.360  65.925  1.00  0.00    -0.120 A  
HETATM   17  C   UNL     1      -8.997   5.963  66.012  1.00  0.00    -0.159 A  
HETATM   18  C   UNL     1     -10.042   5.405  66.748  1.00  0.00    -0.246 A  
HETATM   19  C   UNL     1     -10.923   6.235  67.422  1.00  0.00    -0.447 A  
HETATM   20  C   UNL     1     -10.750   7.619  67.363  1.00  0.00    -0.318 A  
HETATM   21  C   UNL     1      -9.704   8.211  66.617  1.00  0.00    -0.318 A  
ENDBRANCH   5   6
ENDBRANCH   4   5
ENDBRANCH   2   4
TORSDOF 3
ENDMDL
MODEL       85
REMARK 921   NORMALIZED FREE ENERGY PREDICTED BY IDOCK:   -4.16 KCAL/MOL
REMARK 922        TOTAL FREE ENERGY PREDICTED BY IDOCK:   -5.15 KCAL/MOL
REMARK 923 INTER-LIGAND FREE ENERGY PREDICTED BY IDOCK:   -5.08 KCAL/MOL
REMARK 924 INTRA-LIGAND FREE ENERGY PREDICTED BY IDOCK:   -0.07 KCAL/MOL
REMARK 927      BINDING AFFINITY PREDICTED BY RF-SCORE:    0.00 PKD
ROOT
HETATM    1  C   UNL     1      -8.835  16.995  67.632  1.00  0.00    -0.220 C  
HETATM    2  N   UNL     1      -9.893  16.370  68.426  1.00  0.00    -0.226 NA 
HETATM    3  C   UNL     1     -11.038  16.058  67.568  1.00  0.00    -0.207 C  
ENDROOT
BRANCH   2   4
HETATM    4  C   UNL     1      -9.373  15.185  69.142  1.00  0.00    -0.215 C  
BRANCH   4   5
HETATM    5  C   UNL     1     -10.263  13.940  68.956  1.00  0.00    -0.071 C  
BRANCH   5   6
HETATM    6  C   UNL     1      -9.822  12.984  67.868  1.00  0.00    -0.224 C  
HETATM    7  C   UNL     1     -10.077  11.652  67.838  1.00  0.00    -0.198 C  
HETATM    8  C   UNL     1     -10.767  11.048  69.000  1.00  0.00    -0.258 A  
HETATM    9  C   UNL     1     -12.122  11.306  69.254  1.00  0.00    -0.372 A  
HETATM   10  C   UNL     1     -12.738  10.782  70.389  1.00  0.00    -0.346 A  
HETATM   11  C   UNL     1     -12.012   9.976  71.263  1.00  0.00    -0.483 A  
HETATM   12  C   UNL     1     -10.667   9.696  71.009  1.00  0.00    -0.393 A  
HETATM   13  C   UNL     1     -10.033  10.236  69.880  1.00  0.00    -0.183 A  
HETATM   14  C   UNL     1      -8.590   9.941  69.587  1.00  0.00    -0.194 C  
HETATM   15  S   UNL     1      -8.414   8.718  68.258  1.00  0.00    -0.131 SA 
HETATM   16  C   UNL     1      -8.978   9.580  66.777  1.00  0.00    -0.138 A  
HETATM   17  C   UNL     1      -8.713   8.851  65.597  1.00  0.00    -0.213 A  
HETATM   18  C   UNL     1      -9.067   9.335  64.338  1.00  0.00    -0.111 A  
HETATM   19  C   UNL     1      -9.701  10.562  64.231  1.00  0.00    -0.391 A  
HETATM   20  C   UNL     1      -9.986  11.295  65.385  1.00  0.00    -0.297 A  
HETATM   21  C   UNL     1      -9.631  10.831  66.673  1.00  0.00    -0.208 A  
ENDBRANCH   5   6
ENDBRANCH   4   5
ENDBRANCH   2   4
TORSDOF 3
ENDMDL
MODEL       86
REMARK 921   NORMALIZED FREE ENERGY PREDICTED BY IDOCK:   -4.11 KCAL/MOL
REMARK 922        TOTAL FREE ENERGY PREDICTED BY IDOCK:   -5.10 KCAL/MOL
REMARK 923 INTER-LIGAND FREE ENERGY PREDICTED BY IDOCK:   -4.84 KCAL/MOL
REMARK 924 INTRA-LIGAND FREE ENERGY PREDICTED BY IDOCK:   -0.27 KCAL/MOL
REMARK 927      BINDING AFFINITY PREDICTED BY RF-SCORE:    0.00 PKD
ROOT
HETATM    1  C   UNL     1      -8.292   9.797  64.855  1.00  0.00    -0.148 C  
HETATM    2  N   UNL     1      -8.622   8.401  65.144  1.00  0.00    -0.163 NA 
HETATM    3  C   UNL     1      -7.392   7.612  65.247  1.00  0.00    -0.071 C  
ENDROOT
BRANCH   2   4
HETATM    4  C   UNL     1      -9.466   8.307  66.355  1.00  0.00    -0.221 C  
BRANCH   4   5
HETATM    5  C   UNL     1      -9.331   9.538  67.271  1.00  0.00    -0.161 C  
BRANCH   5   6
HETATM    6  C   UNL     1     -10.449   9.726  68.275  1.00  0.00    -0.255 C  
HETATM    7  C   UNL     1     -10.488   9.191  69.521  1.00  0.00    -0.226 C  
HETATM    8  C   UNL     1      -9.396   8.275  69.920  1.00  0.00    -0.159 A  
HETATM    9  C   UNL     1      -8.099   8.752  70.160  1.00  0.00    -0.114 A  
HETATM   10  C   UNL     1      -7.070   7.865  70.471  1.00  0.00    -0.046 A  
HETATM   11  C   UNL     1      -7.335   6.500  70.570  1.00  0.00    -0.082 A  
HETATM   12  C   UNL     1      -8.628   6.018  70.353  1.00  0.00    -0.133 A  
HETATM   13  C   UNL     1      -9.666   6.900  70.020  1.00  0.00    -0.170 A  
HETATM   14  C   UNL     1     -11.064   6.400  69.789  1.00  0.00    -0.396 C  
HETATM   15  S   UNL     1     -12.140   6.748  71.208  1.00  0.00    -0.354 SA 
HETATM   16  C   UNL     1     -12.327   8.542  71.201  1.00  0.00    -0.206 A  
HETATM   17  C   UNL     1     -13.310   8.984  72.113  1.00  0.00    -0.510 A  
HETATM   18  C   UNL     1     -13.615  10.336  72.269  1.00  0.00    -0.165 A  
HETATM   19  C   UNL     1     -12.937  11.280  71.516  1.00  0.00    -0.520 A  
HETATM   20  C   UNL     1     -11.951  10.869  70.617  1.00  0.00    -0.467 A  
HETATM   21  C   UNL     1     -11.628   9.504  70.434  1.00  0.00    -0.268 A  
ENDBRANCH   5   6
ENDBRANCH   4   5
ENDBRANCH   2   4
TORSDOF 3
ENDMDL
MODEL       87
REMARK 921   NORMALIZED FREE ENERGY PREDICTED BY IDOCK:   -4.11 KCAL/MOL
REMARK 922        TOTAL FREE ENERGY PREDICTED BY IDOCK:   -5.10 KCAL/MOL
REMARK 923 INTER-LIGAND FREE ENERGY PREDICTED BY IDOCK:   -4.79 KCAL/MOL
REMARK 924 INTRA-LIGAND FREE ENERGY PREDICTED BY IDOCK:   -0.31 KCAL/MOL
REMARK 927      BINDING AFFINITY PREDICTED BY RF-SCORE:    0.00 PKD
ROOT
HETATM    1  C   UNL     1     -10.628   5.661  69.407  1.00  0.00    -0.304 C  
HETATM    2  N   UNL     1     -10.456   7.109  69.518  1.00  0.00    -0.219 NA 
HETATM    3  C   UNL     1      -9.982   7.451  70.861  1.00  0.00    -0.184 C  
ENDROOT
BRANCH   2   4
HETATM    4  C   UNL     1      -9.562   7.608  68.450  1.00  0.00    -0.151 C  
BRANCH   4   5
HETATM    5  C   UNL     1     -10.332   8.286  67.300  1.00  0.00    -0.372 C  
BRANCH   5   6
HETATM    6  C   UNL     1     -10.629   9.758  67.497  1.00  0.00    -0.335 C  
HETATM    7  C   UNL     1     -10.012  10.780  66.853  1.00  0.00    -0.240 C  
HETATM    8  C   UNL     1      -8.891  10.455  65.943  1.00  0.00    -0.179 A  
HETATM    9  C   UNL     1      -9.115   9.813  64.717  1.00  0.00    -0.290 A  
HETATM   10  C   UNL     1      -8.042   9.456  63.902  1.00  0.00    -0.154 A  
HETATM   11  C   UNL     1      -6.740   9.761  64.296  1.00  0.00    -0.120 A  
HETATM   12  C   UNL     1      -6.508  10.419  65.506  1.00  0.00    -0.126 A  
HETATM   13  C   UNL     1      -7.581  10.764  66.342  1.00  0.00    -0.141 A  
HETATM   14  C   UNL     1      -7.350  11.477  67.643  1.00  0.00    -0.105 C  
HETATM   15  S   UNL     1      -7.764  13.240  67.522  1.00  0.00    -0.157 SA 
HETATM   16  C   UNL     1      -9.558  13.268  67.337  1.00  0.00    -0.223 A  
HETATM   17  C   UNL     1     -10.089  14.572  67.441  1.00  0.00    -0.235 A  
HETATM   18  C   UNL     1     -11.457  14.821  67.328  1.00  0.00    -0.378 A  
HETATM   19  C   UNL     1     -12.327  13.767  67.102  1.00  0.00    -0.244 A  
HETATM   20  C   UNL     1     -11.824  12.470  66.982  1.00  0.00    -0.394 A  
HETATM   21  C   UNL     1     -10.443  12.189  67.101  1.00  0.00    -0.241 A  
ENDBRANCH   5   6
ENDBRANCH   4   5
ENDBRANCH   2   4
TORSDOF 3
ENDMDL
MODEL       88
REMARK 921   NORMALIZED FREE ENERGY PREDICTED BY IDOCK:   -4.09 KCAL/MOL
REMARK 922        TOTAL FREE ENERGY PREDICTED BY IDOCK:   -5.08 KCAL/MOL
REMARK 923 INTER-LIGAND FREE ENERGY PREDICTED BY IDOCK:   -4.76 KCAL/MOL
REMARK 924 INTRA-LIGAND FREE ENERGY PREDICTED BY IDOCK:   -0.32 KCAL/MOL
REMARK 927      BINDING AFFINITY PREDICTED BY RF-SCORE:    0.00 PKD
ROOT
HETATM    1  C   UNL     1      -5.555   7.993  62.622  1.00  0.00    -0.065 C  
HETATM    2  N   UNL     1      -6.364   7.991  63.842  1.00  0.00    -0.065 NA 
HETATM    3  C   UNL     1      -5.582   8.530  64.957  1.00  0.00    -0.047 C  
ENDROOT
BRANCH   2   4
HETATM    4  C   UNL     1      -7.632   8.721  63.625  1.00  0.00    -0.124 C  
BRANCH   4   5
HETATM    5  C   UNL     1      -8.485   8.824  64.904  1.00  0.00    -0.189 C  
BRANCH   5   6
HETATM    6  C   UNL     1      -9.537   9.913  64.897  1.00  0.00    -0.356 C  
HETATM    7  C   UNL     1      -9.640  10.916  65.805  1.00  0.00    -0.259 C  
HETATM    8  C   UNL     1      -8.708  10.914  66.954  1.00  0.00    -0.144 A  
HETATM    9  C   UNL     1      -7.345  11.200  66.785  1.00  0.00    -0.146 A  
HETATM   10  C   UNL     1      -6.471  11.129  67.868  1.00  0.00    -0.058 A  
HETATM   11  C   UNL     1      -6.956  10.796  69.131  1.00  0.00    -0.091 A  
HETATM   12  C   UNL     1      -8.315  10.529  69.314  1.00  0.00    -0.144 A  
HETATM   13  C   UNL     1      -9.199  10.578  68.226  1.00  0.00    -0.152 A  
HETATM   14  C   UNL     1     -10.664  10.300  68.406  1.00  0.00    -0.226 C  
HETATM   15  S   UNL     1     -11.641  11.829  68.394  1.00  0.00    -0.324 SA 
HETATM   16  C   UNL     1     -11.529  12.421  66.695  1.00  0.00    -0.370 A  
HETATM   17  C   UNL     1     -12.408  13.497  66.441  1.00  0.00    -0.413 A  
HETATM   18  C   UNL     1     -12.483  14.106  65.189  1.00  0.00    -0.453 A  
HETATM   19  C   UNL     1     -11.672  13.656  64.160  1.00  0.00    -0.424 A  
HETATM   20  C   UNL     1     -10.785  12.603  64.391  1.00  0.00    -0.384 A  
HETATM   21  C   UNL     1     -10.695  11.961  65.648  1.00  0.00    -0.325 A  
ENDBRANCH   5   6
ENDBRANCH   4   5
ENDBRANCH   2   4
TORSDOF 3
ENDMDL
MODEL       89
REMARK 921   NORMALIZED FREE ENERGY PREDICTED BY IDOCK:   -4.09 KCAL/MOL
REMARK 922        TOTAL FREE ENERGY PREDICTED BY IDOCK:   -5.07 KCAL/MOL
REMARK 923 INTER-LIGAND FREE ENERGY PREDICTED BY IDOCK:   -4.85 KCAL/MOL
REMARK 924 INTRA-LIGAND FREE ENERGY PREDICTED BY IDOCK:   -0.22 KCAL/MOL
REMARK 927      BINDING AFFINITY PREDICTED BY RF-SCORE:    0.00 PKD
ROOT
HETATM    1  C   UNL     1     -13.137  13.596  72.573  1.00  0.00    -0.388 C  
HETATM    2  N   UNL     1     -13.164  14.075  71.191  1.00  0.00    -0.302 NA 
HETATM    3  C   UNL     1     -13.539  15.490  71.164  1.00  0.00    -0.382 C  
ENDROOT
BRANCH   2   4
HETATM    4  C   UNL     1     -11.870  13.811  70.525  1.00  0.00    -0.223 C  
BRANCH   4   5
HETATM    5  C   UNL     1     -12.009  12.888  69.300  1.00  0.00    -0.313 C  
BRANCH   5   6
HETATM    6  C   UNL     1     -10.846  11.948  69.059  1.00  0.00    -0.235 C  
HETATM    7  C   UNL     1      -9.851  12.141  68.157  1.00  0.00    -0.207 C  
HETATM    8  C   UNL     1      -9.937  13.319  67.265  1.00  0.00    -0.231 A  
HETATM    9  C   UNL     1      -9.749  14.618  67.758  1.00  0.00    -0.215 A  
HETATM   10  C   UNL     1      -9.898  15.719  66.916  1.00  0.00    -0.243 A  
HETATM   11  C   UNL     1     -10.212  15.528  65.572  1.00  0.00    -0.415 A  
HETATM   12  C   UNL     1     -10.381  14.236  65.067  1.00  0.00    -0.448 A  
HETATM   13  C   UNL     1     -10.253  13.123  65.911  1.00  0.00    -0.294 A  
HETATM   14  C   UNL     1     -10.425  11.727  65.384  1.00  0.00    -0.272 C  
HETATM   15  S   UNL     1      -8.828  10.893  65.167  1.00  0.00    -0.109 SA 
HETATM   16  C   UNL     1      -8.223  10.638  66.846  1.00  0.00    -0.123 A  
HETATM   17  C   UNL     1      -7.083   9.806  66.887  1.00  0.00    -0.089 A  
HETATM   18  C   UNL     1      -6.452   9.479  68.087  1.00  0.00    -0.057 A  
HETATM   19  C   UNL     1      -6.947   9.983  69.279  1.00  0.00    -0.063 A  
HETATM   20  C   UNL     1      -8.066  10.819  69.263  1.00  0.00    -0.102 A  
HETATM   21  C   UNL     1      -8.729  11.160  68.060  1.00  0.00    -0.141 A  
ENDBRANCH   5   6
ENDBRANCH   4   5
ENDBRANCH   2   4
TORSDOF 3
ENDMDL
MODEL       90
REMARK 921   NORMALIZED FREE ENERGY PREDICTED BY IDOCK:   -4.04 KCAL/MOL
REMARK 922        TOTAL FREE ENERGY PREDICTED BY IDOCK:   -5.01 KCAL/MOL
REMARK 923 INTER-LIGAND FREE ENERGY PREDICTED BY IDOCK:   -4.77 KCAL/MOL
REMARK 924 INTRA-LIGAND FREE ENERGY PREDICTED BY IDOCK:   -0.24 KCAL/MOL
REMARK 927      BINDING AFFINITY PREDICTED BY RF-SCORE:    0.00 PKD
ROOT
HETATM    1  C   UNL     1     -11.969  15.083  70.001  1.00  0.00    -0.332 C  
HETATM    2  N   UNL     1     -12.259  14.101  68.956  1.00  0.00    -0.303 NA 
HETATM    3  C   UNL     1     -11.863  14.634  67.651  1.00  0.00    -0.337 C  
ENDROOT
BRANCH   2   4
HETATM    4  C   UNL     1     -11.615  12.806  69.266  1.00  0.00    -0.314 C  
BRANCH   4   5
HETATM    5  C   UNL     1     -11.550  11.867  68.047  1.00  0.00    -0.401 C  
BRANCH   5   6
HETATM    6  C   UNL     1     -11.477  10.389  68.369  1.00  0.00    -0.227 C  
HETATM    7  C   UNL     1     -10.354   9.629  68.333  1.00  0.00    -0.233 C  
HETATM    8  C   UNL     1      -9.101  10.259  67.859  1.00  0.00    -0.133 A  
HETATM    9  C   UNL     1      -8.433  11.218  68.634  1.00  0.00    -0.143 A  
HETATM   10  C   UNL     1      -7.291  11.848  68.142  1.00  0.00    -0.092 A  
HETATM   11  C   UNL     1      -6.795  11.505  66.886  1.00  0.00    -0.138 A  
HETATM   12  C   UNL     1      -7.441  10.536  66.116  1.00  0.00    -0.136 A  
HETATM   13  C   UNL     1      -8.603   9.911  66.593  1.00  0.00    -0.130 A  
HETATM   14  C   UNL     1      -9.308   8.862  65.781  1.00  0.00    -0.219 C  
HETATM   15  S   UNL     1      -8.972   7.193  66.409  1.00  0.00    -0.151 SA 
HETATM   16  C   UNL     1      -9.817   7.134  68.001  1.00  0.00    -0.138 A  
HETATM   17  C   UNL     1      -9.845   5.831  68.547  1.00  0.00    -0.177 A  
HETATM   18  C   UNL     1     -10.450   5.560  69.773  1.00  0.00    -0.389 A  
HETATM   19  C   UNL     1     -11.038   6.591  70.488  1.00  0.00    -0.375 A  
HETATM   20  C   UNL     1     -11.011   7.890  69.976  1.00  0.00    -0.208 A  
HETATM   21  C   UNL     1     -10.411   8.190  68.730  1.00  0.00    -0.198 A  
ENDBRANCH   5   6
ENDBRANCH   4   5
ENDBRANCH   2   4
TORSDOF 3
ENDMDL
MODEL       91
REMARK 921   NORMALIZED FREE ENERGY PREDICTED BY IDOCK:   -4.03 KCAL/MOL
REMARK 922        TOTAL FREE ENERGY PREDICTED BY IDOCK:   -5.01 KCAL/MOL
REMARK 923 INTER-LIGAND FREE ENERGY PREDICTED BY IDOCK:   -4.73 KCAL/MOL
REMARK 924 INTRA-LIGAND FREE ENERGY PREDICTED BY IDOCK:   -0.28 KCAL/MOL
REMARK 927      BINDING AFFINITY PREDICTED BY RF-SCORE:    0.00 PKD
ROOT
HETATM    1  C   UNL     1     -10.204   3.587  63.653  1.00  0.00    -0.218 C  
HETATM    2  N   UNL     1      -9.678   3.646  65.017  1.00  0.00    -0.170 NA 
HETATM    3  C   UNL     1      -8.235   3.893  64.982  1.00  0.00    -0.097 C  
ENDROOT
BRANCH   2   4
HETATM    4  C   UNL     1     -10.413   4.653  65.814  1.00  0.00    -0.255 C  
BRANCH   4   5
HETATM    5  C   UNL     1      -9.474   5.607  66.577  1.00  0.00    -0.165 C  
BRANCH   5   6
HETATM    6  C   UNL     1      -9.910   5.958  67.985  1.00  0.00    -0.144 C  
HETATM    7  C   UNL     1     -10.035   7.214  68.481  1.00  0.00    -0.163 C  
HETATM    8  C   UNL     1      -9.635   8.348  67.617  1.00  0.00    -0.188 A  
HETATM    9  C   UNL     1     -10.396   8.710  66.496  1.00  0.00    -0.237 A  
HETATM   10  C   UNL     1      -9.968   9.738  65.657  1.00  0.00    -0.352 A  
HETATM   11  C   UNL     1      -8.793  10.427  65.948  1.00  0.00    -0.179 A  
HETATM   12  C   UNL     1      -8.039  10.088  67.074  1.00  0.00    -0.117 A  
HETATM   13  C   UNL     1      -8.450   9.041  67.913  1.00  0.00    -0.121 A  
HETATM   14  C   UNL     1      -7.656   8.667  69.131  1.00  0.00    -0.089 C  
HETATM   15  S   UNL     1      -8.434   9.281  70.651  1.00  0.00    -0.194 SA 
HETATM   16  C   UNL     1      -9.940   8.303  70.812  1.00  0.00    -0.190 A  
HETATM   17  C   UNL     1     -10.575   8.493  72.059  1.00  0.00    -0.408 A  
HETATM   18  C   UNL     1     -11.756   7.832  72.392  1.00  0.00    -0.394 A  
HETATM   19  C   UNL     1     -12.335   6.965  71.480  1.00  0.00    -0.420 A  
HETATM   20  C   UNL     1     -11.733   6.770  70.235  1.00  0.00    -0.397 A  
HETATM   21  C   UNL     1     -10.530   7.422  69.875  1.00  0.00    -0.238 A  
ENDBRANCH   5   6
ENDBRANCH   4   5
ENDBRANCH   2   4
TORSDOF 3
ENDMDL
MODEL       92
REMARK 921   NORMALIZED FREE ENERGY PREDICTED BY IDOCK:   -4.03 KCAL/MOL
REMARK 922        TOTAL FREE ENERGY PREDICTED BY IDOCK:   -5.01 KCAL/MOL
REMARK 923 INTER-LIGAND FREE ENERGY PREDICTED BY IDOCK:   -4.77 KCAL/MOL
REMARK 924 INTRA-LIGAND FREE ENERGY PREDICTED BY IDOCK:   -0.24 KCAL/MOL
REMARK 927      BINDING AFFINITY PREDICTED BY RF-SCORE:    0.00 PKD
ROOT
HETATM    1  C   UNL     1     -10.506   4.729  65.982  1.00  0.00    -0.292 C  
HETATM    2  N   UNL     1     -10.291   5.365  67.282  1.00  0.00    -0.218 NA 
HETATM    3  C   UNL     1      -8.862   5.369  67.602  1.00  0.00    -0.105 C  
ENDROOT
BRANCH   2   4
HETATM    4  C   UNL     1     -10.886   6.719  67.302  1.00  0.00    -0.373 C  
BRANCH   4   5
HETATM    5  C   UNL     1      -9.942   7.792  66.726  1.00  0.00    -0.331 C  
BRANCH   5   6
HETATM    6  C   UNL     1     -10.236   9.214  67.157  1.00  0.00    -0.329 C  
HETATM    7  C   UNL     1      -9.709  10.332  66.597  1.00  0.00    -0.233 C  
HETATM    8  C   UNL     1      -8.695  10.166  65.531  1.00  0.00    -0.173 A  
HETATM    9  C   UNL     1      -9.049   9.690  64.260  1.00  0.00    -0.267 A  
HETATM   10  C   UNL     1      -8.071   9.479  63.290  1.00  0.00    -0.151 A  
HETATM   11  C   UNL     1      -6.737   9.765  63.575  1.00  0.00    -0.117 A  
HETATM   12  C   UNL     1      -6.377  10.259  64.831  1.00  0.00    -0.121 A  
HETATM   13  C   UNL     1      -7.352  10.456  65.821  1.00  0.00    -0.147 A  
HETATM   14  C   UNL     1      -6.984  10.992  67.175  1.00  0.00    -0.103 C  
HETATM   15  S   UNL     1      -7.434  12.741  67.346  1.00  0.00    -0.114 SA 
HETATM   16  C   UNL     1      -9.237  12.742  67.367  1.00  0.00    -0.193 A  
HETATM   17  C   UNL     1      -9.771  14.004  67.709  1.00  0.00    -0.228 A  
HETATM   18  C   UNL     1     -11.145  14.226  67.784  1.00  0.00    -0.294 A  
HETATM   19  C   UNL     1     -12.021  13.188  67.512  1.00  0.00    -0.367 A  
HETATM   20  C   UNL     1     -11.518  11.935  67.158  1.00  0.00    -0.386 A  
HETATM   21  C   UNL     1     -10.128  11.681  67.083  1.00  0.00    -0.227 A  
ENDBRANCH   5   6
ENDBRANCH   4   5
ENDBRANCH   2   4
TORSDOF 3
ENDMDL
MODEL       93
REMARK 921   NORMALIZED FREE ENERGY PREDICTED BY IDOCK:   -4.02 KCAL/MOL
REMARK 922        TOTAL FREE ENERGY PREDICTED BY IDOCK:   -4.99 KCAL/MOL
REMARK 923 INTER-LIGAND FREE ENERGY PREDICTED BY IDOCK:   -4.71 KCAL/MOL
REMARK 924 INTRA-LIGAND FREE ENERGY PREDICTED BY IDOCK:   -0.28 KCAL/MOL
REMARK 927      BINDING AFFINITY PREDICTED BY RF-SCORE:    0.00 PKD
ROOT
HETATM    1  C   UNL     1      -5.823  12.637  70.071  1.00  0.00    -0.151 C  
HETATM    2  N   UNL     1      -6.684  13.036  68.958  1.00  0.00    -0.101 NA 
HETATM    3  C   UNL     1      -5.896  13.753  67.953  1.00  0.00    -0.131 C  
ENDROOT
BRANCH   2   4
HETATM    4  C   UNL     1      -7.390  11.861  68.401  1.00  0.00    -0.095 C  
BRANCH   4   5
HETATM    5  C   UNL     1      -7.773  10.831  69.481  1.00  0.00    -0.074 C  
BRANCH   5   6
HETATM    6  C   UNL     1      -8.177   9.466  68.963  1.00  0.00    -0.108 C  
HETATM    7  C   UNL     1      -9.433   8.955  68.984  1.00  0.00    -0.156 C  
HETATM    8  C   UNL     1     -10.496   9.745  69.643  1.00  0.00    -0.263 A  
HETATM    9  C   UNL     1     -10.983  10.928  69.068  1.00  0.00    -0.285 A  
HETATM   10  C   UNL     1     -11.938  11.694  69.735  1.00  0.00    -0.402 A  
HETATM   11  C   UNL     1     -12.431  11.270  70.968  1.00  0.00    -0.503 A  
HETATM   12  C   UNL     1     -11.967  10.082  71.539  1.00  0.00    -0.438 A  
HETATM   13  C   UNL     1     -10.991   9.315  70.885  1.00  0.00    -0.368 A  
HETATM   14  C   UNL     1     -10.486   8.033  71.481  1.00  0.00    -0.217 C  
HETATM   15  S   UNL     1     -11.202   6.584  70.656  1.00  0.00    -0.352 SA 
HETATM   16  C   UNL     1     -10.472   6.599  69.008  1.00  0.00    -0.214 A  
HETATM   17  C   UNL     1     -10.750   5.418  68.285  1.00  0.00    -0.069 A  
HETATM   18  C   UNL     1     -10.281   5.222  66.986  1.00  0.00    -0.274 A  
HETATM   19  C   UNL     1      -9.523   6.209  66.377  1.00  0.00    -0.172 A  
HETATM   20  C   UNL     1      -9.247   7.392  67.066  1.00  0.00    -0.169 A  
HETATM   21  C   UNL     1      -9.704   7.613  68.387  1.00  0.00    -0.164 A  
ENDBRANCH   5   6
ENDBRANCH   4   5
ENDBRANCH   2   4
TORSDOF 3
ENDMDL
MODEL       94
REMARK 921   NORMALIZED FREE ENERGY PREDICTED BY IDOCK:   -4.00 KCAL/MOL
REMARK 922        TOTAL FREE ENERGY PREDICTED BY IDOCK:   -4.97 KCAL/MOL
REMARK 923 INTER-LIGAND FREE ENERGY PREDICTED BY IDOCK:   -4.64 KCAL/MOL
REMARK 924 INTRA-LIGAND FREE ENERGY PREDICTED BY IDOCK:   -0.33 KCAL/MOL
REMARK 927      BINDING AFFINITY PREDICTED BY RF-SCORE:    0.00 PKD
ROOT
HETATM    1  C   UNL     1     -12.622  12.771  70.916  1.00  0.00    -0.255 C  
HETATM    2  N   UNL     1     -12.279  11.349  70.865  1.00  0.00    -0.368 NA 
HETATM    3  C   UNL     1     -13.342  10.560  71.492  1.00  0.00    -0.290 C  
ENDROOT
BRANCH   2   4
HETATM    4  C   UNL     1     -12.001  10.933  69.473  1.00  0.00    -0.330 C  
BRANCH   4   5
HETATM    5  C   UNL     1     -10.533  10.518  69.258  1.00  0.00    -0.258 C  
BRANCH   5   6
HETATM    6  C   UNL     1      -9.929   9.676  70.363  1.00  0.00    -0.330 C  
HETATM    7  C   UNL     1      -9.498   8.396  70.233  1.00  0.00    -0.168 C  
HETATM    8  C   UNL     1      -9.708   7.719  68.933  1.00  0.00    -0.160 A  
HETATM    9  C   UNL     1      -8.973   8.087  67.797  1.00  0.00    -0.133 A  
HETATM   10  C   UNL     1      -9.230   7.483  66.567  1.00  0.00    -0.217 A  
HETATM   11  C   UNL     1     -10.204   6.492  66.470  1.00  0.00    -0.134 A  
HETATM   12  C   UNL     1     -10.927   6.104  67.601  1.00  0.00    -0.400 A  
HETATM   13  C   UNL     1     -10.690   6.720  68.839  1.00  0.00    -0.276 A  
HETATM   14  C   UNL     1     -11.453   6.312  70.066  1.00  0.00    -0.390 C  
HETATM   15  S   UNL     1     -10.450   5.269  71.161  1.00  0.00    -0.169 SA 
HETATM   16  C   UNL     1      -9.183   6.380  71.802  1.00  0.00    -0.143 A  
HETATM   17  C   UNL     1      -8.431   5.794  72.844  1.00  0.00    -0.122 A  
HETATM   18  C   UNL     1      -7.398   6.480  73.482  1.00  0.00    -0.081 A  
HETATM   19  C   UNL     1      -7.090   7.772  73.088  1.00  0.00    -0.103 A  
HETATM   20  C   UNL     1      -7.810   8.368  72.051  1.00  0.00    -0.171 A  
HETATM   21  C   UNL     1      -8.868   7.697  71.393  1.00  0.00    -0.141 A  
ENDBRANCH   5   6
ENDBRANCH   4   5
ENDBRANCH   2   4
TORSDOF 3
ENDMDL
MODEL       95
REMARK 921   NORMALIZED FREE ENERGY PREDICTED BY IDOCK:   -3.99 KCAL/MOL
REMARK 922        TOTAL FREE ENERGY PREDICTED BY IDOCK:   -4.96 KCAL/MOL
REMARK 923 INTER-LIGAND FREE ENERGY PREDICTED BY IDOCK:   -4.41 KCAL/MOL
REMARK 924 INTRA-LIGAND FREE ENERGY PREDICTED BY IDOCK:   -0.55 KCAL/MOL
REMARK 927      BINDING AFFINITY PREDICTED BY RF-SCORE:    0.00 PKD
ROOT
HETATM    1  C   UNL     1      -8.211  16.275  67.924  1.00  0.00    -0.150 C  
HETATM    2  N   UNL     1      -8.181  15.529  69.182  1.00  0.00    -0.229 NA 
HETATM    3  C   UNL     1      -9.544  15.358  69.690  1.00  0.00    -0.229 C  
ENDROOT
BRANCH   2   4
HETATM    4  C   UNL     1      -7.469  14.244  69.007  1.00  0.00    -0.102 C  
BRANCH   4   5
HETATM    5  C   UNL     1      -7.305  13.854  67.526  1.00  0.00    -0.181 C  
BRANCH   5   6
HETATM    6  C   UNL     1      -7.489  12.382  67.219  1.00  0.00    -0.135 C  
HETATM    7  C   UNL     1      -8.653  11.795  66.842  1.00  0.00    -0.177 C  
HETATM    8  C   UNL     1      -9.875  12.629  66.806  1.00  0.00    -0.236 A  
HETATM    9  C   UNL     1     -10.050  13.617  65.826  1.00  0.00    -0.311 A  
HETATM   10  C   UNL     1     -11.177  14.438  65.848  1.00  0.00    -0.324 A  
HETATM   11  C   UNL     1     -12.147  14.259  66.832  1.00  0.00    -0.440 A  
HETATM   12  C   UNL     1     -11.992  13.264  67.800  1.00  0.00    -0.356 A  
HETATM   13  C   UNL     1     -10.851  12.447  67.799  1.00  0.00    -0.257 A  
HETATM   14  C   UNL     1     -10.669  11.369  68.829  1.00  0.00    -0.203 C  
HETATM   15  S   UNL     1     -11.013   9.725  68.141  1.00  0.00    -0.113 SA 
HETATM   16  C   UNL     1      -9.665   9.432  66.981  1.00  0.00    -0.178 A  
HETATM   17  C   UNL     1      -9.646   8.104  66.502  1.00  0.00    -0.303 A  
HETATM   18  C   UNL     1      -8.684   7.662  65.593  1.00  0.00    -0.119 A  
HETATM   19  C   UNL     1      -7.719   8.545  65.137  1.00  0.00    -0.102 A  
HETATM   20  C   UNL     1      -7.725   9.867  65.586  1.00  0.00    -0.121 A  
HETATM   21  C   UNL     1      -8.684  10.338  66.513  1.00  0.00    -0.139 A  
ENDBRANCH   5   6
ENDBRANCH   4   5
ENDBRANCH   2   4
TORSDOF 3
ENDMDL
MODEL       96
REMARK 921   NORMALIZED FREE ENERGY PREDICTED BY IDOCK:   -3.98 KCAL/MOL
REMARK 922        TOTAL FREE ENERGY PREDICTED BY IDOCK:   -4.94 KCAL/MOL
REMARK 923 INTER-LIGAND FREE ENERGY PREDICTED BY IDOCK:   -4.60 KCAL/MOL
REMARK 924 INTRA-LIGAND FREE ENERGY PREDICTED BY IDOCK:   -0.34 KCAL/MOL
REMARK 927      BINDING AFFINITY PREDICTED BY RF-SCORE:    0.00 PKD
ROOT
HETATM    1  C   UNL     1     -11.361   5.299  72.901  1.00  0.00    -0.301 C  
HETATM    2  N   UNL     1     -10.358   6.000  72.100  1.00  0.00    -0.193 NA 
HETATM    3  C   UNL     1      -9.041   5.866  72.726  1.00  0.00    -0.129 C  
ENDROOT
BRANCH   2   4
HETATM    4  C   UNL     1     -10.380   5.517  70.702  1.00  0.00    -0.262 C  
BRANCH   4   5
HETATM    5  C   UNL     1     -10.411   6.667  69.677  1.00  0.00    -0.226 C  
BRANCH   5   6
HETATM    6  C   UNL     1      -9.169   7.534  69.636  1.00  0.00    -0.146 C  
HETATM    7  C   UNL     1      -9.130   8.867  69.886  1.00  0.00    -0.166 C  
HETATM    8  C   UNL     1     -10.410   9.567  70.136  1.00  0.00    -0.300 A  
HETATM    9  C   UNL     1     -11.130   9.361  71.322  1.00  0.00    -0.446 A  
HETATM   10  C   UNL     1     -12.365   9.978  71.511  1.00  0.00    -0.513 A  
HETATM   11  C   UNL     1     -12.877  10.824  70.530  1.00  0.00    -0.335 A  
HETATM   12  C   UNL     1     -12.158  11.052  69.354  1.00  0.00    -0.389 A  
HETATM   13  C   UNL     1     -10.923  10.419  69.145  1.00  0.00    -0.285 A  
HETATM   14  C   UNL     1     -10.134  10.657  67.890  1.00  0.00    -0.168 C  
HETATM   15  S   UNL     1      -8.738  11.780  68.181  1.00  0.00    -0.172 SA 
HETATM   16  C   UNL     1      -7.607  10.832  69.217  1.00  0.00    -0.129 A  
HETATM   17  C   UNL     1      -6.357  11.470  69.373  1.00  0.00    -0.103 A  
HETATM   18  C   UNL     1      -5.335  10.908  70.138  1.00  0.00    -0.060 A  
HETATM   19  C   UNL     1      -5.542   9.693  70.770  1.00  0.00    -0.061 A  
HETATM   20  C   UNL     1      -6.775   9.050  70.642  1.00  0.00    -0.064 A  
HETATM   21  C   UNL     1      -7.825   9.593  69.866  1.00  0.00    -0.157 A  
ENDBRANCH   5   6
ENDBRANCH   4   5
ENDBRANCH   2   4
TORSDOF 3
ENDMDL
MODEL       97
REMARK 921   NORMALIZED FREE ENERGY PREDICTED BY IDOCK:   -3.95 KCAL/MOL
REMARK 922        TOTAL FREE ENERGY PREDICTED BY IDOCK:   -4.91 KCAL/MOL
REMARK 923 INTER-LIGAND FREE ENERGY PREDICTED BY IDOCK:   -4.66 KCAL/MOL
REMARK 924 INTRA-LIGAND FREE ENERGY PREDICTED BY IDOCK:   -0.26 KCAL/MOL
REMARK 927      BINDING AFFINITY PREDICTED BY RF-SCORE:    0.00 PKD
ROOT
HETATM    1  C   UNL     1     -11.682  13.251  66.818  1.00  0.00    -0.385 C  
HETATM    2  N   UNL     1     -11.549  11.894  66.288  1.00  0.00    -0.491 NA 
HETATM    3  C   UNL     1     -11.203  11.950  64.866  1.00  0.00    -0.292 C  
ENDROOT
BRANCH   2   4
HETATM    4  C   UNL     1     -10.575  11.118  67.085  1.00  0.00    -0.244 C  
BRANCH   4   5
HETATM    5  C   UNL     1     -11.195   9.860  67.722  1.00  0.00    -0.075 C  
BRANCH   5   6
HETATM    6  C   UNL     1     -10.656   8.540  67.211  1.00  0.00    -0.315 C  
HETATM    7  C   UNL     1     -10.105   7.564  67.976  1.00  0.00    -0.221 C  
HETATM    8  C   UNL     1      -9.929   7.828  69.422  1.00  0.00    -0.188 A  
HETATM    9  C   UNL     1     -11.031   7.892  70.287  1.00  0.00    -0.249 A  
HETATM   10  C   UNL     1     -10.851   8.206  71.633  1.00  0.00    -0.306 A  
HETATM   11  C   UNL     1      -9.568   8.434  72.128  1.00  0.00    -0.367 A  
HETATM   12  C   UNL     1      -8.463   8.352  71.278  1.00  0.00    -0.183 A  
HETATM   13  C   UNL     1      -8.635   8.057  69.917  1.00  0.00    -0.135 A  
HETATM   14  C   UNL     1      -7.458   7.959  68.990  1.00  0.00    -0.097 C  
HETATM   15  S   UNL     1      -7.045   6.233  68.614  1.00  0.00    -0.085 SA 
HETATM   16  C   UNL     1      -8.423   5.650  67.608  1.00  0.00    -0.102 A  
HETATM   17  C   UNL     1      -8.176   4.382  67.038  1.00  0.00    -0.101 A  
HETATM   18  C   UNL     1      -9.112   3.745  66.224  1.00  0.00    -0.152 A  
HETATM   19  C   UNL     1     -10.324   4.363  65.964  1.00  0.00    -0.210 A  
HETATM   20  C   UNL     1     -10.598   5.612  66.527  1.00  0.00    -0.320 A  
HETATM   21  C   UNL     1      -9.663   6.283  67.349  1.00  0.00    -0.137 A  
ENDBRANCH   5   6
ENDBRANCH   4   5
ENDBRANCH   2   4
TORSDOF 3
ENDMDL
MODEL       98
REMARK 921   NORMALIZED FREE ENERGY PREDICTED BY IDOCK:   -3.85 KCAL/MOL
REMARK 922        TOTAL FREE ENERGY PREDICTED BY IDOCK:   -4.79 KCAL/MOL
REMARK 923 INTER-LIGAND FREE ENERGY PREDICTED BY IDOCK:   -4.59 KCAL/MOL
REMARK 924 INTRA-LIGAND FREE ENERGY PREDICTED BY IDOCK:   -0.20 KCAL/MOL
REMARK 927      BINDING AFFINITY PREDICTED BY RF-SCORE:    0.00 PKD
ROOT
HETATM    1  C   UNL     1      -7.380  19.116  65.942  1.00  0.00    -0.252 C  
HETATM    2  N   UNL     1      -8.531  19.077  66.844  1.00  0.00    -0.280 NA 
HETATM    3  C   UNL     1      -9.340  20.286  66.669  1.00  0.00    -0.330 C  
ENDROOT
BRANCH   2   4
HETATM    4  C   UNL     1      -9.307  17.834  66.641  1.00  0.00    -0.287 C  
BRANCH   4   5
HETATM    5  C   UNL     1      -8.761  16.652  67.465  1.00  0.00    -0.198 C  
BRANCH   5   6
HETATM    6  C   UNL     1      -9.810  15.737  68.061  1.00  0.00    -0.217 C  
HETATM    7  C   UNL     1      -9.580  14.501  68.572  1.00  0.00    -0.220 C  
HETATM    8  C   UNL     1      -8.211  13.948  68.469  1.00  0.00    -0.131 A  
HETATM    9  C   UNL     1      -7.159  14.467  69.238  1.00  0.00    -0.140 A  
HETATM   10  C   UNL     1      -5.863  13.978  69.079  1.00  0.00    -0.089 A  
HETATM   11  C   UNL     1      -5.616  12.950  68.171  1.00  0.00    -0.088 A  
HETATM   12  C   UNL     1      -6.661  12.412  67.416  1.00  0.00    -0.157 A  
HETATM   13  C   UNL     1      -7.964  12.912  67.553  1.00  0.00    -0.178 A  
HETATM   14  C   UNL     1      -9.101  12.342  66.754  1.00  0.00    -0.212 C  
HETATM   15  S   UNL     1     -10.144  11.250  67.761  1.00  0.00    -0.183 SA 
HETATM   16  C   UNL     1     -10.960  12.357  68.926  1.00  0.00    -0.223 A  
HETATM   17  C   UNL     1     -11.980  11.711  69.658  1.00  0.00    -0.390 A  
HETATM   18  C   UNL     1     -12.740  12.384  70.615  1.00  0.00    -0.131 A  
HETATM   19  C   UNL     1     -12.491  13.723  70.866  1.00  0.00    -0.451 A  
HETATM   20  C   UNL     1     -11.479  14.381  70.165  1.00  0.00    -0.280 A  
HETATM   21  C   UNL     1     -10.700  13.724  69.184  1.00  0.00    -0.154 A  
ENDBRANCH   5   6
ENDBRANCH   4   5
ENDBRANCH   2   4
TORSDOF 3
ENDMDL
MODEL       99
REMARK 921   NORMALIZED FREE ENERGY PREDICTED BY IDOCK:   -3.85 KCAL/MOL
REMARK 922        TOTAL FREE ENERGY PREDICTED BY IDOCK:   -4.79 KCAL/MOL
REMARK 923 INTER-LIGAND FREE ENERGY PREDICTED BY IDOCK:   -4.46 KCAL/MOL
REMARK 924 INTRA-LIGAND FREE ENERGY PREDICTED BY IDOCK:   -0.33 KCAL/MOL
REMARK 927      BINDING AFFINITY PREDICTED BY RF-SCORE:    0.00 PKD
ROOT
HETATM    1  C   UNL     1     -13.080   9.662  72.158  1.00  0.00    -0.431 C  
HETATM    2  N   UNL     1     -13.191  10.806  71.253  1.00  0.00    -0.304 NA 
HETATM    3  C   UNL     1     -13.075  12.053  72.013  1.00  0.00    -0.351 C  
ENDROOT
BRANCH   2   4
HETATM    4  C   UNL     1     -12.196  10.704  70.163  1.00  0.00    -0.320 C  
BRANCH   4   5
HETATM    5  C   UNL     1     -10.872  10.066  70.624  1.00  0.00    -0.367 C  
BRANCH   5   6
HETATM    6  C   UNL     1     -10.006   9.495  69.520  1.00  0.00    -0.205 C  
HETATM    7  C   UNL     1      -9.633   8.196  69.402  1.00  0.00    -0.167 C  
HETATM    8  C   UNL     1     -10.023   7.259  70.479  1.00  0.00    -0.191 A  
HETATM    9  C   UNL     1     -11.358   6.865  70.650  1.00  0.00    -0.366 A  
HETATM   10  C   UNL     1     -11.716   6.033  71.710  1.00  0.00    -0.249 A  
HETATM   11  C   UNL     1     -10.739   5.569  72.589  1.00  0.00    -0.289 A  
HETATM   12  C   UNL     1      -9.403   5.939  72.415  1.00  0.00    -0.149 A  
HETATM   13  C   UNL     1      -9.036   6.793  71.363  1.00  0.00    -0.142 A  
HETATM   14  C   UNL     1      -7.605   7.197  71.157  1.00  0.00    -0.085 C  
HETATM   15  S   UNL     1      -6.847   6.290  69.780  1.00  0.00    -0.067 SA 
HETATM   16  C   UNL     1      -7.679   6.923  68.312  1.00  0.00    -0.113 A  
HETATM   17  C   UNL     1      -7.070   6.485  67.116  1.00  0.00    -0.076 A  
HETATM   18  C   UNL     1      -7.555   6.858  65.863  1.00  0.00    -0.090 A  
HETATM   19  C   UNL     1      -8.669   7.677  65.777  1.00  0.00    -0.151 A  
HETATM   20  C   UNL     1      -9.297   8.112  66.945  1.00  0.00    -0.219 A  
HETATM   21  C   UNL     1      -8.821   7.755  68.229  1.00  0.00    -0.129 A  
ENDBRANCH   5   6
ENDBRANCH   4   5
ENDBRANCH   2   4
TORSDOF 3
ENDMDL
MODEL      100
REMARK 921   NORMALIZED FREE ENERGY PREDICTED BY IDOCK:   -3.83 KCAL/MOL
REMARK 922        TOTAL FREE ENERGY PREDICTED BY IDOCK:   -4.77 KCAL/MOL
REMARK 923 INTER-LIGAND FREE ENERGY PREDICTED BY IDOCK:   -4.47 KCAL/MOL
REMARK 924 INTRA-LIGAND FREE ENERGY PREDICTED BY IDOCK:   -0.30 KCAL/MOL
REMARK 927      BINDING AFFINITY PREDICTED BY RF-SCORE:    0.00 PKD
ROOT
HETATM    1  C   UNL     1      -9.029   4.427  63.889  1.00  0.00    -0.143 C  
HETATM    2  N   UNL     1      -9.606   3.968  65.153  1.00  0.00    -0.169 NA 
HETATM    3  C   UNL     1      -8.562   3.900  66.178  1.00  0.00    -0.112 C  
ENDROOT
BRANCH   2   4
HETATM    4  C   UNL     1     -10.742   4.829  65.547  1.00  0.00    -0.096 C  
BRANCH   4   5
HETATM    5  C   UNL     1     -10.593   5.394  66.973  1.00  0.00    -0.298 C  
BRANCH   5   6
HETATM    6  C   UNL     1     -10.812   6.887  67.106  1.00  0.00    -0.447 C  
HETATM    7  C   UNL     1     -10.372   7.660  68.130  1.00  0.00    -0.250 C  
HETATM    8  C   UNL     1      -9.693   6.994  69.264  1.00  0.00    -0.158 A  
HETATM    9  C   UNL     1      -8.410   6.445  69.120  1.00  0.00    -0.122 A  
HETATM   10  C   UNL     1      -7.813   5.765  70.180  1.00  0.00    -0.099 A  
HETATM   11  C   UNL     1      -8.482   5.650  71.397  1.00  0.00    -0.128 A  
HETATM   12  C   UNL     1      -9.751   6.212  71.557  1.00  0.00    -0.182 A  
HETATM   13  C   UNL     1     -10.369   6.881  70.489  1.00  0.00    -0.224 A  
HETATM   14  C   UNL     1     -11.731   7.495  70.644  1.00  0.00    -0.215 C  
HETATM   15  S   UNL     1     -11.633   9.298  70.827  1.00  0.00    -0.276 SA 
HETATM   16  C   UNL     1     -11.087   9.884  69.211  1.00  0.00    -0.181 A  
HETATM   17  C   UNL     1     -11.158  11.290  69.096  1.00  0.00    -0.312 A  
HETATM   18  C   UNL     1     -10.783  11.953  67.929  1.00  0.00    -0.239 A  
HETATM   19  C   UNL     1     -10.320  11.222  66.846  1.00  0.00    -0.272 A  
HETATM   20  C   UNL     1     -10.228   9.832  66.941  1.00  0.00    -0.310 A  
HETATM   21  C   UNL     1     -10.610   9.134  68.110  1.00  0.00    -0.235 A  
ENDBRANCH   5   6
ENDBRANCH   4   5
ENDBRANCH   2   4
TORSDOF 3
ENDMDL
MODEL      101
REMARK 921   NORMALIZED FREE ENERGY PREDICTED BY IDOCK:   -3.82 KCAL/MOL
REMARK 922        TOTAL FREE ENERGY PREDICTED BY IDOCK:   -4.76 KCAL/MOL
REMARK 923 INTER-LIGAND FREE ENERGY PREDICTED BY IDOCK:   -4.45 KCAL/MOL
REMARK 924 INTRA-LIGAND FREE ENERGY PREDICTED BY IDOCK:   -0.31 KCAL/MOL
REMARK 927      BINDING AFFINITY PREDICTED BY RF-SCORE:    0.00 PKD
ROOT
HETATM    1  C   UNL     1     -11.316  16.007  70.289  1.00  0.00    -0.382 C  
HETATM    2  N   UNL     1     -11.263  16.712  69.008  1.00  0.00    -0.230 NA 
HETATM    3  C   UNL     1     -10.074  17.567  68.962  1.00  0.00    -0.291 C  
ENDROOT
BRANCH   2   4
HETATM    4  C   UNL     1     -11.323  15.752  67.884  1.00  0.00    -0.277 C  
BRANCH   4   5
HETATM    5  C   UNL     1      -9.969  15.594  67.165  1.00  0.00    -0.240 C  
BRANCH   5   6
HETATM    6  C   UNL     1      -9.157  14.381  67.569  1.00  0.00    -0.195 C  
HETATM    7  C   UNL     1      -9.257  13.145  67.017  1.00  0.00    -0.233 C  
HETATM    8  C   UNL     1     -10.301  12.923  65.992  1.00  0.00    -0.294 A  
HETATM    9  C   UNL     1     -10.196  13.491  64.714  1.00  0.00    -0.355 A  
HETATM   10  C   UNL     1     -11.221  13.324  63.783  1.00  0.00    -0.230 A  
HETATM   11  C   UNL     1     -12.343  12.569  64.114  1.00  0.00    -0.548 A  
HETATM   12  C   UNL     1     -12.448  11.982  65.378  1.00  0.00     0.420 A  
HETATM   13  C   UNL     1     -11.432  12.161  66.328  1.00  0.00    -0.433 A  
HETATM   14  C   UNL     1     -11.524  11.532  67.689  1.00  0.00    -0.285 C  
HETATM   15  S   UNL     1     -10.457  10.071  67.824  1.00  0.00    -0.251 SA 
HETATM   16  C   UNL     1      -8.780  10.733  67.778  1.00  0.00    -0.130 A  
HETATM   17  C   UNL     1      -7.807   9.757  68.087  1.00  0.00    -0.085 A  
HETATM   18  C   UNL     1      -6.446  10.056  68.108  1.00  0.00    -0.055 A  
HETATM   19  C   UNL     1      -6.024  11.343  67.815  1.00  0.00    -0.049 A  
HETATM   20  C   UNL     1      -6.966  12.322  67.494  1.00  0.00    -0.142 A  
HETATM   21  C   UNL     1      -8.353  12.047  67.473  1.00  0.00    -0.166 A  
ENDBRANCH   5   6
ENDBRANCH   4   5
ENDBRANCH   2   4
TORSDOF 3
ENDMDL
MODEL      102
REMARK 921   NORMALIZED FREE ENERGY PREDICTED BY IDOCK:   -3.81 KCAL/MOL
REMARK 922        TOTAL FREE ENERGY PREDICTED BY IDOCK:   -4.75 KCAL/MOL
REMARK 923 INTER-LIGAND FREE ENERGY PREDICTED BY IDOCK:   -4.49 KCAL/MOL
REMARK 924 INTRA-LIGAND FREE ENERGY PREDICTED BY IDOCK:   -0.26 KCAL/MOL
REMARK 927      BINDING AFFINITY PREDICTED BY RF-SCORE:    0.00 PKD
ROOT
HETATM    1  C   UNL     1      -8.283   4.674  65.451  1.00  0.00    -0.116 C  
HETATM    2  N   UNL     1      -9.228   5.432  66.271  1.00  0.00    -0.148 NA 
HETATM    3  C   UNL     1     -10.583   4.912  66.075  1.00  0.00    -0.261 C  
ENDROOT
BRANCH   2   4
HETATM    4  C   UNL     1      -8.809   5.421  67.690  1.00  0.00    -0.105 C  
BRANCH   4   5
HETATM    5  C   UNL     1      -9.998   5.275  68.659  1.00  0.00    -0.234 C  
BRANCH   5   6
HETATM    6  C   UNL     1      -9.729   4.443  69.896  1.00  0.00    -0.291 C  
HETATM    7  C   UNL     1      -9.959   4.834  71.174  1.00  0.00    -0.273 C  
HETATM    8  C   UNL     1     -10.431   6.218  71.406  1.00  0.00    -0.264 A  
HETATM    9  C   UNL     1     -11.729   6.611  71.047  1.00  0.00    -0.415 A  
HETATM   10  C   UNL     1     -12.133   7.935  71.212  1.00  0.00    -0.317 A  
HETATM   11  C   UNL     1     -11.254   8.867  71.760  1.00  0.00    -0.432 A  
HETATM   12  C   UNL     1      -9.967   8.480  72.140  1.00  0.00    -0.387 A  
HETATM   13  C   UNL     1      -9.543   7.155  71.958  1.00  0.00    -0.158 A  
HETATM   14  C   UNL     1      -8.165   6.720  72.366  1.00  0.00    -0.105 C  
HETATM   15  S   UNL     1      -8.193   5.780  73.919  1.00  0.00    -0.108 SA 
HETATM   16  C   UNL     1      -9.015   4.233  73.493  1.00  0.00    -0.092 A  
HETATM   17  C   UNL     1      -8.940   3.279  74.532  1.00  0.00    -0.098 A  
HETATM   18  C   UNL     1      -9.511   2.013  74.411  1.00  0.00    -0.100 A  
HETATM   19  C   UNL     1     -10.178   1.672  73.246  1.00  0.00    -0.169 A  
HETATM   20  C   UNL     1     -10.278   2.603  72.210  1.00  0.00    -0.195 A  
HETATM   21  C   UNL     1      -9.701   3.891  72.303  1.00  0.00    -0.217 A  
ENDBRANCH   5   6
ENDBRANCH   4   5
ENDBRANCH   2   4
TORSDOF 3
ENDMDL
MODEL      103
REMARK 921   NORMALIZED FREE ENERGY PREDICTED BY IDOCK:   -3.80 KCAL/MOL
REMARK 922        TOTAL FREE ENERGY PREDICTED BY IDOCK:   -4.74 KCAL/MOL
REMARK 923 INTER-LIGAND FREE ENERGY PREDICTED BY IDOCK:   -4.48 KCAL/MOL
REMARK 924 INTRA-LIGAND FREE ENERGY PREDICTED BY IDOCK:   -0.26 KCAL/MOL
REMARK 927      BINDING AFFINITY PREDICTED BY RF-SCORE:    0.00 PKD
ROOT
HETATM    1  C   UNL     1      -7.931   6.364  72.702  1.00  0.00    -0.104 C  
HETATM    2  N   UNL     1      -9.348   6.380  73.065  1.00  0.00    -0.136 NA 
HETATM    3  C   UNL     1      -9.487   6.384  74.523  1.00  0.00    -0.251 C  
ENDROOT
BRANCH   2   4
HETATM    4  C   UNL     1     -10.037   7.519  72.420  1.00  0.00    -0.203 C  
BRANCH   4   5
HETATM    5  C   UNL     1      -9.287   8.041  71.179  1.00  0.00    -0.176 C  
BRANCH   5   6
HETATM    6  C   UNL     1      -9.739   9.394  70.668  1.00  0.00    -0.336 C  
HETATM    7  C   UNL     1     -10.113   9.670  69.394  1.00  0.00    -0.213 C  
HETATM    8  C   UNL     1      -9.992   8.596  68.383  1.00  0.00    -0.204 A  
HETATM    9  C   UNL     1     -10.850   7.486  68.398  1.00  0.00    -0.035 A  
HETATM   10  C   UNL     1     -10.679   6.452  67.479  1.00  0.00    -0.396 A  
HETATM   11  C   UNL     1      -9.668   6.533  66.524  1.00  0.00    -0.177 A  
HETATM   12  C   UNL     1      -8.822   7.643  66.487  1.00  0.00    -0.167 A  
HETATM   13  C   UNL     1      -8.972   8.679  67.421  1.00  0.00    -0.144 A  
HETATM   14  C   UNL     1      -8.076   9.884  67.394  1.00  0.00    -0.113 C  
HETATM   15  S   UNL     1      -8.915  11.325  66.679  1.00  0.00    -0.181 SA 
HETATM   16  C   UNL     1     -10.172  11.763  67.895  1.00  0.00    -0.191 A  
HETATM   17  C   UNL     1     -10.790  13.000  67.609  1.00  0.00    -0.256 A  
HETATM   18  C   UNL     1     -11.792  13.527  68.423  1.00  0.00    -0.408 A  
HETATM   19  C   UNL     1     -12.203  12.825  69.543  1.00  0.00    -0.161 A  
HETATM   20  C   UNL     1     -11.616  11.593  69.840  1.00  0.00    -0.366 A  
HETATM   21  C   UNL     1     -10.593  11.039  69.036  1.00  0.00    -0.258 A  
ENDBRANCH   5   6
ENDBRANCH   4   5
ENDBRANCH   2   4
TORSDOF 3
ENDMDL
MODEL      104
REMARK 921   NORMALIZED FREE ENERGY PREDICTED BY IDOCK:   -3.76 KCAL/MOL
REMARK 922        TOTAL FREE ENERGY PREDICTED BY IDOCK:   -4.69 KCAL/MOL
REMARK 923 INTER-LIGAND FREE ENERGY PREDICTED BY IDOCK:   -4.43 KCAL/MOL
REMARK 924 INTRA-LIGAND FREE ENERGY PREDICTED BY IDOCK:   -0.25 KCAL/MOL
REMARK 927      BINDING AFFINITY PREDICTED BY RF-SCORE:    0.00 PKD
ROOT
HETATM    1  C   UNL     1     -13.128  13.605  72.699  1.00  0.00    -0.352 C  
HETATM    2  N   UNL     1     -13.343  13.866  71.275  1.00  0.00    -0.284 NA 
HETATM    3  C   UNL     1     -13.737  15.264  71.082  1.00  0.00    -0.443 C  
ENDROOT
BRANCH   2   4
HETATM    4  C   UNL     1     -12.144  13.495  70.492  1.00  0.00    -0.335 C  
BRANCH   4   5
HETATM    5  C   UNL     1     -12.380  12.269  69.590  1.00  0.00    -0.050 C  
BRANCH   5   6
HETATM    6  C   UNL     1     -11.428  11.111  69.806  1.00  0.00    -0.388 C  
HETATM    7  C   UNL     1     -10.366  10.806  69.018  1.00  0.00    -0.235 C  
HETATM    8  C   UNL     1     -10.154  11.608  67.793  1.00  0.00    -0.200 A  
HETATM    9  C   UNL     1      -9.725  12.941  67.864  1.00  0.00    -0.218 A  
HETATM   10  C   UNL     1      -9.593  13.701  66.702  1.00  0.00    -0.289 A  
HETATM   11  C   UNL     1      -9.865  13.126  65.462  1.00  0.00    -0.153 A  
HETATM   12  C   UNL     1     -10.273  11.793  65.380  1.00  0.00    -0.301 A  
HETATM   13  C   UNL     1     -10.428  11.026  66.545  1.00  0.00    -0.309 A  
HETATM   14  C   UNL     1     -10.861   9.590  66.475  1.00  0.00     0.172 C  
HETATM   15  S   UNL     1      -9.465   8.459  66.733  1.00  0.00    -0.215 SA 
HETATM   16  C   UNL     1      -9.021   8.682  68.466  1.00  0.00    -0.139 A  
HETATM   17  C   UNL     1      -8.085   7.722  68.909  1.00  0.00    -0.126 A  
HETATM   18  C   UNL     1      -7.604   7.712  70.218  1.00  0.00    -0.089 A  
HETATM   19  C   UNL     1      -8.047   8.669  71.116  1.00  0.00    -0.176 A  
HETATM   20  C   UNL     1      -8.963   9.637  70.698  1.00  0.00    -0.103 A  
HETATM   21  C   UNL     1      -9.472   9.665  69.378  1.00  0.00    -0.201 A  
ENDBRANCH   5   6
ENDBRANCH   4   5
ENDBRANCH   2   4
TORSDOF 3
ENDMDL
MODEL      105
REMARK 921   NORMALIZED FREE ENERGY PREDICTED BY IDOCK:   -3.76 KCAL/MOL
REMARK 922        TOTAL FREE ENERGY PREDICTED BY IDOCK:   -4.69 KCAL/MOL
REMARK 923 INTER-LIGAND FREE ENERGY PREDICTED BY IDOCK:   -4.38 KCAL/MOL
REMARK 924 INTRA-LIGAND FREE ENERGY PREDICTED BY IDOCK:   -0.30 KCAL/MOL
REMARK 927      BINDING AFFINITY PREDICTED BY RF-SCORE:    0.00 PKD
ROOT
HETATM    1  C   UNL     1     -11.683   9.285  71.762  1.00  0.00    -0.386 C  
HETATM    2  N   UNL     1     -12.531  10.176  70.970  1.00  0.00    -0.345 NA 
HETATM    3  C   UNL     1     -13.102  11.214  71.832  1.00  0.00    -0.408 C  
ENDROOT
BRANCH   2   4
HETATM    4  C   UNL     1     -11.774  10.733  69.827  1.00  0.00    -0.324 C  
BRANCH   4   5
HETATM    5  C   UNL     1     -10.332  10.195  69.751  1.00  0.00    -0.297 C  
BRANCH   5   6
HETATM    6  C   UNL     1      -9.975   9.473  68.469  1.00  0.00    -0.184 C  
HETATM    7  C   UNL     1      -9.207   9.975  67.469  1.00  0.00    -0.151 C  
HETATM    8  C   UNL     1      -8.742  11.375  67.583  1.00  0.00    -0.136 A  
HETATM    9  C   UNL     1      -7.767  11.741  68.522  1.00  0.00    -0.137 A  
HETATM   10  C   UNL     1      -7.389  13.076  68.660  1.00  0.00    -0.097 A  
HETATM   11  C   UNL     1      -7.963  14.048  67.844  1.00  0.00    -0.158 A  
HETATM   12  C   UNL     1      -8.921  13.691  66.892  1.00  0.00    -0.229 A  
HETATM   13  C   UNL     1      -9.323  12.353  66.759  1.00  0.00    -0.220 A  
HETATM   14  C   UNL     1     -10.346  11.949  65.737  1.00  0.00    -0.248 C  
HETATM   15  S   UNL     1      -9.577  11.149  64.302  1.00  0.00    -0.245 SA 
HETATM   16  C   UNL     1      -8.971   9.574  64.937  1.00  0.00    -0.219 A  
HETATM   17  C   UNL     1      -8.526   8.714  63.909  1.00  0.00    -0.075 A  
HETATM   18  C   UNL     1      -8.017   7.444  64.179  1.00  0.00    -0.092 A  
HETATM   19  C   UNL     1      -7.936   7.006  65.491  1.00  0.00    -0.130 A  
HETATM   20  C   UNL     1      -8.357   7.843  66.526  1.00  0.00    -0.127 A  
HETATM   21  C   UNL     1      -8.885   9.132  66.278  1.00  0.00    -0.176 A  
ENDBRANCH   5   6
ENDBRANCH   4   5
ENDBRANCH   2   4
TORSDOF 3
ENDMDL
MODEL      106
REMARK 921   NORMALIZED FREE ENERGY PREDICTED BY IDOCK:   -3.75 KCAL/MOL
REMARK 922        TOTAL FREE ENERGY PREDICTED BY IDOCK:   -4.67 KCAL/MOL
REMARK 923 INTER-LIGAND FREE ENERGY PREDICTED BY IDOCK:   -4.45 KCAL/MOL
REMARK 924 INTRA-LIGAND FREE ENERGY PREDICTED BY IDOCK:   -0.22 KCAL/MOL
REMARK 927      BINDING AFFINITY PREDICTED BY RF-SCORE:    0.00 PKD
ROOT
HETATM    1  C   UNL     1      -7.585  10.497  65.642  1.00  0.00    -0.134 C  
HETATM    2  N   UNL     1      -8.153  11.391  66.652  1.00  0.00    -0.160 NA 
HETATM    3  C   UNL     1      -8.682  10.605  67.769  1.00  0.00    -0.129 C  
ENDROOT
BRANCH   2   4
HETATM    4  C   UNL     1      -7.153  12.393  67.079  1.00  0.00    -0.006 C  
BRANCH   4   5
HETATM    5  C   UNL     1      -7.766  13.516  67.938  1.00  0.00    -0.153 C  
BRANCH   5   6
HETATM    6  C   UNL     1      -7.438  14.926  67.494  1.00  0.00    -0.224 C  
HETATM    7  C   UNL     1      -8.189  16.027  67.748  1.00  0.00    -0.159 C  
HETATM    8  C   UNL     1      -9.484  15.843  68.441  1.00  0.00    -0.201 A  
HETATM    9  C   UNL     1      -9.537  15.488  69.796  1.00  0.00    -0.205 A  
HETATM   10  C   UNL     1     -10.765  15.255  70.415  1.00  0.00    -0.268 A  
HETATM   11  C   UNL     1     -11.946  15.400  69.690  1.00  0.00    -0.366 A  
HETATM   12  C   UNL     1     -11.904  15.774  68.345  1.00  0.00    -0.180 A  
HETATM   13  C   UNL     1     -10.673  15.990  67.708  1.00  0.00    -0.323 A  
HETATM   14  C   UNL     1     -10.609  16.398  66.264  1.00  0.00    -0.242 C  
HETATM   15  S   UNL     1     -10.240  18.166  66.085  1.00  0.00    -0.318 SA 
HETATM   16  C   UNL     1      -8.534  18.328  66.645  1.00  0.00    -0.265 A  
HETATM   17  C   UNL     1      -7.998  19.607  66.377  1.00  0.00    -0.332 A  
HETATM   18  C   UNL     1      -6.692  19.946  66.728  1.00  0.00    -0.220 A  
HETATM   19  C   UNL     1      -5.890  19.012  67.363  1.00  0.00    -0.174 A  
HETATM   20  C   UNL     1      -6.401  17.745  67.652  1.00  0.00    -0.172 A  
HETATM   21  C   UNL     1      -7.720  17.372  67.299  1.00  0.00    -0.221 A  
ENDBRANCH   5   6
ENDBRANCH   4   5
ENDBRANCH   2   4
TORSDOF 3
ENDMDL
MODEL      107
REMARK 921   NORMALIZED FREE ENERGY PREDICTED BY IDOCK:   -3.72 KCAL/MOL
REMARK 922        TOTAL FREE ENERGY PREDICTED BY IDOCK:   -4.64 KCAL/MOL
REMARK 923 INTER-LIGAND FREE ENERGY PREDICTED BY IDOCK:   -4.33 KCAL/MOL
REMARK 924 INTRA-LIGAND FREE ENERGY PREDICTED BY IDOCK:   -0.31 KCAL/MOL
REMARK 927      BINDING AFFINITY PREDICTED BY RF-SCORE:    0.00 PKD
ROOT
HETATM    1  C   UNL     1     -14.382   8.652  71.842  1.00  0.00    -0.405 C  
HETATM    2  N   UNL     1     -13.229   9.441  72.279  1.00  0.00    -0.444 NA 
HETATM    3  C   UNL     1     -12.138   8.547  72.673  1.00  0.00    -0.235 C  
ENDROOT
BRANCH   2   4
HETATM    4  C   UNL     1     -12.831  10.403  71.228  1.00  0.00    -0.433 C  
BRANCH   4   5
HETATM    5  C   UNL     1     -11.304  10.466  71.028  1.00  0.00    -0.208 C  
BRANCH   5   6
HETATM    6  C   UNL     1     -10.846  10.701  69.604  1.00  0.00    -0.318 C  
HETATM    7  C   UNL     1      -9.768  10.122  69.017  1.00  0.00    -0.212 C  
HETATM    8  C   UNL     1      -8.905   9.252  69.848  1.00  0.00    -0.196 A  
HETATM    9  C   UNL     1      -9.349   7.995  70.284  1.00  0.00    -0.159 A  
HETATM   10  C   UNL     1      -8.548   7.218  71.120  1.00  0.00    -0.130 A  
HETATM   11  C   UNL     1      -7.291   7.680  71.504  1.00  0.00    -0.071 A  
HETATM   12  C   UNL     1      -6.832   8.922  71.058  1.00  0.00    -0.081 A  
HETATM   13  C   UNL     1      -7.639   9.720  70.233  1.00  0.00    -0.184 A  
HETATM   14  C   UNL     1      -7.159  11.055  69.739  1.00  0.00    -0.047 C  
HETATM   15  S   UNL     1      -6.640  10.977  68.002  1.00  0.00    -0.063 SA 
HETATM   16  C   UNL     1      -8.171  10.713  67.087  1.00  0.00    -0.121 A  
HETATM   17  C   UNL     1      -7.992  10.839  65.691  1.00  0.00    -0.095 A  
HETATM   18  C   UNL     1      -9.049  10.673  64.796  1.00  0.00    -0.236 A  
HETATM   19  C   UNL     1     -10.312  10.371  65.278  1.00  0.00    -0.267 A  
HETATM   20  C   UNL     1     -10.511  10.228  66.652  1.00  0.00    -0.260 A  
HETATM   21  C   UNL     1      -9.458  10.399  67.582  1.00  0.00    -0.165 A  
ENDBRANCH   5   6
ENDBRANCH   4   5
ENDBRANCH   2   4
TORSDOF 3
ENDMDL
MODEL      108
REMARK 921   NORMALIZED FREE ENERGY PREDICTED BY IDOCK:   -3.66 KCAL/MOL
REMARK 922        TOTAL FREE ENERGY PREDICTED BY IDOCK:   -4.56 KCAL/MOL
REMARK 923 INTER-LIGAND FREE ENERGY PREDICTED BY IDOCK:   -4.62 KCAL/MOL
REMARK 924 INTRA-LIGAND FREE ENERGY PREDICTED BY IDOCK:    0.06 KCAL/MOL
REMARK 927      BINDING AFFINITY PREDICTED BY RF-SCORE:    0.00 PKD
ROOT
HETATM    1  C   UNL     1      -5.372  10.291  64.409  1.00  0.00    -0.127 C  
HETATM    2  N   UNL     1      -5.393   9.145  63.499  1.00  0.00    -0.066 NA 
HETATM    3  C   UNL     1      -5.131   7.913  64.247  1.00  0.00    -0.036 C  
ENDROOT
BRANCH   2   4
HETATM    4  C   UNL     1      -6.667   9.101  62.749  1.00  0.00    -0.093 C  
BRANCH   4   5
HETATM    5  C   UNL     1      -7.830   9.763  63.513  1.00  0.00    -0.140 C  
BRANCH   5   6
HETATM    6  C   UNL     1      -8.348   8.987  64.707  1.00  0.00    -0.181 C  
HETATM    7  C   UNL     1      -9.265   9.435  65.600  1.00  0.00    -0.285 C  
HETATM    8  C   UNL     1      -9.747  10.828  65.465  1.00  0.00    -0.290 A  
HETATM    9  C   UNL     1     -10.587  11.206  64.407  1.00  0.00    -0.411 A  
HETATM   10  C   UNL     1     -10.977  12.536  64.259  1.00  0.00    -0.401 A  
HETATM   11  C   UNL     1     -10.553  13.491  65.181  1.00  0.00    -0.364 A  
HETATM   12  C   UNL     1      -9.734  13.121  66.250  1.00  0.00    -0.269 A  
HETATM   13  C   UNL     1      -9.318  11.788  66.396  1.00  0.00    -0.229 A  
HETATM   14  C   UNL     1      -8.443  11.371  67.542  1.00  0.00    -0.137 C  
HETATM   15  S   UNL     1      -9.388  10.502  68.824  1.00  0.00    -0.187 SA 
HETATM   16  C   UNL     1      -9.853   8.938  68.057  1.00  0.00    -0.168 A  
HETATM   17  C   UNL     1     -10.418   8.032  68.981  1.00  0.00    -0.212 A  
HETATM   18  C   UNL     1     -10.847   6.762  68.598  1.00  0.00    -0.277 A  
HETATM   19  C   UNL     1     -10.726   6.369  67.275  1.00  0.00    -0.426 A  
HETATM   20  C   UNL     1     -10.183   7.253  66.340  1.00  0.00    -0.004 A  
HETATM   21  C   UNL     1      -9.733   8.543  66.703  1.00  0.00    -0.318 A  
ENDBRANCH   5   6
ENDBRANCH   4   5
ENDBRANCH   2   4
TORSDOF 3
ENDMDL
MODEL      109
REMARK 921   NORMALIZED FREE ENERGY PREDICTED BY IDOCK:   -3.65 KCAL/MOL
REMARK 922        TOTAL FREE ENERGY PREDICTED BY IDOCK:   -4.56 KCAL/MOL
REMARK 923 INTER-LIGAND FREE ENERGY PREDICTED BY IDOCK:   -4.63 KCAL/MOL
REMARK 924 INTRA-LIGAND FREE ENERGY PREDICTED BY IDOCK:    0.07 KCAL/MOL
REMARK 927      BINDING AFFINITY PREDICTED BY RF-SCORE:    0.00 PKD
ROOT
HETATM    1  C   UNL     1     -10.445  18.863  66.126  1.00  0.00    -0.457 C  
HETATM    2  N   UNL     1     -10.450  17.430  66.424  1.00  0.00    -0.305 NA 
HETATM    3  C   UNL     1     -10.852  16.677  65.235  1.00  0.00    -0.183 C  
ENDROOT
BRANCH   2   4
HETATM    4  C   UNL     1      -9.135  17.007  66.954  1.00  0.00    -0.236 C  
BRANCH   4   5
HETATM    5  C   UNL     1      -9.164  15.586  67.550  1.00  0.00    -0.200 C  
BRANCH   5   6
HETATM    6  C   UNL     1      -9.169  14.458  66.539  1.00  0.00    -0.269 C  
HETATM    7  C   UNL     1      -9.930  13.337  66.611  1.00  0.00    -0.272 C  
HETATM    8  C   UNL     1     -10.769  13.141  67.814  1.00  0.00    -0.252 A  
HETATM    9  C   UNL     1     -11.904  13.933  68.044  1.00  0.00    -0.411 A  
HETATM   10  C   UNL     1     -12.644  13.778  69.215  1.00  0.00     0.227 A  
HETATM   11  C   UNL     1     -12.271  12.815  70.150  1.00  0.00    -0.320 A  
HETATM   12  C   UNL     1     -11.154  12.007  69.921  1.00  0.00     0.124 A  
HETATM   13  C   UNL     1     -10.390  12.170  68.755  1.00  0.00    -0.168 A  
HETATM   14  C   UNL     1      -9.190  11.307  68.489  1.00  0.00    -0.181 C  
HETATM   15  S   UNL     1      -9.550  10.023  67.258  1.00  0.00    -0.160 SA 
HETATM   16  C   UNL     1      -9.769  10.930  65.714  1.00  0.00    -0.224 A  
HETATM   17  C   UNL     1      -9.848  10.074  64.594  1.00  0.00    -0.288 A  
HETATM   18  C   UNL     1     -10.018  10.567  63.301  1.00  0.00    -0.231 A  
HETATM   19  C   UNL     1     -10.119  11.934  63.098  1.00  0.00    -0.341 A  
HETATM   20  C   UNL     1     -10.058  12.800  64.192  1.00  0.00    -0.260 A  
HETATM   21  C   UNL     1      -9.878  12.326  65.513  1.00  0.00    -0.223 A  
ENDBRANCH   5   6
ENDBRANCH   4   5
ENDBRANCH   2   4
TORSDOF 3
ENDMDL
MODEL      110
REMARK 921   NORMALIZED FREE ENERGY PREDICTED BY IDOCK:   -3.65 KCAL/MOL
REMARK 922        TOTAL FREE ENERGY PREDICTED BY IDOCK:   -4.56 KCAL/MOL
REMARK 923 INTER-LIGAND FREE ENERGY PREDICTED BY IDOCK:   -4.50 KCAL/MOL
REMARK 924 INTRA-LIGAND FREE ENERGY PREDICTED BY IDOCK:   -0.06 KCAL/MOL
REMARK 927      BINDING AFFINITY PREDICTED BY RF-SCORE:    0.00 PKD
ROOT
HETATM    1  C   UNL     1     -12.046  12.366  64.096  1.00  0.00    -0.453 C  
HETATM    2  N   UNL     1     -11.478  13.524  64.787  1.00  0.00    -0.333 NA 
HETATM    3  C   UNL     1     -12.087  14.754  64.276  1.00  0.00    -0.394 C  
ENDROOT
BRANCH   2   4
HETATM    4  C   UNL     1     -11.623  13.378  66.251  1.00  0.00    -0.344 C  
BRANCH   4   5
HETATM    5  C   UNL     1     -10.360  12.804  66.920  1.00  0.00    -0.245 C  
BRANCH   5   6
HETATM    6  C   UNL     1      -9.540  11.864  66.059  1.00  0.00    -0.251 C  
HETATM    7  C   UNL     1      -9.106  10.633  66.429  1.00  0.00    -0.183 C  
HETATM    8  C   UNL     1      -9.372  10.188  67.815  1.00  0.00    -0.153 A  
HETATM    9  C   UNL     1     -10.670   9.862  68.237  1.00  0.00    -0.276 A  
HETATM   10  C   UNL     1     -10.911   9.508  69.563  1.00  0.00    -0.243 A  
HETATM   11  C   UNL     1      -9.854   9.452  70.470  1.00  0.00    -0.331 A  
HETATM   12  C   UNL     1      -8.555   9.754  70.055  1.00  0.00    -0.229 A  
HETATM   13  C   UNL     1      -8.306  10.131  68.727  1.00  0.00    -0.122 A  
HETATM   14  C   UNL     1      -6.915  10.454  68.262  1.00  0.00    -0.070 C  
HETATM   15  S   UNL     1      -6.202   9.095  67.293  1.00  0.00    -0.059 SA 
HETATM   16  C   UNL     1      -7.164   9.078  65.768  1.00  0.00    -0.089 A  
HETATM   17  C   UNL     1      -6.613   8.218  64.793  1.00  0.00    -0.067 A  
HETATM   18  C   UNL     1      -7.199   8.055  63.538  1.00  0.00    -0.087 A  
HETATM   19  C   UNL     1      -8.359   8.748  63.231  1.00  0.00    -0.161 A  
HETATM   20  C   UNL     1      -8.931   9.594  64.183  1.00  0.00    -0.269 A  
HETATM   21  C   UNL     1      -8.351   9.784  65.460  1.00  0.00    -0.141 A  
ENDBRANCH   5   6
ENDBRANCH   4   5
ENDBRANCH   2   4
TORSDOF 3
ENDMDL
MODEL      111
REMARK 921   NORMALIZED FREE ENERGY PREDICTED BY IDOCK:   -3.63 KCAL/MOL
REMARK 922        TOTAL FREE ENERGY PREDICTED BY IDOCK:   -4.54 KCAL/MOL
REMARK 923 INTER-LIGAND FREE ENERGY PREDICTED BY IDOCK:   -4.33 KCAL/MOL
REMARK 924 INTRA-LIGAND FREE ENERGY PREDICTED BY IDOCK:   -0.21 KCAL/MOL
REMARK 927      BINDING AFFINITY PREDICTED BY RF-SCORE:    0.00 PKD
ROOT
HETATM    1  C   UNL     1      -5.525   8.048  71.372  1.00  0.00    -0.034 C  
HETATM    2  N   UNL     1      -6.908   7.986  71.843  1.00  0.00    -0.064 NA 
HETATM    3  C   UNL     1      -6.937   8.048  73.306  1.00  0.00    -0.103 C  
ENDROOT
BRANCH   2   4
HETATM    4  C   UNL     1      -7.721   9.048  71.209  1.00  0.00    -0.080 C  
BRANCH   4   5
HETATM    5  C   UNL     1      -8.328   8.606  69.863  1.00  0.00    -0.123 C  
BRANCH   5   6
HETATM    6  C   UNL     1      -8.994   9.704  69.060  1.00  0.00    -0.148 C  
HETATM    7  C   UNL     1      -9.707   9.525  67.920  1.00  0.00    -0.171 C  
HETATM    8  C   UNL     1      -9.778   8.162  67.350  1.00  0.00    -0.221 A  
HETATM    9  C   UNL     1     -10.520   7.150  67.978  1.00  0.00    -0.251 A  
HETATM   10  C   UNL     1     -10.523   5.856  67.461  1.00  0.00    -0.306 A  
HETATM   11  C   UNL     1      -9.806   5.569  66.301  1.00  0.00    -0.173 A  
HETATM   12  C   UNL     1      -9.080   6.574  65.657  1.00  0.00     0.061 A  
HETATM   13  C   UNL     1      -9.055   7.876  66.180  1.00  0.00    -0.210 A  
HETATM   14  C   UNL     1      -8.286   8.970  65.498  1.00  0.00    -0.122 C  
HETATM   15  S   UNL     1      -9.384  10.090  64.585  1.00  0.00    -0.289 SA 
HETATM   16  C   UNL     1     -10.307  10.959  65.868  1.00  0.00    -0.250 A  
HETATM   17  C   UNL     1     -11.066  12.032  65.351  1.00  0.00    -0.369 A  
HETATM   18  C   UNL     1     -11.855  12.838  66.172  1.00  0.00    -0.484 A  
HETATM   19  C   UNL     1     -11.907  12.584  67.533  1.00  0.00    -0.389 A  
HETATM   20  C   UNL     1     -11.176  11.520  68.065  1.00  0.00    -0.335 A  
HETATM   21  C   UNL     1     -10.361  10.693  67.256  1.00  0.00    -0.265 A  
ENDBRANCH   5   6
ENDBRANCH   4   5
ENDBRANCH   2   4
TORSDOF 3
ENDMDL
MODEL      112
REMARK 921   NORMALIZED FREE ENERGY PREDICTED BY IDOCK:   -3.63 KCAL/MOL
REMARK 922        TOTAL FREE ENERGY PREDICTED BY IDOCK:   -4.53 KCAL/MOL
REMARK 923 INTER-LIGAND FREE ENERGY PREDICTED BY IDOCK:   -4.23 KCAL/MOL
REMARK 924 INTRA-LIGAND FREE ENERGY PREDICTED BY IDOCK:   -0.30 KCAL/MOL
REMARK 927      BINDING AFFINITY PREDICTED BY RF-SCORE:    0.00 PKD
ROOT
HETATM    1  C   UNL     1     -13.387   7.982  71.149  1.00  0.00    -0.025 C  
HETATM    2  N   UNL     1     -12.342   7.925  72.171  1.00  0.00    -0.306 NA 
HETATM    3  C   UNL     1     -11.575   6.686  72.027  1.00  0.00    -0.301 C  
ENDROOT
BRANCH   2   4
HETATM    4  C   UNL     1     -11.493   9.135  72.114  1.00  0.00    -0.168 C  
BRANCH   4   5
HETATM    5  C   UNL     1     -11.291   9.652  70.677  1.00  0.00    -0.379 C  
BRANCH   5   6
HETATM    6  C   UNL     1      -9.882   9.530  70.135  1.00  0.00    -0.288 C  
HETATM    7  C   UNL     1      -9.352  10.285  69.141  1.00  0.00    -0.214 C  
HETATM    8  C   UNL     1     -10.235  11.255  68.456  1.00  0.00    -0.214 A  
HETATM    9  C   UNL     1     -10.681  12.416  69.105  1.00  0.00    -0.081 A  
HETATM   10  C   UNL     1     -11.565  13.284  68.467  1.00  0.00    -0.368 A  
HETATM   11  C   UNL     1     -11.989  13.013  67.168  1.00  0.00    -0.389 A  
HETATM   12  C   UNL     1     -11.534  11.870  66.505  1.00  0.00    -0.381 A  
HETATM   13  C   UNL     1     -10.661  10.979  67.146  1.00  0.00    -0.294 A  
HETATM   14  C   UNL     1     -10.157   9.749  66.447  1.00  0.00    -0.243 C  
HETATM   15  S   UNL     1      -8.445   9.955  65.883  1.00  0.00    -0.134 SA 
HETATM   16  C   UNL     1      -7.474  10.003  67.402  1.00  0.00    -0.091 A  
HETATM   17  C   UNL     1      -6.085   9.945  67.155  1.00  0.00    -0.058 A  
HETATM   18  C   UNL     1      -5.152   9.970  68.191  1.00  0.00    -0.036 A  
HETATM   19  C   UNL     1      -5.589  10.058  69.503  1.00  0.00    -0.037 A  
HETATM   20  C   UNL     1      -6.957  10.131  69.771  1.00  0.00    -0.118 A  
HETATM   21  C   UNL     1      -7.925  10.099  68.740  1.00  0.00    -0.104 A  
ENDBRANCH   5   6
ENDBRANCH   4   5
ENDBRANCH   2   4
TORSDOF 3
ENDMDL
MODEL      113
REMARK 921   NORMALIZED FREE ENERGY PREDICTED BY IDOCK:   -3.60 KCAL/MOL
REMARK 922        TOTAL FREE ENERGY PREDICTED BY IDOCK:   -4.50 KCAL/MOL
REMARK 923 INTER-LIGAND FREE ENERGY PREDICTED BY IDOCK:   -4.26 KCAL/MOL
REMARK 924 INTRA-LIGAND FREE ENERGY PREDICTED BY IDOCK:   -0.24 KCAL/MOL
REMARK 927      BINDING AFFINITY PREDICTED BY RF-SCORE:    0.00 PKD
ROOT
HETATM    1  C   UNL     1     -10.745  13.023  65.388  1.00  0.00    -0.291 C  
HETATM    2  N   UNL     1     -10.485  11.717  64.781  1.00  0.00    -0.279 NA 
HETATM    3  C   UNL     1     -10.095  11.889  63.381  1.00  0.00    -0.438 C  
ENDROOT
BRANCH   2   4
HETATM    4  C   UNL     1      -9.480  10.970  65.569  1.00  0.00    -0.216 C  
BRANCH   4   5
HETATM    5  C   UNL     1     -10.056   9.690  66.206  1.00  0.00    -0.322 C  
BRANCH   5   6
HETATM    6  C   UNL     1      -9.657   9.446  67.647  1.00  0.00    -0.163 C  
HETATM    7  C   UNL     1      -9.261   8.257  68.165  1.00  0.00    -0.137 C  
HETATM    8  C   UNL     1      -9.298   7.067  67.285  1.00  0.00    -0.153 A  
HETATM    9  C   UNL     1      -8.386   6.917  66.230  1.00  0.00    -0.126 A  
HETATM   10  C   UNL     1      -8.477   5.822  65.372  1.00  0.00    -0.151 A  
HETATM   11  C   UNL     1      -9.462   4.858  65.578  1.00  0.00    -0.155 A  
HETATM   12  C   UNL     1     -10.362   4.988  66.638  1.00  0.00    -0.312 A  
HETATM   13  C   UNL     1     -10.291   6.097  67.495  1.00  0.00    -0.259 A  
HETATM   14  C   UNL     1     -11.246   6.251  68.644  1.00  0.00    -0.238 C  
HETATM   15  S   UNL     1     -10.461   5.836  70.226  1.00  0.00    -0.302 SA 
HETATM   16  C   UNL     1      -9.264   7.158  70.493  1.00  0.00    -0.158 A  
HETATM   17  C   UNL     1      -8.700   7.121  71.787  1.00  0.00    -0.121 A  
HETATM   18  C   UNL     1      -7.751   8.053  72.204  1.00  0.00    -0.131 A  
HETATM   19  C   UNL     1      -7.338   9.045  71.330  1.00  0.00    -0.066 A  
HETATM   20  C   UNL     1      -7.870   9.095  70.040  1.00  0.00    -0.099 A  
HETATM   21  C   UNL     1      -8.840   8.167  69.595  1.00  0.00    -0.143 A  
ENDBRANCH   5   6
ENDBRANCH   4   5
ENDBRANCH   2   4
TORSDOF 3
ENDMDL
MODEL      114
REMARK 921   NORMALIZED FREE ENERGY PREDICTED BY IDOCK:   -3.59 KCAL/MOL
REMARK 922        TOTAL FREE ENERGY PREDICTED BY IDOCK:   -4.49 KCAL/MOL
REMARK 923 INTER-LIGAND FREE ENERGY PREDICTED BY IDOCK:   -4.17 KCAL/MOL
REMARK 924 INTRA-LIGAND FREE ENERGY PREDICTED BY IDOCK:   -0.33 KCAL/MOL
REMARK 927      BINDING AFFINITY PREDICTED BY RF-SCORE:    0.00 PKD
ROOT
HETATM    1  C   UNL     1     -11.815  14.370  67.309  1.00  0.00    -0.405 C  
HETATM    2  N   UNL     1     -11.618  13.035  66.743  1.00  0.00    -0.348 NA 
HETATM    3  C   UNL     1     -12.404  12.896  65.515  1.00  0.00    -0.461 C  
ENDROOT
BRANCH   2   4
HETATM    4  C   UNL     1     -10.178  12.767  66.535  1.00  0.00    -0.253 C  
BRANCH   4   5
HETATM    5  C   UNL     1      -9.550  11.966  67.692  1.00  0.00    -0.185 C  
BRANCH   5   6
HETATM    6  C   UNL     1      -9.240  10.516  67.384  1.00  0.00    -0.154 C  
HETATM    7  C   UNL     1      -9.759   9.444  68.034  1.00  0.00    -0.167 C  
HETATM    8  C   UNL     1     -10.635   9.693  69.201  1.00  0.00    -0.237 A  
HETATM    9  C   UNL     1     -11.923  10.225  69.040  1.00  0.00     0.119 A  
HETATM   10  C   UNL     1     -12.709  10.514  70.155  1.00  0.00    -0.191 A  
HETATM   11  C   UNL     1     -12.224  10.251  71.434  1.00  0.00    -0.481 A  
HETATM   12  C   UNL     1     -10.950   9.702  71.603  1.00  0.00    -0.149 A  
HETATM   13  C   UNL     1     -10.144   9.426  70.489  1.00  0.00    -0.335 A  
HETATM   14  C   UNL     1      -8.775   8.831  70.652  1.00  0.00    -0.180 C  
HETATM   15  S   UNL     1      -8.762   7.063  70.244  1.00  0.00    -0.145 SA 
HETATM   16  C   UNL     1      -9.036   7.010  68.462  1.00  0.00    -0.131 A  
HETATM   17  C   UNL     1      -8.846   5.718  67.926  1.00  0.00    -0.108 A  
HETATM   18  C   UNL     1      -9.007   5.454  66.566  1.00  0.00    -0.120 A  
HETATM   19  C   UNL     1      -9.370   6.480  65.709  1.00  0.00     0.115 A  
HETATM   20  C   UNL     1      -9.577   7.764  66.218  1.00  0.00    -0.179 A  
HETATM   21  C   UNL     1      -9.412   8.060  67.591  1.00  0.00    -0.171 A  
ENDBRANCH   5   6
ENDBRANCH   4   5
ENDBRANCH   2   4
TORSDOF 3
ENDMDL
MODEL      115
REMARK 921   NORMALIZED FREE ENERGY PREDICTED BY IDOCK:   -3.56 KCAL/MOL
REMARK 922        TOTAL FREE ENERGY PREDICTED BY IDOCK:   -4.45 KCAL/MOL
REMARK 923 INTER-LIGAND FREE ENERGY PREDICTED BY IDOCK:   -3.89 KCAL/MOL
REMARK 924 INTRA-LIGAND FREE ENERGY PREDICTED BY IDOCK:   -0.56 KCAL/MOL
REMARK 927      BINDING AFFINITY PREDICTED BY RF-SCORE:    0.00 PKD
ROOT
HETATM    1  C   UNL     1      -9.997   6.820  74.238  1.00  0.00    -0.323 C  
HETATM    2  N   UNL     1     -10.072   6.291  72.876  1.00  0.00    -0.178 NA 
HETATM    3  C   UNL     1      -9.256   5.079  72.770  1.00  0.00    -0.132 C  
ENDROOT
BRANCH   2   4
HETATM    4  C   UNL     1     -11.480   6.071  72.482  1.00  0.00    -0.290 C  
BRANCH   4   5
HETATM    5  C   UNL     1     -11.738   6.389  70.997  1.00  0.00    -0.358 C  
BRANCH   5   6
HETATM    6  C   UNL     1     -11.285   7.760  70.538  1.00  0.00    -0.267 C  
HETATM    7  C   UNL     1     -10.284   8.006  69.657  1.00  0.00    -0.208 C  
HETATM    8  C   UNL     1      -9.498   6.856  69.156  1.00  0.00    -0.142 A  
HETATM    9  C   UNL     1     -10.059   5.927  68.267  1.00  0.00    -0.203 A  
HETATM   10  C   UNL     1      -9.326   4.814  67.858  1.00  0.00    -0.164 A  
HETATM   11  C   UNL     1      -8.021   4.636  68.313  1.00  0.00    -0.084 A  
HETATM   12  C   UNL     1      -7.446   5.567  69.182  1.00  0.00    -0.078 A  
HETATM   13  C   UNL     1      -8.183   6.679  69.616  1.00  0.00    -0.127 A  
HETATM   14  C   UNL     1      -7.580   7.693  70.545  1.00  0.00    -0.081 C  
HETATM   15  S   UNL     1      -7.105   9.207  69.665  1.00  0.00    -0.063 SA 
HETATM   16  C   UNL     1      -8.673   9.957  69.182  1.00  0.00    -0.159 A  
HETATM   17  C   UNL     1      -8.509  11.262  68.667  1.00  0.00    -0.143 A  
HETATM   18  C   UNL     1      -9.594  12.023  68.234  1.00  0.00    -0.204 A  
HETATM   19  C   UNL     1     -10.872  11.492  68.301  1.00  0.00    -0.257 A  
HETATM   20  C   UNL     1     -11.058  10.199  68.793  1.00  0.00    -0.250 A  
HETATM   21  C   UNL     1      -9.976   9.409  69.247  1.00  0.00    -0.182 A  
ENDBRANCH   5   6
ENDBRANCH   4   5
ENDBRANCH   2   4
TORSDOF 3
ENDMDL
MODEL      116
REMARK 921   NORMALIZED FREE ENERGY PREDICTED BY IDOCK:   -3.56 KCAL/MOL
REMARK 922        TOTAL FREE ENERGY PREDICTED BY IDOCK:   -4.45 KCAL/MOL
REMARK 923 INTER-LIGAND FREE ENERGY PREDICTED BY IDOCK:   -4.03 KCAL/MOL
REMARK 924 INTRA-LIGAND FREE ENERGY PREDICTED BY IDOCK:   -0.41 KCAL/MOL
REMARK 927      BINDING AFFINITY PREDICTED BY RF-SCORE:    0.00 PKD
ROOT
HETATM    1  C   UNL     1      -9.183   8.967  65.335  1.00  0.00    -0.136 C  
HETATM    2  N   UNL     1      -9.227   8.550  66.736  1.00  0.00    -0.161 NA 
HETATM    3  C   UNL     1      -8.488   9.508  67.562  1.00  0.00    -0.126 C  
ENDROOT
BRANCH   2   4
HETATM    4  C   UNL     1     -10.627   8.371  67.180  1.00  0.00    -0.256 C  
BRANCH   4   5
HETATM    5  C   UNL     1     -10.939   6.918  67.590  1.00  0.00    -0.304 C  
BRANCH   5   6
HETATM    6  C   UNL     1      -9.852   6.218  68.379  1.00  0.00    -0.141 C  
HETATM    7  C   UNL     1      -9.759   6.183  69.732  1.00  0.00    -0.187 C  
HETATM    8  C   UNL     1     -10.743   6.960  70.519  1.00  0.00    -0.267 A  
HETATM    9  C   UNL     1     -12.086   6.563  70.596  1.00  0.00    -0.265 A  
HETATM   10  C   UNL     1     -13.011   7.343  71.288  1.00  0.00    -0.358 A  
HETATM   11  C   UNL     1     -12.597   8.510  71.927  1.00  0.00    -0.400 A  
HETATM   12  C   UNL     1     -11.257   8.902  71.873  1.00  0.00    -0.447 A  
HETATM   13  C   UNL     1     -10.322   8.135  71.162  1.00  0.00    -0.237 A  
HETATM   14  C   UNL     1      -8.877   8.539  71.099  1.00  0.00    -0.179 C  
HETATM   15  S   UNL     1      -7.851   7.527  72.202  1.00  0.00    -0.098 SA 
HETATM   16  C   UNL     1      -7.865   5.888  71.450  1.00  0.00    -0.112 A  
HETATM   17  C   UNL     1      -6.940   5.010  72.057  1.00  0.00    -0.066 A  
HETATM   18  C   UNL     1      -6.788   3.692  71.630  1.00  0.00    -0.027 A  
HETATM   19  C   UNL     1      -7.564   3.217  70.585  1.00  0.00    -0.040 A  
HETATM   20  C   UNL     1      -8.495   4.063  69.978  1.00  0.00    -0.093 A  
HETATM   21  C   UNL     1      -8.664   5.406  70.387  1.00  0.00    -0.136 A  
ENDBRANCH   5   6
ENDBRANCH   4   5
ENDBRANCH   2   4
TORSDOF 3
ENDMDL
MODEL      117
REMARK 921   NORMALIZED FREE ENERGY PREDICTED BY IDOCK:   -3.55 KCAL/MOL
REMARK 922        TOTAL FREE ENERGY PREDICTED BY IDOCK:   -4.44 KCAL/MOL
REMARK 923 INTER-LIGAND FREE ENERGY PREDICTED BY IDOCK:   -4.19 KCAL/MOL
REMARK 924 INTRA-LIGAND FREE ENERGY PREDICTED BY IDOCK:   -0.25 KCAL/MOL
REMARK 927      BINDING AFFINITY PREDICTED BY RF-SCORE:    0.00 PKD
ROOT
HETATM    1  C   UNL     1     -11.667  13.174  66.293  1.00  0.00    -0.375 C  
HETATM    2  N   UNL     1     -11.176  11.796  66.310  1.00  0.00    -0.323 NA 
HETATM    3  C   UNL     1     -10.175  11.612  65.258  1.00  0.00    -0.272 C  
ENDROOT
BRANCH   2   4
HETATM    4  C   UNL     1     -10.668  11.443  67.654  1.00  0.00    -0.216 C  
BRANCH   4   5
HETATM    5  C   UNL     1      -9.453  10.497  67.600  1.00  0.00    -0.164 C  
BRANCH   5   6
HETATM    6  C   UNL     1      -8.780  10.227  68.930  1.00  0.00    -0.152 C  
HETATM    7  C   UNL     1      -8.697   9.018  69.540  1.00  0.00    -0.144 C  
HETATM    8  C   UNL     1      -9.390   7.871  68.912  1.00  0.00    -0.150 A  
HETATM    9  C   UNL     1      -8.921   7.305  67.717  1.00  0.00    -0.126 A  
HETATM   10  C   UNL     1      -9.624   6.268  67.106  1.00  0.00    -0.151 A  
HETATM   11  C   UNL     1     -10.785   5.773  67.697  1.00  0.00    -0.313 A  
HETATM   12  C   UNL     1     -11.249   6.316  68.897  1.00  0.00    -0.387 A  
HETATM   13  C   UNL     1     -10.560   7.374  69.510  1.00  0.00    -0.244 A  
HETATM   14  C   UNL     1     -11.041   7.966  70.803  1.00  0.00    -0.256 C  
HETATM   15  S   UNL     1     -10.041   7.401  72.209  1.00  0.00    -0.205 SA 
HETATM   16  C   UNL     1      -8.435   8.180  71.960  1.00  0.00    -0.155 A  
HETATM   17  C   UNL     1      -7.583   8.026  73.076  1.00  0.00    -0.173 A  
HETATM   18  C   UNL     1      -6.292   8.552  73.095  1.00  0.00    -0.104 A  
HETATM   19  C   UNL     1      -5.819   9.243  71.991  1.00  0.00    -0.029 A  
HETATM   20  C   UNL     1      -6.638   9.397  70.870  1.00  0.00    -0.098 A  
HETATM   21  C   UNL     1      -7.954   8.880  70.828  1.00  0.00    -0.150 A  
ENDBRANCH   5   6
ENDBRANCH   4   5
ENDBRANCH   2   4
TORSDOF 3
ENDMDL
MODEL      118
REMARK 921   NORMALIZED FREE ENERGY PREDICTED BY IDOCK:   -3.51 KCAL/MOL
REMARK 922        TOTAL FREE ENERGY PREDICTED BY IDOCK:   -4.39 KCAL/MOL
REMARK 923 INTER-LIGAND FREE ENERGY PREDICTED BY IDOCK:   -4.13 KCAL/MOL
REMARK 924 INTRA-LIGAND FREE ENERGY PREDICTED BY IDOCK:   -0.26 KCAL/MOL
REMARK 927      BINDING AFFINITY PREDICTED BY RF-SCORE:    0.00 PKD
ROOT
HETATM    1  C   UNL     1      -8.502  11.557  68.354  1.00  0.00    -0.159 C  
HETATM    2  N   UNL     1      -9.926  11.260  68.514  1.00  0.00    -0.197 NA 
HETATM    3  C   UNL     1     -10.725  12.310  67.878  1.00  0.00    -0.215 C  
ENDROOT
BRANCH   2   4
HETATM    4  C   UNL     1     -10.236   9.910  67.994  1.00  0.00    -0.182 C  
BRANCH   4   5
HETATM    5  C   UNL     1      -9.571   8.790  68.817  1.00  0.00    -0.160 C  
BRANCH   5   6
HETATM    6  C   UNL     1      -9.341   7.489  68.075  1.00  0.00    -0.142 C  
HETATM    7  C   UNL     1      -9.769   6.266  68.476  1.00  0.00    -0.137 C  
HETATM    8  C   UNL     1     -10.445   6.161  69.788  1.00  0.00    -0.299 A  
HETATM    9  C   UNL     1     -11.733   6.682  69.985  1.00  0.00    -0.378 A  
HETATM   10  C   UNL     1     -12.327   6.631  71.245  1.00  0.00    -0.329 A  
HETATM   11  C   UNL     1     -11.651   6.038  72.309  1.00  0.00    -0.359 A  
HETATM   12  C   UNL     1     -10.377   5.497  72.118  1.00  0.00    -0.263 A  
HETATM   13  C   UNL     1      -9.761   5.562  70.859  1.00  0.00    -0.231 A  
HETATM   14  C   UNL     1      -8.395   4.981  70.633  1.00  0.00    -0.106 C  
HETATM   15  S   UNL     1      -8.479   3.395  69.756  1.00  0.00    -0.056 SA 
HETATM   16  C   UNL     1      -9.032   3.829  68.095  1.00  0.00    -0.125 A  
HETATM   17  C   UNL     1      -8.952   2.741  67.199  1.00  0.00    -0.182 A  
HETATM   18  C   UNL     1      -9.332   2.858  65.862  1.00  0.00    -0.056 A  
HETATM   19  C   UNL     1      -9.806   4.071  65.390  1.00  0.00    -0.192 A  
HETATM   20  C   UNL     1      -9.907   5.158  66.261  1.00  0.00    -0.209 A  
HETATM   21  C   UNL     1      -9.522   5.069  67.619  1.00  0.00    -0.154 A  
ENDBRANCH   5   6
ENDBRANCH   4   5
ENDBRANCH   2   4
TORSDOF 3
ENDMDL
MODEL      119
REMARK 921   NORMALIZED FREE ENERGY PREDICTED BY IDOCK:   -3.49 KCAL/MOL
REMARK 922        TOTAL FREE ENERGY PREDICTED BY IDOCK:   -4.37 KCAL/MOL
REMARK 923 INTER-LIGAND FREE ENERGY PREDICTED BY IDOCK:   -4.00 KCAL/MOL
REMARK 924 INTRA-LIGAND FREE ENERGY PREDICTED BY IDOCK:   -0.37 KCAL/MOL
REMARK 927      BINDING AFFINITY PREDICTED BY RF-SCORE:    0.00 PKD
ROOT
HETATM    1  C   UNL     1      -7.283  11.266  66.963  1.00  0.00    -0.129 C  
HETATM    2  N   UNL     1      -7.648  11.512  68.359  1.00  0.00    -0.117 NA 
HETATM    3  C   UNL     1      -7.265  10.363  69.181  1.00  0.00    -0.089 C  
ENDROOT
BRANCH   2   4
HETATM    4  C   UNL     1      -7.054  12.781  68.834  1.00  0.00    -0.067 C  
BRANCH   4   5
HETATM    5  C   UNL     1      -8.089  13.916  68.945  1.00  0.00     0.033 C  
BRANCH   5   6
HETATM    6  C   UNL     1      -8.830  14.247  67.666  1.00  0.00    -0.196 C  
HETATM    7  C   UNL     1     -10.148  14.021  67.436  1.00  0.00    -0.244 C  
HETATM    8  C   UNL     1     -10.925  13.314  68.478  1.00  0.00    -0.291 A  
HETATM    9  C   UNL     1     -11.239  13.934  69.696  1.00  0.00    -0.196 A  
HETATM   10  C   UNL     1     -11.915  13.230  70.691  1.00  0.00    -0.268 A  
HETATM   11  C   UNL     1     -12.304  11.911  70.466  1.00  0.00    -0.372 A  
HETATM   12  C   UNL     1     -12.014  11.291  69.249  1.00  0.00    -0.411 A  
HETATM   13  C   UNL     1     -11.316  11.985  68.249  1.00  0.00    -0.342 A  
HETATM   14  C   UNL     1     -11.001  11.336  66.932  1.00  0.00    -0.290 C  
HETATM   15  S   UNL     1     -12.105  11.923  65.616  1.00  0.00     0.482 SA 
HETATM   16  C   UNL     1     -11.628  13.643  65.364  1.00  0.00    -0.321 A  
HETATM   17  C   UNL     1     -12.238  14.210  64.223  1.00  0.00    -0.449 A  
HETATM   18  C   UNL     1     -12.006  15.531  63.844  1.00  0.00     0.204 A  
HETATM   19  C   UNL     1     -11.159  16.322  64.603  1.00  0.00    -0.259 A  
HETATM   20  C   UNL     1     -10.555  15.789  65.744  1.00  0.00    -0.369 A  
HETATM   21  C   UNL     1     -10.766  14.449  66.146  1.00  0.00    -0.304 A  
ENDBRANCH   5   6
ENDBRANCH   4   5
ENDBRANCH   2   4
TORSDOF 3
ENDMDL
MODEL      120
REMARK 921   NORMALIZED FREE ENERGY PREDICTED BY IDOCK:   -3.49 KCAL/MOL
REMARK 922        TOTAL FREE ENERGY PREDICTED BY IDOCK:   -4.37 KCAL/MOL
REMARK 923 INTER-LIGAND FREE ENERGY PREDICTED BY IDOCK:   -4.55 KCAL/MOL
REMARK 924 INTRA-LIGAND FREE ENERGY PREDICTED BY IDOCK:    0.19 KCAL/MOL
REMARK 927      BINDING AFFINITY PREDICTED BY RF-SCORE:    0.00 PKD
ROOT
HETATM    1  C   UNL     1      -5.719  10.208  64.126  1.00  0.00    -0.131 C  
HETATM    2  N   UNL     1      -6.726   9.149  64.045  1.00  0.00    -0.088 NA 
HETATM    3  C   UNL     1      -6.872   8.504  65.352  1.00  0.00    -0.070 C  
ENDROOT
BRANCH   2   4
HETATM    4  C   UNL     1      -8.003   9.684  63.524  1.00  0.00    -0.140 C  
BRANCH   4   5
HETATM    5  C   UNL     1      -8.462  10.953  64.268  1.00  0.00     0.108 C  
BRANCH   5   6
HETATM    6  C   UNL     1      -8.932  10.736  65.692  1.00  0.00    -0.205 C  
HETATM    7  C   UNL     1      -9.949  11.400  66.296  1.00  0.00    -0.259 C  
HETATM    8  C   UNL     1     -10.611  12.491  65.547  1.00  0.00    -0.304 A  
HETATM    9  C   UNL     1     -11.437  12.219  64.446  1.00  0.00    -0.417 A  
HETATM   10  C   UNL     1     -11.999  13.262  63.713  1.00  0.00    -0.551 A  
HETATM   11  C   UNL     1     -11.762  14.583  64.090  1.00  0.00    -0.222 A  
HETATM   12  C   UNL     1     -10.958  14.864  65.197  1.00  0.00    -0.410 A  
HETATM   13  C   UNL     1     -10.371  13.821  65.929  1.00  0.00    -0.315 A  
HETATM   14  C   UNL     1      -9.508  14.104  67.126  1.00  0.00    -0.236 C  
HETATM   15  S   UNL     1     -10.393  13.783  68.677  1.00  0.00    -0.192 SA 
HETATM   16  C   UNL     1     -10.594  11.992  68.717  1.00  0.00    -0.209 A  
HETATM   17  C   UNL     1     -11.077  11.532  69.962  1.00  0.00     0.021 A  
HETATM   18  C   UNL     1     -11.305  10.178  70.209  1.00  0.00    -0.387 A  
HETATM   19  C   UNL     1     -11.060   9.251  69.210  1.00  0.00    -0.031 A  
HETATM   20  C   UNL     1     -10.595   9.682  67.966  1.00  0.00    -0.292 A  
HETATM   21  C   UNL     1     -10.347  11.048  67.692  1.00  0.00    -0.223 A  
ENDBRANCH   5   6
ENDBRANCH   4   5
ENDBRANCH   2   4
TORSDOF 3
ENDMDL
MODEL      121
REMARK 921   NORMALIZED FREE ENERGY PREDICTED BY IDOCK:   -3.47 KCAL/MOL
REMARK 922        TOTAL FREE ENERGY PREDICTED BY IDOCK:   -4.35 KCAL/MOL
REMARK 923 INTER-LIGAND FREE ENERGY PREDICTED BY IDOCK:   -3.96 KCAL/MOL
REMARK 924 INTRA-LIGAND FREE ENERGY PREDICTED BY IDOCK:   -0.39 KCAL/MOL
REMARK 927      BINDING AFFINITY PREDICTED BY RF-SCORE:    0.00 PKD
ROOT
HETATM    1  C   UNL     1     -10.666   7.469  69.785  1.00  0.00    -0.242 C  
HETATM    2  N   UNL     1      -9.706   8.534  69.490  1.00  0.00    -0.174 NA 
HETATM    3  C   UNL     1      -9.894   9.644  70.427  1.00  0.00    -0.256 C  
ENDROOT
BRANCH   2   4
HETATM    4  C   UNL     1      -8.325   8.004  69.498  1.00  0.00    -0.127 C  
BRANCH   4   5
HETATM    5  C   UNL     1      -7.709   7.928  68.088  1.00  0.00    -0.125 C  
BRANCH   5   6
HETATM    6  C   UNL     1      -8.250   8.930  67.089  1.00  0.00    -0.103 C  
HETATM    7  C   UNL     1      -8.686   8.638  65.838  1.00  0.00    -0.201 C  
HETATM    8  C   UNL     1      -8.551   7.244  65.360  1.00  0.00    -0.047 A  
HETATM    9  C   UNL     1      -9.350   6.217  65.883  1.00  0.00    -0.007 A  
HETATM   10  C   UNL     1      -9.164   4.900  65.468  1.00  0.00    -0.160 A  
HETATM   11  C   UNL     1      -8.196   4.604  64.509  1.00  0.00    -0.111 A  
HETATM   12  C   UNL     1      -7.410   5.623  63.967  1.00  0.00    -0.058 A  
HETATM   13  C   UNL     1      -7.576   6.949  64.394  1.00  0.00    -0.108 A  
HETATM   14  C   UNL     1      -6.743   8.058  63.817  1.00  0.00    -0.070 C  
HETATM   15  S   UNL     1      -7.682   9.044  62.617  1.00  0.00    -0.121 SA 
HETATM   16  C   UNL     1      -8.911   9.912  63.612  1.00  0.00    -0.237 A  
HETATM   17  C   UNL     1      -9.602  10.898  62.874  1.00  0.00    -0.371 A  
HETATM   18  C   UNL     1     -10.596  11.687  63.451  1.00  0.00    -0.472 A  
HETATM   19  C   UNL     1     -10.927  11.504  64.783  1.00  0.00    -0.338 A  
HETATM   20  C   UNL     1     -10.267  10.526  65.530  1.00  0.00    -0.325 A  
HETATM   21  C   UNL     1      -9.249   9.718  64.972  1.00  0.00    -0.307 A  
ENDBRANCH   5   6
ENDBRANCH   4   5
ENDBRANCH   2   4
TORSDOF 3
ENDMDL
MODEL      122
REMARK 921   NORMALIZED FREE ENERGY PREDICTED BY IDOCK:   -3.46 KCAL/MOL
REMARK 922        TOTAL FREE ENERGY PREDICTED BY IDOCK:   -4.33 KCAL/MOL
REMARK 923 INTER-LIGAND FREE ENERGY PREDICTED BY IDOCK:   -3.74 KCAL/MOL
REMARK 924 INTRA-LIGAND FREE ENERGY PREDICTED BY IDOCK:   -0.59 KCAL/MOL
REMARK 927      BINDING AFFINITY PREDICTED BY RF-SCORE:    0.00 PKD
ROOT
HETATM    1  C   UNL     1      -7.111   7.542  64.345  1.00  0.00    -0.069 C  
HETATM    2  N   UNL     1      -7.145   8.320  65.584  1.00  0.00    -0.070 NA 
HETATM    3  C   UNL     1      -6.992   7.427  66.735  1.00  0.00    -0.077 C  
ENDROOT
BRANCH   2   4
HETATM    4  C   UNL     1      -6.126   9.393  65.551  1.00  0.00    -0.063 C  
BRANCH   4   5
HETATM    5  C   UNL     1      -6.155  10.278  66.812  1.00  0.00    -0.062 C  
BRANCH   5   6
HETATM    6  C   UNL     1      -6.916  11.581  66.673  1.00  0.00    -0.069 C  
HETATM    7  C   UNL     1      -8.208  11.781  67.036  1.00  0.00    -0.172 C  
HETATM    8  C   UNL     1      -8.981  10.621  67.529  1.00  0.00    -0.136 A  
HETATM    9  C   UNL     1      -8.714  10.050  68.782  1.00  0.00    -0.136 A  
HETATM   10  C   UNL     1      -9.408   8.917  69.203  1.00  0.00    -0.148 A  
HETATM   11  C   UNL     1     -10.392   8.363  68.386  1.00  0.00    -0.239 A  
HETATM   12  C   UNL     1     -10.680   8.936  67.145  1.00  0.00    -0.203 A  
HETATM   13  C   UNL     1      -9.972  10.064  66.704  1.00  0.00    -0.274 A  
HETATM   14  C   UNL     1     -10.273  10.697  65.376  1.00  0.00    -0.273 C  
HETATM   15  S   UNL     1     -11.239  12.221  65.566  1.00  0.00    -0.344 SA 
HETATM   16  C   UNL     1     -10.098  13.384  66.339  1.00  0.00    -0.292 A  
HETATM   17  C   UNL     1     -10.610  14.699  66.372  1.00  0.00    -0.301 A  
HETATM   18  C   UNL     1      -9.890  15.756  66.927  1.00  0.00    -0.243 A  
HETATM   19  C   UNL     1      -8.637  15.519  67.469  1.00  0.00    -0.184 A  
HETATM   20  C   UNL     1      -8.115  14.224  67.460  1.00  0.00    -0.200 A  
HETATM   21  C   UNL     1      -8.821  13.136  66.896  1.00  0.00    -0.184 A  
ENDBRANCH   5   6
ENDBRANCH   4   5
ENDBRANCH   2   4
TORSDOF 3
ENDMDL
MODEL      123
REMARK 921   NORMALIZED FREE ENERGY PREDICTED BY IDOCK:   -3.46 KCAL/MOL
REMARK 922        TOTAL FREE ENERGY PREDICTED BY IDOCK:   -4.33 KCAL/MOL
REMARK 923 INTER-LIGAND FREE ENERGY PREDICTED BY IDOCK:   -4.06 KCAL/MOL
REMARK 924 INTRA-LIGAND FREE ENERGY PREDICTED BY IDOCK:   -0.28 KCAL/MOL
REMARK 927      BINDING AFFINITY PREDICTED BY RF-SCORE:    0.00 PKD
ROOT
HETATM    1  C   UNL     1      -7.578  14.558  68.025  1.00  0.00    -0.134 C  
HETATM    2  N   UNL     1      -8.990  14.180  67.949  1.00  0.00    -0.177 NA 
HETATM    3  C   UNL     1      -9.712  15.130  67.100  1.00  0.00    -0.228 C  
ENDROOT
BRANCH   2   4
HETATM    4  C   UNL     1      -9.128  12.780  67.490  1.00  0.00    -0.193 C  
BRANCH   4   5
HETATM    5  C   UNL     1      -8.493  11.770  68.464  1.00  0.00    -0.125 C  
BRANCH   5   6
HETATM    6  C   UNL     1      -8.293  10.373  67.912  1.00  0.00    -0.114 C  
HETATM    7  C   UNL     1      -8.975   9.267  68.302  1.00  0.00    -0.129 C  
HETATM    8  C   UNL     1      -9.937   9.399  69.418  1.00  0.00    -0.189 A  
HETATM    9  C   UNL     1     -11.146  10.092  69.257  1.00  0.00    -0.248 A  
HETATM   10  C   UNL     1     -12.010  10.262  70.338  1.00  0.00    -0.391 A  
HETATM   11  C   UNL     1     -11.684   9.718  71.579  1.00  0.00    -0.450 A  
HETATM   12  C   UNL     1     -10.493   9.008  71.744  1.00  0.00    -0.418 A  
HETATM   13  C   UNL     1      -9.607   8.850  70.668  1.00  0.00    -0.262 A  
HETATM   14  C   UNL     1      -8.325   8.084  70.826  1.00  0.00    -0.115 C  
HETATM   15  S   UNL     1      -8.439   6.429  70.092  1.00  0.00    -0.136 SA 
HETATM   16  C   UNL     1      -8.535   6.731  68.317  1.00  0.00    -0.125 A  
HETATM   17  C   UNL     1      -8.415   5.543  67.562  1.00  0.00    -0.106 A  
HETATM   18  C   UNL     1      -8.461   5.549  66.168  1.00  0.00    -0.122 A  
HETATM   19  C   UNL     1      -8.635   6.748  65.495  1.00  0.00    -0.095 A  
HETATM   20  C   UNL     1      -8.770   7.933  66.220  1.00  0.00    -0.174 A  
HETATM   21  C   UNL     1      -8.718   7.956  67.633  1.00  0.00    -0.126 A  
ENDBRANCH   5   6
ENDBRANCH   4   5
ENDBRANCH   2   4
TORSDOF 3
ENDMDL
MODEL      124
REMARK 921   NORMALIZED FREE ENERGY PREDICTED BY IDOCK:   -3.44 KCAL/MOL
REMARK 922        TOTAL FREE ENERGY PREDICTED BY IDOCK:   -4.31 KCAL/MOL
REMARK 923 INTER-LIGAND FREE ENERGY PREDICTED BY IDOCK:   -4.06 KCAL/MOL
REMARK 924 INTRA-LIGAND FREE ENERGY PREDICTED BY IDOCK:   -0.25 KCAL/MOL
REMARK 927      BINDING AFFINITY PREDICTED BY RF-SCORE:    0.00 PKD
ROOT
HETATM    1  C   UNL     1     -12.339  14.096  70.916  1.00  0.00    -0.368 C  
HETATM    2  N   UNL     1     -12.792  12.844  71.523  1.00  0.00    -0.336 NA 
HETATM    3  C   UNL     1     -14.002  13.086  72.311  1.00  0.00    -0.325 C  
ENDROOT
BRANCH   2   4
HETATM    4  C   UNL     1     -12.980  11.804  70.488  1.00  0.00     0.206 C  
BRANCH   4   5
HETATM    5  C   UNL     1     -11.648  11.196  70.008  1.00  0.00    -0.421 C  
BRANCH   5   6
HETATM    6  C   UNL     1     -11.315  11.433  68.549  1.00  0.00    -0.333 C  
HETATM    7  C   UNL     1     -10.580  10.606  67.764  1.00  0.00    -0.275 C  
HETATM    8  C   UNL     1      -9.972   9.410  68.389  1.00  0.00    -0.191 A  
HETATM    9  C   UNL     1     -10.761   8.326  68.801  1.00  0.00    -0.076 A  
HETATM   10  C   UNL     1     -10.178   7.237  69.447  1.00  0.00    -0.193 A  
HETATM   11  C   UNL     1      -8.802   7.212  69.663  1.00  0.00    -0.141 A  
HETATM   12  C   UNL     1      -8.005   8.277  69.237  1.00  0.00    -0.114 A  
HETATM   13  C   UNL     1      -8.584   9.387  68.605  1.00  0.00    -0.123 A  
HETATM   14  C   UNL     1      -7.742  10.539  68.136  1.00  0.00    -0.096 C  
HETATM   15  S   UNL     1      -7.498  10.500  66.338  1.00  0.00    -0.138 SA 
HETATM   16  C   UNL     1      -9.127  10.862  65.655  1.00  0.00    -0.204 A  
HETATM   17  C   UNL     1      -9.088  11.085  64.261  1.00  0.00    -0.116 A  
HETATM   18  C   UNL     1     -10.239  11.381  63.531  1.00  0.00    -0.461 A  
HETATM   19  C   UNL     1     -11.460  11.456  64.180  1.00  0.00    -0.197 A  
HETATM   20  C   UNL     1     -11.526  11.226  65.556  1.00  0.00     0.153 A  
HETATM   21  C   UNL     1     -10.373  10.932  66.321  1.00  0.00    -0.306 A  
ENDBRANCH   5   6
ENDBRANCH   4   5
ENDBRANCH   2   4
TORSDOF 3
ENDMDL
MODEL      125
REMARK 921   NORMALIZED FREE ENERGY PREDICTED BY IDOCK:   -3.38 KCAL/MOL
REMARK 922        TOTAL FREE ENERGY PREDICTED BY IDOCK:   -4.24 KCAL/MOL
REMARK 923 INTER-LIGAND FREE ENERGY PREDICTED BY IDOCK:   -4.03 KCAL/MOL
REMARK 924 INTRA-LIGAND FREE ENERGY PREDICTED BY IDOCK:   -0.21 KCAL/MOL
REMARK 927      BINDING AFFINITY PREDICTED BY RF-SCORE:    0.00 PKD
ROOT
HETATM    1  C   UNL     1      -9.353   4.669  72.083  1.00  0.00    -0.136 C  
HETATM    2  N   UNL     1     -10.768   4.980  71.878  1.00  0.00    -0.161 NA 
HETATM    3  C   UNL     1     -11.525   4.670  73.093  1.00  0.00    -0.224 C  
ENDROOT
BRANCH   2   4
HETATM    4  C   UNL     1     -10.933   6.384  71.442  1.00  0.00    -0.267 C  
BRANCH   4   5
HETATM    5  C   UNL     1     -11.048   6.522  69.912  1.00  0.00    -0.430 C  
BRANCH   5   6
HETATM    6  C   UNL     1      -9.740   6.740  69.179  1.00  0.00    -0.147 C  
HETATM    7  C   UNL     1      -9.253   7.941  68.776  1.00  0.00    -0.143 C  
HETATM    8  C   UNL     1     -10.096   9.139  68.983  1.00  0.00    -0.199 A  
HETATM    9  C   UNL     1     -10.320   9.656  70.267  1.00  0.00    -0.336 A  
HETATM   10  C   UNL     1     -11.169  10.746  70.449  1.00  0.00    -0.270 A  
HETATM   11  C   UNL     1     -11.779  11.343  69.348  1.00  0.00    -0.406 A  
HETATM   12  C   UNL     1     -11.547  10.848  68.062  1.00  0.00    -0.295 A  
HETATM   13  C   UNL     1     -10.710   9.738  67.871  1.00  0.00    -0.312 A  
HETATM   14  C   UNL     1     -10.443   9.197  66.496  1.00  0.00    -0.127 C  
HETATM   15  S   UNL     1      -8.802   9.681  65.893  1.00  0.00    -0.162 SA 
HETATM   16  C   UNL     1      -7.652   8.766  66.937  1.00  0.00    -0.090 A  
HETATM   17  C   UNL     1      -6.320   8.852  66.475  1.00  0.00    -0.062 A  
HETATM   18  C   UNL     1      -5.269   8.217  67.136  1.00  0.00    -0.036 A  
HETATM   19  C   UNL     1      -5.526   7.482  68.282  1.00  0.00    -0.027 A  
HETATM   20  C   UNL     1      -6.833   7.393  68.766  1.00  0.00    -0.072 A  
HETATM   21  C   UNL     1      -7.918   8.021  68.110  1.00  0.00    -0.128 A  
ENDBRANCH   5   6
ENDBRANCH   4   5
ENDBRANCH   2   4
TORSDOF 3
ENDMDL
MODEL      126
REMARK 921   NORMALIZED FREE ENERGY PREDICTED BY IDOCK:   -3.33 KCAL/MOL
REMARK 922        TOTAL FREE ENERGY PREDICTED BY IDOCK:   -4.18 KCAL/MOL
REMARK 923 INTER-LIGAND FREE ENERGY PREDICTED BY IDOCK:   -3.91 KCAL/MOL
REMARK 924 INTRA-LIGAND FREE ENERGY PREDICTED BY IDOCK:   -0.27 KCAL/MOL
REMARK 927      BINDING AFFINITY PREDICTED BY RF-SCORE:    0.00 PKD
ROOT
HETATM    1  C   UNL     1     -12.200   8.631  72.207  1.00  0.00    -0.378 C  
HETATM    2  N   UNL     1     -12.546   9.669  71.236  1.00  0.00    -0.333 NA 
HETATM    3  C   UNL     1     -13.100  10.833  71.930  1.00  0.00    -0.451 C  
ENDROOT
BRANCH   2   4
HETATM    4  C   UNL     1     -11.375  10.005  70.397  1.00  0.00    -0.320 C  
BRANCH   4   5
HETATM    5  C   UNL     1     -10.163   9.097  70.677  1.00  0.00    -0.306 C  
BRANCH   5   6
HETATM    6  C   UNL     1      -9.811   8.123  69.572  1.00  0.00    -0.181 C  
HETATM    7  C   UNL     1      -8.931   8.356  68.566  1.00  0.00    -0.136 C  
HETATM    8  C   UNL     1      -8.317   9.700  68.475  1.00  0.00    -0.117 A  
HETATM    9  C   UNL     1      -7.366  10.128  69.413  1.00  0.00    -0.106 A  
HETATM   10  C   UNL     1      -6.848  11.421  69.350  1.00  0.00    -0.112 A  
HETATM   11  C   UNL     1      -7.256  12.283  68.334  1.00  0.00    -0.102 A  
HETATM   12  C   UNL     1      -8.186  11.859  67.383  1.00  0.00    -0.164 A  
HETATM   13  C   UNL     1      -8.730  10.567  67.451  1.00  0.00    -0.125 A  
HETATM   14  C   UNL     1      -9.727  10.092  66.433  1.00  0.00    -0.210 C  
HETATM   15  S   UNL     1      -8.966   8.972  65.225  1.00  0.00    -0.148 SA 
HETATM   16  C   UNL     1      -8.585   7.484  66.169  1.00  0.00    -0.149 A  
HETATM   17  C   UNL     1      -8.178   6.413  65.344  1.00  0.00    -0.142 A  
HETATM   18  C   UNL     1      -7.835   5.167  65.870  1.00  0.00    -0.102 A  
HETATM   19  C   UNL     1      -7.886   4.966  67.240  1.00  0.00    -0.095 A  
HETATM   20  C   UNL     1      -8.273   6.015  68.077  1.00  0.00    -0.113 A  
HETATM   21  C   UNL     1      -8.633   7.285  67.569  1.00  0.00    -0.122 A  
ENDBRANCH   5   6
ENDBRANCH   4   5
ENDBRANCH   2   4
TORSDOF 3
ENDMDL
MODEL      127
REMARK 921   NORMALIZED FREE ENERGY PREDICTED BY IDOCK:   -3.33 KCAL/MOL
REMARK 922        TOTAL FREE ENERGY PREDICTED BY IDOCK:   -4.18 KCAL/MOL
REMARK 923 INTER-LIGAND FREE ENERGY PREDICTED BY IDOCK:   -4.11 KCAL/MOL
REMARK 924 INTRA-LIGAND FREE ENERGY PREDICTED BY IDOCK:   -0.07 KCAL/MOL
REMARK 927      BINDING AFFINITY PREDICTED BY RF-SCORE:    0.00 PKD
ROOT
HETATM    1  C   UNL     1     -10.061  11.027  64.095  1.00  0.00    -0.344 C  
HETATM    2  N   UNL     1     -10.787  12.296  64.048  1.00  0.00    -0.352 NA 
HETATM    3  C   UNL     1     -12.178  12.058  63.659  1.00  0.00    -0.538 C  
ENDROOT
BRANCH   2   4
HETATM    4  C   UNL     1     -10.666  13.010  65.339  1.00  0.00    -0.291 C  
BRANCH   4   5
HETATM    5  C   UNL     1     -12.003  13.613  65.811  1.00  0.00    -0.425 C  
BRANCH   5   6
HETATM    6  C   UNL     1     -12.104  13.884  67.298  1.00  0.00    -0.403 C  
HETATM    7  C   UNL     1     -11.435  14.854  67.969  1.00  0.00    -0.355 C  
HETATM    8  C   UNL     1     -10.455  15.672  67.220  1.00  0.00    -0.292 A  
HETATM    9  C   UNL     1     -10.873  16.612  66.267  1.00  0.00    -0.015 A  
HETATM   10  C   UNL     1      -9.934  17.326  65.524  1.00  0.00     0.142 A  
HETATM   11  C   UNL     1      -8.573  17.123  65.746  1.00  0.00     0.202 A  
HETATM   12  C   UNL     1      -8.147  16.204  66.708  1.00  0.00    -0.305 A  
HETATM   13  C   UNL     1      -9.085  15.466  67.446  1.00  0.00    -0.206 A  
HETATM   14  C   UNL     1      -8.645  14.478  68.488  1.00  0.00    -0.175 C  
HETATM   15  S   UNL     1      -8.858  15.136  70.166  1.00  0.00     0.882 SA 
HETATM   16  C   UNL     1     -10.645  15.222  70.392  1.00  0.00    -0.197 A  
HETATM   17  C   UNL     1     -11.005  15.514  71.725  1.00  0.00    -0.056 A  
HETATM   18  C   UNL     1     -12.338  15.626  72.120  1.00  0.00    -0.517 A  
HETATM   19  C   UNL     1     -13.345  15.453  71.185  1.00  0.00    -0.580 A  
HETATM   20  C   UNL     1     -13.013  15.177  69.856  1.00  0.00     0.063 A  
HETATM   21  C   UNL     1     -11.670  15.050  69.432  1.00  0.00    -0.351 A  
ENDBRANCH   5   6
ENDBRANCH   4   5
ENDBRANCH   2   4
TORSDOF 3
ENDMDL
MODEL      128
REMARK 921   NORMALIZED FREE ENERGY PREDICTED BY IDOCK:   -3.33 KCAL/MOL
REMARK 922        TOTAL FREE ENERGY PREDICTED BY IDOCK:   -4.18 KCAL/MOL
REMARK 923 INTER-LIGAND FREE ENERGY PREDICTED BY IDOCK:   -4.00 KCAL/MOL
REMARK 924 INTRA-LIGAND FREE ENERGY PREDICTED BY IDOCK:   -0.18 KCAL/MOL
REMARK 927      BINDING AFFINITY PREDICTED BY RF-SCORE:    0.00 PKD
ROOT
HETATM    1  C   UNL     1     -13.301   9.311  72.823  1.00  0.00    -0.127 C  
HETATM    2  N   UNL     1     -13.279   9.929  71.497  1.00  0.00    -0.396 NA 
HETATM    3  C   UNL     1     -13.086  11.375  71.627  1.00  0.00    -0.393 C  
ENDROOT
BRANCH   2   4
HETATM    4  C   UNL     1     -12.256   9.288  70.643  1.00  0.00    -0.048 C  
BRANCH   4   5
HETATM    5  C   UNL     1     -10.890   9.164  71.344  1.00  0.00    -0.419 C  
BRANCH   5   6
HETATM    6  C   UNL     1      -9.996   8.052  70.833  1.00  0.00    -0.207 C  
HETATM    7  C   UNL     1      -9.275   8.087  69.684  1.00  0.00    -0.152 C  
HETATM    8  C   UNL     1      -9.427   9.264  68.800  1.00  0.00    -0.150 A  
HETATM    9  C   UNL     1      -8.913  10.517  69.166  1.00  0.00    -0.171 A  
HETATM   10  C   UNL     1      -9.123  11.628  68.352  1.00  0.00    -0.180 A  
HETATM   11  C   UNL     1      -9.824  11.490  67.155  1.00  0.00    -0.210 A  
HETATM   12  C   UNL     1     -10.321  10.242  66.772  1.00  0.00    -0.288 A  
HETATM   13  C   UNL     1     -10.133   9.122  67.595  1.00  0.00    -0.273 A  
HETATM   14  C   UNL     1     -10.656   7.772  67.197  1.00  0.00    -0.331 C  
HETATM   15  S   UNL     1      -9.329   6.696  66.585  1.00  0.00    -0.161 SA 
HETATM   16  C   UNL     1      -8.325   6.347  68.042  1.00  0.00    -0.115 A  
HETATM   17  C   UNL     1      -7.359   5.345  67.802  1.00  0.00    -0.073 A  
HETATM   18  C   UNL     1      -6.476   4.921  68.795  1.00  0.00    -0.037 A  
HETATM   19  C   UNL     1      -6.537   5.496  70.054  1.00  0.00    -0.043 A  
HETATM   20  C   UNL     1      -7.474   6.499  70.311  1.00  0.00    -0.094 A  
HETATM   21  C   UNL     1      -8.387   6.940  69.324  1.00  0.00    -0.129 A  
ENDBRANCH   5   6
ENDBRANCH   4   5
ENDBRANCH   2   4
TORSDOF 3
ENDMDL
MODEL      129
REMARK 921   NORMALIZED FREE ENERGY PREDICTED BY IDOCK:   -3.28 KCAL/MOL
REMARK 922        TOTAL FREE ENERGY PREDICTED BY IDOCK:   -4.12 KCAL/MOL
REMARK 923 INTER-LIGAND FREE ENERGY PREDICTED BY IDOCK:   -4.23 KCAL/MOL
REMARK 924 INTRA-LIGAND FREE ENERGY PREDICTED BY IDOCK:    0.10 KCAL/MOL
REMARK 927      BINDING AFFINITY PREDICTED BY RF-SCORE:    0.00 PKD
ROOT
HETATM    1  C   UNL     1      -6.712   8.642  72.379  1.00  0.00    -0.036 C  
HETATM    2  N   UNL     1      -5.795   9.131  71.349  1.00  0.00    -0.061 NA 
HETATM    3  C   UNL     1      -5.241   8.000  70.602  1.00  0.00    -0.023 C  
ENDROOT
BRANCH   2   4
HETATM    4  C   UNL     1      -6.471  10.117  70.478  1.00  0.00    -0.116 C  
BRANCH   4   5
HETATM    5  C   UNL     1      -7.719   9.540  69.783  1.00  0.00    -0.123 C  
BRANCH   5   6
HETATM    6  C   UNL     1      -9.017   9.691  70.548  1.00  0.00    -0.186 C  
HETATM    7  C   UNL     1     -10.207  10.067  70.016  1.00  0.00    -0.306 C  
HETATM    8  C   UNL     1     -10.242  10.449  68.587  1.00  0.00    -0.196 A  
HETATM    9  C   UNL     1     -10.087   9.490  67.575  1.00  0.00    -0.257 A  
HETATM   10  C   UNL     1     -10.056   9.877  66.237  1.00  0.00    -0.311 A  
HETATM   11  C   UNL     1     -10.206  11.221  65.899  1.00  0.00    -0.298 A  
HETATM   12  C   UNL     1     -10.382  12.181  66.898  1.00  0.00    -0.235 A  
HETATM   13  C   UNL     1     -10.393  11.803  68.250  1.00  0.00    -0.217 A  
HETATM   14  C   UNL     1     -10.586  12.821  69.337  1.00  0.00     0.290 C  
HETATM   15  S   UNL     1     -12.270  12.766  70.012  1.00  0.00    -0.144 SA 
HETATM   16  C   UNL     1     -12.352  11.192  70.888  1.00  0.00    -0.399 A  
HETATM   17  C   UNL     1     -13.526  11.068  71.662  1.00  0.00    -0.190 A  
HETATM   18  C   UNL     1     -13.790   9.928  72.421  1.00  0.00    -0.100 A  
HETATM   19  C   UNL     1     -12.885   8.879  72.417  1.00  0.00    -0.446 A  
HETATM   20  C   UNL     1     -11.723   8.973  71.648  1.00  0.00    -0.431 A  
HETATM   21  C   UNL     1     -11.427  10.122  70.876  1.00  0.00    -0.444 A  
ENDBRANCH   5   6
ENDBRANCH   4   5
ENDBRANCH   2   4
TORSDOF 3
ENDMDL
MODEL      130
REMARK 921   NORMALIZED FREE ENERGY PREDICTED BY IDOCK:   -3.26 KCAL/MOL
REMARK 922        TOTAL FREE ENERGY PREDICTED BY IDOCK:   -4.10 KCAL/MOL
REMARK 923 INTER-LIGAND FREE ENERGY PREDICTED BY IDOCK:   -3.84 KCAL/MOL
REMARK 924 INTRA-LIGAND FREE ENERGY PREDICTED BY IDOCK:   -0.26 KCAL/MOL
REMARK 927      BINDING AFFINITY PREDICTED BY RF-SCORE:    0.00 PKD
ROOT
HETATM    1  C   UNL     1     -10.459   4.449  65.749  1.00  0.00    -0.178 C  
HETATM    2  N   UNL     1      -9.552   4.446  66.897  1.00  0.00    -0.185 NA 
HETATM    3  C   UNL     1      -8.482   3.471  66.680  1.00  0.00    -0.108 C  
ENDROOT
BRANCH   2   4
HETATM    4  C   UNL     1      -9.041   5.810  67.158  1.00  0.00    -0.112 C  
BRANCH   4   5
HETATM    5  C   UNL     1      -9.603   6.417  68.457  1.00  0.00    -0.122 C  
BRANCH   5   6
HETATM    6  C   UNL     1      -8.959   5.922  69.736  1.00  0.00    -0.135 C  
HETATM    7  C   UNL     1      -9.404   6.177  70.992  1.00  0.00    -0.176 C  
HETATM    8  C   UNL     1     -10.564   7.082  71.151  1.00  0.00    -0.237 A  
HETATM    9  C   UNL     1     -11.854   6.683  70.769  1.00  0.00    -0.441 A  
HETATM   10  C   UNL     1     -12.922   7.573  70.865  1.00  0.00    -0.061 A  
HETATM   11  C   UNL     1     -12.715   8.857  71.365  1.00  0.00    -0.350 A  
HETATM   12  C   UNL     1     -11.438   9.256  71.767  1.00  0.00    -0.448 A  
HETATM   13  C   UNL     1     -10.352   8.375  71.656  1.00  0.00    -0.312 A  
HETATM   14  C   UNL     1      -8.974   8.786  72.089  1.00  0.00    -0.114 C  
HETATM   15  S   UNL     1      -8.529   8.051  73.687  1.00  0.00    -0.256 SA 
HETATM   16  C   UNL     1      -8.356   6.291  73.341  1.00  0.00    -0.114 A  
HETATM   17  C   UNL     1      -7.801   5.580  74.428  1.00  0.00    -0.101 A  
HETATM   18  C   UNL     1      -7.581   4.204  74.372  1.00  0.00    -0.076 A  
HETATM   19  C   UNL     1      -7.917   3.504  73.225  1.00  0.00    -0.071 A  
HETATM   20  C   UNL     1      -8.479   4.182  72.142  1.00  0.00    -0.110 A  
HETATM   21  C   UNL     1      -8.705   5.578  72.169  1.00  0.00    -0.130 A  
ENDBRANCH   5   6
ENDBRANCH   4   5
ENDBRANCH   2   4
TORSDOF 3
ENDMDL
MODEL      131
REMARK 921   NORMALIZED FREE ENERGY PREDICTED BY IDOCK:   -3.24 KCAL/MOL
REMARK 922        TOTAL FREE ENERGY PREDICTED BY IDOCK:   -4.07 KCAL/MOL
REMARK 923 INTER-LIGAND FREE ENERGY PREDICTED BY IDOCK:   -3.81 KCAL/MOL
REMARK 924 INTRA-LIGAND FREE ENERGY PREDICTED BY IDOCK:   -0.26 KCAL/MOL
REMARK 927      BINDING AFFINITY PREDICTED BY RF-SCORE:    0.00 PKD
ROOT
HETATM    1  C   UNL     1      -8.855   4.508  63.734  1.00  0.00    -0.140 C  
HETATM    2  N   UNL     1      -8.995   3.951  65.079  1.00  0.00    -0.125 NA 
HETATM    3  C   UNL     1      -7.705   3.997  65.772  1.00  0.00    -0.090 C  
ENDROOT
BRANCH   2   4
HETATM    4  C   UNL     1     -10.069   4.648  65.820  1.00  0.00    -0.244 C  
BRANCH   4   5
HETATM    5  C   UNL     1      -9.812   4.691  67.339  1.00  0.00    -0.207 C  
BRANCH   5   6
HETATM    6  C   UNL     1     -10.413   5.876  68.066  1.00  0.00    -0.294 C  
HETATM    7  C   UNL     1     -10.001   6.356  69.265  1.00  0.00    -0.178 C  
HETATM    8  C   UNL     1      -8.933   5.623  69.980  1.00  0.00    -0.150 A  
HETATM    9  C   UNL     1      -7.609   5.633  69.516  1.00  0.00    -0.072 A  
HETATM   10  C   UNL     1      -6.630   4.883  70.165  1.00  0.00    -0.036 A  
HETATM   11  C   UNL     1      -6.960   4.139  71.296  1.00  0.00    -0.035 A  
HETATM   12  C   UNL     1      -8.271   4.139  71.778  1.00  0.00    -0.091 A  
HETATM   13  C   UNL     1      -9.269   4.874  71.120  1.00  0.00    -0.191 A  
HETATM   14  C   UNL     1     -10.682   4.890  71.627  1.00  0.00     0.001 C  
HETATM   15  S   UNL     1     -11.064   6.439  72.491  1.00  0.00    -0.271 SA 
HETATM   16  C   UNL     1     -11.069   7.689  71.192  1.00  0.00    -0.251 A  
HETATM   17  C   UNL     1     -11.560   8.934  71.644  1.00  0.00    -0.408 A  
HETATM   18  C   UNL     1     -11.649  10.040  70.800  1.00  0.00    -0.444 A  
HETATM   19  C   UNL     1     -11.242   9.928  69.480  1.00  0.00    -0.220 A  
HETATM   20  C   UNL     1     -10.740   8.711  69.014  1.00  0.00    -0.122 A  
HETATM   21  C   UNL     1     -10.647   7.572  69.846  1.00  0.00    -0.243 A  
ENDBRANCH   5   6
ENDBRANCH   4   5
ENDBRANCH   2   4
TORSDOF 3
ENDMDL
MODEL      132
REMARK 921   NORMALIZED FREE ENERGY PREDICTED BY IDOCK:   -3.23 KCAL/MOL
REMARK 922        TOTAL FREE ENERGY PREDICTED BY IDOCK:   -4.06 KCAL/MOL
REMARK 923 INTER-LIGAND FREE ENERGY PREDICTED BY IDOCK:   -3.59 KCAL/MOL
REMARK 924 INTRA-LIGAND FREE ENERGY PREDICTED BY IDOCK:   -0.47 KCAL/MOL
REMARK 927      BINDING AFFINITY PREDICTED BY RF-SCORE:    0.00 PKD
ROOT
HETATM    1  C   UNL     1     -10.334   4.511  72.978  1.00  0.00    -0.178 C  
HETATM    2  N   UNL     1      -9.106   3.718  72.904  1.00  0.00    -0.099 NA 
HETATM    3  C   UNL     1      -9.375   2.348  73.347  1.00  0.00    -0.083 C  
ENDROOT
BRANCH   2   4
HETATM    4  C   UNL     1      -8.531   3.778  71.543  1.00  0.00    -0.080 C  
BRANCH   4   5
HETATM    5  C   UNL     1      -7.557   4.958  71.361  1.00  0.00    -0.083 C  
BRANCH   5   6
HETATM    6  C   UNL     1      -7.482   5.528  69.959  1.00  0.00    -0.070 C  
HETATM    7  C   UNL     1      -8.216   6.568  69.490  1.00  0.00    -0.126 C  
HETATM    8  C   UNL     1      -9.243   7.153  70.380  1.00  0.00    -0.156 A  
HETATM    9  C   UNL     1      -8.883   7.909  71.506  1.00  0.00    -0.160 A  
HETATM   10  C   UNL     1      -9.863   8.397  72.369  1.00  0.00    -0.378 A  
HETATM   11  C   UNL     1     -11.208   8.155  72.099  1.00  0.00    -0.393 A  
HETATM   12  C   UNL     1     -11.578   7.422  70.969  1.00  0.00    -0.315 A  
HETATM   13  C   UNL     1     -10.598   6.909  70.106  1.00  0.00    -0.249 A  
HETATM   14  C   UNL     1     -10.977   6.123  68.883  1.00  0.00    -0.356 C  
HETATM   15  S   UNL     1     -10.816   7.117  67.374  1.00  0.00    -0.243 SA 
HETATM   16  C   UNL     1      -9.040   7.361  67.184  1.00  0.00    -0.130 A  
HETATM   17  C   UNL     1      -8.706   7.937  65.939  1.00  0.00    -0.180 A  
HETATM   18  C   UNL     1      -7.385   8.212  65.585  1.00  0.00    -0.076 A  
HETATM   19  C   UNL     1      -6.364   7.921  66.476  1.00  0.00    -0.050 A  
HETATM   20  C   UNL     1      -6.671   7.363  67.719  1.00  0.00    -0.062 A  
HETATM   21  C   UNL     1      -8.001   7.067  68.099  1.00  0.00    -0.119 A  
ENDBRANCH   5   6
ENDBRANCH   4   5
ENDBRANCH   2   4
TORSDOF 3
ENDMDL
MODEL      133
REMARK 921   NORMALIZED FREE ENERGY PREDICTED BY IDOCK:   -3.18 KCAL/MOL
REMARK 922        TOTAL FREE ENERGY PREDICTED BY IDOCK:   -4.00 KCAL/MOL
REMARK 923 INTER-LIGAND FREE ENERGY PREDICTED BY IDOCK:   -3.77 KCAL/MOL
REMARK 924 INTRA-LIGAND FREE ENERGY PREDICTED BY IDOCK:   -0.24 KCAL/MOL
REMARK 927      BINDING AFFINITY PREDICTED BY RF-SCORE:    0.00 PKD
ROOT
HETATM    1  C   UNL     1      -9.463  15.449  67.913  1.00  0.00    -0.197 C  
HETATM    2  N   UNL     1      -8.269  14.722  67.479  1.00  0.00    -0.171 NA 
HETATM    3  C   UNL     1      -7.157  15.657  67.301  1.00  0.00    -0.207 C  
ENDROOT
BRANCH   2   4
HETATM    4  C   UNL     1      -7.954  13.630  68.425  1.00  0.00    -0.147 C  
BRANCH   4   5
HETATM    5  C   UNL     1      -8.109  12.233  67.793  1.00  0.00    -0.155 C  
BRANCH   5   6
HETATM    6  C   UNL     1      -8.943  11.250  68.588  1.00  0.00    -0.148 C  
HETATM    7  C   UNL     1      -8.808   9.900  68.562  1.00  0.00    -0.122 C  
HETATM    8  C   UNL     1      -7.828   9.315  67.620  1.00  0.00    -0.096 A  
HETATM    9  C   UNL     1      -6.448   9.454  67.830  1.00  0.00    -0.059 A  
HETATM   10  C   UNL     1      -5.540   8.954  66.898  1.00  0.00    -0.041 A  
HETATM   11  C   UNL     1      -6.005   8.290  65.764  1.00  0.00    -0.041 A  
HETATM   12  C   UNL     1      -7.377   8.129  65.556  1.00  0.00    -0.072 A  
HETATM   13  C   UNL     1      -8.298   8.647  66.478  1.00  0.00    -0.108 A  
HETATM   14  C   UNL     1      -9.776   8.478  66.274  1.00  0.00    -0.229 C  
HETATM   15  S   UNL     1     -10.456   7.186  67.353  1.00  0.00    -0.314 SA 
HETATM   16  C   UNL     1     -10.336   7.878  69.013  1.00  0.00    -0.214 A  
HETATM   17  C   UNL     1     -11.017   7.096  69.973  1.00  0.00    -0.287 A  
HETATM   18  C   UNL     1     -11.050   7.450  71.321  1.00  0.00    -0.269 A  
HETATM   19  C   UNL     1     -10.396   8.596  71.743  1.00  0.00    -0.386 A  
HETATM   20  C   UNL     1      -9.705   9.378  70.816  1.00  0.00    -0.332 A  
HETATM   21  C   UNL     1      -9.662   9.046  69.441  1.00  0.00    -0.169 A  
ENDBRANCH   5   6
ENDBRANCH   4   5
ENDBRANCH   2   4
TORSDOF 3
ENDMDL
MODEL      134
REMARK 921   NORMALIZED FREE ENERGY PREDICTED BY IDOCK:   -3.17 KCAL/MOL
REMARK 922        TOTAL FREE ENERGY PREDICTED BY IDOCK:   -4.00 KCAL/MOL
REMARK 923 INTER-LIGAND FREE ENERGY PREDICTED BY IDOCK:   -4.15 KCAL/MOL
REMARK 924 INTRA-LIGAND FREE ENERGY PREDICTED BY IDOCK:    0.15 KCAL/MOL
REMARK 927      BINDING AFFINITY PREDICTED BY RF-SCORE:    0.00 PKD
ROOT
HETATM    1  C   UNL     1      -7.083   9.038  72.209  1.00  0.00     0.262 C  
HETATM    2  N   UNL     1      -5.866   9.349  71.458  1.00  0.00    -0.074 NA 
HETATM    3  C   UNL     1      -5.292   8.116  70.914  1.00  0.00    -0.029 C  
ENDROOT
BRANCH   2   4
HETATM    4  C   UNL     1      -6.144  10.361  70.417  1.00  0.00    -0.118 C  
BRANCH   4   5
HETATM    5  C   UNL     1      -7.610  10.341  69.943  1.00  0.00    -0.153 C  
BRANCH   5   6
HETATM    6  C   UNL     1      -8.038   9.086  69.212  1.00  0.00    -0.105 C  
HETATM    7  C   UNL     1      -9.320   8.681  69.025  1.00  0.00    -0.146 C  
HETATM    8  C   UNL     1     -10.400   9.472  69.655  1.00  0.00    -0.236 A  
HETATM    9  C   UNL     1     -10.731  10.752  69.185  1.00  0.00    -0.265 A  
HETATM   10  C   UNL     1     -11.706  11.509  69.832  1.00  0.00    -0.420 A  
HETATM   11  C   UNL     1     -12.374  10.983  70.936  1.00  0.00    -0.503 A  
HETATM   12  C   UNL     1     -12.066   9.701  71.399  1.00  0.00    -0.472 A  
HETATM   13  C   UNL     1     -11.072   8.940  70.767  1.00  0.00    -0.312 A  
HETATM   14  C   UNL     1     -10.732   7.558  71.247  1.00  0.00    -0.225 C  
HETATM   15  S   UNL     1     -11.438   6.282  70.167  1.00  0.00    -0.293 SA 
HETATM   16  C   UNL     1     -10.512   6.434  68.628  1.00  0.00    -0.223 A  
HETATM   17  C   UNL     1     -10.779   5.375  67.733  1.00  0.00    -0.109 A  
HETATM   18  C   UNL     1     -10.167   5.296  66.482  1.00  0.00    -0.293 A  
HETATM   19  C   UNL     1      -9.276   6.283  66.094  1.00  0.00    -0.143 A  
HETATM   20  C   UNL     1      -9.006   7.348  66.956  1.00  0.00    -0.142 A  
HETATM   21  C   UNL     1      -9.606   7.447  68.233  1.00  0.00    -0.153 A  
ENDBRANCH   5   6
ENDBRANCH   4   5
ENDBRANCH   2   4
TORSDOF 3
ENDMDL
MODEL      135
REMARK 921   NORMALIZED FREE ENERGY PREDICTED BY IDOCK:   -3.16 KCAL/MOL
REMARK 922        TOTAL FREE ENERGY PREDICTED BY IDOCK:   -3.99 KCAL/MOL
REMARK 923 INTER-LIGAND FREE ENERGY PREDICTED BY IDOCK:   -3.75 KCAL/MOL
REMARK 924 INTRA-LIGAND FREE ENERGY PREDICTED BY IDOCK:   -0.24 KCAL/MOL
REMARK 927      BINDING AFFINITY PREDICTED BY RF-SCORE:    0.00 PKD
ROOT
HETATM    1  C   UNL     1     -11.957  13.033  69.418  1.00  0.00    -0.281 C  
HETATM    2  N   UNL     1     -11.923  11.994  70.447  1.00  0.00    -0.337 NA 
HETATM    3  C   UNL     1     -13.134  12.067  71.267  1.00  0.00    -0.115 C  
ENDROOT
BRANCH   2   4
HETATM    4  C   UNL     1     -11.725  10.663  69.833  1.00  0.00    -0.317 C  
BRANCH   4   5
HETATM    5  C   UNL     1     -10.294  10.461  69.300  1.00  0.00    -0.250 C  
BRANCH   5   6
HETATM    6  C   UNL     1     -10.105   9.273  68.380  1.00  0.00    -0.215 C  
HETATM    7  C   UNL     1      -9.577   8.075  68.737  1.00  0.00    -0.149 C  
HETATM    8  C   UNL     1      -9.057   7.926  70.115  1.00  0.00    -0.152 A  
HETATM    9  C   UNL     1      -9.924   7.878  71.216  1.00  0.00    -0.206 A  
HETATM   10  C   UNL     1      -9.413   7.803  72.511  1.00  0.00    -0.239 A  
HETATM   11  C   UNL     1      -8.035   7.749  72.712  1.00  0.00    -0.153 A  
HETATM   12  C   UNL     1      -7.164   7.775  71.620  1.00  0.00    -0.065 A  
HETATM   13  C   UNL     1      -7.668   7.872  70.314  1.00  0.00    -0.088 A  
HETATM   14  C   UNL     1      -6.747   7.895  69.128  1.00  0.00    -0.048 C  
HETATM   15  S   UNL     1      -6.721   6.295  68.271  1.00  0.00    -0.071 SA 
HETATM   16  C   UNL     1      -8.359   6.155  67.531  1.00  0.00    -0.109 A  
HETATM   17  C   UNL     1      -8.455   5.063  66.640  1.00  0.00    -0.106 A  
HETATM   18  C   UNL     1      -9.635   4.772  65.958  1.00  0.00    -0.187 A  
HETATM   19  C   UNL     1     -10.754   5.565  66.156  1.00  0.00    -0.097 A  
HETATM   20  C   UNL     1     -10.687   6.642  67.043  1.00  0.00    -0.437 A  
HETATM   21  C   UNL     1      -9.500   6.965  67.741  1.00  0.00    -0.128 A  
ENDBRANCH   5   6
ENDBRANCH   4   5
ENDBRANCH   2   4
TORSDOF 3
ENDMDL
MODEL      136
REMARK 921   NORMALIZED FREE ENERGY PREDICTED BY IDOCK:   -3.16 KCAL/MOL
REMARK 922        TOTAL FREE ENERGY PREDICTED BY IDOCK:   -3.98 KCAL/MOL
REMARK 923 INTER-LIGAND FREE ENERGY PREDICTED BY IDOCK:   -3.66 KCAL/MOL
REMARK 924 INTRA-LIGAND FREE ENERGY PREDICTED BY IDOCK:   -0.33 KCAL/MOL
REMARK 927      BINDING AFFINITY PREDICTED BY RF-SCORE:    0.00 PKD
ROOT
HETATM    1  C   UNL     1      -8.187   8.621  65.742  1.00  0.00    -0.126 C  
HETATM    2  N   UNL     1      -6.990   9.426  65.987  1.00  0.00    -0.089 NA 
HETATM    3  C   UNL     1      -6.816  10.398  64.906  1.00  0.00    -0.040 C  
ENDROOT
BRANCH   2   4
HETATM    4  C   UNL     1      -7.055  10.059  67.322  1.00  0.00    -0.085 C  
BRANCH   4   5
HETATM    5  C   UNL     1      -8.276   9.598  68.140  1.00  0.00    -0.106 C  
BRANCH   5   6
HETATM    6  C   UNL     1      -8.045   9.462  69.631  1.00  0.00    -0.123 C  
HETATM    7  C   UNL     1      -8.425   8.406  70.394  1.00  0.00    -0.130 C  
HETATM    8  C   UNL     1      -9.207   7.327  69.752  1.00  0.00    -0.140 A  
HETATM    9  C   UNL     1      -8.615   6.452  68.829  1.00  0.00    -0.123 A  
HETATM   10  C   UNL     1      -9.383   5.483  68.185  1.00  0.00    -0.123 A  
HETATM   11  C   UNL     1     -10.740   5.365  68.477  1.00  0.00    -0.075 A  
HETATM   12  C   UNL     1     -11.335   6.218  69.410  1.00  0.00    -0.448 A  
HETATM   13  C   UNL     1     -10.575   7.210  70.048  1.00  0.00    -0.248 A  
HETATM   14  C   UNL     1     -11.196   8.131  71.059  1.00  0.00    -0.258 C  
HETATM   15  S   UNL     1     -10.753   7.660  72.754  1.00  0.00    -0.375 SA 
HETATM   16  C   UNL     1      -8.992   8.025  72.877  1.00  0.00    -0.239 A  
HETATM   17  C   UNL     1      -8.511   7.921  74.200  1.00  0.00    -0.312 A  
HETATM   18  C   UNL     1      -7.175   8.162  74.520  1.00  0.00    -0.225 A  
HETATM   19  C   UNL     1      -6.284   8.509  73.517  1.00  0.00    -0.124 A  
HETATM   20  C   UNL     1      -6.733   8.605  72.198  1.00  0.00    -0.072 A  
HETATM   21  C   UNL     1      -8.084   8.374  71.849  1.00  0.00    -0.193 A  
ENDBRANCH   5   6
ENDBRANCH   4   5
ENDBRANCH   2   4
TORSDOF 3
ENDMDL
MODEL      137
REMARK 921   NORMALIZED FREE ENERGY PREDICTED BY IDOCK:   -3.15 KCAL/MOL
REMARK 922        TOTAL FREE ENERGY PREDICTED BY IDOCK:   -3.96 KCAL/MOL
REMARK 923 INTER-LIGAND FREE ENERGY PREDICTED BY IDOCK:   -3.69 KCAL/MOL
REMARK 924 INTRA-LIGAND FREE ENERGY PREDICTED BY IDOCK:   -0.27 KCAL/MOL
REMARK 927      BINDING AFFINITY PREDICTED BY RF-SCORE:    0.00 PKD
ROOT
HETATM    1  C   UNL     1      -8.206   4.482  64.635  1.00  0.00    -0.109 C  
HETATM    2  N   UNL     1      -9.373   4.970  65.370  1.00  0.00    -0.145 NA 
HETATM    3  C   UNL     1     -10.547   4.164  65.028  1.00  0.00    -0.136 C  
ENDROOT
BRANCH   2   4
HETATM    4  C   UNL     1      -9.098   4.995  66.824  1.00  0.00    -0.118 C  
BRANCH   4   5
HETATM    5  C   UNL     1     -10.275   5.562  67.641  1.00  0.00    -0.241 C  
BRANCH   5   6
HETATM    6  C   UNL     1     -10.177   5.368  69.140  1.00  0.00    -0.302 C  
HETATM    7  C   UNL     1      -9.888   6.339  70.043  1.00  0.00    -0.200 C  
HETATM    8  C   UNL     1      -9.554   7.687  69.534  1.00  0.00    -0.163 A  
HETATM    9  C   UNL     1     -10.533   8.509  68.957  1.00  0.00    -0.216 A  
HETATM   10  C   UNL     1     -10.186   9.749  68.423  1.00  0.00    -0.210 A  
HETATM   11  C   UNL     1      -8.865  10.187  68.486  1.00  0.00    -0.127 A  
HETATM   12  C   UNL     1      -7.886   9.385  69.078  1.00  0.00    -0.079 A  
HETATM   13  C   UNL     1      -8.221   8.126  69.599  1.00  0.00    -0.120 A  
HETATM   14  C   UNL     1      -7.183   7.253  70.244  1.00  0.00    -0.067 C  
HETATM   15  S   UNL     1      -7.316   7.282  72.053  1.00  0.00    -0.081 SA 
HETATM   16  C   UNL     1      -8.864   6.426  72.403  1.00  0.00    -0.134 A  
HETATM   17  C   UNL     1      -9.034   6.162  73.780  1.00  0.00    -0.129 A  
HETATM   18  C   UNL     1     -10.163   5.507  74.271  1.00  0.00    -0.292 A  
HETATM   19  C   UNL     1     -11.156   5.106  73.392  1.00  0.00    -0.385 A  
HETATM   20  C   UNL     1     -11.018   5.368  72.028  1.00  0.00    -0.244 A  
HETATM   21  C   UNL     1      -9.879   6.023  71.503  1.00  0.00    -0.197 A  
ENDBRANCH   5   6
ENDBRANCH   4   5
ENDBRANCH   2   4
TORSDOF 3
ENDMDL
MODEL      138
REMARK 921   NORMALIZED FREE ENERGY PREDICTED BY IDOCK:   -3.14 KCAL/MOL
REMARK 922        TOTAL FREE ENERGY PREDICTED BY IDOCK:   -3.96 KCAL/MOL
REMARK 923 INTER-LIGAND FREE ENERGY PREDICTED BY IDOCK:   -3.59 KCAL/MOL
REMARK 924 INTRA-LIGAND FREE ENERGY PREDICTED BY IDOCK:   -0.37 KCAL/MOL
REMARK 927      BINDING AFFINITY PREDICTED BY RF-SCORE:    0.00 PKD
ROOT
HETATM    1  C   UNL     1      -9.824  18.674  68.416  1.00  0.00    -0.384 C  
HETATM    2  N   UNL     1      -8.782  19.075  67.470  1.00  0.00    -0.287 NA 
HETATM    3  C   UNL     1      -7.466  18.955  68.101  1.00  0.00    -0.270 C  
ENDROOT
BRANCH   2   4
HETATM    4  C   UNL     1      -8.891  18.295  66.217  1.00  0.00    -0.178 C  
BRANCH   4   5
HETATM    5  C   UNL     1      -8.041  17.010  66.242  1.00  0.00    -0.332 C  
BRANCH   5   6
HETATM    6  C   UNL     1      -8.818  15.716  66.121  1.00  0.00    -0.311 C  
HETATM    7  C   UNL     1      -8.764  14.679  66.995  1.00  0.00    -0.258 C  
HETATM    8  C   UNL     1      -7.808  14.766  68.121  1.00  0.00    -0.125 A  
HETATM    9  C   UNL     1      -8.017  15.658  69.183  1.00  0.00    -0.227 A  
HETATM   10  C   UNL     1      -7.073  15.773  70.202  1.00  0.00     0.330 A  
HETATM   11  C   UNL     1      -5.927  14.980  70.179  1.00  0.00    -0.147 A  
HETATM   12  C   UNL     1      -5.719  14.074  69.136  1.00  0.00    -0.085 A  
HETATM   13  C   UNL     1      -6.654  13.966  68.095  1.00  0.00    -0.127 A  
HETATM   14  C   UNL     1      -6.451  12.994  66.969  1.00  0.00     0.476 C  
HETATM   15  S   UNL     1      -7.504  11.528  67.153  1.00  0.00    -0.149 SA 
HETATM   16  C   UNL     1      -9.178  12.141  66.884  1.00  0.00    -0.203 A  
HETATM   17  C   UNL     1     -10.123  11.097  66.778  1.00  0.00    -0.255 A  
HETATM   18  C   UNL     1     -11.479  11.349  66.568  1.00  0.00    -0.093 A  
HETATM   19  C   UNL     1     -11.923  12.657  66.465  1.00  0.00    -0.401 A  
HETATM   20  C   UNL     1     -11.009  13.707  66.581  1.00  0.00    -0.295 A  
HETATM   21  C   UNL     1      -9.628  13.479  66.785  1.00  0.00    -0.268 A  
ENDBRANCH   5   6
ENDBRANCH   4   5
ENDBRANCH   2   4
TORSDOF 3
ENDMDL
MODEL      139
REMARK 921   NORMALIZED FREE ENERGY PREDICTED BY IDOCK:   -3.14 KCAL/MOL
REMARK 922        TOTAL FREE ENERGY PREDICTED BY IDOCK:   -3.96 KCAL/MOL
REMARK 923 INTER-LIGAND FREE ENERGY PREDICTED BY IDOCK:   -3.99 KCAL/MOL
REMARK 924 INTRA-LIGAND FREE ENERGY PREDICTED BY IDOCK:    0.03 KCAL/MOL
REMARK 927      BINDING AFFINITY PREDICTED BY RF-SCORE:    0.00 PKD
ROOT
HETATM    1  C   UNL     1     -10.951  11.917  63.212  1.00  0.00    -0.321 C  
HETATM    2  N   UNL     1     -10.692  11.634  64.624  1.00  0.00    -0.299 NA 
HETATM    3  C   UNL     1      -9.919  10.396  64.747  1.00  0.00    -0.339 C  
ENDROOT
BRANCH   2   4
HETATM    4  C   UNL     1     -10.032  12.789  65.272  1.00  0.00    -0.185 C  
BRANCH   4   5
HETATM    5  C   UNL     1     -10.883  13.403  66.400  1.00  0.00    -0.294 C  
BRANCH   5   6
HETATM    6  C   UNL     1     -10.997  14.913  66.378  1.00  0.00    -0.336 C  
HETATM    7  C   UNL     1     -10.102  15.779  66.917  1.00  0.00    -0.267 C  
HETATM    8  C   UNL     1      -8.956  15.219  67.668  1.00  0.00    -0.182 A  
HETATM    9  C   UNL     1      -7.916  14.546  67.010  1.00  0.00    -0.074 A  
HETATM   10  C   UNL     1      -6.879  13.969  67.740  1.00  0.00    -0.187 A  
HETATM   11  C   UNL     1      -6.860  14.082  69.129  1.00  0.00    -0.112 A  
HETATM   12  C   UNL     1      -7.880  14.768  69.792  1.00  0.00     0.109 A  
HETATM   13  C   UNL     1      -8.940  15.335  69.067  1.00  0.00    -0.225 A  
HETATM   14  C   UNL     1     -10.042  16.081  69.763  1.00  0.00    -0.212 C  
HETATM   15  S   UNL     1      -9.853  17.876  69.579  1.00  0.00     0.396 SA 
HETATM   16  C   UNL     1     -10.173  18.185  67.831  1.00  0.00    -0.379 A  
HETATM   17  C   UNL     1     -10.281  19.562  67.538  1.00  0.00    -0.546 A  
HETATM   18  C   UNL     1     -10.526  20.023  66.245  1.00  0.00    -0.536 A  
HETATM   19  C   UNL     1     -10.665  19.112  65.210  1.00  0.00     0.354 A  
HETATM   20  C   UNL     1     -10.548  17.746  65.472  1.00  0.00    -0.044 A  
HETATM   21  C   UNL     1     -10.308  17.252  66.776  1.00  0.00    -0.308 A  
ENDBRANCH   5   6
ENDBRANCH   4   5
ENDBRANCH   2   4
TORSDOF 3
ENDMDL
MODEL      140
REMARK 921   NORMALIZED FREE ENERGY PREDICTED BY IDOCK:   -3.13 KCAL/MOL
REMARK 922        TOTAL FREE ENERGY PREDICTED BY IDOCK:   -3.94 KCAL/MOL
REMARK 923 INTER-LIGAND FREE ENERGY PREDICTED BY IDOCK:   -3.71 KCAL/MOL
REMARK 924 INTRA-LIGAND FREE ENERGY PREDICTED BY IDOCK:   -0.24 KCAL/MOL
REMARK 927      BINDING AFFINITY PREDICTED BY RF-SCORE:    0.00 PKD
ROOT
HETATM    1  C   UNL     1     -12.523  13.023  70.585  1.00  0.00    -0.268 C  
HETATM    2  N   UNL     1     -12.293  11.749  71.266  1.00  0.00    -0.225 NA 
HETATM    3  C   UNL     1     -13.171  11.646  72.434  1.00  0.00     0.285 C  
ENDROOT
BRANCH   2   4
HETATM    4  C   UNL     1     -12.458  10.620  70.324  1.00  0.00    -0.304 C  
BRANCH   4   5
HETATM    5  C   UNL     1     -11.179   9.773  70.182  1.00  0.00    -0.324 C  
BRANCH   5   6
HETATM    6  C   UNL     1     -11.246   8.388  70.790  1.00  0.00    -0.290 C  
HETATM    7  C   UNL     1     -10.192   7.552  70.966  1.00  0.00    -0.194 C  
HETATM    8  C   UNL     1      -8.872   7.976  70.449  1.00  0.00    -0.141 A  
HETATM    9  C   UNL     1      -8.155   9.017  71.057  1.00  0.00    -0.199 A  
HETATM   10  C   UNL     1      -6.944   9.446  70.516  1.00  0.00    -0.105 A  
HETATM   11  C   UNL     1      -6.430   8.823  69.381  1.00  0.00    -0.045 A  
HETATM   12  C   UNL     1      -7.127   7.772  68.780  1.00  0.00    -0.076 A  
HETATM   13  C   UNL     1      -8.357   7.346  69.305  1.00  0.00    -0.132 A  
HETATM   14  C   UNL     1      -9.117   6.214  68.676  1.00  0.00    -0.125 C  
HETATM   15  S   UNL     1      -8.951   4.682  69.636  1.00  0.00    -0.101 SA 
HETATM   16  C   UNL     1      -9.860   5.006  71.159  1.00  0.00    -0.187 A  
HETATM   17  C   UNL     1     -10.022   3.845  71.946  1.00  0.00    -0.238 A  
HETATM   18  C   UNL     1     -10.696   3.871  73.166  1.00  0.00    -0.270 A  
HETATM   19  C   UNL     1     -11.221   5.066  73.632  1.00  0.00    -0.254 A  
HETATM   20  C   UNL     1     -11.061   6.230  72.878  1.00  0.00    -0.268 A  
HETATM   21  C   UNL     1     -10.389   6.230  71.633  1.00  0.00    -0.248 A  
ENDBRANCH   5   6
ENDBRANCH   4   5
ENDBRANCH   2   4
TORSDOF 3
ENDMDL
MODEL      141
REMARK 921   NORMALIZED FREE ENERGY PREDICTED BY IDOCK:   -3.13 KCAL/MOL
REMARK 922        TOTAL FREE ENERGY PREDICTED BY IDOCK:   -3.94 KCAL/MOL
REMARK 923 INTER-LIGAND FREE ENERGY PREDICTED BY IDOCK:   -3.72 KCAL/MOL
REMARK 924 INTRA-LIGAND FREE ENERGY PREDICTED BY IDOCK:   -0.22 KCAL/MOL
REMARK 927      BINDING AFFINITY PREDICTED BY RF-SCORE:    0.00 PKD
ROOT
HETATM    1  C   UNL     1      -7.920   8.156  63.748  1.00  0.00    -0.137 C  
HETATM    2  N   UNL     1      -7.957   7.974  65.200  1.00  0.00    -0.120 NA 
HETATM    3  C   UNL     1      -7.661   6.579  65.532  1.00  0.00    -0.097 C  
ENDROOT
BRANCH   2   4
HETATM    4  C   UNL     1      -7.044   8.928  65.866  1.00  0.00    -0.084 C  
BRANCH   4   5
HETATM    5  C   UNL     1      -7.772   9.849  66.863  1.00  0.00    -0.098 C  
BRANCH   5   6
HETATM    6  C   UNL     1      -7.289  11.285  66.892  1.00  0.00    -0.145 C  
HETATM    7  C   UNL     1      -7.961  12.332  67.435  1.00  0.00    -0.171 C  
HETATM    8  C   UNL     1      -9.319  12.086  67.970  1.00  0.00    -0.196 A  
HETATM    9  C   UNL     1      -9.512  11.347  69.146  1.00  0.00     0.120 A  
HETATM   10  C   UNL     1     -10.801  11.070  69.599  1.00  0.00    -0.241 A  
HETATM   11  C   UNL     1     -11.903  11.551  68.896  1.00  0.00    -0.406 A  
HETATM   12  C   UNL     1     -11.721  12.306  67.735  1.00  0.00    -0.403 A  
HETATM   13  C   UNL     1     -10.428  12.573  67.259  1.00  0.00    -0.232 A  
HETATM   14  C   UNL     1     -10.212  13.387  66.016  1.00  0.00    -0.300 C  
HETATM   15  S   UNL     1      -9.680  15.077  66.409  1.00  0.00    -0.302 SA 
HETATM   16  C   UNL     1      -8.017  14.880  67.078  1.00  0.00    -0.135 A  
HETATM   17  C   UNL     1      -7.354  16.116  67.244  1.00  0.00    -0.226 A  
HETATM   18  C   UNL     1      -6.056  16.193  67.749  1.00  0.00    -0.159 A  
HETATM   19  C   UNL     1      -5.392  15.031  68.105  1.00  0.00    -0.121 A  
HETATM   20  C   UNL     1      -6.031  13.798  67.963  1.00  0.00    -0.135 A  
HETATM   21  C   UNL     1      -7.344  13.692  67.446  1.00  0.00    -0.127 A  
ENDBRANCH   5   6
ENDBRANCH   4   5
ENDBRANCH   2   4
TORSDOF 3
ENDMDL
MODEL      142
REMARK 921   NORMALIZED FREE ENERGY PREDICTED BY IDOCK:   -3.04 KCAL/MOL
REMARK 922        TOTAL FREE ENERGY PREDICTED BY IDOCK:   -3.84 KCAL/MOL
REMARK 923 INTER-LIGAND FREE ENERGY PREDICTED BY IDOCK:   -3.60 KCAL/MOL
REMARK 924 INTRA-LIGAND FREE ENERGY PREDICTED BY IDOCK:   -0.24 KCAL/MOL
REMARK 927      BINDING AFFINITY PREDICTED BY RF-SCORE:    0.00 PKD
ROOT
HETATM    1  C   UNL     1     -10.524  11.540  63.749  1.00  0.00    -0.405 C  
HETATM    2  N   UNL     1     -10.977  12.845  64.233  1.00  0.00    -0.365 NA 
HETATM    3  C   UNL     1     -12.426  12.819  64.445  1.00  0.00    -0.399 C  
ENDROOT
BRANCH   2   4
HETATM    4  C   UNL     1     -10.227  13.237  65.446  1.00  0.00    -0.293 C  
BRANCH   4   5
HETATM    5  C   UNL     1     -10.498  12.302  66.641  1.00  0.00    -0.247 C  
BRANCH   5   6
HETATM    6  C   UNL     1      -9.404  12.251  67.687  1.00  0.00    -0.186 C  
HETATM    7  C   UNL     1      -8.676  11.153  68.013  1.00  0.00    -0.141 C  
HETATM    8  C   UNL     1      -9.023   9.869  67.365  1.00  0.00    -0.144 A  
HETATM    9  C   UNL     1      -8.758   9.647  66.006  1.00  0.00    -0.155 A  
HETATM   10  C   UNL     1      -9.151   8.456  65.398  1.00  0.00    -0.050 A  
HETATM   11  C   UNL     1      -9.788   7.470  66.149  1.00  0.00     0.067 A  
HETATM   12  C   UNL     1     -10.038   7.673  67.508  1.00  0.00    -0.264 A  
HETATM   13  C   UNL     1      -9.665   8.877  68.124  1.00  0.00    -0.180 A  
HETATM   14  C   UNL     1      -9.920   9.111  69.586  1.00  0.00    -0.190 C  
HETATM   15  S   UNL     1      -8.404   8.928  70.567  1.00  0.00    -0.178 SA 
HETATM   16  C   UNL     1      -7.386  10.336  70.086  1.00  0.00    -0.103 A  
HETATM   17  C   UNL     1      -6.246  10.482  70.907  1.00  0.00     0.061 A  
HETATM   18  C   UNL     1      -5.322  11.508  70.709  1.00  0.00    -0.138 A  
HETATM   19  C   UNL     1      -5.515  12.412  69.678  1.00  0.00    -0.085 A  
HETATM   20  C   UNL     1      -6.628  12.281  68.844  1.00  0.00    -0.094 A  
HETATM   21  C   UNL     1      -7.584  11.255  69.027  1.00  0.00    -0.106 A  
ENDBRANCH   5   6
ENDBRANCH   4   5
ENDBRANCH   2   4
TORSDOF 3
ENDMDL
MODEL      143
REMARK 921   NORMALIZED FREE ENERGY PREDICTED BY IDOCK:   -3.03 KCAL/MOL
REMARK 922        TOTAL FREE ENERGY PREDICTED BY IDOCK:   -3.83 KCAL/MOL
REMARK 923 INTER-LIGAND FREE ENERGY PREDICTED BY IDOCK:   -3.61 KCAL/MOL
REMARK 924 INTRA-LIGAND FREE ENERGY PREDICTED BY IDOCK:   -0.22 KCAL/MOL
REMARK 927      BINDING AFFINITY PREDICTED BY RF-SCORE:    0.00 PKD
ROOT
HETATM    1  C   UNL     1     -12.257  11.984  63.748  1.00  0.00    -0.498 C  
HETATM    2  N   UNL     1     -11.374  12.976  64.361  1.00  0.00    -0.339 NA 
HETATM    3  C   UNL     1     -12.041  14.280  64.396  1.00  0.00    -0.468 C  
ENDROOT
BRANCH   2   4
HETATM    4  C   UNL     1     -10.932  12.522  65.698  1.00  0.00    -0.288 C  
BRANCH   4   5
HETATM    5  C   UNL     1      -9.576  11.791  65.659  1.00  0.00    -0.240 C  
BRANCH   5   6
HETATM    6  C   UNL     1      -9.160  11.126  66.955  1.00  0.00    -0.158 C  
HETATM    7  C   UNL     1      -8.367  10.031  67.060  1.00  0.00    -0.121 C  
HETATM    8  C   UNL     1      -7.933   9.363  65.812  1.00  0.00    -0.110 A  
HETATM    9  C   UNL     1      -6.999   9.963  64.955  1.00  0.00    -0.130 A  
HETATM   10  C   UNL     1      -6.651   9.350  63.753  1.00  0.00    -0.095 A  
HETATM   11  C   UNL     1      -7.215   8.122  63.411  1.00  0.00    -0.090 A  
HETATM   12  C   UNL     1      -8.131   7.506  64.268  1.00  0.00    -0.064 A  
HETATM   13  C   UNL     1      -8.503   8.126  65.471  1.00  0.00    -0.174 A  
HETATM   14  C   UNL     1      -9.481   7.476  66.406  1.00  0.00    -0.147 C  
HETATM   15  S   UNL     1      -8.646   6.735  67.837  1.00  0.00    -0.121 SA 
HETATM   16  C   UNL     1      -8.033   8.144  68.780  1.00  0.00    -0.115 A  
HETATM   17  C   UNL     1      -7.536   7.769  70.047  1.00  0.00    -0.080 A  
HETATM   18  C   UNL     1      -7.013   8.705  70.939  1.00  0.00    -0.064 A  
HETATM   19  C   UNL     1      -6.970  10.042  70.580  1.00  0.00    -0.098 A  
HETATM   20  C   UNL     1      -7.444  10.436  69.326  1.00  0.00    -0.120 A  
HETATM   21  C   UNL     1      -7.987   9.509  68.407  1.00  0.00    -0.093 A  
ENDBRANCH   5   6
ENDBRANCH   4   5
ENDBRANCH   2   4
TORSDOF 3
ENDMDL
MODEL      144
REMARK 921   NORMALIZED FREE ENERGY PREDICTED BY IDOCK:   -3.02 KCAL/MOL
REMARK 922        TOTAL FREE ENERGY PREDICTED BY IDOCK:   -3.82 KCAL/MOL
REMARK 923 INTER-LIGAND FREE ENERGY PREDICTED BY IDOCK:   -3.53 KCAL/MOL
REMARK 924 INTRA-LIGAND FREE ENERGY PREDICTED BY IDOCK:   -0.29 KCAL/MOL
REMARK 927      BINDING AFFINITY PREDICTED BY RF-SCORE:    0.00 PKD
ROOT
HETATM    1  C   UNL     1     -11.917  12.163  66.069  1.00  0.00    -0.160 C  
HETATM    2  N   UNL     1     -10.663  11.643  65.524  1.00  0.00    -0.276 NA 
HETATM    3  C   UNL     1      -9.934  12.718  64.846  1.00  0.00    -0.136 C  
ENDROOT
BRANCH   2   4
HETATM    4  C   UNL     1      -9.866  10.991  66.586  1.00  0.00    -0.200 C  
BRANCH   4   5
HETATM    5  C   UNL     1     -10.162   9.484  66.710  1.00  0.00    -0.313 C  
BRANCH   5   6
HETATM    6  C   UNL     1     -10.263   8.957  68.126  1.00  0.00    -0.245 C  
HETATM    7  C   UNL     1      -9.366   8.136  68.727  1.00  0.00    -0.143 C  
HETATM    8  C   UNL     1      -8.231   7.634  67.921  1.00  0.00    -0.123 A  
HETATM    9  C   UNL     1      -7.191   8.486  67.521  1.00  0.00    -0.084 A  
HETATM   10  C   UNL     1      -6.165   8.010  66.707  1.00  0.00    -0.054 A  
HETATM   11  C   UNL     1      -6.157   6.675  66.308  1.00  0.00    -0.033 A  
HETATM   12  C   UNL     1      -7.177   5.813  66.718  1.00  0.00    -0.074 A  
HETATM   13  C   UNL     1      -8.226   6.288  67.521  1.00  0.00    -0.113 A  
HETATM   14  C   UNL     1      -9.328   5.374  67.976  1.00  0.00    -0.113 C  
HETATM   15  S   UNL     1      -9.122   4.894  69.714  1.00  0.00    -0.117 SA 
HETATM   16  C   UNL     1      -9.424   6.412  70.638  1.00  0.00    -0.165 A  
HETATM   17  C   UNL     1      -9.518   6.186  72.029  1.00  0.00    -0.161 A  
HETATM   18  C   UNL     1      -9.748   7.225  72.930  1.00  0.00    -0.212 A  
HETATM   19  C   UNL     1      -9.885   8.520  72.459  1.00  0.00    -0.324 A  
HETATM   20  C   UNL     1      -9.782   8.771  71.089  1.00  0.00    -0.315 A  
HETATM   21  C   UNL     1      -9.558   7.735  70.153  1.00  0.00    -0.168 A  
ENDBRANCH   5   6
ENDBRANCH   4   5
ENDBRANCH   2   4
TORSDOF 3
ENDMDL
MODEL      145
REMARK 921   NORMALIZED FREE ENERGY PREDICTED BY IDOCK:   -3.00 KCAL/MOL
REMARK 922        TOTAL FREE ENERGY PREDICTED BY IDOCK:   -3.79 KCAL/MOL
REMARK 923 INTER-LIGAND FREE ENERGY PREDICTED BY IDOCK:   -3.58 KCAL/MOL
REMARK 924 INTRA-LIGAND FREE ENERGY PREDICTED BY IDOCK:   -0.21 KCAL/MOL
REMARK 927      BINDING AFFINITY PREDICTED BY RF-SCORE:    0.00 PKD
ROOT
HETATM    1  C   UNL     1     -11.859   7.211  71.937  1.00  0.00    -0.300 C  
HETATM    2  N   UNL     1     -10.986   6.772  73.026  1.00  0.00    -0.272 NA 
HETATM    3  C   UNL     1     -11.044   5.314  73.151  1.00  0.00    -0.324 C  
ENDROOT
BRANCH   2   4
HETATM    4  C   UNL     1      -9.610   7.276  72.824  1.00  0.00    -0.158 C  
BRANCH   4   5
HETATM    5  C   UNL     1      -9.308   7.605  71.350  1.00  0.00    -0.157 C  
BRANCH   5   6
HETATM    6  C   UNL     1      -8.767   6.455  70.526  1.00  0.00    -0.144 C  
HETATM    7  C   UNL     1      -8.612   6.455  69.178  1.00  0.00    -0.125 C  
HETATM    8  C   UNL     1      -9.086   7.636  68.422  1.00  0.00    -0.130 A  
HETATM    9  C   UNL     1      -8.418   8.866  68.504  1.00  0.00    -0.129 A  
HETATM   10  C   UNL     1      -8.916   9.984  67.837  1.00  0.00    -0.131 A  
HETATM   11  C   UNL     1     -10.070   9.874  67.064  1.00  0.00    -0.275 A  
HETATM   12  C   UNL     1     -10.732   8.648  66.959  1.00  0.00    -0.190 A  
HETATM   13  C   UNL     1     -10.249   7.522  67.644  1.00  0.00    -0.275 A  
HETATM   14  C   UNL     1     -10.944   6.195  67.538  1.00  0.00    -0.307 C  
HETATM   15  S   UNL     1     -10.055   5.061  66.436  1.00  0.00    -0.274 SA 
HETATM   16  C   UNL     1      -8.534   4.672  67.323  1.00  0.00    -0.104 A  
HETATM   17  C   UNL     1      -7.805   3.628  66.711  1.00  0.00    -0.084 A  
HETATM   18  C   UNL     1      -6.597   3.169  67.234  1.00  0.00    -0.037 A  
HETATM   19  C   UNL     1      -6.085   3.749  68.383  1.00  0.00    -0.031 A  
HETATM   20  C   UNL     1      -6.780   4.791  68.999  1.00  0.00    -0.049 A  
HETATM   21  C   UNL     1      -8.012   5.270  68.494  1.00  0.00    -0.087 A  
ENDBRANCH   5   6
ENDBRANCH   4   5
ENDBRANCH   2   4
TORSDOF 3
ENDMDL
MODEL      146
REMARK 921   NORMALIZED FREE ENERGY PREDICTED BY IDOCK:   -2.99 KCAL/MOL
REMARK 922        TOTAL FREE ENERGY PREDICTED BY IDOCK:   -3.78 KCAL/MOL
REMARK 923 INTER-LIGAND FREE ENERGY PREDICTED BY IDOCK:   -3.39 KCAL/MOL
REMARK 924 INTRA-LIGAND FREE ENERGY PREDICTED BY IDOCK:   -0.38 KCAL/MOL
REMARK 927      BINDING AFFINITY PREDICTED BY RF-SCORE:    0.00 PKD
ROOT
HETATM    1  C   UNL     1     -12.309   7.836  72.542  1.00  0.00    -0.092 C  
HETATM    2  N   UNL     1     -10.961   8.254  72.930  1.00  0.00    -0.245 NA 
HETATM    3  C   UNL     1     -10.114   7.075  73.128  1.00  0.00    -0.227 C  
ENDROOT
BRANCH   2   4
HETATM    4  C   UNL     1     -10.405   9.199  71.937  1.00  0.00    -0.173 C  
BRANCH   4   5
HETATM    5  C   UNL     1      -8.975   8.827  71.499  1.00  0.00    -0.306 C  
BRANCH   5   6
HETATM    6  C   UNL     1      -8.580   9.288  70.111  1.00  0.00    -0.215 C  
HETATM    7  C   UNL     1      -8.613   8.527  68.989  1.00  0.00    -0.130 C  
HETATM    8  C   UNL     1      -8.978   7.099  69.126  1.00  0.00    -0.138 A  
HETATM    9  C   UNL     1     -10.291   6.712  69.431  1.00  0.00    -0.228 A  
HETATM   10  C   UNL     1     -10.602   5.367  69.621  1.00  0.00    -0.328 A  
HETATM   11  C   UNL     1      -9.611   4.398  69.481  1.00  0.00    -0.271 A  
HETATM   12  C   UNL     1      -8.304   4.772  69.156  1.00  0.00    -0.084 A  
HETATM   13  C   UNL     1      -7.976   6.125  68.984  1.00  0.00    -0.108 A  
HETATM   14  C   UNL     1      -6.579   6.544  68.629  1.00  0.00    -0.051 C  
HETATM   15  S   UNL     1      -6.440   6.991  66.875  1.00  0.00    -0.055 SA 
HETATM   16  C   UNL     1      -7.390   8.516  66.723  1.00  0.00    -0.082 A  
HETATM   17  C   UNL     1      -7.220   9.132  65.464  1.00  0.00    -0.082 A  
HETATM   18  C   UNL     1      -7.865  10.324  65.135  1.00  0.00    -0.138 A  
HETATM   19  C   UNL     1      -8.703  10.926  66.060  1.00  0.00    -0.192 A  
HETATM   20  C   UNL     1      -8.898  10.328  67.307  1.00  0.00    -0.136 A  
HETATM   21  C   UNL     1      -8.249   9.124  67.669  1.00  0.00    -0.108 A  
ENDBRANCH   5   6
ENDBRANCH   4   5
ENDBRANCH   2   4
TORSDOF 3
ENDMDL
MODEL      147
REMARK 921   NORMALIZED FREE ENERGY PREDICTED BY IDOCK:   -2.97 KCAL/MOL
REMARK 922        TOTAL FREE ENERGY PREDICTED BY IDOCK:   -3.76 KCAL/MOL
REMARK 923 INTER-LIGAND FREE ENERGY PREDICTED BY IDOCK:   -3.52 KCAL/MOL
REMARK 924 INTRA-LIGAND FREE ENERGY PREDICTED BY IDOCK:   -0.25 KCAL/MOL
REMARK 927      BINDING AFFINITY PREDICTED BY RF-SCORE:    0.00 PKD
ROOT
HETATM    1  C   UNL     1     -10.595   4.773  66.313  1.00  0.00    -0.198 C  
HETATM    2  N   UNL     1      -9.600   5.546  67.056  1.00  0.00    -0.129 NA 
HETATM    3  C   UNL     1      -8.324   4.826  67.073  1.00  0.00    -0.106 C  
ENDROOT
BRANCH   2   4
HETATM    4  C   UNL     1      -9.480   6.911  66.497  1.00  0.00    -0.153 C  
BRANCH   4   5
HETATM    5  C   UNL     1      -9.824   8.006  67.525  1.00  0.00    -0.224 C  
BRANCH   5   6
HETATM    6  C   UNL     1      -8.638   8.628  68.232  1.00  0.00    -0.138 C  
HETATM    7  C   UNL     1      -8.566   9.909  68.674  1.00  0.00    -0.119 C  
HETATM    8  C   UNL     1      -9.697  10.814  68.372  1.00  0.00    -0.179 A  
HETATM    9  C   UNL     1     -10.939  10.660  69.006  1.00  0.00    -0.295 A  
HETATM   10  C   UNL     1     -12.012  11.481  68.661  1.00  0.00    -0.312 A  
HETATM   11  C   UNL     1     -11.844  12.476  67.701  1.00  0.00    -0.381 A  
HETATM   12  C   UNL     1     -10.605  12.651  67.079  1.00  0.00    -0.255 A  
HETATM   13  C   UNL     1      -9.525  11.817  67.404  1.00  0.00    -0.174 A  
HETATM   14  C   UNL     1      -8.185  11.994  66.750  1.00  0.00    -0.110 C  
HETATM   15  S   UNL     1      -7.004  12.814  67.857  1.00  0.00    -0.134 SA 
HETATM   16  C   UNL     1      -6.685  11.600  69.152  1.00  0.00    -0.109 A  
HETATM   17  C   UNL     1      -5.620  11.982  69.996  1.00  0.00    -0.123 A  
HETATM   18  C   UNL     1      -5.206  11.186  71.065  1.00  0.00    -0.114 A  
HETATM   19  C   UNL     1      -5.855   9.988  71.316  1.00  0.00    -0.005 A  
HETATM   20  C   UNL     1      -6.920   9.596  70.503  1.00  0.00    -0.133 A  
HETATM   21  C   UNL     1      -7.354  10.380  69.409  1.00  0.00    -0.123 A  
ENDBRANCH   5   6
ENDBRANCH   4   5
ENDBRANCH   2   4
TORSDOF 3
ENDMDL
MODEL      148
REMARK 921   NORMALIZED FREE ENERGY PREDICTED BY IDOCK:   -2.94 KCAL/MOL
REMARK 922        TOTAL FREE ENERGY PREDICTED BY IDOCK:   -3.72 KCAL/MOL
REMARK 923 INTER-LIGAND FREE ENERGY PREDICTED BY IDOCK:   -3.46 KCAL/MOL
REMARK 924 INTRA-LIGAND FREE ENERGY PREDICTED BY IDOCK:   -0.27 KCAL/MOL
REMARK 927      BINDING AFFINITY PREDICTED BY RF-SCORE:    0.00 PKD
ROOT
HETATM    1  C   UNL     1      -6.859   8.910  64.949  1.00  0.00    -0.073 C  
HETATM    2  N   UNL     1      -7.647  10.136  65.084  1.00  0.00    -0.139 NA 
HETATM    3  C   UNL     1      -8.314  10.438  63.816  1.00  0.00    -0.149 C  
ENDROOT
BRANCH   2   4
HETATM    4  C   UNL     1      -8.592  10.023  66.217  1.00  0.00    -0.129 C  
BRANCH   4   5
HETATM    5  C   UNL     1      -8.754   8.573  66.713  1.00  0.00    -0.133 C  
BRANCH   5   6
HETATM    6  C   UNL     1      -9.606   8.403  67.954  1.00  0.00    -0.180 C  
HETATM    7  C   UNL     1      -9.269   7.674  69.047  1.00  0.00    -0.140 C  
HETATM    8  C   UNL     1      -8.007   6.902  69.009  1.00  0.00    -0.116 A  
HETATM    9  C   UNL     1      -6.762   7.545  69.050  1.00  0.00    -0.049 A  
HETATM   10  C   UNL     1      -5.584   6.807  68.946  1.00  0.00    -0.017 A  
HETATM   11  C   UNL     1      -5.643   5.420  68.828  1.00  0.00    -0.011 A  
HETATM   12  C   UNL     1      -6.878   4.768  68.808  1.00  0.00    -0.051 A  
HETATM   13  C   UNL     1      -8.069   5.504  68.890  1.00  0.00    -0.095 A  
HETATM   14  C   UNL     1      -9.406   4.820  68.876  1.00  0.00    -0.135 C  
HETATM   15  S   UNL     1     -10.136   4.745  70.535  1.00  0.00    -0.185 SA 
HETATM   16  C   UNL     1     -10.543   6.457  70.925  1.00  0.00    -0.236 A  
HETATM   17  C   UNL     1     -11.321   6.572  72.098  1.00  0.00    -0.321 A  
HETATM   18  C   UNL     1     -11.746   7.809  72.581  1.00  0.00    -0.364 A  
HETATM   19  C   UNL     1     -11.398   8.965  71.901  1.00  0.00    -0.446 A  
HETATM   20  C   UNL     1     -10.619   8.878  70.746  1.00  0.00    -0.281 A  
HETATM   21  C   UNL     1     -10.181   7.636  70.230  1.00  0.00    -0.205 A  
ENDBRANCH   5   6
ENDBRANCH   4   5
ENDBRANCH   2   4
TORSDOF 3
ENDMDL
MODEL      149
REMARK 921   NORMALIZED FREE ENERGY PREDICTED BY IDOCK:   -2.92 KCAL/MOL
REMARK 922        TOTAL FREE ENERGY PREDICTED BY IDOCK:   -3.70 KCAL/MOL
REMARK 923 INTER-LIGAND FREE ENERGY PREDICTED BY IDOCK:   -3.44 KCAL/MOL
REMARK 924 INTRA-LIGAND FREE ENERGY PREDICTED BY IDOCK:   -0.27 KCAL/MOL
REMARK 927      BINDING AFFINITY PREDICTED BY RF-SCORE:    0.00 PKD
ROOT
HETATM    1  C   UNL     1     -13.110   7.251  71.316  1.00  0.00    -0.307 C  
HETATM    2  N   UNL     1     -11.860   8.010  71.296  1.00  0.00    -0.292 NA 
HETATM    3  C   UNL     1     -11.147   7.824  72.562  1.00  0.00    -0.346 C  
ENDROOT
BRANCH   2   4
HETATM    4  C   UNL     1     -11.045   7.636  70.119  1.00  0.00    -0.218 C  
BRANCH   4   5
HETATM    5  C   UNL     1     -11.176   6.145  69.754  1.00  0.00    -0.494 C  
BRANCH   5   6
HETATM    6  C   UNL     1     -10.163   5.226  70.404  1.00  0.00    -0.338 C  
HETATM    7  C   UNL     1      -9.091   4.671  69.784  1.00  0.00    -0.162 C  
HETATM    8  C   UNL     1      -8.929   4.901  68.332  1.00  0.00    -0.129 A  
HETATM    9  C   UNL     1      -8.571   6.162  67.832  1.00  0.00    -0.114 A  
HETATM   10  C   UNL     1      -8.488   6.376  66.457  1.00  0.00    -0.118 A  
HETATM   11  C   UNL     1      -8.736   5.328  65.574  1.00  0.00    -0.149 A  
HETATM   12  C   UNL     1      -9.073   4.063  66.063  1.00  0.00    -0.144 A  
HETATM   13  C   UNL     1      -9.180   3.842  67.444  1.00  0.00    -0.199 A  
HETATM   14  C   UNL     1      -9.535   2.488  67.987  1.00  0.00    -0.147 C  
HETATM   15  S   UNL     1      -8.080   1.631  68.651  1.00  0.00    -0.048 SA 
HETATM   16  C   UNL     1      -7.638   2.573  70.124  1.00  0.00    -0.043 A  
HETATM   17  C   UNL     1      -6.649   1.928  70.898  1.00  0.00    -0.024 A  
HETATM   18  C   UNL     1      -6.161   2.484  72.080  1.00  0.00    -0.013 A  
HETATM   19  C   UNL     1      -6.649   3.706  72.514  1.00  0.00    -0.021 A  
HETATM   20  C   UNL     1      -7.617   4.370  71.757  1.00  0.00    -0.071 A  
HETATM   21  C   UNL     1      -8.135   3.824  70.559  1.00  0.00    -0.060 A  
ENDBRANCH   5   6
ENDBRANCH   4   5
ENDBRANCH   2   4
TORSDOF 3
ENDMDL
MODEL      150
REMARK 921   NORMALIZED FREE ENERGY PREDICTED BY IDOCK:   -2.92 KCAL/MOL
REMARK 922        TOTAL FREE ENERGY PREDICTED BY IDOCK:   -3.70 KCAL/MOL
REMARK 923 INTER-LIGAND FREE ENERGY PREDICTED BY IDOCK:   -3.41 KCAL/MOL
REMARK 924 INTRA-LIGAND FREE ENERGY PREDICTED BY IDOCK:   -0.29 KCAL/MOL
REMARK 927      BINDING AFFINITY PREDICTED BY RF-SCORE:    0.00 PKD
ROOT
HETATM    1  C   UNL     1      -9.774   5.699  69.499  1.00  0.00    -0.154 C  
HETATM    2  N   UNL     1     -10.306   5.973  70.834  1.00  0.00    -0.212 NA 
HETATM    3  C   UNL     1      -9.428   5.383  71.848  1.00  0.00    -0.149 C  
ENDROOT
BRANCH   2   4
HETATM    4  C   UNL     1     -10.507   7.426  71.025  1.00  0.00    -0.215 C  
BRANCH   4   5
HETATM    5  C   UNL     1      -9.319   8.262  70.513  1.00  0.00    -0.169 C  
BRANCH   5   6
HETATM    6  C   UNL     1      -9.680   9.608  69.920  1.00  0.00    -0.262 C  
HETATM    7  C   UNL     1      -8.987  10.253  68.948  1.00  0.00    -0.164 C  
HETATM    8  C   UNL     1      -7.722   9.648  68.476  1.00  0.00    -0.081 A  
HETATM    9  C   UNL     1      -7.721   8.476  67.705  1.00  0.00    -0.103 A  
HETATM   10  C   UNL     1      -6.518   7.884  67.325  1.00  0.00    -0.056 A  
HETATM   11  C   UNL     1      -5.309   8.472  67.690  1.00  0.00    -0.035 A  
HETATM   12  C   UNL     1      -5.299   9.651  68.440  1.00  0.00    -0.033 A  
HETATM   13  C   UNL     1      -6.505  10.243  68.845  1.00  0.00    -0.051 A  
HETATM   14  C   UNL     1      -6.514  11.513  69.646  1.00  0.00    -0.129 C  
HETATM   15  S   UNL     1      -6.943  12.947  68.620  1.00  0.00    -0.104 SA 
HETATM   16  C   UNL     1      -8.680  12.699  68.205  1.00  0.00    -0.190 A  
HETATM   17  C   UNL     1      -9.252  13.830  67.582  1.00  0.00    -0.207 A  
HETATM   18  C   UNL     1     -10.586  13.851  67.178  1.00  0.00    -0.277 A  
HETATM   19  C   UNL     1     -11.381  12.735  67.383  1.00  0.00    -0.363 A  
HETATM   20  C   UNL     1     -10.834  11.600  67.984  1.00  0.00    -0.259 A  
HETATM   21  C   UNL     1      -9.487  11.554  68.411  1.00  0.00    -0.195 A  
ENDBRANCH   5   6
ENDBRANCH   4   5
ENDBRANCH   2   4
TORSDOF 3
ENDMDL
MODEL      151
REMARK 921   NORMALIZED FREE ENERGY PREDICTED BY IDOCK:   -2.91 KCAL/MOL
REMARK 922        TOTAL FREE ENERGY PREDICTED BY IDOCK:   -3.69 KCAL/MOL
REMARK 923 INTER-LIGAND FREE ENERGY PREDICTED BY IDOCK:   -3.45 KCAL/MOL
REMARK 924 INTRA-LIGAND FREE ENERGY PREDICTED BY IDOCK:   -0.24 KCAL/MOL
REMARK 927      BINDING AFFINITY PREDICTED BY RF-SCORE:    0.00 PKD
ROOT
HETATM    1  C   UNL     1      -7.931  10.551  65.995  1.00  0.00    -0.149 C  
HETATM    2  N   UNL     1      -9.068  10.723  66.899  1.00  0.00    -0.148 NA 
HETATM    3  C   UNL     1     -10.058  11.612  66.286  1.00  0.00    -0.221 C  
ENDROOT
BRANCH   2   4
HETATM    4  C   UNL     1      -9.634   9.410  67.278  1.00  0.00    -0.151 C  
BRANCH   4   5
HETATM    5  C   UNL     1      -8.600   8.492  67.959  1.00  0.00    -0.134 C  
BRANCH   5   6
HETATM    6  C   UNL     1      -8.663   8.454  69.472  1.00  0.00    -0.137 C  
HETATM    7  C   UNL     1      -8.596   7.334  70.235  1.00  0.00    -0.142 C  
HETATM    8  C   UNL     1      -8.542   6.024  69.548  1.00  0.00    -0.119 A  
HETATM    9  C   UNL     1      -7.398   5.620  68.845  1.00  0.00    -0.082 A  
HETATM   10  C   UNL     1      -7.389   4.412  68.150  1.00  0.00    -0.065 A  
HETATM   11  C   UNL     1      -8.513   3.589  68.173  1.00  0.00    -0.106 A  
HETATM   12  C   UNL     1      -9.651   3.973  68.888  1.00  0.00    -0.213 A  
HETATM   13  C   UNL     1      -9.676   5.197  69.574  1.00  0.00    -0.262 A  
HETATM   14  C   UNL     1     -10.888   5.624  70.352  1.00  0.00    -0.256 C  
HETATM   15  S   UNL     1     -10.647   5.405  72.137  1.00  0.00    -0.225 SA 
HETATM   16  C   UNL     1      -9.407   6.638  72.577  1.00  0.00    -0.137 A  
HETATM   17  C   UNL     1      -9.244   6.763  73.974  1.00  0.00    -0.220 A  
HETATM   18  C   UNL     1      -8.334   7.661  74.532  1.00  0.00    -0.245 A  
HETATM   19  C   UNL     1      -7.560   8.454  73.701  1.00  0.00    -0.144 A  
HETATM   20  C   UNL     1      -7.693   8.339  72.316  1.00  0.00    -0.168 A  
HETATM   21  C   UNL     1      -8.614   7.443  71.725  1.00  0.00    -0.124 A  
ENDBRANCH   5   6
ENDBRANCH   4   5
ENDBRANCH   2   4
TORSDOF 3
ENDMDL
MODEL      152
REMARK 921   NORMALIZED FREE ENERGY PREDICTED BY IDOCK:   -2.91 KCAL/MOL
REMARK 922        TOTAL FREE ENERGY PREDICTED BY IDOCK:   -3.68 KCAL/MOL
REMARK 923 INTER-LIGAND FREE ENERGY PREDICTED BY IDOCK:   -3.53 KCAL/MOL
REMARK 924 INTRA-LIGAND FREE ENERGY PREDICTED BY IDOCK:   -0.15 KCAL/MOL
REMARK 927      BINDING AFFINITY PREDICTED BY RF-SCORE:    0.00 PKD
ROOT
HETATM    1  C   UNL     1     -12.501  13.112  70.590  1.00  0.00    -0.286 C  
HETATM    2  N   UNL     1     -11.941  11.789  70.311  1.00  0.00    -0.354 NA 
HETATM    3  C   UNL     1     -12.411  10.830  71.312  1.00  0.00    -0.399 C  
ENDROOT
BRANCH   2   4
HETATM    4  C   UNL     1     -12.255  11.374  68.926  1.00  0.00    -0.087 C  
BRANCH   4   5
HETATM    5  C   UNL     1     -11.048  11.504  67.978  1.00  0.00    -0.313 C  
BRANCH   5   6
HETATM    6  C   UNL     1     -10.039  12.569  68.354  1.00  0.00    -0.216 C  
HETATM    7  C   UNL     1      -8.717  12.547  68.047  1.00  0.00    -0.186 C  
HETATM    8  C   UNL     1      -8.181  11.349  67.364  1.00  0.00    -0.145 A  
HETATM    9  C   UNL     1      -8.501  11.072  66.027  1.00  0.00    -0.158 A  
HETATM   10  C   UNL     1      -8.039   9.905  65.419  1.00  0.00    -0.137 A  
HETATM   11  C   UNL     1      -7.235   9.021  66.136  1.00  0.00    -0.090 A  
HETATM   12  C   UNL     1      -6.893   9.298  67.462  1.00  0.00    -0.077 A  
HETATM   13  C   UNL     1      -7.370  10.460  68.088  1.00  0.00    -0.088 A  
HETATM   14  C   UNL     1      -7.008  10.777  69.511  1.00  0.00    -0.130 C  
HETATM   15  S   UNL     1      -5.736  12.067  69.605  1.00  0.00    -0.108 SA 
HETATM   16  C   UNL     1      -6.569  13.562  69.038  1.00  0.00    -0.110 A  
HETATM   17  C   UNL     1      -5.792  14.723  69.245  1.00  0.00    -0.101 A  
HETATM   18  C   UNL     1      -6.247  15.989  68.878  1.00  0.00    -0.126 A  
HETATM   19  C   UNL     1      -7.494  16.123  68.289  1.00  0.00    -0.145 A  
HETATM   20  C   UNL     1      -8.275  14.988  68.062  1.00  0.00    -0.138 A  
HETATM   21  C   UNL     1      -7.841  13.694  68.432  1.00  0.00    -0.140 A  
ENDBRANCH   5   6
ENDBRANCH   4   5
ENDBRANCH   2   4
TORSDOF 3
ENDMDL
MODEL      153
REMARK 921   NORMALIZED FREE ENERGY PREDICTED BY IDOCK:   -2.86 KCAL/MOL
REMARK 922        TOTAL FREE ENERGY PREDICTED BY IDOCK:   -3.63 KCAL/MOL
REMARK 923 INTER-LIGAND FREE ENERGY PREDICTED BY IDOCK:   -3.24 KCAL/MOL
REMARK 924 INTRA-LIGAND FREE ENERGY PREDICTED BY IDOCK:   -0.39 KCAL/MOL
REMARK 927      BINDING AFFINITY PREDICTED BY RF-SCORE:    0.00 PKD
ROOT
HETATM    1  C   UNL     1     -10.504   3.983  64.671  1.00  0.00    -0.190 C  
HETATM    2  N   UNL     1      -9.108   4.068  65.102  1.00  0.00    -0.131 NA 
HETATM    3  C   UNL     1      -8.381   2.874  64.666  1.00  0.00    -0.087 C  
ENDROOT
BRANCH   2   4
HETATM    4  C   UNL     1      -8.491   5.323  64.618  1.00  0.00    -0.142 C  
BRANCH   4   5
HETATM    5  C   UNL     1      -7.607   5.999  65.683  1.00  0.00    -0.084 C  
BRANCH   5   6
HETATM    6  C   UNL     1      -7.878   5.580  67.113  1.00  0.00    -0.101 C  
HETATM    7  C   UNL     1      -8.482   6.345  68.058  1.00  0.00    -0.118 C  
HETATM    8  C   UNL     1      -8.835   7.738  67.705  1.00  0.00    -0.126 A  
HETATM    9  C   UNL     1      -9.875   8.018  66.807  1.00  0.00    -0.327 A  
HETATM   10  C   UNL     1     -10.150   9.334  66.437  1.00  0.00    -0.337 A  
HETATM   11  C   UNL     1      -9.405  10.378  66.981  1.00  0.00    -0.176 A  
HETATM   12  C   UNL     1      -8.381  10.111  67.892  1.00  0.00    -0.117 A  
HETATM   13  C   UNL     1      -8.083   8.789  68.255  1.00  0.00    -0.114 A  
HETATM   14  C   UNL     1      -6.989   8.483  69.238  1.00  0.00    -0.054 C  
HETATM   15  S   UNL     1      -7.658   8.061  70.872  1.00  0.00    -0.082 SA 
HETATM   16  C   UNL     1      -8.465   6.467  70.629  1.00  0.00    -0.134 A  
HETATM   17  C   UNL     1      -8.863   5.875  71.847  1.00  0.00    -0.138 A  
HETATM   18  C   UNL     1      -9.507   4.638  71.889  1.00  0.00    -0.197 A  
HETATM   19  C   UNL     1      -9.772   3.966  70.707  1.00  0.00    -0.255 A  
HETATM   20  C   UNL     1      -9.400   4.538  69.489  1.00  0.00    -0.221 A  
HETATM   21  C   UNL     1      -8.739   5.787  69.419  1.00  0.00    -0.111 A  
ENDBRANCH   5   6
ENDBRANCH   4   5
ENDBRANCH   2   4
TORSDOF 3
ENDMDL
MODEL      154
REMARK 921   NORMALIZED FREE ENERGY PREDICTED BY IDOCK:   -2.84 KCAL/MOL
REMARK 922        TOTAL FREE ENERGY PREDICTED BY IDOCK:   -3.61 KCAL/MOL
REMARK 923 INTER-LIGAND FREE ENERGY PREDICTED BY IDOCK:   -3.43 KCAL/MOL
REMARK 924 INTRA-LIGAND FREE ENERGY PREDICTED BY IDOCK:   -0.18 KCAL/MOL
REMARK 927      BINDING AFFINITY PREDICTED BY RF-SCORE:    0.00 PKD
ROOT
HETATM    1  C   UNL     1      -9.352   4.694  72.110  1.00  0.00    -0.136 C  
HETATM    2  N   UNL     1     -10.771   5.040  72.021  1.00  0.00    -0.178 NA 
HETATM    3  C   UNL     1     -11.451   4.669  73.264  1.00  0.00    -0.254 C  
ENDROOT
BRANCH   2   4
HETATM    4  C   UNL     1     -10.936   6.471  71.682  1.00  0.00    -0.249 C  
BRANCH   4   5
HETATM    5  C   UNL     1     -11.212   6.698  70.183  1.00  0.00    -0.416 C  
BRANCH   5   6
HETATM    6  C   UNL     1     -10.739   5.594  69.261  1.00  0.00    -0.350 C  
HETATM    7  C   UNL     1      -9.580   5.598  68.556  1.00  0.00    -0.160 C  
HETATM    8  C   UNL     1      -8.734   6.811  68.612  1.00  0.00    -0.125 A  
HETATM    9  C   UNL     1      -8.032   7.153  69.778  1.00  0.00    -0.123 A  
HETATM   10  C   UNL     1      -7.293   8.333  69.834  1.00  0.00    -0.064 A  
HETATM   11  C   UNL     1      -7.230   9.166  68.718  1.00  0.00    -0.074 A  
HETATM   12  C   UNL     1      -7.908   8.824  67.546  1.00  0.00    -0.102 A  
HETATM   13  C   UNL     1      -8.672   7.648  67.487  1.00  0.00    -0.125 A  
HETATM   14  C   UNL     1      -9.403   7.262  66.234  1.00  0.00    -0.108 C  
HETATM   15  S   UNL     1      -8.542   5.939  65.339  1.00  0.00    -0.102 SA 
HETATM   16  C   UNL     1      -8.722   4.490  66.396  1.00  0.00    -0.112 A  
HETATM   17  C   UNL     1      -8.295   3.303  65.761  1.00  0.00    -0.103 A  
HETATM   18  C   UNL     1      -8.348   2.065  66.401  1.00  0.00    -0.095 A  
HETATM   19  C   UNL     1      -8.826   1.986  67.699  1.00  0.00    -0.152 A  
HETATM   20  C   UNL     1      -9.241   3.148  68.353  1.00  0.00    -0.235 A  
HETATM   21  C   UNL     1      -9.206   4.415  67.724  1.00  0.00    -0.166 A  
ENDBRANCH   5   6
ENDBRANCH   4   5
ENDBRANCH   2   4
TORSDOF 3
ENDMDL
MODEL      155
REMARK 921   NORMALIZED FREE ENERGY PREDICTED BY IDOCK:   -2.84 KCAL/MOL
REMARK 922        TOTAL FREE ENERGY PREDICTED BY IDOCK:   -3.60 KCAL/MOL
REMARK 923 INTER-LIGAND FREE ENERGY PREDICTED BY IDOCK:   -3.35 KCAL/MOL
REMARK 924 INTRA-LIGAND FREE ENERGY PREDICTED BY IDOCK:   -0.25 KCAL/MOL
REMARK 927      BINDING AFFINITY PREDICTED BY RF-SCORE:    0.00 PKD
ROOT
HETATM    1  C   UNL     1      -9.686   3.382  63.615  1.00  0.00    -0.141 C  
HETATM    2  N   UNL     1      -9.776   3.229  65.068  1.00  0.00    -0.127 NA 
HETATM    3  C   UNL     1      -8.440   3.018  65.628  1.00  0.00    -0.105 C  
ENDROOT
BRANCH   2   4
HETATM    4  C   UNL     1     -10.474   4.386  65.669  1.00  0.00    -0.193 C  
BRANCH   4   5
HETATM    5  C   UNL     1      -9.579   5.182  66.639  1.00  0.00    -0.162 C  
BRANCH   5   6
HETATM    6  C   UNL     1     -10.137   5.364  68.035  1.00  0.00    -0.224 C  
HETATM    7  C   UNL     1      -9.615   6.170  68.994  1.00  0.00    -0.144 C  
HETATM    8  C   UNL     1      -8.345   6.871  68.699  1.00  0.00    -0.121 A  
HETATM    9  C   UNL     1      -8.296   7.927  67.778  1.00  0.00    -0.129 A  
HETATM   10  C   UNL     1      -7.080   8.532  67.464  1.00  0.00    -0.080 A  
HETATM   11  C   UNL     1      -5.910   8.103  68.087  1.00  0.00    -0.041 A  
HETATM   12  C   UNL     1      -5.951   7.065  69.021  1.00  0.00    -0.022 A  
HETATM   13  C   UNL     1      -7.167   6.436  69.328  1.00  0.00    -0.090 A  
HETATM   14  C   UNL     1      -7.231   5.323  70.335  1.00  0.00    -0.062 C  
HETATM   15  S   UNL     1      -7.908   5.893  71.919  1.00  0.00    -0.107 SA 
HETATM   16  C   UNL     1      -9.641   6.244  71.567  1.00  0.00    -0.155 A  
HETATM   17  C   UNL     1     -10.388   6.499  72.738  1.00  0.00    -0.224 A  
HETATM   18  C   UNL     1     -11.750   6.793  72.694  1.00  0.00    -0.117 A  
HETATM   19  C   UNL     1     -12.399   6.845  71.471  1.00  0.00    -0.420 A  
HETATM   20  C   UNL     1     -11.679   6.610  70.297  1.00  0.00    -0.432 A  
HETATM   21  C   UNL     1     -10.299   6.301  70.315  1.00  0.00    -0.258 A  
ENDBRANCH   5   6
ENDBRANCH   4   5
ENDBRANCH   2   4
TORSDOF 3
ENDMDL
MODEL      156
REMARK 921   NORMALIZED FREE ENERGY PREDICTED BY IDOCK:   -2.81 KCAL/MOL
REMARK 922        TOTAL FREE ENERGY PREDICTED BY IDOCK:   -3.58 KCAL/MOL
REMARK 923 INTER-LIGAND FREE ENERGY PREDICTED BY IDOCK:   -3.36 KCAL/MOL
REMARK 924 INTRA-LIGAND FREE ENERGY PREDICTED BY IDOCK:   -0.21 KCAL/MOL
REMARK 927      BINDING AFFINITY PREDICTED BY RF-SCORE:    0.00 PKD
ROOT
HETATM    1  C   UNL     1     -11.903   8.904  72.203  1.00  0.00    -0.347 C  
HETATM    2  N   UNL     1     -11.461   9.136  70.827  1.00  0.00    -0.275 NA 
HETATM    3  C   UNL     1     -11.469  10.572  70.540  1.00  0.00    -0.345 C  
ENDROOT
BRANCH   2   4
HETATM    4  C   UNL     1     -10.141   8.512  70.594  1.00  0.00    -0.192 C  
BRANCH   4   5
HETATM    5  C   UNL     1     -10.220   6.977  70.482  1.00  0.00    -0.209 C  
BRANCH   5   6
HETATM    6  C   UNL     1      -9.895   6.409  69.116  1.00  0.00    -0.158 C  
HETATM    7  C   UNL     1      -9.381   5.176  68.878  1.00  0.00    -0.168 C  
HETATM    8  C   UNL     1      -9.021   4.334  70.041  1.00  0.00    -0.152 A  
HETATM    9  C   UNL     1     -10.008   3.769  70.861  1.00  0.00    -0.097 A  
HETATM   10  C   UNL     1      -9.650   3.034  71.990  1.00  0.00    -0.216 A  
HETATM   11  C   UNL     1      -8.304   2.837  72.291  1.00  0.00    -0.064 A  
HETATM   12  C   UNL     1      -7.313   3.378  71.469  1.00  0.00    -0.043 A  
HETATM   13  C   UNL     1      -7.663   4.137  70.342  1.00  0.00    -0.045 A  
HETATM   14  C   UNL     1      -6.612   4.721  69.444  1.00  0.00    -0.040 C  
HETATM   15  S   UNL     1      -6.443   3.771  67.907  1.00  0.00    -0.038 SA 
HETATM   16  C   UNL     1      -7.979   4.082  67.016  1.00  0.00    -0.096 A  
HETATM   17  C   UNL     1      -7.942   3.593  65.692  1.00  0.00    -0.093 A  
HETATM   18  C   UNL     1      -9.028   3.728  64.826  1.00  0.00    -0.125 A  
HETATM   19  C   UNL     1     -10.182   4.353  65.269  1.00  0.00    -0.230 A  
HETATM   20  C   UNL     1     -10.247   4.833  66.579  1.00  0.00    -0.294 A  
HETATM   21  C   UNL     1      -9.158   4.717  67.474  1.00  0.00    -0.134 A  
ENDBRANCH   5   6
ENDBRANCH   4   5
ENDBRANCH   2   4
TORSDOF 3
ENDMDL
MODEL      157
REMARK 921   NORMALIZED FREE ENERGY PREDICTED BY IDOCK:   -2.80 KCAL/MOL
REMARK 922        TOTAL FREE ENERGY PREDICTED BY IDOCK:   -3.56 KCAL/MOL
REMARK 923 INTER-LIGAND FREE ENERGY PREDICTED BY IDOCK:   -3.32 KCAL/MOL
REMARK 924 INTRA-LIGAND FREE ENERGY PREDICTED BY IDOCK:   -0.24 KCAL/MOL
REMARK 927      BINDING AFFINITY PREDICTED BY RF-SCORE:    0.00 PKD
ROOT
HETATM    1  C   UNL     1      -6.754  16.023  69.034  1.00  0.00    -0.157 C  
HETATM    2  N   UNL     1      -7.273  14.828  68.368  1.00  0.00    -0.108 NA 
HETATM    3  C   UNL     1      -7.585  15.135  66.971  1.00  0.00    -0.086 C  
ENDROOT
BRANCH   2   4
HETATM    4  C   UNL     1      -6.323  13.702  68.509  1.00  0.00    -0.092 C  
BRANCH   4   5
HETATM    5  C   UNL     1      -6.716  12.483  67.654  1.00  0.00    -0.136 C  
BRANCH   5   6
HETATM    6  C   UNL     1      -6.944  11.197  68.423  1.00  0.00    -0.072 C  
HETATM    7  C   UNL     1      -8.010  10.371  68.278  1.00  0.00    -0.111 C  
HETATM    8  C   UNL     1      -9.094  10.785  67.360  1.00  0.00    -0.148 A  
HETATM    9  C   UNL     1      -8.905  10.793  65.970  1.00  0.00    -0.192 A  
HETATM   10  C   UNL     1      -9.915  11.249  65.125  1.00  0.00    -0.312 A  
HETATM   11  C   UNL     1     -11.128  11.676  65.660  1.00  0.00    -0.308 A  
HETATM   12  C   UNL     1     -11.334  11.653  67.041  1.00  0.00    -0.373 A  
HETATM   13  C   UNL     1     -10.316  11.215  67.902  1.00  0.00    -0.211 A  
HETATM   14  C   UNL     1     -10.521  11.178  69.389  1.00  0.00    -0.095 C  
HETATM   15  S   UNL     1     -10.814   9.488  69.981  1.00  0.00    -0.265 SA 
HETATM   16  C   UNL     1      -9.233   8.652  69.753  1.00  0.00    -0.154 A  
HETATM   17  C   UNL     1      -9.206   7.376  70.359  1.00  0.00    -0.158 A  
HETATM   18  C   UNL     1      -8.078   6.558  70.303  1.00  0.00    -0.121 A  
HETATM   19  C   UNL     1      -6.949   6.996  69.631  1.00  0.00    -0.062 A  
HETATM   20  C   UNL     1      -6.956   8.248  69.012  1.00  0.00    -0.061 A  
HETATM   21  C   UNL     1      -8.083   9.101  69.061  1.00  0.00    -0.102 A  
ENDBRANCH   5   6
ENDBRANCH   4   5
ENDBRANCH   2   4
TORSDOF 3
ENDMDL
MODEL      158
REMARK 921   NORMALIZED FREE ENERGY PREDICTED BY IDOCK:   -2.80 KCAL/MOL
REMARK 922        TOTAL FREE ENERGY PREDICTED BY IDOCK:   -3.55 KCAL/MOL
REMARK 923 INTER-LIGAND FREE ENERGY PREDICTED BY IDOCK:   -2.98 KCAL/MOL
REMARK 924 INTRA-LIGAND FREE ENERGY PREDICTED BY IDOCK:   -0.57 KCAL/MOL
REMARK 927      BINDING AFFINITY PREDICTED BY RF-SCORE:    0.00 PKD
ROOT
HETATM    1  C   UNL     1     -10.472   2.484  63.323  1.00  0.00    -0.190 C  
HETATM    2  N   UNL     1      -9.461   3.232  64.070  1.00  0.00    -0.127 NA 
HETATM    3  C   UNL     1      -8.644   2.308  64.860  1.00  0.00    -0.105 C  
ENDROOT
BRANCH   2   4
HETATM    4  C   UNL     1      -8.656   4.072  63.157  1.00  0.00    -0.098 C  
BRANCH   4   5
HETATM    5  C   UNL     1      -7.702   5.021  63.907  1.00  0.00    -0.079 C  
BRANCH   5   6
HETATM    6  C   UNL     1      -8.336   6.288  64.442  1.00  0.00     0.028 C  
HETATM    7  C   UNL     1      -8.510   6.590  65.754  1.00  0.00    -0.149 C  
HETATM    8  C   UNL     1      -8.134   5.570  66.759  1.00  0.00    -0.105 A  
HETATM    9  C   UNL     1      -6.790   5.254  67.005  1.00  0.00    -0.063 A  
HETATM   10  C   UNL     1      -6.458   4.246  67.907  1.00  0.00    -0.038 A  
HETATM   11  C   UNL     1      -7.465   3.564  68.588  1.00  0.00    -0.053 A  
HETATM   12  C   UNL     1      -8.806   3.886  68.366  1.00  0.00    -0.145 A  
HETATM   13  C   UNL     1      -9.151   4.885  67.444  1.00  0.00    -0.124 A  
HETATM   14  C   UNL     1     -10.587   5.248  67.196  1.00  0.00    -0.155 C  
HETATM   15  S   UNL     1     -11.034   6.803  68.018  1.00  0.00    -0.170 SA 
HETATM   16  C   UNL     1     -10.118   8.068  67.116  1.00  0.00    -0.263 A  
HETATM   17  C   UNL     1     -10.507   9.376  67.479  1.00  0.00    -0.343 A  
HETATM   18  C   UNL     1      -9.924  10.504  66.903  1.00  0.00    -0.246 A  
HETATM   19  C   UNL     1      -8.930  10.348  65.949  1.00  0.00    -0.182 A  
HETATM   20  C   UNL     1      -8.519   9.065  65.584  1.00  0.00    -0.163 A  
HETATM   21  C   UNL     1      -9.100   7.904  66.147  1.00  0.00    -0.210 A  
ENDBRANCH   5   6
ENDBRANCH   4   5
ENDBRANCH   2   4
TORSDOF 3
ENDMDL
MODEL      159
REMARK 921   NORMALIZED FREE ENERGY PREDICTED BY IDOCK:   -2.79 KCAL/MOL
REMARK 922        TOTAL FREE ENERGY PREDICTED BY IDOCK:   -3.55 KCAL/MOL
REMARK 923 INTER-LIGAND FREE ENERGY PREDICTED BY IDOCK:   -3.03 KCAL/MOL
REMARK 924 INTRA-LIGAND FREE ENERGY PREDICTED BY IDOCK:   -0.52 KCAL/MOL
REMARK 927      BINDING AFFINITY PREDICTED BY RF-SCORE:    0.00 PKD
ROOT
HETATM    1  C   UNL     1      -9.635   3.857  63.425  1.00  0.00    -0.149 C  
HETATM    2  N   UNL     1      -9.173   4.649  64.565  1.00  0.00    -0.138 NA 
HETATM    3  C   UNL     1      -8.753   3.759  65.649  1.00  0.00    -0.118 C  
ENDROOT
BRANCH   2   4
HETATM    4  C   UNL     1      -8.107   5.586  64.147  1.00  0.00    -0.124 C  
BRANCH   4   5
HETATM    5  C   UNL     1      -7.167   5.971  65.305  1.00  0.00    -0.070 C  
BRANCH   5   6
HETATM    6  C   UNL     1      -7.210   7.427  65.720  1.00  0.00    -0.066 C  
HETATM    7  C   UNL     1      -7.801   7.910  66.842  1.00  0.00    -0.104 C  
HETATM    8  C   UNL     1      -8.545   6.963  67.701  1.00  0.00    -0.121 A  
HETATM    9  C   UNL     1      -7.875   5.996  68.464  1.00  0.00    -0.100 A  
HETATM   10  C   UNL     1      -8.596   5.070  69.216  1.00  0.00    -0.096 A  
HETATM   11  C   UNL     1      -9.989   5.120  69.231  1.00  0.00    -0.280 A  
HETATM   12  C   UNL     1     -10.664   6.092  68.490  1.00  0.00    -0.365 A  
HETATM   13  C   UNL     1      -9.948   7.016  67.713  1.00  0.00    -0.186 A  
HETATM   14  C   UNL     1     -10.658   8.072  66.915  1.00  0.00    -0.254 C  
HETATM   15  S   UNL     1     -10.556   9.696  67.716  1.00  0.00    -0.256 SA 
HETATM   16  C   UNL     1      -8.818  10.158  67.577  1.00  0.00    -0.125 A  
HETATM   17  C   UNL     1      -8.585  11.497  67.959  1.00  0.00    -0.150 A  
HETATM   18  C   UNL     1      -7.309  12.060  67.927  1.00  0.00    -0.104 A  
HETATM   19  C   UNL     1      -6.233  11.291  67.515  1.00  0.00    -0.064 A  
HETATM   20  C   UNL     1      -6.437   9.960  67.145  1.00  0.00    -0.069 A  
HETATM   21  C   UNL     1      -7.721   9.367  67.161  1.00  0.00    -0.091 A  
ENDBRANCH   5   6
ENDBRANCH   4   5
ENDBRANCH   2   4
TORSDOF 3
ENDMDL
MODEL      160
REMARK 921   NORMALIZED FREE ENERGY PREDICTED BY IDOCK:   -2.77 KCAL/MOL
REMARK 922        TOTAL FREE ENERGY PREDICTED BY IDOCK:   -3.52 KCAL/MOL
REMARK 923 INTER-LIGAND FREE ENERGY PREDICTED BY IDOCK:   -3.27 KCAL/MOL
REMARK 924 INTRA-LIGAND FREE ENERGY PREDICTED BY IDOCK:   -0.25 KCAL/MOL
REMARK 927      BINDING AFFINITY PREDICTED BY RF-SCORE:    0.00 PKD
ROOT
HETATM    1  C   UNL     1      -6.210   8.013  65.565  1.00  0.00    -0.038 C  
HETATM    2  N   UNL     1      -5.934   9.338  66.120  1.00  0.00    -0.058 NA 
HETATM    3  C   UNL     1      -6.757  10.341  65.439  1.00  0.00    -0.123 C  
ENDROOT
BRANCH   2   4
HETATM    4  C   UNL     1      -6.128   9.338  67.586  1.00  0.00    -0.054 C  
BRANCH   4   5
HETATM    5  C   UNL     1      -6.673   7.997  68.113  1.00  0.00    -0.064 C  
BRANCH   5   6
HETATM    6  C   UNL     1      -7.511   8.086  69.372  1.00  0.00    -0.096 C  
HETATM    7  C   UNL     1      -8.364   7.132  69.821  1.00  0.00    -0.132 C  
HETATM    8  C   UNL     1      -8.573   5.932  68.979  1.00  0.00    -0.114 A  
HETATM    9  C   UNL     1      -7.566   4.968  68.827  1.00  0.00    -0.077 A  
HETATM   10  C   UNL     1      -7.757   3.879  67.979  1.00  0.00    -0.066 A  
HETATM   11  C   UNL     1      -8.964   3.733  67.297  1.00  0.00    -0.158 A  
HETATM   12  C   UNL     1      -9.980   4.677  67.458  1.00  0.00    -0.174 A  
HETATM   13  C   UNL     1      -9.790   5.788  68.294  1.00  0.00    -0.170 A  
HETATM   14  C   UNL     1     -10.874   6.810  68.483  1.00  0.00    -0.222 C  
HETATM   15  S   UNL     1     -11.711   6.608  70.081  1.00  0.00    -0.263 SA 
HETATM   16  C   UNL     1     -10.470   7.078  71.301  1.00  0.00    -0.206 A  
HETATM   17  C   UNL     1     -11.008   7.188  72.602  1.00  0.00    -0.325 A  
HETATM   18  C   UNL     1     -10.221   7.542  73.697  1.00  0.00    -0.333 A  
HETATM   19  C   UNL     1      -8.870   7.789  73.516  1.00  0.00    -0.312 A  
HETATM   20  C   UNL     1      -8.311   7.672  72.242  1.00  0.00    -0.135 A  
HETATM   21  C   UNL     1      -9.089   7.324  71.113  1.00  0.00    -0.152 A  
ENDBRANCH   5   6
ENDBRANCH   4   5
ENDBRANCH   2   4
TORSDOF 3
ENDMDL
MODEL      161
REMARK 921   NORMALIZED FREE ENERGY PREDICTED BY IDOCK:   -2.71 KCAL/MOL
REMARK 922        TOTAL FREE ENERGY PREDICTED BY IDOCK:   -3.45 KCAL/MOL
REMARK 923 INTER-LIGAND FREE ENERGY PREDICTED BY IDOCK:   -3.01 KCAL/MOL
REMARK 924 INTRA-LIGAND FREE ENERGY PREDICTED BY IDOCK:   -0.44 KCAL/MOL
REMARK 927      BINDING AFFINITY PREDICTED BY RF-SCORE:    0.00 PKD
ROOT
HETATM    1  C   UNL     1      -9.164  11.465  68.406  1.00  0.00    -0.183 C  
HETATM    2  N   UNL     1     -10.623  11.483  68.290  1.00  0.00    -0.191 NA 
HETATM    3  C   UNL     1     -11.043  12.633  67.488  1.00  0.00    -0.272 C  
ENDROOT
BRANCH   2   4
HETATM    4  C   UNL     1     -11.116  10.196  67.751  1.00  0.00    -0.227 C  
BRANCH   4   5
HETATM    5  C   UNL     1     -10.382   8.981  68.350  1.00  0.00    -0.242 C  
BRANCH   5   6
HETATM    6  C   UNL     1     -10.176   7.816  67.403  1.00  0.00    -0.320 C  
HETATM    7  C   UNL     1      -9.001   7.477  66.815  1.00  0.00    -0.164 C  
HETATM    8  C   UNL     1      -7.832   8.356  67.036  1.00  0.00    -0.096 A  
HETATM    9  C   UNL     1      -7.195   8.417  68.284  1.00  0.00    -0.086 A  
HETATM   10  C   UNL     1      -6.136   9.300  68.492  1.00  0.00    -0.045 A  
HETATM   11  C   UNL     1      -5.690  10.108  67.448  1.00  0.00    -0.042 A  
HETATM   12  C   UNL     1      -6.305  10.040  66.195  1.00  0.00    -0.081 A  
HETATM   13  C   UNL     1      -7.385   9.169  65.982  1.00  0.00    -0.094 A  
HETATM   14  C   UNL     1      -8.053   9.079  64.640  1.00  0.00    -0.144 C  
HETATM   15  S   UNL     1      -7.552   7.583  63.744  1.00  0.00    -0.123 SA 
HETATM   16  C   UNL     1      -8.294   6.230  64.677  1.00  0.00    -0.026 A  
HETATM   17  C   UNL     1      -8.189   4.992  64.006  1.00  0.00    -0.125 A  
HETATM   18  C   UNL     1      -8.697   3.813  64.551  1.00  0.00    -0.114 A  
HETATM   19  C   UNL     1      -9.319   3.845  65.788  1.00  0.00    -0.162 A  
HETATM   20  C   UNL     1      -9.423   5.055  66.478  1.00  0.00    -0.151 A  
HETATM   21  C   UNL     1      -8.924   6.266  65.943  1.00  0.00    -0.122 A  
ENDBRANCH   5   6
ENDBRANCH   4   5
ENDBRANCH   2   4
TORSDOF 3
ENDMDL
MODEL      162
REMARK 921   NORMALIZED FREE ENERGY PREDICTED BY IDOCK:   -2.62 KCAL/MOL
REMARK 922        TOTAL FREE ENERGY PREDICTED BY IDOCK:   -3.35 KCAL/MOL
REMARK 923 INTER-LIGAND FREE ENERGY PREDICTED BY IDOCK:   -3.04 KCAL/MOL
REMARK 924 INTRA-LIGAND FREE ENERGY PREDICTED BY IDOCK:   -0.30 KCAL/MOL
REMARK 927      BINDING AFFINITY PREDICTED BY RF-SCORE:    0.00 PKD
ROOT
HETATM    1  C   UNL     1      -7.638   2.583  72.277  1.00  0.00    -0.052 C  
HETATM    2  N   UNL     1      -8.649   3.079  73.211  1.00  0.00    -0.079 NA 
HETATM    3  C   UNL     1      -8.068   3.204  74.550  1.00  0.00    -0.069 C  
ENDROOT
BRANCH   2   4
HETATM    4  C   UNL     1      -9.232   4.347  72.719  1.00  0.00    -0.127 C  
BRANCH   4   5
HETATM    5  C   UNL     1      -8.597   5.587  73.375  1.00  0.00    -0.115 C  
BRANCH   5   6
HETATM    6  C   UNL     1      -7.757   6.449  72.455  1.00  0.00    -0.101 C  
HETATM    7  C   UNL     1      -8.234   7.393  71.605  1.00  0.00    -0.105 C  
HETATM    8  C   UNL     1      -9.701   7.548  71.489  1.00  0.00    -0.184 A  
HETATM    9  C   UNL     1     -10.458   8.100  72.533  1.00  0.00    -0.409 A  
HETATM   10  C   UNL     1     -11.846   8.177  72.432  1.00  0.00    -0.448 A  
HETATM   11  C   UNL     1     -12.484   7.729  71.278  1.00  0.00    -0.301 A  
HETATM   12  C   UNL     1     -11.738   7.197  70.223  1.00  0.00    -0.226 A  
HETATM   13  C   UNL     1     -10.342   7.096  70.324  1.00  0.00    -0.214 A  
HETATM   14  C   UNL     1      -9.523   6.532  69.199  1.00  0.00    -0.135 C  
HETATM   15  S   UNL     1      -8.679   7.840  68.266  1.00  0.00    -0.126 SA 
HETATM   16  C   UNL     1      -7.440   8.479  69.410  1.00  0.00    -0.088 A  
HETATM   17  C   UNL     1      -6.537   9.367  68.785  1.00  0.00    -0.052 A  
HETATM   18  C   UNL     1      -5.499   9.977  69.488  1.00  0.00    -0.038 A  
HETATM   19  C   UNL     1      -5.343   9.716  70.840  1.00  0.00    -0.050 A  
HETATM   20  C   UNL     1      -6.232   8.853  71.483  1.00  0.00    -0.069 A  
HETATM   21  C   UNL     1      -7.288   8.215  70.792  1.00  0.00    -0.058 A  
ENDBRANCH   5   6
ENDBRANCH   4   5
ENDBRANCH   2   4
TORSDOF 3
ENDMDL
MODEL      163
REMARK 921   NORMALIZED FREE ENERGY PREDICTED BY IDOCK:   -2.59 KCAL/MOL
REMARK 922        TOTAL FREE ENERGY PREDICTED BY IDOCK:   -3.31 KCAL/MOL
REMARK 923 INTER-LIGAND FREE ENERGY PREDICTED BY IDOCK:   -3.04 KCAL/MOL
REMARK 924 INTRA-LIGAND FREE ENERGY PREDICTED BY IDOCK:   -0.28 KCAL/MOL
REMARK 927      BINDING AFFINITY PREDICTED BY RF-SCORE:    0.00 PKD
ROOT
HETATM    1  C   UNL     1     -10.540   4.494  65.666  1.00  0.00    -0.194 C  
HETATM    2  N   UNL     1      -9.759   4.868  66.845  1.00  0.00    -0.163 NA 
HETATM    3  C   UNL     1      -8.583   4.003  66.955  1.00  0.00    -0.105 C  
ENDROOT
BRANCH   2   4
HETATM    4  C   UNL     1      -9.412   6.305  66.803  1.00  0.00    -0.144 C  
BRANCH   4   5
HETATM    5  C   UNL     1     -10.178   7.133  67.852  1.00  0.00    -0.231 C  
BRANCH   5   6
HETATM    6  C   UNL     1      -9.580   7.129  69.244  1.00  0.00    -0.155 C  
HETATM    7  C   UNL     1      -9.275   8.232  69.974  1.00  0.00    -0.151 C  
HETATM    8  C   UNL     1      -9.454   9.558  69.342  1.00  0.00    -0.182 A  
HETATM    9  C   UNL     1     -10.733  10.074  69.087  1.00  0.00    -0.244 A  
HETATM   10  C   UNL     1     -10.881  11.295  68.431  1.00  0.00    -0.248 A  
HETATM   11  C   UNL     1      -9.754  12.019  68.049  1.00  0.00    -0.198 A  
HETATM   12  C   UNL     1      -8.476  11.523  68.316  1.00  0.00    -0.159 A  
HETATM   13  C   UNL     1      -8.316  10.285  68.957  1.00  0.00    -0.148 A  
HETATM   14  C   UNL     1      -6.950   9.740  69.258  1.00  0.00    -0.056 C  
HETATM   15  S   UNL     1      -6.523   9.934  71.011  1.00  0.00     0.102 SA 
HETATM   16  C   UNL     1      -7.630   8.799  71.871  1.00  0.00    -0.003 A  
HETATM   17  C   UNL     1      -7.298   8.655  73.236  1.00  0.00     0.050 A  
HETATM   18  C   UNL     1      -8.026   7.823  74.087  1.00  0.00    -0.251 A  
HETATM   19  C   UNL     1      -9.111   7.119  73.590  1.00  0.00    -0.226 A  
HETATM   20  C   UNL     1      -9.467   7.256  72.247  1.00  0.00    -0.167 A  
HETATM   21  C   UNL     1      -8.740   8.086  71.361  1.00  0.00    -0.163 A  
ENDBRANCH   5   6
ENDBRANCH   4   5
ENDBRANCH   2   4
TORSDOF 3
ENDMDL
MODEL      164
REMARK 921   NORMALIZED FREE ENERGY PREDICTED BY IDOCK:   -2.52 KCAL/MOL
REMARK 922        TOTAL FREE ENERGY PREDICTED BY IDOCK:   -3.23 KCAL/MOL
REMARK 923 INTER-LIGAND FREE ENERGY PREDICTED BY IDOCK:   -3.73 KCAL/MOL
REMARK 924 INTRA-LIGAND FREE ENERGY PREDICTED BY IDOCK:    0.50 KCAL/MOL
REMARK 927      BINDING AFFINITY PREDICTED BY RF-SCORE:    0.00 PKD
ROOT
HETATM    1  C   UNL     1      -5.150  12.467  71.072  1.00  0.00    -0.149 C  
HETATM    2  N   UNL     1      -6.060  12.785  69.972  1.00  0.00    -0.136 NA 
HETATM    3  C   UNL     1      -6.284  14.231  69.916  1.00  0.00    -0.148 C  
ENDROOT
BRANCH   2   4
HETATM    4  C   UNL     1      -5.548  12.234  68.698  1.00  0.00    -0.053 C  
BRANCH   4   5
HETATM    5  C   UNL     1      -6.588  12.294  67.563  1.00  0.00    -0.141 C  
BRANCH   5   6
HETATM    6  C   UNL     1      -7.774  13.201  67.817  1.00  0.00    -0.153 C  
HETATM    7  C   UNL     1      -9.040  12.788  68.081  1.00  0.00    -0.203 C  
HETATM    8  C   UNL     1      -9.323  11.337  68.035  1.00  0.00    -0.166 A  
HETATM    9  C   UNL     1      -8.830  10.470  69.021  1.00  0.00    -0.174 A  
HETATM   10  C   UNL     1      -9.052   9.097  68.926  1.00  0.00    -0.139 A  
HETATM   11  C   UNL     1      -9.789   8.585  67.860  1.00  0.00    -0.208 A  
HETATM   12  C   UNL     1     -10.302   9.442  66.884  1.00  0.00    -0.308 A  
HETATM   13  C   UNL     1     -10.066  10.823  66.960  1.00  0.00    -0.249 A  
HETATM   14  C   UNL     1     -10.615  11.761  65.923  1.00  0.00    -0.271 C  
HETATM   15  S   UNL     1     -12.064  12.663  66.537  1.00  0.00    -0.078 SA 
HETATM   16  C   UNL     1     -11.403  13.769  67.798  1.00  0.00    -0.303 A  
HETATM   17  C   UNL     1     -12.358  14.710  68.244  1.00  0.00     0.041 A  
HETATM   18  C   UNL     1     -12.056  15.660  69.218  1.00  0.00    -0.263 A  
HETATM   19  C   UNL     1     -10.788  15.689  69.776  1.00  0.00    -0.310 A  
HETATM   20  C   UNL     1      -9.831  14.761  69.361  1.00  0.00    -0.072 A  
HETATM   21  C   UNL     1     -10.108  13.792  68.369  1.00  0.00    -0.241 A  
ENDBRANCH   5   6
ENDBRANCH   4   5
ENDBRANCH   2   4
TORSDOF 3
ENDMDL
MODEL      165
REMARK 921   NORMALIZED FREE ENERGY PREDICTED BY IDOCK:   -2.49 KCAL/MOL
REMARK 922        TOTAL FREE ENERGY PREDICTED BY IDOCK:   -3.20 KCAL/MOL
REMARK 923 INTER-LIGAND FREE ENERGY PREDICTED BY IDOCK:   -3.78 KCAL/MOL
REMARK 924 INTRA-LIGAND FREE ENERGY PREDICTED BY IDOCK:    0.58 KCAL/MOL
REMARK 927      BINDING AFFINITY PREDICTED BY RF-SCORE:    0.00 PKD
ROOT
HETATM    1  C   UNL     1      -5.950  13.352  71.405  1.00  0.00     0.285 C  
HETATM    2  N   UNL     1      -6.325  14.699  70.975  1.00  0.00     0.035 NA 
HETATM    3  C   UNL     1      -5.163  15.586  71.055  1.00  0.00    -0.127 C  
ENDROOT
BRANCH   2   4
HETATM    4  C   UNL     1      -6.928  14.664  69.625  1.00  0.00    -0.149 C  
BRANCH   4   5
HETATM    5  C   UNL     1      -8.459  14.825  69.653  1.00  0.00     0.165 C  
BRANCH   5   6
HETATM    6  C   UNL     1      -9.208  14.110  68.548  1.00  0.00    -0.187 C  
HETATM    7  C   UNL     1      -9.175  14.439  67.232  1.00  0.00    -0.214 C  
HETATM    8  C   UNL     1      -8.418  15.648  66.835  1.00  0.00    -0.286 A  
HETATM    9  C   UNL     1      -7.016  15.674  66.883  1.00  0.00     0.081 A  
HETATM   10  C   UNL     1      -6.323  16.842  66.568  1.00  0.00    -0.056 A  
HETATM   11  C   UNL     1      -7.024  17.982  66.180  1.00  0.00    -0.324 A  
HETATM   12  C   UNL     1      -8.419  17.960  66.110  1.00  0.00    -0.147 A  
HETATM   13  C   UNL     1      -9.126  16.795  66.444  1.00  0.00    -0.321 A  
HETATM   14  C   UNL     1     -10.625  16.751  66.369  1.00  0.00    -0.192 C  
HETATM   15  S   UNL     1     -11.195  15.857  64.896  1.00  0.00    -0.256 SA 
HETATM   16  C   UNL     1     -10.737  14.141  65.208  1.00  0.00    -0.364 A  
HETATM   17  C   UNL     1     -11.292  13.255  64.259  1.00  0.00    -0.428 A  
HETATM   18  C   UNL     1     -11.065  11.880  64.314  1.00  0.00    -0.418 A  
HETATM   19  C   UNL     1     -10.269  11.359  65.320  1.00  0.00    -0.320 A  
HETATM   20  C   UNL     1      -9.697  12.216  66.263  1.00  0.00    -0.251 A  
HETATM   21  C   UNL     1      -9.919  13.613  66.235  1.00  0.00    -0.305 A  
ENDBRANCH   5   6
ENDBRANCH   4   5
ENDBRANCH   2   4
TORSDOF 3
ENDMDL
MODEL      166
REMARK 921   NORMALIZED FREE ENERGY PREDICTED BY IDOCK:   -2.47 KCAL/MOL
REMARK 922        TOTAL FREE ENERGY PREDICTED BY IDOCK:   -3.17 KCAL/MOL
REMARK 923 INTER-LIGAND FREE ENERGY PREDICTED BY IDOCK:   -4.02 KCAL/MOL
REMARK 924 INTRA-LIGAND FREE ENERGY PREDICTED BY IDOCK:    0.85 KCAL/MOL
REMARK 927      BINDING AFFINITY PREDICTED BY RF-SCORE:    0.00 PKD
ROOT
HETATM    1  C   UNL     1      -5.644  12.356  70.813  1.00  0.00    -0.150 C  
HETATM    2  N   UNL     1      -6.331  11.970  69.580  1.00  0.00    -0.127 NA 
HETATM    3  C   UNL     1      -6.480  13.137  68.708  1.00  0.00    -0.095 C  
ENDROOT
BRANCH   2   4
HETATM    4  C   UNL     1      -5.625  10.849  68.922  1.00  0.00    -0.040 C  
BRANCH   4   5
HETATM    5  C   UNL     1      -6.150  10.568  67.501  1.00  0.00    -0.052 C  
BRANCH   5   6
HETATM    6  C   UNL     1      -7.429  11.289  67.127  1.00  0.00    -0.130 C  
HETATM    7  C   UNL     1      -8.450  10.760  66.408  1.00  0.00    -0.158 C  
HETATM    8  C   UNL     1      -8.283   9.395  65.859  1.00  0.00    -0.115 A  
HETATM    9  C   UNL     1      -8.285   8.271  66.698  1.00  0.00    -0.106 A  
HETATM   10  C   UNL     1      -8.061   7.000  66.171  1.00  0.00    -0.119 A  
HETATM   11  C   UNL     1      -7.859   6.841  64.802  1.00  0.00    -0.119 A  
HETATM   12  C   UNL     1      -7.876   7.953  63.956  1.00  0.00    -0.138 A  
HETATM   13  C   UNL     1      -8.080   9.238  64.479  1.00  0.00    -0.139 A  
HETATM   14  C   UNL     1      -8.106  10.444  63.584  1.00  0.00    -0.109 C  
HETATM   15  S   UNL     1      -9.801  11.029  63.302  1.00  0.00    -0.380 SA 
HETATM   16  C   UNL     1     -10.323  11.679  64.900  1.00  0.00    -0.283 A  
HETATM   17  C   UNL     1     -11.549  12.377  64.823  1.00  0.00    -0.395 A  
HETATM   18  C   UNL     1     -12.135  12.961  65.945  1.00  0.00    -0.503 A  
HETATM   19  C   UNL     1     -11.509  12.856  67.177  1.00  0.00    -0.388 A  
HETATM   20  C   UNL     1     -10.304  12.159  67.281  1.00  0.00    -0.230 A  
HETATM   21  C   UNL     1      -9.683  11.564  66.157  1.00  0.00    -0.249 A  
ENDBRANCH   5   6
ENDBRANCH   4   5
ENDBRANCH   2   4
TORSDOF 3
ENDMDL
MODEL      167
REMARK 921   NORMALIZED FREE ENERGY PREDICTED BY IDOCK:   -2.45 KCAL/MOL
REMARK 922        TOTAL FREE ENERGY PREDICTED BY IDOCK:   -3.15 KCAL/MOL
REMARK 923 INTER-LIGAND FREE ENERGY PREDICTED BY IDOCK:   -2.55 KCAL/MOL
REMARK 924 INTRA-LIGAND FREE ENERGY PREDICTED BY IDOCK:   -0.60 KCAL/MOL
REMARK 927      BINDING AFFINITY PREDICTED BY RF-SCORE:    0.00 PKD
ROOT
HETATM    1  C   UNL     1      -6.157   4.574  63.756  1.00  0.00    -0.018 C  
HETATM    2  N   UNL     1      -6.197   4.607  65.218  1.00  0.00    -0.033 NA 
HETATM    3  C   UNL     1      -5.557   3.406  65.759  1.00  0.00    -0.018 C  
ENDROOT
BRANCH   2   4
HETATM    4  C   UNL     1      -5.592   5.857  65.726  1.00  0.00    -0.016 C  
BRANCH   4   5
HETATM    5  C   UNL     1      -5.504   5.894  67.263  1.00  0.00    -0.005 C  
BRANCH   5   6
HETATM    6  C   UNL     1      -6.528   6.773  67.952  1.00  0.00    -0.050 C  
HETATM    7  C   UNL     1      -7.713   6.352  68.460  1.00  0.00    -0.104 C  
HETATM    8  C   UNL     1      -8.095   4.937  68.259  1.00  0.00    -0.085 A  
HETATM    9  C   UNL     1      -7.433   3.903  68.937  1.00  0.00    -0.054 A  
HETATM   10  C   UNL     1      -7.762   2.572  68.686  1.00  0.00    -0.051 A  
HETATM   11  C   UNL     1      -8.772   2.267  67.776  1.00  0.00    -0.139 A  
HETATM   12  C   UNL     1      -9.452   3.290  67.111  1.00  0.00    -0.178 A  
HETATM   13  C   UNL     1      -9.114   4.632  67.342  1.00  0.00    -0.135 A  
HETATM   14  C   UNL     1      -9.838   5.745  66.641  1.00  0.00    -0.165 C  
HETATM   15  S   UNL     1     -11.027   6.565  67.740  1.00  0.00    -0.281 SA 
HETATM   16  C   UNL     1     -10.002   7.424  68.949  1.00  0.00    -0.169 A  
HETATM   17  C   UNL     1     -10.752   8.298  69.767  1.00  0.00    -0.221 A  
HETATM   18  C   UNL     1     -10.156   9.062  70.770  1.00  0.00    -0.303 A  
HETATM   19  C   UNL     1      -8.791   8.964  70.982  1.00  0.00    -0.285 A  
HETATM   20  C   UNL     1      -8.030   8.097  70.196  1.00  0.00    -0.107 A  
HETATM   21  C   UNL     1      -8.608   7.318  69.167  1.00  0.00    -0.133 A  
ENDBRANCH   5   6
ENDBRANCH   4   5
ENDBRANCH   2   4
TORSDOF 3
ENDMDL
MODEL      168
REMARK 921   NORMALIZED FREE ENERGY PREDICTED BY IDOCK:   -2.35 KCAL/MOL
REMARK 922        TOTAL FREE ENERGY PREDICTED BY IDOCK:   -3.03 KCAL/MOL
REMARK 923 INTER-LIGAND FREE ENERGY PREDICTED BY IDOCK:   -2.72 KCAL/MOL
REMARK 924 INTRA-LIGAND FREE ENERGY PREDICTED BY IDOCK:   -0.31 KCAL/MOL
REMARK 927      BINDING AFFINITY PREDICTED BY RF-SCORE:    0.00 PKD
ROOT
HETATM    1  C   UNL     1     -12.521  13.004  70.649  1.00  0.00    -0.268 C  
HETATM    2  N   UNL     1     -12.529  11.721  71.352  1.00  0.00    -0.239 NA 
HETATM    3  C   UNL     1     -13.329  11.831  72.575  1.00  0.00     0.543 C  
ENDROOT
BRANCH   2   4
HETATM    4  C   UNL     1     -12.998  10.641  70.456  1.00  0.00    -0.205 C  
BRANCH   4   5
HETATM    5  C   UNL     1     -12.030   9.443  70.414  1.00  0.00    -0.080 C  
BRANCH   5   6
HETATM    6  C   UNL     1     -10.560   9.791  70.530  1.00  0.00    -0.376 C  
HETATM    7  C   UNL     1      -9.529   8.934  70.326  1.00  0.00    -0.212 C  
HETATM    8  C   UNL     1      -9.846   7.515  70.051  1.00  0.00    -0.180 A  
HETATM    9  C   UNL     1     -10.419   7.122  68.833  1.00  0.00    -0.218 A  
HETATM   10  C   UNL     1     -10.771   5.791  68.617  1.00  0.00    -0.303 A  
HETATM   11  C   UNL     1     -10.530   4.840  69.607  1.00  0.00     0.100 A  
HETATM   12  C   UNL     1      -9.940   5.217  70.816  1.00  0.00    -0.279 A  
HETATM   13  C   UNL     1      -9.601   6.558  71.050  1.00  0.00    -0.185 A  
HETATM   14  C   UNL     1      -8.962   6.981  72.341  1.00  0.00    -0.128 C  
HETATM   15  S   UNL     1      -7.183   7.276  72.141  1.00  0.00    -0.068 SA 
HETATM   16  C   UNL     1      -7.085   8.757  71.117  1.00  0.00    -0.089 A  
HETATM   17  C   UNL     1      -5.770   9.265  71.030  1.00  0.00    -0.055 A  
HETATM   18  C   UNL     1      -5.470  10.406  70.287  1.00  0.00    -0.056 A  
HETATM   19  C   UNL     1      -6.482  11.065  69.606  1.00  0.00    -0.123 A  
HETATM   20  C   UNL     1      -7.787  10.573  69.666  1.00  0.00    -0.097 A  
HETATM   21  C   UNL     1      -8.120   9.423  70.419  1.00  0.00    -0.197 A  
ENDBRANCH   5   6
ENDBRANCH   4   5
ENDBRANCH   2   4
TORSDOF 3
ENDMDL
MODEL      169
REMARK 921   NORMALIZED FREE ENERGY PREDICTED BY IDOCK:   -2.32 KCAL/MOL
REMARK 922        TOTAL FREE ENERGY PREDICTED BY IDOCK:   -3.00 KCAL/MOL
REMARK 923 INTER-LIGAND FREE ENERGY PREDICTED BY IDOCK:   -2.52 KCAL/MOL
REMARK 924 INTRA-LIGAND FREE ENERGY PREDICTED BY IDOCK:   -0.47 KCAL/MOL
REMARK 927      BINDING AFFINITY PREDICTED BY RF-SCORE:    0.00 PKD
ROOT
HETATM    1  C   UNL     1      -9.110  11.523  68.399  1.00  0.00    -0.185 C  
HETATM    2  N   UNL     1     -10.563  11.400  68.273  1.00  0.00    -0.185 NA 
HETATM    3  C   UNL     1     -11.086  12.507  67.470  1.00  0.00    -0.267 C  
ENDROOT
BRANCH   2   4
HETATM    4  C   UNL     1     -10.926  10.074  67.727  1.00  0.00    -0.249 C  
BRANCH   4   5
HETATM    5  C   UNL     1     -10.885   8.961  68.792  1.00  0.00    -0.040 C  
BRANCH   5   6
HETATM    6  C   UNL     1     -10.493   7.589  68.284  1.00  0.00    -0.223 C  
HETATM    7  C   UNL     1      -9.263   7.028  68.400  1.00  0.00    -0.129 C  
HETATM    8  C   UNL     1      -8.178   7.841  68.992  1.00  0.00    -0.126 A  
HETATM    9  C   UNL     1      -8.170   8.153  70.360  1.00  0.00    -0.114 A  
HETATM   10  C   UNL     1      -7.175   8.975  70.888  1.00  0.00    -0.106 A  
HETATM   11  C   UNL     1      -6.170   9.468  70.059  1.00  0.00    -0.051 A  
HETATM   12  C   UNL     1      -6.158   9.146  68.700  1.00  0.00    -0.045 A  
HETATM   13  C   UNL     1      -7.166   8.337  68.155  1.00  0.00    -0.094 A  
HETATM   14  C   UNL     1      -7.166   7.975  66.697  1.00  0.00    -0.081 C  
HETATM   15  S   UNL     1      -6.599   6.272  66.431  1.00  0.00    -0.049 SA 
HETATM   16  C   UNL     1      -7.913   5.248  67.120  1.00  0.00    -0.101 A  
HETATM   17  C   UNL     1      -7.746   3.880  66.813  1.00  0.00    -0.088 A  
HETATM   18  C   UNL     1      -8.651   2.912  67.248  1.00  0.00    -0.117 A  
HETATM   19  C   UNL     1      -9.745   3.291  68.009  1.00  0.00    -0.030 A  
HETATM   20  C   UNL     1      -9.923   4.637  68.338  1.00  0.00    -0.134 A  
HETATM   21  C   UNL     1      -9.026   5.639  67.902  1.00  0.00    -0.108 A  
ENDBRANCH   5   6
ENDBRANCH   4   5
ENDBRANCH   2   4
TORSDOF 3
ENDMDL
MODEL      170
REMARK 921   NORMALIZED FREE ENERGY PREDICTED BY IDOCK:   -2.15 KCAL/MOL
REMARK 922        TOTAL FREE ENERGY PREDICTED BY IDOCK:   -2.80 KCAL/MOL
REMARK 923 INTER-LIGAND FREE ENERGY PREDICTED BY IDOCK:   -2.95 KCAL/MOL
REMARK 924 INTRA-LIGAND FREE ENERGY PREDICTED BY IDOCK:    0.15 KCAL/MOL
REMARK 927      BINDING AFFINITY PREDICTED BY RF-SCORE:    0.00 PKD
ROOT
HETATM    1  C   UNL     1     -11.671  13.822  67.196  1.00  0.00    -0.385 C  
HETATM    2  N   UNL     1     -10.604  14.484  67.947  1.00  0.00    -0.241 NA 
HETATM    3  C   UNL     1     -11.142  15.651  68.649  1.00  0.00    -0.317 C  
ENDROOT
BRANCH   2   4
HETATM    4  C   UNL     1      -9.936  13.526  68.855  1.00  0.00     0.021 C  
BRANCH   4   5
HETATM    5  C   UNL     1     -10.798  12.282  69.144  1.00  0.00    -0.149 C  
BRANCH   5   6
HETATM    6  C   UNL     1     -10.045  11.079  69.673  1.00  0.00     0.134 C  
HETATM    7  C   UNL     1      -9.268  10.248  68.934  1.00  0.00    -0.176 C  
HETATM    8  C   UNL     1      -9.208  10.466  67.472  1.00  0.00    -0.156 A  
HETATM    9  C   UNL     1      -8.542  11.576  66.931  1.00  0.00    -0.163 A  
HETATM   10  C   UNL     1      -8.552  11.800  65.555  1.00  0.00     0.375 A  
HETATM   11  C   UNL     1      -9.204  10.905  64.710  1.00  0.00    -0.227 A  
HETATM   12  C   UNL     1      -9.852   9.785  65.237  1.00  0.00    -0.335 A  
HETATM   13  C   UNL     1      -9.866   9.562  66.622  1.00  0.00    -0.293 A  
HETATM   14  C   UNL     1     -10.552   8.361  67.206  1.00  0.00    -0.257 C  
HETATM   15  S   UNL     1      -9.360   7.084  67.699  1.00  0.00    -0.122 SA 
HETATM   16  C   UNL     1      -8.491   7.799  69.107  1.00  0.00    -0.138 A  
HETATM   17  C   UNL     1      -7.664   6.861  69.763  1.00  0.00    -0.113 A  
HETATM   18  C   UNL     1      -6.901   7.205  70.878  1.00  0.00    -0.053 A  
HETATM   19  C   UNL     1      -6.944   8.502  71.362  1.00  0.00    -0.079 A  
HETATM   20  C   UNL     1      -7.743   9.452  70.722  1.00  0.00    -0.144 A  
HETATM   21  C   UNL     1      -8.533   9.127  69.594  1.00  0.00    -0.133 A  
ENDBRANCH   5   6
ENDBRANCH   4   5
ENDBRANCH   2   4
TORSDOF 3
ENDMDL
MODEL      171
REMARK 921   NORMALIZED FREE ENERGY PREDICTED BY IDOCK:   -1.89 KCAL/MOL
REMARK 922        TOTAL FREE ENERGY PREDICTED BY IDOCK:   -2.49 KCAL/MOL
REMARK 923 INTER-LIGAND FREE ENERGY PREDICTED BY IDOCK:   -2.28 KCAL/MOL
REMARK 924 INTRA-LIGAND FREE ENERGY PREDICTED BY IDOCK:   -0.21 KCAL/MOL
REMARK 927      BINDING AFFINITY PREDICTED BY RF-SCORE:    0.00 PKD
ROOT
HETATM    1  C   UNL     1      -9.240   7.046  72.048  1.00  0.00    -0.138 C  
HETATM    2  N   UNL     1      -9.985   7.687  70.964  1.00  0.00    -0.182 NA 
HETATM    3  C   UNL     1     -10.510   8.977  71.418  1.00  0.00    -0.324 C  
ENDROOT
BRANCH   2   4
HETATM    4  C   UNL     1      -9.142   7.805  69.754  1.00  0.00    -0.147 C  
BRANCH   4   5
HETATM    5  C   UNL     1      -8.523   6.460  69.328  1.00  0.00    -0.126 C  
BRANCH   5   6
HETATM    6  C   UNL     1      -8.909   5.975  67.946  1.00  0.00    -0.110 C  
HETATM    7  C   UNL     1      -8.694   4.727  67.460  1.00  0.00    -0.104 C  
HETATM    8  C   UNL     1      -7.944   3.770  68.303  1.00  0.00    -0.071 A  
HETATM    9  C   UNL     1      -8.513   3.225  69.464  1.00  0.00    -0.098 A  
HETATM   10  C   UNL     1      -7.768   2.376  70.280  1.00  0.00    -0.044 A  
HETATM   11  C   UNL     1      -6.460   2.046  69.930  1.00  0.00    -0.028 A  
HETATM   12  C   UNL     1      -5.892   2.568  68.765  1.00  0.00    -0.023 A  
HETATM   13  C   UNL     1      -6.627   3.439  67.947  1.00  0.00    -0.038 A  
HETATM   14  C   UNL     1      -6.034   4.005  66.688  1.00  0.00    -0.024 C  
HETATM   15  S   UNL     1      -6.679   3.168  65.212  1.00  0.00    -0.041 SA 
HETATM   16  C   UNL     1      -8.407   3.673  65.129  1.00  0.00    -0.097 A  
HETATM   17  C   UNL     1      -9.023   3.288  63.917  1.00  0.00    -0.093 A  
HETATM   18  C   UNL     1     -10.359   3.578  63.645  1.00  0.00    -0.237 A  
HETATM   19  C   UNL     1     -11.116   4.259  64.585  1.00  0.00     0.078 A  
HETATM   20  C   UNL     1     -10.533   4.638  65.797  1.00  0.00    -0.290 A  
HETATM   21  C   UNL     1      -9.178   4.363  66.094  1.00  0.00    -0.141 A  
ENDBRANCH   5   6
ENDBRANCH   4   5
ENDBRANCH   2   4
TORSDOF 3
ENDMDL
MODEL      172
REMARK 921   NORMALIZED FREE ENERGY PREDICTED BY IDOCK:   -1.64 KCAL/MOL
REMARK 922        TOTAL FREE ENERGY PREDICTED BY IDOCK:   -2.20 KCAL/MOL
REMARK 923 INTER-LIGAND FREE ENERGY PREDICTED BY IDOCK:   -1.97 KCAL/MOL
REMARK 924 INTRA-LIGAND FREE ENERGY PREDICTED BY IDOCK:   -0.22 KCAL/MOL
REMARK 927      BINDING AFFINITY PREDICTED BY RF-SCORE:    0.00 PKD
ROOT
HETATM    1  C   UNL     1      -8.093   8.187  72.673  1.00  0.00    -0.160 C  
HETATM    2  N   UNL     1      -8.820   8.058  71.410  1.00  0.00    -0.133 NA 
HETATM    3  C   UNL     1      -9.006   9.380  70.808  1.00  0.00    -0.191 C  
ENDROOT
BRANCH   2   4
HETATM    4  C   UNL     1      -8.130   7.109  70.508  1.00  0.00    -0.113 C  
BRANCH   4   5
HETATM    5  C   UNL     1      -8.957   5.839  70.237  1.00  0.00    -0.149 C  
BRANCH   5   6
HETATM    6  C   UNL     1      -8.563   5.059  68.999  1.00  0.00    -0.091 C  
HETATM    7  C   UNL     1      -8.270   3.735  68.962  1.00  0.00    -0.076 C  
HETATM    8  C   UNL     1      -8.243   2.991  70.240  1.00  0.00    -0.067 A  
HETATM    9  C   UNL     1      -9.425   2.714  70.943  1.00  0.00    -0.221 A  
HETATM   10  C   UNL     1      -9.374   2.069  72.178  1.00  0.00    -0.150 A  
HETATM   11  C   UNL     1      -8.147   1.674  72.706  1.00  0.00    -0.052 A  
HETATM   12  C   UNL     1      -6.966   1.927  72.004  1.00  0.00    -0.026 A  
HETATM   13  C   UNL     1      -7.005   2.594  70.770  1.00  0.00    -0.033 A  
HETATM   14  C   UNL     1      -5.746   2.868  69.998  1.00  0.00    -0.018 C  
HETATM   15  S   UNL     1      -5.554   1.724  68.603  1.00  0.00    -0.018 SA 
HETATM   16  C   UNL     1      -6.864   2.192  67.455  1.00  0.00    -0.039 A  
HETATM   17  C   UNL     1      -6.740   1.546  66.205  1.00  0.00    -0.027 A  
HETATM   18  C   UNL     1      -7.649   1.765  65.170  1.00  0.00    -0.066 A  
HETATM   19  C   UNL     1      -8.710   2.635  65.365  1.00  0.00    -0.116 A  
HETATM   20  C   UNL     1      -8.861   3.274  66.597  1.00  0.00    -0.150 A  
HETATM   21  C   UNL     1      -7.949   3.077  67.660  1.00  0.00    -0.075 A  
ENDBRANCH   5   6
ENDBRANCH   4   5
ENDBRANCH   2   4
TORSDOF 3
ENDMDL
MODEL      173
REMARK 921   NORMALIZED FREE ENERGY PREDICTED BY IDOCK:   -1.61 KCAL/MOL
REMARK 922        TOTAL FREE ENERGY PREDICTED BY IDOCK:   -2.16 KCAL/MOL
REMARK 923 INTER-LIGAND FREE ENERGY PREDICTED BY IDOCK:   -2.07 KCAL/MOL
REMARK 924 INTRA-LIGAND FREE ENERGY PREDICTED BY IDOCK:   -0.09 KCAL/MOL
REMARK 927      BINDING AFFINITY PREDICTED BY RF-SCORE:    0.00 PKD
ROOT
HETATM    1  C   UNL     1     -11.773   3.282  72.840  1.00  0.00     0.611 C  
HETATM    2  N   UNL     1     -10.384   2.821  72.813  1.00  0.00    -0.157 NA 
HETATM    3  C   UNL     1     -10.311   1.506  72.172  1.00  0.00    -0.154 C  
ENDROOT
BRANCH   2   4
HETATM    4  C   UNL     1      -9.516   3.826  72.162  1.00  0.00    -0.133 C  
BRANCH   4   5
HETATM    5  C   UNL     1     -10.223   5.180  71.959  1.00  0.00    -0.260 C  
BRANCH   5   6
HETATM    6  C   UNL     1     -10.077   5.788  70.580  1.00  0.00    -0.269 C  
HETATM    7  C   UNL     1      -9.068   6.602  70.179  1.00  0.00    -0.155 C  
HETATM    8  C   UNL     1      -8.063   7.012  71.185  1.00  0.00    -0.105 A  
HETATM    9  C   UNL     1      -7.129   6.096  71.692  1.00  0.00    -0.082 A  
HETATM   10  C   UNL     1      -6.232   6.484  72.686  1.00  0.00    -0.054 A  
HETATM   11  C   UNL     1      -6.245   7.794  73.161  1.00  0.00    -0.064 A  
HETATM   12  C   UNL     1      -7.158   8.718  72.647  1.00  0.00     0.084 A  
HETATM   13  C   UNL     1      -8.078   8.333  71.661  1.00  0.00    -0.167 A  
HETATM   14  C   UNL     1      -9.062   9.314  71.093  1.00  0.00    -0.127 C  
HETATM   15  S   UNL     1      -8.565   9.880  69.443  1.00  0.00    -0.187 SA 
HETATM   16  C   UNL     1      -8.763   8.429  68.392  1.00  0.00    -0.136 A  
HETATM   17  C   UNL     1      -8.624   8.735  67.020  1.00  0.00    -0.119 A  
HETATM   18  C   UNL     1      -8.740   7.757  66.032  1.00  0.00    -0.184 A  
HETATM   19  C   UNL     1      -8.993   6.444  66.396  1.00  0.00    -0.162 A  
HETATM   20  C   UNL     1      -9.120   6.115  67.747  1.00  0.00    -0.117 A  
HETATM   21  C   UNL     1      -9.016   7.088  68.768  1.00  0.00    -0.131 A  
ENDBRANCH   5   6
ENDBRANCH   4   5
ENDBRANCH   2   4
TORSDOF 3
ENDMDL
MODEL      174
REMARK 921   NORMALIZED FREE ENERGY PREDICTED BY IDOCK:   -1.49 KCAL/MOL
REMARK 922        TOTAL FREE ENERGY PREDICTED BY IDOCK:   -2.02 KCAL/MOL
REMARK 923 INTER-LIGAND FREE ENERGY PREDICTED BY IDOCK:   -3.22 KCAL/MOL
REMARK 924 INTRA-LIGAND FREE ENERGY PREDICTED BY IDOCK:    1.20 KCAL/MOL
REMARK 927      BINDING AFFINITY PREDICTED BY RF-SCORE:    0.00 PKD
ROOT
HETATM    1  C   UNL     1     -13.062   7.381  71.086  1.00  0.00    -0.219 C  
HETATM    2  N   UNL     1     -12.227   8.572  70.931  1.00  0.00    -0.169 NA 
HETATM    3  C   UNL     1     -11.382   8.743  72.115  1.00  0.00    -0.341 C  
ENDROOT
BRANCH   2   4
HETATM    4  C   UNL     1     -11.447   8.499  69.676  1.00  0.00     0.348 C  
BRANCH   4   5
HETATM    5  C   UNL     1     -11.284   7.056  69.161  1.00  0.00    -0.079 C  
BRANCH   5   6
HETATM    6  C   UNL     1     -11.195   5.990  70.233  1.00  0.00    -0.392 C  
HETATM    7  C   UNL     1     -10.089   5.264  70.533  1.00  0.00    -0.315 C  
HETATM    8  C   UNL     1      -8.883   5.453  69.696  1.00  0.00    -0.123 A  
HETATM    9  C   UNL     1      -8.131   6.634  69.764  1.00  0.00    -0.126 A  
HETATM   10  C   UNL     1      -7.036   6.821  68.922  1.00  0.00    -0.089 A  
HETATM   11  C   UNL     1      -6.671   5.819  68.025  1.00  0.00    -0.054 A  
HETATM   12  C   UNL     1      -7.402   4.630  67.964  1.00  0.00    -0.066 A  
HETATM   13  C   UNL     1      -8.517   4.441  68.794  1.00  0.00    -0.095 A  
HETATM   14  C   UNL     1      -9.311   3.167  68.746  1.00  0.00    -0.165 C  
HETATM   15  S   UNL     1      -8.932   2.091  70.158  1.00  0.00    -0.094 SA 
HETATM   16  C   UNL     1      -9.615   2.961  71.582  1.00  0.00    -0.152 A  
HETATM   17  C   UNL     1      -9.603   2.170  72.752  1.00  0.00    -0.141 A  
HETATM   18  C   UNL     1     -10.086   2.649  73.969  1.00  0.00    -0.166 A  
HETATM   19  C   UNL     1     -10.589   3.938  74.045  1.00  0.00    -0.290 A  
HETATM   20  C   UNL     1     -10.599   4.744  72.905  1.00  0.00    -0.278 A  
HETATM   21  C   UNL     1     -10.123   4.279  71.656  1.00  0.00    -0.216 A  
ENDBRANCH   5   6
ENDBRANCH   4   5
ENDBRANCH   2   4
TORSDOF 3
ENDMDL
MODEL      175
REMARK 921   NORMALIZED FREE ENERGY PREDICTED BY IDOCK:   -1.11 KCAL/MOL
REMARK 922        TOTAL FREE ENERGY PREDICTED BY IDOCK:   -1.57 KCAL/MOL
REMARK 923 INTER-LIGAND FREE ENERGY PREDICTED BY IDOCK:   -1.30 KCAL/MOL
REMARK 924 INTRA-LIGAND FREE ENERGY PREDICTED BY IDOCK:   -0.27 KCAL/MOL
REMARK 927      BINDING AFFINITY PREDICTED BY RF-SCORE:    0.00 PKD
ROOT
HETATM    1  C   UNL     1     -12.595  12.948  70.011  1.00  0.00     0.116 C  
HETATM    2  N   UNL     1     -12.147  11.562  70.153  1.00  0.00    -0.346 NA 
HETATM    3  C   UNL     1     -13.133  10.798  70.920  1.00  0.00    -0.205 C  
ENDROOT
BRANCH   2   4
HETATM    4  C   UNL     1     -11.867  10.969  68.827  1.00  0.00    -0.282 C  
BRANCH   4   5
HETATM    5  C   UNL     1     -10.392  10.558  68.659  1.00  0.00    -0.201 C  
BRANCH   5   6
HETATM    6  C   UNL     1      -9.798   9.782  69.817  1.00  0.00    -0.262 C  
HETATM    7  C   UNL     1      -8.564   9.218  69.838  1.00  0.00    -0.178 C  
HETATM    8  C   UNL     1      -7.748   9.281  68.605  1.00  0.00    -0.085 A  
HETATM    9  C   UNL     1      -7.193  10.491  68.163  1.00  0.00    -0.087 A  
HETATM   10  C   UNL     1      -6.483  10.544  66.965  1.00  0.00    -0.076 A  
HETATM   11  C   UNL     1      -6.301   9.384  66.214  1.00  0.00    -0.069 A  
HETATM   12  C   UNL     1      -6.832   8.170  66.656  1.00  0.00    -0.068 A  
HETATM   13  C   UNL     1      -7.566   8.111  67.850  1.00  0.00    -0.102 A  
HETATM   14  C   UNL     1      -8.140   6.814  68.344  1.00  0.00    -0.119 C  
HETATM   15  S   UNL     1      -7.161   6.126  69.708  1.00  0.00    -0.074 SA 
HETATM   16  C   UNL     1      -7.444   7.262  71.080  1.00  0.00    -0.079 A  
HETATM   17  C   UNL     1      -6.928   6.771  72.300  1.00  0.00    -0.067 A  
HETATM   18  C   UNL     1      -7.038   7.492  73.489  1.00  0.00    -0.096 A  
HETATM   19  C   UNL     1      -7.665   8.727  73.484  1.00  0.00     0.199 A  
HETATM   20  C   UNL     1      -8.170   9.240  72.287  1.00  0.00     0.925 A  
HETATM   21  C   UNL     1      -8.079   8.526  71.069  1.00  0.00    -0.149 A  
ENDBRANCH   5   6
ENDBRANCH   4   5
ENDBRANCH   2   4
TORSDOF 3
ENDMDL
MODEL      176
REMARK 921   NORMALIZED FREE ENERGY PREDICTED BY IDOCK:   -1.10 KCAL/MOL
REMARK 922        TOTAL FREE ENERGY PREDICTED BY IDOCK:   -1.56 KCAL/MOL
REMARK 923 INTER-LIGAND FREE ENERGY PREDICTED BY IDOCK:   -1.35 KCAL/MOL
REMARK 924 INTRA-LIGAND FREE ENERGY PREDICTED BY IDOCK:   -0.21 KCAL/MOL
REMARK 927      BINDING AFFINITY PREDICTED BY RF-SCORE:    0.00 PKD
ROOT
HETATM    1  C   UNL     1      -9.255   7.048  72.050  1.00  0.00    -0.138 C  
HETATM    2  N   UNL     1     -10.093   7.734  71.066  1.00  0.00    -0.186 NA 
HETATM    3  C   UNL     1     -10.521   9.030  71.597  1.00  0.00    -0.355 C  
ENDROOT
BRANCH   2   4
HETATM    4  C   UNL     1      -9.386   7.850  69.772  1.00  0.00    -0.153 C  
BRANCH   4   5
HETATM    5  C   UNL     1      -8.931   6.485  69.219  1.00  0.00    -0.131 C  
BRANCH   5   6
HETATM    6  C   UNL     1      -8.162   6.537  67.915  1.00  0.00    -0.116 C  
HETATM    7  C   UNL     1      -7.888   5.473  67.119  1.00  0.00    -0.101 C  
HETATM    8  C   UNL     1      -8.291   4.129  67.590  1.00  0.00    -0.098 A  
HETATM    9  C   UNL     1      -9.641   3.751  67.638  1.00  0.00    -0.199 A  
HETATM   10  C   UNL     1     -10.005   2.505  68.145  1.00  0.00     0.732 A  
HETATM   11  C   UNL     1      -9.023   1.619  68.583  1.00  0.00    -0.152 A  
HETATM   12  C   UNL     1      -7.674   1.978  68.520  1.00  0.00    -0.053 A  
HETATM   13  C   UNL     1      -7.299   3.238  68.030  1.00  0.00    -0.054 A  
HETATM   14  C   UNL     1      -5.854   3.638  67.949  1.00  0.00    -0.026 C  
HETATM   15  S   UNL     1      -5.229   3.546  66.248  1.00  0.00    -0.009 SA 
HETATM   16  C   UNL     1      -6.084   4.876  65.382  1.00  0.00    -0.033 A  
HETATM   17  C   UNL     1      -5.566   5.097  64.087  1.00  0.00    -0.017 A  
HETATM   18  C   UNL     1      -6.082   6.080  63.245  1.00  0.00    -0.022 A  
HETATM   19  C   UNL     1      -7.138   6.866  63.678  1.00  0.00    -0.061 A  
HETATM   20  C   UNL     1      -7.677   6.657  64.949  1.00  0.00    -0.109 A  
HETATM   21  C   UNL     1      -7.166   5.672  65.827  1.00  0.00    -0.072 A  
ENDBRANCH   5   6
ENDBRANCH   4   5
ENDBRANCH   2   4
TORSDOF 3
ENDMDL
MODEL      177
REMARK 921   NORMALIZED FREE ENERGY PREDICTED BY IDOCK:    0.48 KCAL/MOL
REMARK 922        TOTAL FREE ENERGY PREDICTED BY IDOCK:    0.30 KCAL/MOL
REMARK 923 INTER-LIGAND FREE ENERGY PREDICTED BY IDOCK:   -0.04 KCAL/MOL
REMARK 924 INTRA-LIGAND FREE ENERGY PREDICTED BY IDOCK:    0.34 KCAL/MOL
REMARK 927      BINDING AFFINITY PREDICTED BY RF-SCORE:    0.00 PKD
ROOT
HETATM    1  C   UNL     1      -5.173  12.449  71.094  1.00  0.00    -0.139 C  
HETATM    2  N   UNL     1      -6.322  12.612  70.203  1.00  0.00    -0.022 NA 
HETATM    3  C   UNL     1      -6.676  14.030  70.105  1.00  0.00     0.087 C  
ENDROOT
BRANCH   2   4
HETATM    4  C   UNL     1      -6.048  11.998  68.885  1.00  0.00    -0.067 C  
BRANCH   4   5
HETATM    5  C   UNL     1      -7.332  11.718  68.082  1.00  0.00    -0.094 C  
BRANCH   5   6
HETATM    6  C   UNL     1      -8.586  12.386  68.608  1.00  0.00     0.032 C  
HETATM    7  C   UNL     1      -9.701  12.651  67.883  1.00  0.00    -0.216 C  
HETATM    8  C   UNL     1      -9.680  12.348  66.434  1.00  0.00    -0.246 A  
HETATM    9  C   UNL     1      -9.686  11.024  65.970  1.00  0.00    -0.265 A  
HETATM   10  C   UNL     1      -9.599  10.758  64.604  1.00  0.00    -0.320 A  
HETATM   11  C   UNL     1      -9.531  11.810  63.694  1.00  0.00    -0.106 A  
HETATM   12  C   UNL     1      -9.545  13.132  64.146  1.00  0.00     0.873 A  
HETATM   13  C   UNL     1      -9.611  13.411  65.519  1.00  0.00     0.036 A  
HETATM   14  C   UNL     1      -9.633  14.825  66.023  1.00  0.00    -0.301 C  
HETATM   15  S   UNL     1     -11.301  15.327  66.533  1.00  0.00    -0.085 SA 
HETATM   16  C   UNL     1     -11.632  14.349  68.010  1.00  0.00    -0.327 A  
HETATM   17  C   UNL     1     -12.808  14.760  68.676  1.00  0.00     1.022 A  
HETATM   18  C   UNL     1     -13.250  14.137  69.842  1.00  0.00     0.756 A  
HETATM   19  C   UNL     1     -12.526  13.080  70.369  1.00  0.00    -0.266 A  
HETATM   20  C   UNL     1     -11.368  12.645  69.721  1.00  0.00    -0.108 A  
HETATM   21  C   UNL     1     -10.893  13.265  68.542  1.00  0.00    -0.286 A  
ENDBRANCH   5   6
ENDBRANCH   4   5
ENDBRANCH   2   4
TORSDOF 3
ENDMDL
MODEL      178
REMARK 921   NORMALIZED FREE ENERGY PREDICTED BY IDOCK:    1.00 KCAL/MOL
REMARK 922        TOTAL FREE ENERGY PREDICTED BY IDOCK:    0.91 KCAL/MOL
REMARK 923 INTER-LIGAND FREE ENERGY PREDICTED BY IDOCK:    0.21 KCAL/MOL
REMARK 924 INTRA-LIGAND FREE ENERGY PREDICTED BY IDOCK:    0.69 KCAL/MOL
REMARK 927      BINDING AFFINITY PREDICTED BY RF-SCORE:    0.00 PKD
ROOT
HETATM    1  C   UNL     1      -6.144  10.653  66.230  1.00  0.00    -0.111 C  
HETATM    2  N   UNL     1      -6.380   9.210  66.249  1.00  0.00    -0.064 NA 
HETATM    3  C   UNL     1      -7.549   8.909  67.079  1.00  0.00    -0.094 C  
ENDROOT
BRANCH   2   4
HETATM    4  C   UNL     1      -6.505   8.686  64.871  1.00  0.00    -0.065 C  
BRANCH   4   5
HETATM    5  C   UNL     1      -7.194   7.309  64.819  1.00  0.00    -0.072 C  
BRANCH   5   6
HETATM    6  C   UNL     1      -6.639   6.269  65.770  1.00  0.00    -0.047 C  
HETATM    7  C   UNL     1      -7.378   5.450  66.561  1.00  0.00    -0.086 C  
HETATM    8  C   UNL     1      -8.846   5.632  66.574  1.00  0.00    -0.123 A  
HETATM    9  C   UNL     1      -9.631   5.278  65.467  1.00  0.00    -0.015 A  
HETATM   10  C   UNL     1     -11.004   5.518  65.472  1.00  0.00     0.925 A  
HETATM   11  C   UNL     1     -11.605   6.088  66.593  1.00  0.00     0.861 A  
HETATM   12  C   UNL     1     -10.835   6.425  67.708  1.00  0.00    -0.418 A  
HETATM   13  C   UNL     1      -9.449   6.207  67.704  1.00  0.00    -0.111 A  
HETATM   14  C   UNL     1      -8.607   6.557  68.897  1.00  0.00    -0.125 C  
HETATM   15  S   UNL     1      -8.150   5.082  69.849  1.00  0.00    -0.074 SA 
HETATM   16  C   UNL     1      -7.010   4.189  68.775  1.00  0.00    -0.047 A  
HETATM   17  C   UNL     1      -6.378   3.113  69.436  1.00  0.00    -0.029 A  
HETATM   18  C   UNL     1      -5.458   2.289  68.788  1.00  0.00    -0.014 A  
HETATM   19  C   UNL     1      -5.150   2.521  67.457  1.00  0.00    -0.008 A  
HETATM   20  C   UNL     1      -5.772   3.571  66.778  1.00  0.00    -0.022 A  
HETATM   21  C   UNL     1      -6.703   4.426  67.414  1.00  0.00    -0.047 A  
ENDBRANCH   5   6
ENDBRANCH   4   5
ENDBRANCH   2   4
TORSDOF 3
ENDMDL
MODEL      179
REMARK 921   NORMALIZED FREE ENERGY PREDICTED BY IDOCK:    1.33 KCAL/MOL
REMARK 922        TOTAL FREE ENERGY PREDICTED BY IDOCK:    1.29 KCAL/MOL
REMARK 923 INTER-LIGAND FREE ENERGY PREDICTED BY IDOCK:    1.20 KCAL/MOL
REMARK 924 INTRA-LIGAND FREE ENERGY PREDICTED BY IDOCK:    0.10 KCAL/MOL
REMARK 927      BINDING AFFINITY PREDICTED BY RF-SCORE:    0.00 PKD
ROOT
HETATM    1  C   UNL     1      -6.575  10.240  66.289  1.00  0.00    -0.100 C  
HETATM    2  N   UNL     1      -7.139  11.374  67.022  1.00  0.00    -0.130 NA 
HETATM    3  C   UNL     1      -7.944  10.887  68.146  1.00  0.00    -0.117 C  
ENDROOT
BRANCH   2   4
HETATM    4  C   UNL     1      -6.069  12.304  67.444  1.00  0.00    -0.153 C  
BRANCH   4   5
HETATM    5  C   UNL     1      -6.525  13.775  67.441  1.00  0.00     0.063 C  
BRANCH   5   6
HETATM    6  C   UNL     1      -7.974  14.007  67.814  1.00  0.00    -0.175 C  
HETATM    7  C   UNL     1      -8.644  15.180  67.684  1.00  0.00    -0.180 C  
HETATM    8  C   UNL     1      -7.889  16.366  67.224  1.00  0.00    -0.195 A  
HETATM    9  C   UNL     1      -7.440  16.471  65.899  1.00  0.00     0.653 A  
HETATM   10  C   UNL     1      -6.674  17.565  65.501  1.00  0.00     0.303 A  
HETATM   11  C   UNL     1      -6.374  18.573  66.415  1.00  0.00    -0.223 A  
HETATM   12  C   UNL     1      -6.834  18.488  67.731  1.00  0.00    -0.217 A  
HETATM   13  C   UNL     1      -7.588  17.380  68.147  1.00  0.00    -0.214 A  
HETATM   14  C   UNL     1      -8.096  17.275  69.557  1.00  0.00     0.552 C  
HETATM   15  S   UNL     1      -9.867  17.660  69.659  1.00  0.00     0.544 SA 
HETATM   16  C   UNL     1     -10.675  16.287  68.815  1.00  0.00    -0.309 A  
HETATM   17  C   UNL     1     -12.077  16.304  68.980  1.00  0.00     0.230 A  
HETATM   18  C   UNL     1     -12.897  15.331  68.409  1.00  0.00     1.449 A  
HETATM   19  C   UNL     1     -12.332  14.318  67.652  1.00  0.00    -0.061 A  
HETATM   20  C   UNL     1     -10.949  14.288  67.464  1.00  0.00    -0.297 A  
HETATM   21  C   UNL     1     -10.093  15.257  68.039  1.00  0.00    -0.229 A  
ENDBRANCH   5   6
ENDBRANCH   4   5
ENDBRANCH   2   4
TORSDOF 3
ENDMDL
MODEL      180
REMARK 921   NORMALIZED FREE ENERGY PREDICTED BY IDOCK:    3.51 KCAL/MOL
REMARK 922        TOTAL FREE ENERGY PREDICTED BY IDOCK:    3.85 KCAL/MOL
REMARK 923 INTER-LIGAND FREE ENERGY PREDICTED BY IDOCK:    3.28 KCAL/MOL
REMARK 924 INTRA-LIGAND FREE ENERGY PREDICTED BY IDOCK:    0.58 KCAL/MOL
REMARK 927      BINDING AFFINITY PREDICTED BY RF-SCORE:    0.00 PKD
ROOT
HETATM    1  C   UNL     1     -10.908  12.088  63.561  1.00  0.00    -0.444 C  
HETATM    2  N   UNL     1     -11.280  11.569  64.878  1.00  0.00    -0.224 NA 
HETATM    3  C   UNL     1     -11.319  10.106  64.841  1.00  0.00     2.687 C  
ENDROOT
BRANCH   2   4
HETATM    4  C   UNL     1     -10.367  12.092  65.918  1.00  0.00    -0.244 C  
BRANCH   4   5
HETATM    5  C   UNL     1      -8.882  11.952  65.530  1.00  0.00     0.268 C  
BRANCH   5   6
HETATM    6  C   UNL     1      -8.390  10.532  65.345  1.00  0.00    -0.165 C  
HETATM    7  C   UNL     1      -8.000   9.696  66.340  1.00  0.00    -0.108 C  
HETATM    8  C   UNL     1      -7.962  10.227  67.721  1.00  0.00    -0.102 A  
HETATM    9  C   UNL     1      -9.143  10.516  68.420  1.00  0.00    -0.148 A  
HETATM   10  C   UNL     1      -9.087  11.077  69.695  1.00  0.00     0.531 A  
HETATM   11  C   UNL     1      -7.852  11.329  70.289  1.00  0.00     1.930 A  
HETATM   12  C   UNL     1      -6.670  11.026  69.609  1.00  0.00    -0.137 A  
HETATM   13  C   UNL     1      -6.716  10.480  68.317  1.00  0.00    -0.060 A  
HETATM   14  C   UNL     1      -5.455  10.143  67.573  1.00  0.00    -0.041 C  
HETATM   15  S   UNL     1      -5.134   8.357  67.579  1.00  0.00    -0.034 SA 
HETATM   16  C   UNL     1      -6.435   7.662  66.542  1.00  0.00    -0.049 A  
HETATM   17  C   UNL     1      -6.222   6.296  66.254  1.00  0.00    -0.037 A  
HETATM   18  C   UNL     1      -7.110   5.563  65.467  1.00  0.00    -0.066 A  
HETATM   19  C   UNL     1      -8.237   6.181  64.952  1.00  0.00    -0.125 A  
HETATM   20  C   UNL     1      -8.476   7.527  65.234  1.00  0.00    -0.075 A  
HETATM   21  C   UNL     1      -7.588   8.296  66.022  1.00  0.00    -0.078 A  
ENDBRANCH   5   6
ENDBRANCH   4   5
ENDBRANCH   2   4
TORSDOF 3
ENDMDL
MODEL      181
REMARK 921   NORMALIZED FREE ENERGY PREDICTED BY IDOCK:    4.28 KCAL/MOL
REMARK 922        TOTAL FREE ENERGY PREDICTED BY IDOCK:    4.76 KCAL/MOL
REMARK 923 INTER-LIGAND FREE ENERGY PREDICTED BY IDOCK:    1.70 KCAL/MOL
REMARK 924 INTRA-LIGAND FREE ENERGY PREDICTED BY IDOCK:    3.06 KCAL/MOL
REMARK 927      BINDING AFFINITY PREDICTED BY RF-SCORE:    0.00 PKD
ROOT
HETATM    1  C   UNL     1      -6.516  12.147  71.892  1.00  0.00     3.918 C  
HETATM    2  N   UNL     1      -6.280  12.909  70.665  1.00  0.00    -0.067 NA 
HETATM    3  C   UNL     1      -5.132  13.800  70.848  1.00  0.00    -0.119 C  
ENDROOT
BRANCH   2   4
HETATM    4  C   UNL     1      -6.120  11.998  69.511  1.00  0.00    -0.113 C  
BRANCH   4   5
HETATM    5  C   UNL     1      -5.722  10.570  69.932  1.00  0.00    -0.053 C  
BRANCH   5   6
HETATM    6  C   UNL     1      -6.557   9.459  69.330  1.00  0.00    -0.048 C  
HETATM    7  C   UNL     1      -7.522   9.619  68.389  1.00  0.00    -0.080 C  
HETATM    8  C   UNL     1      -7.861  10.996  67.966  1.00  0.00    -0.112 A  
HETATM    9  C   UNL     1      -6.973  11.757  67.192  1.00  0.00    -0.145 A  
HETATM   10  C   UNL     1      -7.282  13.074  66.858  1.00  0.00     0.424 A  
HETATM   11  C   UNL     1      -8.489  13.632  67.274  1.00  0.00    -0.203 A  
HETATM   12  C   UNL     1      -9.390  12.875  68.028  1.00  0.00    -0.213 A  
HETATM   13  C   UNL     1      -9.079  11.555  68.387  1.00  0.00    -0.185 A  
HETATM   14  C   UNL     1     -10.037  10.725  69.192  1.00  0.00    -0.205 C  
HETATM   15  S   UNL     1     -10.910   9.518  68.156  1.00  0.00    -0.097 SA 
HETATM   16  C   UNL     1      -9.636   8.338  67.670  1.00  0.00    -0.152 A  
HETATM   17  C   UNL     1     -10.172   7.200  67.029  1.00  0.00    -0.339 A  
HETATM   18  C   UNL     1      -9.361   6.162  66.571  1.00  0.00    -0.171 A  
HETATM   19  C   UNL     1      -7.989   6.242  66.739  1.00  0.00    -0.108 A  
HETATM   20  C   UNL     1      -7.433   7.365  67.357  1.00  0.00    -0.104 A  
HETATM   21  C   UNL     1      -8.234   8.427  67.838  1.00  0.00    -0.127 A  
ENDBRANCH   5   6
ENDBRANCH   4   5
ENDBRANCH   2   4
TORSDOF 3
ENDMDL
MODEL      182
REMARK 921   NORMALIZED FREE ENERGY PREDICTED BY IDOCK:    6.14 KCAL/MOL
REMARK 922        TOTAL FREE ENERGY PREDICTED BY IDOCK:    6.95 KCAL/MOL
REMARK 923 INTER-LIGAND FREE ENERGY PREDICTED BY IDOCK:    7.12 KCAL/MOL
REMARK 924 INTRA-LIGAND FREE ENERGY PREDICTED BY IDOCK:   -0.17 KCAL/MOL
REMARK 927      BINDING AFFINITY PREDICTED BY RF-SCORE:    0.00 PKD
ROOT
HETATM    1  C   UNL     1     -12.965  15.235  64.676  1.00  0.00     0.835 C  
HETATM    2  N   UNL     1     -12.826  16.292  65.679  1.00  0.00     3.293 NA 
HETATM    3  C   UNL     1     -13.089  15.747  67.013  1.00  0.00     3.966 C  
ENDROOT
BRANCH   2   4
HETATM    4  C   UNL     1     -11.498  16.936  65.574  1.00  0.00     0.849 C  
BRANCH   4   5
HETATM    5  C   UNL     1     -10.868  17.225  66.949  1.00  0.00    -0.004 C  
BRANCH   5   6
HETATM    6  C   UNL     1      -9.715  16.323  67.338  1.00  0.00    -0.234 C  
HETATM    7  C   UNL     1      -8.469  16.738  67.680  1.00  0.00    -0.197 C  
HETATM    8  C   UNL     1      -8.167  18.184  67.587  1.00  0.00    -0.243 A  
HETATM    9  C   UNL     1      -8.725  19.101  68.489  1.00  0.00    -0.401 A  
HETATM   10  C   UNL     1      -8.481  20.466  68.347  1.00  0.00     0.232 A  
HETATM   11  C   UNL     1      -7.658  20.921  67.318  1.00  0.00    -0.312 A  
HETATM   12  C   UNL     1      -7.080  20.013  66.427  1.00  0.00    -0.269 A  
HETATM   13  C   UNL     1      -7.337  18.639  66.550  1.00  0.00    -0.263 A  
HETATM   14  C   UNL     1      -6.720  17.648  65.605  1.00  0.00     0.008 C  
HETATM   15  S   UNL     1      -5.333  16.766  66.373  1.00  0.00     0.470 SA 
HETATM   16  C   UNL     1      -6.102  15.727  67.630  1.00  0.00    -0.154 A  
HETATM   17  C   UNL     1      -5.196  14.802  68.193  1.00  0.00    -0.119 A  
HETATM   18  C   UNL     1      -5.583  13.902  69.185  1.00  0.00    -0.078 A  
HETATM   19  C   UNL     1      -6.891  13.910  69.643  1.00  0.00     0.011 A  
HETATM   20  C   UNL     1      -7.802  14.825  69.111  1.00  0.00    -0.141 A  
HETATM   21  C   UNL     1      -7.438  15.742  68.098  1.00  0.00    -0.129 A  
ENDBRANCH   5   6
ENDBRANCH   4   5
ENDBRANCH   2   4
TORSDOF 3
ENDMDL
MODEL      183
REMARK 921   NORMALIZED FREE ENERGY PREDICTED BY IDOCK:    6.91 KCAL/MOL
REMARK 922        TOTAL FREE ENERGY PREDICTED BY IDOCK:    7.85 KCAL/MOL
REMARK 923 INTER-LIGAND FREE ENERGY PREDICTED BY IDOCK:    8.09 KCAL/MOL
REMARK 924 INTRA-LIGAND FREE ENERGY PREDICTED BY IDOCK:   -0.24 KCAL/MOL
REMARK 927      BINDING AFFINITY PREDICTED BY RF-SCORE:    0.00 PKD
ROOT
HETATM    1  C   UNL     1     -11.871  18.359  65.254  1.00  0.00     4.085 C  
HETATM    2  N   UNL     1     -10.988  17.292  65.726  1.00  0.00    -0.017 NA 
HETATM    3  C   UNL     1     -11.403  16.012  65.148  1.00  0.00    -0.074 C  
ENDROOT
BRANCH   2   4
HETATM    4  C   UNL     1      -9.575  17.621  65.436  1.00  0.00     0.959 C  
BRANCH   4   5
HETATM    5  C   UNL     1      -8.600  17.005  66.457  1.00  0.00    -0.305 C  
BRANCH   5   6
HETATM    6  C   UNL     1      -8.298  15.534  66.261  1.00  0.00    -0.009 C  
HETATM    7  C   UNL     1      -8.538  14.552  67.166  1.00  0.00    -0.242 C  
HETATM    8  C   UNL     1      -9.056  14.942  68.496  1.00  0.00    -0.191 A  
HETATM    9  C   UNL     1     -10.368  15.414  68.654  1.00  0.00    -0.234 A  
HETATM   10  C   UNL     1     -10.818  15.839  69.903  1.00  0.00    -0.330 A  
HETATM   11  C   UNL     1      -9.970  15.770  71.006  1.00  0.00     1.363 A  
HETATM   12  C   UNL     1      -8.669  15.282  70.863  1.00  0.00     2.391 A  
HETATM   13  C   UNL     1      -8.200  14.872  69.606  1.00  0.00     0.039 A  
HETATM   14  C   UNL     1      -6.806  14.340  69.435  1.00  0.00    -0.122 C  
HETATM   15  S   UNL     1      -6.797  12.532  69.272  1.00  0.00     0.041 SA 
HETATM   16  C   UNL     1      -7.566  12.222  67.671  1.00  0.00    -0.144 A  
HETATM   17  C   UNL     1      -7.455  10.872  67.273  1.00  0.00    -0.104 A  
HETATM   18  C   UNL     1      -7.982  10.414  66.066  1.00  0.00    -0.144 A  
HETATM   19  C   UNL     1      -8.641  11.300  65.228  1.00  0.00     0.115 A  
HETATM   20  C   UNL     1      -8.776  12.637  65.607  1.00  0.00     0.890 A  
HETATM   21  C   UNL     1      -8.243  13.129  66.821  1.00  0.00     0.128 A  
ENDBRANCH   5   6
ENDBRANCH   4   5
ENDBRANCH   2   4
TORSDOF 3
ENDMDL
MODEL      184
REMARK 921   NORMALIZED FREE ENERGY PREDICTED BY IDOCK:    9.66 KCAL/MOL
REMARK 922        TOTAL FREE ENERGY PREDICTED BY IDOCK:   11.09 KCAL/MOL
REMARK 923 INTER-LIGAND FREE ENERGY PREDICTED BY IDOCK:   11.29 KCAL/MOL
REMARK 924 INTRA-LIGAND FREE ENERGY PREDICTED BY IDOCK:   -0.20 KCAL/MOL
REMARK 927      BINDING AFFINITY PREDICTED BY RF-SCORE:    0.00 PKD
ROOT
HETATM    1  C   UNL     1      -7.323  12.215  72.505  1.00  0.00    12.051 C  
HETATM    2  N   UNL     1      -6.396  13.331  72.320  1.00  0.00     1.412 NA 
HETATM    3  C   UNL     1      -5.127  13.039  72.988  1.00  0.00     0.123 C  
ENDROOT
BRANCH   2   4
HETATM    4  C   UNL     1      -6.230  13.634  70.881  1.00  0.00     0.124 C  
BRANCH   4   5
HETATM    5  C   UNL     1      -6.511  12.415  69.981  1.00  0.00     0.083 C  
BRANCH   5   6
HETATM    6  C   UNL     1      -7.693  12.558  69.046  1.00  0.00     0.186 C  
HETATM    7  C   UNL     1      -8.437  11.535  68.554  1.00  0.00    -0.143 C  
HETATM    8  C   UNL     1      -8.022  10.152  68.879  1.00  0.00    -0.110 A  
HETATM    9  C   UNL     1      -8.163   9.638  70.176  1.00  0.00    -0.206 A  
HETATM   10  C   UNL     1      -7.706   8.356  70.478  1.00  0.00    -0.080 A  
HETATM   11  C   UNL     1      -7.129   7.571  69.481  1.00  0.00    -0.069 A  
HETATM   12  C   UNL     1      -7.003   8.067  68.181  1.00  0.00    -0.077 A  
HETATM   13  C   UNL     1      -7.441   9.364  67.872  1.00  0.00    -0.084 A  
HETATM   14  C   UNL     1      -7.319   9.911  66.479  1.00  0.00    -0.099 C  
HETATM   15  S   UNL     1      -8.915   9.900  65.614  1.00  0.00    -0.185 SA 
HETATM   16  C   UNL     1      -9.899  11.143  66.472  1.00  0.00    -0.208 A  
HETATM   17  C   UNL     1     -11.109  11.429  65.801  1.00  0.00    -0.217 A  
HETATM   18  C   UNL     1     -12.021  12.362  66.292  1.00  0.00    -0.369 A  
HETATM   19  C   UNL     1     -11.745  13.031  67.474  1.00  0.00    -0.421 A  
HETATM   20  C   UNL     1     -10.562  12.756  68.163  1.00  0.00    -0.242 A  
HETATM   21  C   UNL     1      -9.616  11.820  67.682  1.00  0.00    -0.184 A  
ENDBRANCH   5   6
ENDBRANCH   4   5
ENDBRANCH   2   4
TORSDOF 3
ENDMDL
MODEL      185
REMARK 921   NORMALIZED FREE ENERGY PREDICTED BY IDOCK:   11.33 KCAL/MOL
REMARK 922        TOTAL FREE ENERGY PREDICTED BY IDOCK:   13.04 KCAL/MOL
REMARK 923 INTER-LIGAND FREE ENERGY PREDICTED BY IDOCK:   13.26 KCAL/MOL
REMARK 924 INTRA-LIGAND FREE ENERGY PREDICTED BY IDOCK:   -0.22 KCAL/MOL
REMARK 927      BINDING AFFINITY PREDICTED BY RF-SCORE:    0.00 PKD
ROOT
HETATM    1  C   UNL     1      -7.969  20.339  68.403  1.00  0.00     0.046 C  
HETATM    2  N   UNL     1      -7.739  19.573  69.628  1.00  0.00     0.017 NA 
HETATM    3  C   UNL     1      -7.445  20.485  70.735  1.00  0.00     1.642 C  
ENDROOT
BRANCH   2   4
HETATM    4  C   UNL     1      -8.887  18.683  69.908  1.00  0.00     1.320 C  
BRANCH   4   5
HETATM    5  C   UNL     1      -8.526  17.191  69.783  1.00  0.00     1.189 C  
BRANCH   5   6
HETATM    6  C   UNL     1      -9.703  16.247  69.650  1.00  0.00    -0.039 C  
HETATM    7  C   UNL     1      -9.686  14.920  69.935  1.00  0.00     0.167 C  
HETATM    8  C   UNL     1      -8.397  14.308  70.327  1.00  0.00     1.756 A  
HETATM    9  C   UNL     1      -7.809  14.587  71.569  1.00  0.00     3.934 A  
HETATM   10  C   UNL     1      -6.563  14.053  71.894  1.00  0.00     1.671 A  
HETATM   11  C   UNL     1      -5.909  13.217  70.991  1.00  0.00    -0.011 A  
HETATM   12  C   UNL     1      -6.496  12.917  69.760  1.00  0.00    -0.003 A  
HETATM   13  C   UNL     1      -7.740  13.466  69.415  1.00  0.00     0.527 A  
HETATM   14  C   UNL     1      -8.389  13.150  68.098  1.00  0.00    -0.161 C  
HETATM   15  S   UNL     1      -9.736  11.949  68.288  1.00  0.00    -0.196 SA 
HETATM   16  C   UNL     1     -11.017  12.849  69.183  1.00  0.00    -0.133 A  
HETATM   17  C   UNL     1     -12.236  12.138  69.238  1.00  0.00    -0.106 A  
HETATM   18  C   UNL     1     -13.359  12.652  69.885  1.00  0.00     1.895 A  
HETATM   19  C   UNL     1     -13.288  13.892  70.498  1.00  0.00     0.204 A  
HETATM   20  C   UNL     1     -12.089  14.608  70.469  1.00  0.00    -0.388 A  
HETATM   21  C   UNL     1     -10.937  14.113  69.813  1.00  0.00    -0.068 A  
ENDBRANCH   5   6
ENDBRANCH   4   5
ENDBRANCH   2   4
TORSDOF 3
ENDMDL
MODEL      186
REMARK 921   NORMALIZED FREE ENERGY PREDICTED BY IDOCK:   18.72 KCAL/MOL
REMARK 922        TOTAL FREE ENERGY PREDICTED BY IDOCK:   21.73 KCAL/MOL
REMARK 923 INTER-LIGAND FREE ENERGY PREDICTED BY IDOCK:   21.99 KCAL/MOL
REMARK 924 INTRA-LIGAND FREE ENERGY PREDICTED BY IDOCK:   -0.25 KCAL/MOL
REMARK 927      BINDING AFFINITY PREDICTED BY RF-SCORE:    0.00 PKD
ROOT
HETATM    1  C   UNL     1     -11.835  16.016  69.927  1.00  0.00    -0.228 C  
HETATM    2  N   UNL     1     -12.278  17.408  69.844  1.00  0.00     3.664 NA 
HETATM    3  C   UNL     1     -13.334  17.652  70.829  1.00  0.00    14.838 C  
ENDROOT
BRANCH   2   4
HETATM    4  C   UNL     1     -11.129  18.328  69.996  1.00  0.00     2.670 C  
BRANCH   4   5
HETATM    5  C   UNL     1      -9.852  17.802  69.313  1.00  0.00    -0.047 C  
BRANCH   5   6
HETATM    6  C   UNL     1      -9.249  18.719  68.270  1.00  0.00    -0.366 C  
HETATM    7  C   UNL     1      -8.482  18.325  67.222  1.00  0.00    -0.250 C  
HETATM    8  C   UNL     1      -8.122  16.893  67.122  1.00  0.00    -0.214 A  
HETATM    9  C   UNL     1      -9.081  15.925  66.790  1.00  0.00    -0.275 A  
HETATM   10  C   UNL     1      -8.738  14.574  66.765  1.00  0.00    -0.214 A  
HETATM   11  C   UNL     1      -7.430  14.184  67.046  1.00  0.00     0.283 A  
HETATM   12  C   UNL     1      -6.463  15.143  67.357  1.00  0.00    -0.050 A  
HETATM   13  C   UNL     1      -6.803  16.503  67.406  1.00  0.00    -0.191 A  
HETATM   14  C   UNL     1      -5.774  17.547  67.733  1.00  0.00    -0.139 C  
HETATM   15  S   UNL     1      -5.228  18.436  66.248  1.00  0.00    -0.156 SA 
HETATM   16  C   UNL     1      -6.667  19.402  65.748  1.00  0.00    -0.258 A  
HETATM   17  C   UNL     1      -6.364  20.327  64.725  1.00  0.00    -0.333 A  
HETATM   18  C   UNL     1      -7.333  21.176  64.190  1.00  0.00     0.842 A  
HETATM   19  C   UNL     1      -8.633  21.114  64.665  1.00  0.00     2.535 A  
HETATM   20  C   UNL     1      -8.960  20.197  65.666  1.00  0.00     0.198 A  
HETATM   21  C   UNL     1      -7.995  19.331  66.231  1.00  0.00    -0.319 A  
ENDBRANCH   5   6
ENDBRANCH   4   5
ENDBRANCH   2   4
TORSDOF 3
ENDMDL
