MODEL        1
REMARK 921   NORMALIZED FREE ENERGY PREDICTED BY IDOCK:   -8.70 KCAL/MOL
REMARK 922        TOTAL FREE ENERGY PREDICTED BY IDOCK:  -11.26 KCAL/MOL
REMARK 923 INTER-LIGAND FREE ENERGY PREDICTED BY IDOCK:  -10.74 KCAL/MOL
REMARK 924 INTRA-LIGAND FREE ENERGY PREDICTED BY IDOCK:   -0.53 KCAL/MOL
REMARK 927      BINDING AFFINITY PREDICTED BY RF-SCORE:    0.00 PKD
ROOT
HETATM    1  C   UNL     1      -7.469   5.558  72.019  1.00  0.00    -0.095 C  
HETATM    2  O   UNL     1      -7.827   6.637  72.880  1.00  0.00    -0.099 OA 
ENDROOT
BRANCH   2   3
HETATM    3  C   UNL     1      -8.994   7.284  72.567  1.00  0.00    -0.127 A  
HETATM    4  C   UNL     1     -10.122   7.116  73.378  1.00  0.00    -0.303 A  
HETATM    5  C   UNL     1     -11.279   7.840  73.070  1.00  0.00    -0.380 A  
HETATM    6  C   UNL     1     -10.225   8.847  71.136  1.00  0.00    -0.266 A  
HETATM    7  C   UNL     1     -11.326   8.730  71.971  1.00  0.00    -0.441 A  
HETATM    8  C   UNL     1      -9.092   8.109  71.429  1.00  0.00    -0.194 A  
HETATM    9  C   UNL     1     -12.396   9.558  71.634  1.00  0.00    -0.398 A  
HETATM   10  N   UNL     1     -13.582   9.561  72.381  1.00  0.00    -0.645 NA 
HETATM   11  N   UNL     1     -12.372  10.396  70.591  1.00  0.00    -0.323 NA 
HETATM   12  H1  UNL     1     -14.365  10.167  72.134  1.00  0.00     0.000 HD 
HETATM   13  C   UNL     1     -11.262  10.442  69.839  1.00  0.00    -0.306 A  
HETATM   14  H2  UNL     1     -13.340   9.743  73.355  1.00  0.00     0.000 HD 
HETATM   15  N   UNL     1     -10.198   9.670  70.082  1.00  0.00    -0.247 NA 
BRANCH   4  16
HETATM   16  O   UNL     1     -10.282   6.336  74.490  1.00  0.00    -0.330 OA 
HETATM   17  C   UNL     1     -10.413   4.932  74.342  1.00  0.00    -0.280 C  
ENDBRANCH   4  16
BRANCH  13  18
HETATM   18  N   UNL     1     -11.162  11.391  68.850  1.00  0.00    -0.224 NA 
HETATM   19  C   UNL     1     -11.279  11.819  66.447  1.00  0.00    -0.323 C  
HETATM   20  C   UNL     1     -10.553  11.049  67.565  1.00  0.00    -0.227 C  
HETATM   21  N   UNL     1     -11.339  13.262  66.727  1.00  0.00    -0.314 N  
HETATM   22  C   UNL     1     -10.934  14.160  65.750  1.00  0.00    -0.301 C  
HETATM   23  C   UNL     1     -11.902  13.593  68.049  1.00  0.00    -0.362 C  
HETATM   24  C   UNL     1     -11.189  12.819  69.181  1.00  0.00    -0.237 C  
HETATM   25  O   UNL     1     -10.509  13.759  64.663  1.00  0.00    -0.416 OA 
BRANCH  22  26
HETATM   26  C   UNL     1     -11.066  15.665  66.027  1.00  0.00    -0.136 C  
HETATM   27  C   UNL     1     -10.710  16.454  64.768  1.00  0.00    -0.076 C  
HETATM   28  O   UNL     1     -10.956  17.856  64.956  1.00  0.00    -0.776 OA 
HETATM   29  C   UNL     1     -10.472  18.288  66.162  1.00  0.00    -0.383 A  
HETATM   30  C   UNL     1     -10.362  19.667  66.335  1.00  0.00    -0.609 A  
HETATM   31  C   UNL     1      -9.871  20.179  67.536  1.00  0.00    -0.574 A  
HETATM   32  C   UNL     1      -9.495  19.313  68.563  1.00  0.00    -0.447 A  
HETATM   33  C   UNL     1      -9.610  17.933  68.393  1.00  0.00    -0.320 A  
HETATM   34  C   UNL     1     -10.108  17.420  67.197  1.00  0.00    -0.307 A  
HETATM   35  O   UNL     1     -10.199  16.056  67.098  1.00  0.00    -0.266 OA 
ENDBRANCH  22  26
ENDBRANCH  13  18
ENDBRANCH   2   3
TORSDOF 4
ENDMDL
MODEL        2
REMARK 921   NORMALIZED FREE ENERGY PREDICTED BY IDOCK:   -8.47 KCAL/MOL
REMARK 922        TOTAL FREE ENERGY PREDICTED BY IDOCK:  -10.98 KCAL/MOL
REMARK 923 INTER-LIGAND FREE ENERGY PREDICTED BY IDOCK:  -10.34 KCAL/MOL
REMARK 924 INTRA-LIGAND FREE ENERGY PREDICTED BY IDOCK:   -0.65 KCAL/MOL
REMARK 927      BINDING AFFINITY PREDICTED BY RF-SCORE:    0.00 PKD
ROOT
HETATM    1  C   UNL     1     -10.428   5.364  69.244  1.00  0.00    -0.239 C  
HETATM    2  O   UNL     1      -9.814   6.346  70.077  1.00  0.00    -0.166 OA 
ENDROOT
BRANCH   2   3
HETATM    3  C   UNL     1     -10.560   7.470  70.318  1.00  0.00    -0.229 A  
HETATM    4  C   UNL     1     -11.422   7.509  71.419  1.00  0.00    -0.265 A  
HETATM    5  C   UNL     1     -12.122   8.694  71.676  1.00  0.00    -0.385 A  
HETATM    6  C   UNL     1     -11.160   9.773  69.733  1.00  0.00    -0.237 A  
HETATM    7  C   UNL     1     -11.970   9.837  70.857  1.00  0.00    -0.413 A  
HETATM    8  C   UNL     1     -10.491   8.591  69.468  1.00  0.00    -0.222 A  
HETATM    9  C   UNL     1     -12.552  11.085  71.078  1.00  0.00    -0.411 A  
HETATM   10  N   UNL     1     -13.395  11.315  72.173  1.00  0.00    -0.569 NA 
HETATM   11  N   UNL     1     -12.353  12.137  70.275  1.00  0.00    -0.238 NA 
HETATM   12  H1  UNL     1     -13.821  12.228  72.335  1.00  0.00     0.000 HD 
HETATM   13  C   UNL     1     -11.551  11.981  69.211  1.00  0.00    -0.321 A  
HETATM   14  H2  UNL     1     -12.891  11.050  73.019  1.00  0.00     0.000 HD 
HETATM   15  N   UNL     1     -10.968  10.814  68.916  1.00  0.00    -0.222 NA 
BRANCH   4  16
HETATM   16  O   UNL     1     -11.694   6.539  72.343  1.00  0.00    -0.281 OA 
HETATM   17  C   UNL     1     -10.755   6.279  73.375  1.00  0.00    -0.259 C  
ENDBRANCH   4  16
BRANCH  13  18
HETATM   18  N   UNL     1     -11.224  13.079  68.453  1.00  0.00    -0.251 NA 
HETATM   19  C   UNL     1     -11.842  14.467  66.539  1.00  0.00    -0.390 C  
HETATM   20  C   UNL     1     -11.429  13.059  67.005  1.00  0.00    -0.333 C  
HETATM   21  N   UNL     1     -10.900  15.496  67.006  1.00  0.00    -0.323 N  
HETATM   22  C   UNL     1     -10.382  16.403  66.093  1.00  0.00    -0.344 C  
HETATM   23  C   UNL     1     -10.657  15.471  68.459  1.00  0.00    -0.246 C  
HETATM   24  C   UNL     1     -10.250  14.059  68.943  1.00  0.00    -0.152 C  
HETATM   25  O   UNL     1     -10.689  16.343  64.899  1.00  0.00    -0.675 OA 
BRANCH  22  26
HETATM   26  C   UNL     1      -9.454  17.516  66.603  1.00  0.00    -0.275 C  
HETATM   27  C   UNL     1     -10.218  18.838  66.660  1.00  0.00    -0.408 C  
HETATM   28  O   UNL     1      -9.417  19.867  67.261  1.00  0.00    -0.325 OA 
HETATM   29  C   UNL     1      -8.144  19.865  66.755  1.00  0.00    -0.315 A  
HETATM   30  C   UNL     1      -7.366  20.992  67.013  1.00  0.00    -0.264 A  
HETATM   31  C   UNL     1      -6.061  21.061  66.523  1.00  0.00    -0.331 A  
HETATM   32  C   UNL     1      -5.536  20.003  65.781  1.00  0.00    -0.184 A  
HETATM   33  C   UNL     1      -6.313  18.872  65.527  1.00  0.00    -0.307 A  
HETATM   34  C   UNL     1      -7.613  18.798  66.022  1.00  0.00    -0.220 A  
HETATM   35  O   UNL     1      -8.319  17.657  65.740  1.00  0.00    -0.537 OA 
ENDBRANCH  22  26
ENDBRANCH  13  18
ENDBRANCH   2   3
TORSDOF 4
ENDMDL
MODEL        3
REMARK 921   NORMALIZED FREE ENERGY PREDICTED BY IDOCK:   -8.29 KCAL/MOL
REMARK 922        TOTAL FREE ENERGY PREDICTED BY IDOCK:  -10.76 KCAL/MOL
REMARK 923 INTER-LIGAND FREE ENERGY PREDICTED BY IDOCK:  -10.10 KCAL/MOL
REMARK 924 INTRA-LIGAND FREE ENERGY PREDICTED BY IDOCK:   -0.65 KCAL/MOL
REMARK 927      BINDING AFFINITY PREDICTED BY RF-SCORE:    0.00 PKD
ROOT
HETATM    1  C   UNL     1     -13.305   8.027  71.770  1.00  0.00    -0.340 C  
HETATM    2  O   UNL     1     -11.921   7.711  71.627  1.00  0.00    -0.278 OA 
ENDROOT
BRANCH   2   3
HETATM    3  C   UNL     1     -11.372   7.991  70.403  1.00  0.00    -0.187 A  
HETATM    4  C   UNL     1     -10.997   6.945  69.554  1.00  0.00    -0.250 A  
HETATM    5  C   UNL     1     -10.499   7.263  68.284  1.00  0.00    -0.239 A  
HETATM    6  C   UNL     1     -10.693   9.638  68.720  1.00  0.00    -0.206 A  
HETATM    7  C   UNL     1     -10.376   8.603  67.851  1.00  0.00    -0.286 A  
HETATM    8  C   UNL     1     -11.159   9.319  69.983  1.00  0.00    -0.228 A  
HETATM    9  C   UNL     1      -9.976   9.019  66.581  1.00  0.00    -0.278 A  
HETATM   10  N   UNL     1      -9.624   8.098  65.587  1.00  0.00    -0.397 NA 
HETATM   11  N   UNL     1      -9.898  10.307  66.224  1.00  0.00    -0.208 NA 
HETATM   12  H1  UNL     1      -9.332   8.402  64.657  1.00  0.00     0.000 HD 
HETATM   13  C   UNL     1     -10.226  11.239  67.132  1.00  0.00    -0.201 A  
HETATM   14  H2  UNL     1     -10.401   7.446  65.473  1.00  0.00     0.000 HD 
HETATM   15  N   UNL     1     -10.603  10.927  68.377  1.00  0.00    -0.182 NA 
BRANCH   4  16
HETATM   16  O   UNL     1     -11.057   5.595  69.760  1.00  0.00    -0.328 OA 
HETATM   17  C   UNL     1     -10.119   4.982  70.630  1.00  0.00    -0.243 C  
ENDBRANCH   4  16
BRANCH  13  18
HETATM   18  N   UNL     1     -10.287  12.556  66.748  1.00  0.00    -0.225 NA 
HETATM   19  C   UNL     1     -11.558  14.240  65.513  1.00  0.00    -0.338 C  
HETATM   20  C   UNL     1     -10.789  12.910  65.419  1.00  0.00    -0.283 C  
HETATM   21  N   UNL     1     -10.755  15.291  66.160  1.00  0.00    -0.314 N  
HETATM   22  C   UNL     1     -10.630  16.525  65.540  1.00  0.00    -0.295 C  
HETATM   23  C   UNL     1     -10.207  14.903  67.472  1.00  0.00    -0.233 C  
HETATM   24  C   UNL     1      -9.441  13.562  67.395  1.00  0.00    -0.225 C  
HETATM   25  O   UNL     1     -11.167  16.741  64.450  1.00  0.00    -1.112 OA 
BRANCH  22  26
HETATM   26  C   UNL     1      -9.849  17.637  66.257  1.00  0.00    -0.288 C  
HETATM   27  C   UNL     1     -10.492  18.991  65.963  1.00  0.00    -0.458 C  
HETATM   28  O   UNL     1      -9.866  20.032  66.728  1.00  0.00    -0.387 OA 
HETATM   29  C   UNL     1      -8.500  19.929  66.684  1.00  0.00    -0.335 A  
HETATM   30  C   UNL     1      -7.775  21.039  67.113  1.00  0.00    -0.156 A  
HETATM   31  C   UNL     1      -6.381  21.008  67.089  1.00  0.00    -0.398 A  
HETATM   32  C   UNL     1      -5.714  19.866  66.643  1.00  0.00    -0.177 A  
HETATM   33  C   UNL     1      -6.440  18.753  66.217  1.00  0.00    -0.230 A  
HETATM   34  C   UNL     1      -7.833  18.780  66.248  1.00  0.00    -0.272 A  
HETATM   35  O   UNL     1      -8.484  17.651  65.821  1.00  0.00    -0.525 OA 
ENDBRANCH  22  26
ENDBRANCH  13  18
ENDBRANCH   2   3
TORSDOF 4
ENDMDL
MODEL        4
REMARK 921   NORMALIZED FREE ENERGY PREDICTED BY IDOCK:   -8.13 KCAL/MOL
REMARK 922        TOTAL FREE ENERGY PREDICTED BY IDOCK:  -10.56 KCAL/MOL
REMARK 923 INTER-LIGAND FREE ENERGY PREDICTED BY IDOCK:   -9.91 KCAL/MOL
REMARK 924 INTRA-LIGAND FREE ENERGY PREDICTED BY IDOCK:   -0.65 KCAL/MOL
REMARK 927      BINDING AFFINITY PREDICTED BY RF-SCORE:    0.00 PKD
ROOT
HETATM    1  C   UNL     1      -5.946  19.989  70.048  1.00  0.00    -0.338 C  
HETATM    2  O   UNL     1      -6.197  20.313  68.682  1.00  0.00    -0.277 OA 
ENDROOT
BRANCH   2   3
HETATM    3  C   UNL     1      -7.263  19.671  68.106  1.00  0.00    -0.302 A  
HETATM    4  C   UNL     1      -7.611  19.954  66.781  1.00  0.00    -0.270 A  
HETATM    5  C   UNL     1      -8.662  19.235  66.200  1.00  0.00    -0.259 A  
HETATM    6  C   UNL     1      -9.055  18.006  68.249  1.00  0.00    -0.278 A  
HETATM    7  C   UNL     1      -9.365  18.240  66.917  1.00  0.00    -0.286 A  
HETATM    8  C   UNL     1      -8.032  18.738  68.827  1.00  0.00    -0.335 A  
HETATM    9  C   UNL     1     -10.364  17.413  66.404  1.00  0.00    -0.317 A  
HETATM   10  N   UNL     1     -10.791  17.519  65.075  1.00  0.00    -0.754 NA 
HETATM   11  N   UNL     1     -10.980  16.472  67.131  1.00  0.00    -0.132 NA 
HETATM   12  H1  UNL     1     -11.521  16.914  64.699  1.00  0.00     0.000 HD 
HETATM   13  C   UNL     1     -10.611  16.317  68.413  1.00  0.00    -0.301 A  
HETATM   14  H2  UNL     1      -9.971  17.432  64.473  1.00  0.00     0.000 HD 
HETATM   15  N   UNL     1      -9.675  17.080  68.988  1.00  0.00    -0.245 NA 
BRANCH   4  16
HETATM   16  O   UNL     1      -7.053  20.847  65.908  1.00  0.00    -0.059 OA 
HETATM   17  C   UNL     1      -6.013  20.419  65.045  1.00  0.00    -0.238 C  
ENDBRANCH   4  16
BRANCH  13  18
HETATM   18  N   UNL     1     -11.129  15.271  69.136  1.00  0.00    -0.247 NA 
HETATM   19  C   UNL     1     -12.840  14.576  70.737  1.00  0.00    -0.361 C  
HETATM   20  C   UNL     1     -11.627  15.492  70.494  1.00  0.00    -0.346 C  
HETATM   21  N   UNL     1     -12.536  13.171  70.422  1.00  0.00    -0.256 N  
HETATM   22  C   UNL     1     -12.833  12.188  71.355  1.00  0.00    -0.276 C  
HETATM   23  C   UNL     1     -11.981  12.966  69.072  1.00  0.00    -0.251 C  
HETATM   24  C   UNL     1     -10.768  13.888  68.810  1.00  0.00    -0.262 C  
HETATM   25  O   UNL     1     -13.330  12.484  72.446  1.00  0.00    -0.498 OA 
BRANCH  22  26
HETATM   26  C   UNL     1     -12.577  10.719  70.989  1.00  0.00    -0.420 C  
HETATM   27  C   UNL     1     -13.436   9.811  71.867  1.00  0.00    -0.395 C  
HETATM   28  O   UNL     1     -13.319   8.441  71.455  1.00  0.00    -0.327 OA 
HETATM   29  C   UNL     1     -12.011   8.097  71.236  1.00  0.00    -0.291 A  
HETATM   30  C   UNL     1     -11.729   6.736  71.141  1.00  0.00    -0.394 A  
HETATM   31  C   UNL     1     -10.418   6.312  70.925  1.00  0.00    -0.274 A  
HETATM   32  C   UNL     1      -9.392   7.250  70.799  1.00  0.00    -0.160 A  
HETATM   33  C   UNL     1      -9.675   8.614  70.889  1.00  0.00    -0.254 A  
HETATM   34  C   UNL     1     -10.986   9.038  71.097  1.00  0.00    -0.301 A  
HETATM   35  O   UNL     1     -11.194  10.391  71.171  1.00  0.00    -0.204 OA 
ENDBRANCH  22  26
ENDBRANCH  13  18
ENDBRANCH   2   3
TORSDOF 4
ENDMDL
MODEL        5
REMARK 921   NORMALIZED FREE ENERGY PREDICTED BY IDOCK:   -7.94 KCAL/MOL
REMARK 922        TOTAL FREE ENERGY PREDICTED BY IDOCK:  -10.32 KCAL/MOL
REMARK 923 INTER-LIGAND FREE ENERGY PREDICTED BY IDOCK:   -9.66 KCAL/MOL
REMARK 924 INTRA-LIGAND FREE ENERGY PREDICTED BY IDOCK:   -0.66 KCAL/MOL
REMARK 927      BINDING AFFINITY PREDICTED BY RF-SCORE:    0.00 PKD
ROOT
HETATM    1  C   UNL     1     -10.808   7.458  71.310  1.00  0.00    -0.238 C  
HETATM    2  O   UNL     1     -11.353   6.988  70.078  1.00  0.00    -0.281 OA 
ENDROOT
BRANCH   2   3
HETATM    3  C   UNL     1     -10.769   7.486  68.942  1.00  0.00    -0.115 A  
HETATM    4  C   UNL     1     -10.256   6.606  67.982  1.00  0.00    -0.167 A  
HETATM    5  C   UNL     1      -9.725   7.143  66.803  1.00  0.00    -0.252 A  
HETATM    6  C   UNL     1     -10.155   9.407  67.549  1.00  0.00    -0.215 A  
HETATM    7  C   UNL     1      -9.701   8.538  66.568  1.00  0.00    -0.330 A  
HETATM    8  C   UNL     1     -10.656   8.872  68.724  1.00  0.00    -0.185 A  
HETATM    9  C   UNL     1      -9.275   9.163  65.396  1.00  0.00    -0.202 A  
HETATM   10  N   UNL     1      -8.790   8.425  64.309  1.00  0.00    -0.382 NA 
HETATM   11  N   UNL     1      -9.296  10.491  65.227  1.00  0.00    -0.197 NA 
HETATM   12  H1  UNL     1      -8.478   8.883  63.451  1.00  0.00     0.000 HD 
HETATM   13  C   UNL     1      -9.754  11.252  66.232  1.00  0.00    -0.216 A  
HETATM   14  H2  UNL     1      -9.498   7.735  64.056  1.00  0.00     0.000 HD 
HETATM   15  N   UNL     1     -10.165  10.735  67.395  1.00  0.00    -0.195 NA 
BRANCH   4  16
HETATM   16  O   UNL     1     -10.205   5.240  67.995  1.00  0.00    -0.173 OA 
HETATM   17  C   UNL     1      -9.507   4.560  66.964  1.00  0.00    -0.169 C  
ENDBRANCH   4  16
BRANCH  13  18
HETATM   18  N   UNL     1      -9.914  12.601  66.030  1.00  0.00    -0.257 NA 
HETATM   19  C   UNL     1     -11.351  14.345  65.098  1.00  0.00    -0.359 C  
HETATM   20  C   UNL     1     -10.514  13.091  64.789  1.00  0.00    -0.363 C  
HETATM   21  N   UNL     1     -10.574  15.352  65.837  1.00  0.00    -0.322 N  
HETATM   22  C   UNL     1     -10.558  16.662  65.382  1.00  0.00    -0.237 C  
HETATM   23  C   UNL     1      -9.927  14.835  67.056  1.00  0.00    -0.238 C  
HETATM   24  C   UNL     1      -9.091  13.568  66.761  1.00  0.00    -0.212 C  
HETATM   25  O   UNL     1     -11.171  16.983  64.359  1.00  0.00    -1.167 OA 
BRANCH  22  26
HETATM   26  C   UNL     1      -9.801  17.720  66.199  1.00  0.00    -0.244 C  
HETATM   27  C   UNL     1     -10.425  19.095  65.967  1.00  0.00    -0.467 C  
HETATM   28  O   UNL     1      -9.826  20.081  66.822  1.00  0.00    -0.387 OA 
HETATM   29  C   UNL     1      -8.460  19.971  66.827  1.00  0.00    -0.324 A  
HETATM   30  C   UNL     1      -7.748  21.045  67.355  1.00  0.00    -0.170 A  
HETATM   31  C   UNL     1      -6.354  21.005  67.386  1.00  0.00    -0.415 A  
HETATM   32  C   UNL     1      -5.675  19.889  66.894  1.00  0.00    -0.177 A  
HETATM   33  C   UNL     1      -6.389  18.811  66.370  1.00  0.00    -0.218 A  
HETATM   34  C   UNL     1      -7.782  18.847  66.345  1.00  0.00    -0.273 A  
HETATM   35  O   UNL     1      -8.420  17.752  65.821  1.00  0.00    -0.519 OA 
ENDBRANCH  22  26
ENDBRANCH  13  18
ENDBRANCH   2   3
TORSDOF 4
ENDMDL
MODEL        6
REMARK 921   NORMALIZED FREE ENERGY PREDICTED BY IDOCK:   -7.86 KCAL/MOL
REMARK 922        TOTAL FREE ENERGY PREDICTED BY IDOCK:  -10.23 KCAL/MOL
REMARK 923 INTER-LIGAND FREE ENERGY PREDICTED BY IDOCK:   -9.73 KCAL/MOL
REMARK 924 INTRA-LIGAND FREE ENERGY PREDICTED BY IDOCK:   -0.50 KCAL/MOL
REMARK 927      BINDING AFFINITY PREDICTED BY RF-SCORE:    0.00 PKD
ROOT
HETATM    1  C   UNL     1     -10.478   4.828  66.113  1.00  0.00    -0.290 C  
HETATM    2  O   UNL     1      -9.543   5.858  66.432  1.00  0.00    -0.156 OA 
ENDROOT
BRANCH   2   3
HETATM    3  C   UNL     1     -10.018   6.863  67.235  1.00  0.00    -0.172 A  
HETATM    4  C   UNL     1     -10.362   6.587  68.562  1.00  0.00    -0.192 A  
HETATM    5  C   UNL     1     -10.782   7.646  69.376  1.00  0.00    -0.188 A  
HETATM    6  C   UNL     1     -10.573   9.228  67.553  1.00  0.00    -0.262 A  
HETATM    7  C   UNL     1     -10.858   8.971  68.887  1.00  0.00    -0.075 A  
HETATM    8  C   UNL     1     -10.184   8.173  66.746  1.00  0.00    -0.372 A  
HETATM    9  C   UNL     1     -11.179  10.103  69.636  1.00  0.00    -0.261 A  
HETATM   10  N   UNL     1     -11.489  10.014  70.999  1.00  0.00    -0.374 NA 
HETATM   11  N   UNL     1     -11.214  11.337  69.118  1.00  0.00    -0.250 NA 
HETATM   12  H1  UNL     1     -11.724  10.842  71.547  1.00  0.00     0.000 HD 
HETATM   13  C   UNL     1     -10.922  11.488  67.817  1.00  0.00    -0.236 A  
HETATM   14  H2  UNL     1     -10.718   9.536  71.466  1.00  0.00     0.000 HD 
HETATM   15  N   UNL     1     -10.621  10.455  67.024  1.00  0.00    -0.251 NA 
BRANCH   4  16
HETATM   16  O   UNL     1     -10.337   5.398  69.237  1.00  0.00    -0.235 OA 
HETATM   17  C   UNL     1     -10.095   5.397  70.635  1.00  0.00    -0.231 C  
ENDBRANCH   4  16
BRANCH  13  18
HETATM   18  N   UNL     1     -10.817  12.756  67.299  1.00  0.00    -0.247 NA 
HETATM   19  C   UNL     1     -11.818  14.416  65.810  1.00  0.00    -0.364 C  
HETATM   20  C   UNL     1     -11.192  13.013  65.908  1.00  0.00    -0.289 C  
HETATM   21  N   UNL     1     -10.951  15.444  66.406  1.00  0.00    -0.309 N  
HETATM   22  C   UNL     1     -10.655  16.586  65.677  1.00  0.00    -0.304 C  
HETATM   23  C   UNL     1     -10.533  15.148  67.788  1.00  0.00    -0.247 C  
HETATM   24  C   UNL     1      -9.911  13.737  67.903  1.00  0.00    -0.232 C  
HETATM   25  O   UNL     1     -11.096  16.736  64.533  1.00  0.00    -0.989 OA 
BRANCH  22  26
HETATM   26  C   UNL     1      -9.807  17.685  66.334  1.00  0.00    -0.309 C  
HETATM   27  C   UNL     1     -10.400  19.056  66.013  1.00  0.00    -0.446 C  
HETATM   28  O   UNL     1      -9.709  20.093  66.726  1.00  0.00    -0.395 OA 
HETATM   29  C   UNL     1      -8.351  19.929  66.648  1.00  0.00    -0.330 A  
HETATM   30  C   UNL     1      -7.567  21.020  67.020  1.00  0.00    -0.164 A  
HETATM   31  C   UNL     1      -6.176  20.927  66.961  1.00  0.00    -0.348 A  
HETATM   32  C   UNL     1      -5.572  19.743  66.534  1.00  0.00    -0.174 A  
HETATM   33  C   UNL     1      -6.357  18.650  66.166  1.00  0.00    -0.234 A  
HETATM   34  C   UNL     1      -7.746  18.739  66.233  1.00  0.00    -0.272 A  
HETATM   35  O   UNL     1      -8.456  17.626  65.862  1.00  0.00    -0.531 OA 
ENDBRANCH  22  26
ENDBRANCH  13  18
ENDBRANCH   2   3
TORSDOF 4
ENDMDL
MODEL        7
REMARK 921   NORMALIZED FREE ENERGY PREDICTED BY IDOCK:   -7.51 KCAL/MOL
REMARK 922        TOTAL FREE ENERGY PREDICTED BY IDOCK:   -9.79 KCAL/MOL
REMARK 923 INTER-LIGAND FREE ENERGY PREDICTED BY IDOCK:   -9.16 KCAL/MOL
REMARK 924 INTRA-LIGAND FREE ENERGY PREDICTED BY IDOCK:   -0.63 KCAL/MOL
REMARK 927      BINDING AFFINITY PREDICTED BY RF-SCORE:    0.00 PKD
ROOT
HETATM    1  C   UNL     1      -9.545   3.637  68.651  1.00  0.00    -0.089 C  
HETATM    2  O   UNL     1      -9.122   4.308  69.838  1.00  0.00    -0.088 OA 
ENDROOT
BRANCH   2   3
HETATM    3  C   UNL     1      -9.846   5.420  70.181  1.00  0.00    -0.207 A  
HETATM    4  C   UNL     1     -10.475   5.482  71.429  1.00  0.00    -0.240 A  
HETATM    5  C   UNL     1     -11.152   6.657  71.777  1.00  0.00    -0.287 A  
HETATM    6  C   UNL     1     -10.632   7.678  69.642  1.00  0.00    -0.243 A  
HETATM    7  C   UNL     1     -11.206   7.768  70.902  1.00  0.00    -0.284 A  
HETATM    8  C   UNL     1      -9.986   6.504  69.293  1.00  0.00    -0.172 A  
HETATM    9  C   UNL     1     -11.777   9.008  71.188  1.00  0.00    -0.302 A  
HETATM   10  N   UNL     1     -12.394   9.262  72.420  1.00  0.00    -0.262 NA 
HETATM   11  N   UNL     1     -11.778  10.030  70.323  1.00  0.00    -0.262 NA 
HETATM   12  H1  UNL     1     -12.812  10.169  72.629  1.00  0.00     0.000 HD 
HETATM   13  C   UNL     1     -11.197   9.849  69.127  1.00  0.00    -0.107 A  
HETATM   14  H2  UNL     1     -11.724   9.047  73.158  1.00  0.00     0.000 HD 
HETATM   15  N   UNL     1     -10.642   8.688  68.766  1.00  0.00    -0.184 NA 
BRANCH   4  16
HETATM   16  O   UNL     1     -10.523   4.546  72.424  1.00  0.00    -0.194 OA 
HETATM   17  C   UNL     1     -11.160   4.867  73.650  1.00  0.00    -0.297 C  
ENDBRANCH   4  16
BRANCH  13  18
HETATM   18  N   UNL     1     -11.065  10.922  68.280  1.00  0.00    -0.243 NA 
HETATM   19  C   UNL     1     -11.084  11.669  65.953  1.00  0.00    -0.264 C  
HETATM   20  C   UNL     1     -10.399  10.759  66.987  1.00  0.00    -0.228 C  
HETATM   21  N   UNL     1     -11.169  13.062  66.421  1.00  0.00    -0.291 N  
HETATM   22  C   UNL     1     -10.731  14.083  65.592  1.00  0.00    -0.303 C  
HETATM   23  C   UNL     1     -11.790  13.210  67.749  1.00  0.00    -0.348 C  
HETATM   24  C   UNL     1     -11.118  12.293  68.797  1.00  0.00    -0.251 C  
HETATM   25  O   UNL     1     -10.257  13.834  64.479  1.00  0.00    -0.414 OA 
BRANCH  22  26
HETATM   26  C   UNL     1     -10.889  15.537  66.062  1.00  0.00    -0.300 C  
HETATM   27  C   UNL     1     -10.751  16.482  64.869  1.00  0.00    -0.146 C  
HETATM   28  O   UNL     1     -11.029  17.837  65.255  1.00  0.00    -0.557 OA 
HETATM   29  C   UNL     1     -10.397  18.160  66.427  1.00  0.00    -0.394 A  
HETATM   30  C   UNL     1     -10.325  19.515  66.746  1.00  0.00    -0.570 A  
HETATM   31  C   UNL     1      -9.689  19.918  67.921  1.00  0.00    -0.510 A  
HETATM   32  C   UNL     1      -9.133  18.966  68.776  1.00  0.00    -0.352 A  
HETATM   33  C   UNL     1      -9.210  17.609  68.460  1.00  0.00    -0.281 A  
HETATM   34  C   UNL     1      -9.851  17.205  67.290  1.00  0.00    -0.265 A  
HETATM   35  O   UNL     1      -9.895  15.858  67.043  1.00  0.00    -0.226 OA 
ENDBRANCH  22  26
ENDBRANCH  13  18
ENDBRANCH   2   3
TORSDOF 4
ENDMDL
MODEL        8
REMARK 921   NORMALIZED FREE ENERGY PREDICTED BY IDOCK:   -7.48 KCAL/MOL
REMARK 922        TOTAL FREE ENERGY PREDICTED BY IDOCK:   -9.76 KCAL/MOL
REMARK 923 INTER-LIGAND FREE ENERGY PREDICTED BY IDOCK:   -9.22 KCAL/MOL
REMARK 924 INTRA-LIGAND FREE ENERGY PREDICTED BY IDOCK:   -0.54 KCAL/MOL
REMARK 927      BINDING AFFINITY PREDICTED BY RF-SCORE:    0.00 PKD
ROOT
HETATM    1  C   UNL     1      -7.882  19.274  68.651  1.00  0.00    -0.361 C  
HETATM    2  O   UNL     1      -9.294  19.107  68.772  1.00  0.00    -0.361 OA 
ENDROOT
BRANCH   2   3
HETATM    3  C   UNL     1      -9.817  18.003  68.150  1.00  0.00    -0.340 A  
HETATM    4  C   UNL     1      -9.932  17.981  66.756  1.00  0.00    -0.346 A  
HETATM    5  C   UNL     1     -10.409  16.815  66.146  1.00  0.00    -0.338 A  
HETATM    6  C   UNL     1     -10.705  15.724  68.288  1.00  0.00    -0.281 A  
HETATM    7  C   UNL     1     -10.765  15.674  66.902  1.00  0.00    -0.307 A  
HETATM    8  C   UNL     1     -10.258  16.888  68.888  1.00  0.00    -0.314 A  
HETATM    9  C   UNL     1     -11.166  14.442  66.386  1.00  0.00    -0.345 A  
HETATM   10  N   UNL     1     -11.274  14.228  65.006  1.00  0.00    -0.345 NA 
HETATM   11  N   UNL     1     -11.471  13.391  67.157  1.00  0.00    -0.322 NA 
HETATM   12  H1  UNL     1     -11.567  13.326  64.628  1.00  0.00     0.000 HD 
HETATM   13  C   UNL     1     -11.383  13.532  68.488  1.00  0.00    -0.292 A  
HETATM   14  H2  UNL     1     -10.381  14.472  64.579  1.00  0.00     0.000 HD 
HETATM   15  N   UNL     1     -11.024  14.684  69.066  1.00  0.00    -0.249 NA 
BRANCH   4  16
HETATM   16  O   UNL     1      -9.623  18.951  65.844  1.00  0.00    -0.469 OA 
HETATM   17  C   UNL     1     -10.534  20.016  65.625  1.00  0.00    -0.299 C  
ENDBRANCH   4  16
BRANCH  13  18
HETATM   18  N   UNL     1     -11.557  12.431  69.291  1.00  0.00    -0.302 NA 
HETATM   19  C   UNL     1     -13.117  11.196  70.709  1.00  0.00     0.002 C  
HETATM   20  C   UNL     1     -12.373  12.527  70.501  1.00  0.00    -0.262 C  
HETATM   21  N   UNL     1     -12.198  10.047  70.685  1.00  0.00    -0.281 N  
HETATM   22  C   UNL     1     -12.248   9.118  71.714  1.00  0.00    -0.372 C  
HETATM   23  C   UNL     1     -11.339   9.991  69.489  1.00  0.00    -0.169 C  
HETATM   24  C   UNL     1     -10.594  11.326  69.261  1.00  0.00    -0.148 C  
HETATM   25  O   UNL     1     -13.038   9.257  72.652  1.00  0.00    -0.390 OA 
BRANCH  22  26
HETATM   26  C   UNL     1     -11.333   7.886  71.644  1.00  0.00    -0.258 C  
HETATM   27  C   UNL     1     -12.007   6.789  70.821  1.00  0.00    -0.378 C  
HETATM   28  O   UNL     1     -11.120   5.678  70.625  1.00  0.00    -0.247 OA 
HETATM   29  C   UNL     1     -10.489   5.332  71.790  1.00  0.00    -0.214 A  
HETATM   30  C   UNL     1      -9.852   4.093  71.814  1.00  0.00    -0.252 A  
HETATM   31  C   UNL     1      -9.196   3.672  72.970  1.00  0.00    -0.118 A  
HETATM   32  C   UNL     1      -9.173   4.492  74.099  1.00  0.00    -0.114 A  
HETATM   33  C   UNL     1      -9.807   5.735  74.075  1.00  0.00    -0.194 A  
HETATM   34  C   UNL     1     -10.456   6.160  72.917  1.00  0.00    -0.217 A  
HETATM   35  O   UNL     1     -11.054   7.393  72.960  1.00  0.00    -0.342 OA 
ENDBRANCH  22  26
ENDBRANCH  13  18
ENDBRANCH   2   3
TORSDOF 4
ENDMDL
MODEL        9
REMARK 921   NORMALIZED FREE ENERGY PREDICTED BY IDOCK:   -7.43 KCAL/MOL
REMARK 922        TOTAL FREE ENERGY PREDICTED BY IDOCK:   -9.70 KCAL/MOL
REMARK 923 INTER-LIGAND FREE ENERGY PREDICTED BY IDOCK:   -9.08 KCAL/MOL
REMARK 924 INTRA-LIGAND FREE ENERGY PREDICTED BY IDOCK:   -0.62 KCAL/MOL
REMARK 927      BINDING AFFINITY PREDICTED BY RF-SCORE:    0.00 PKD
ROOT
HETATM    1  C   UNL     1      -6.590  17.900  66.144  1.00  0.00    -0.271 C  
HETATM    2  O   UNL     1      -7.886  17.635  65.609  1.00  0.00    -0.533 OA 
ENDROOT
BRANCH   2   3
HETATM    3  C   UNL     1      -8.761  17.006  66.457  1.00  0.00    -0.263 A  
HETATM    4  C   UNL     1      -9.732  17.754  67.132  1.00  0.00    -0.288 A  
HETATM    5  C   UNL     1     -10.653  17.076  67.941  1.00  0.00    -0.365 A  
HETATM    6  C   UNL     1      -9.619  14.940  67.456  1.00  0.00    -0.204 A  
HETATM    7  C   UNL     1     -10.621  15.669  68.080  1.00  0.00    -0.274 A  
HETATM    8  C   UNL     1      -8.696  15.617  66.679  1.00  0.00    -0.333 A  
HETATM    9  C   UNL     1     -11.541  14.896  68.788  1.00  0.00    -0.323 A  
HETATM   10  N   UNL     1     -12.615  15.481  69.472  1.00  0.00    -0.589 NA 
HETATM   11  N   UNL     1     -11.469  13.562  68.866  1.00  0.00    -0.283 NA 
HETATM   12  H1  UNL     1     -13.288  14.916  69.990  1.00  0.00     0.000 HD 
HETATM   13  C   UNL     1     -10.464  12.942  68.228  1.00  0.00    -0.242 A  
HETATM   14  H2  UNL     1     -13.133  16.057  68.809  1.00  0.00     0.000 HD 
HETATM   15  N   UNL     1      -9.529  13.609  67.542  1.00  0.00    -0.214 NA 
BRANCH   4  16
HETATM   16  O   UNL     1      -9.955  19.103  67.117  1.00  0.00    -0.325 OA 
HETATM   17  C   UNL     1     -10.538  19.699  65.970  1.00  0.00    -0.483 C  
ENDBRANCH   4  16
BRANCH  13  18
HETATM   18  N   UNL     1     -10.448  11.569  68.180  1.00  0.00    -0.186 NA 
HETATM   19  C   UNL     1     -10.362   9.603  66.731  1.00  0.00    -0.222 C  
HETATM   20  C   UNL     1     -11.157  10.865  67.111  1.00  0.00    -0.240 C  
HETATM   21  N   UNL     1     -10.057   8.774  67.908  1.00  0.00    -0.195 N  
HETATM   22  C   UNL     1     -10.351   7.419  67.876  1.00  0.00    -0.204 C  
HETATM   23  C   UNL     1      -9.394   9.507  69.002  1.00  0.00    -0.155 C  
HETATM   24  C   UNL     1     -10.177  10.783  69.387  1.00  0.00    -0.160 C  
HETATM   25  O   UNL     1     -10.880   6.911  66.883  1.00  0.00    -0.351 OA 
BRANCH  22  26
HETATM   26  C   UNL     1      -9.965   6.550  69.082  1.00  0.00    -0.146 C  
HETATM   27  C   UNL     1      -9.804   5.096  68.640  1.00  0.00    -0.160 C  
HETATM   28  O   UNL     1      -9.311   4.285  69.717  1.00  0.00    -0.125 OA 
HETATM   29  C   UNL     1      -9.980   4.547  70.883  1.00  0.00    -0.193 A  
HETATM   30  C   UNL     1      -9.824   3.624  71.916  1.00  0.00    -0.241 A  
HETATM   31  C   UNL     1     -10.481   3.823  73.130  1.00  0.00    -0.257 A  
HETATM   32  C   UNL     1     -11.288   4.946  73.312  1.00  0.00    -0.408 A  
HETATM   33  C   UNL     1     -11.442   5.873  72.280  1.00  0.00    -0.351 A  
HETATM   34  C   UNL     1     -10.779   5.679  71.069  1.00  0.00    -0.234 A  
HETATM   35  O   UNL     1     -10.970   6.631  70.101  1.00  0.00    -0.257 OA 
ENDBRANCH  22  26
ENDBRANCH  13  18
ENDBRANCH   2   3
TORSDOF 4
ENDMDL
MODEL       10
REMARK 921   NORMALIZED FREE ENERGY PREDICTED BY IDOCK:   -7.37 KCAL/MOL
REMARK 922        TOTAL FREE ENERGY PREDICTED BY IDOCK:   -9.62 KCAL/MOL
REMARK 923 INTER-LIGAND FREE ENERGY PREDICTED BY IDOCK:   -9.41 KCAL/MOL
REMARK 924 INTRA-LIGAND FREE ENERGY PREDICTED BY IDOCK:   -0.21 KCAL/MOL
REMARK 927      BINDING AFFINITY PREDICTED BY RF-SCORE:    0.00 PKD
ROOT
HETATM    1  C   UNL     1     -10.103   6.937  73.629  1.00  0.00    -0.318 C  
HETATM    2  O   UNL     1      -9.337   6.143  72.725  1.00  0.00    -0.149 OA 
ENDROOT
BRANCH   2   3
HETATM    3  C   UNL     1      -9.622   6.315  71.395  1.00  0.00    -0.155 A  
HETATM    4  C   UNL     1      -9.975   5.211  70.612  1.00  0.00    -0.226 A  
HETATM    5  C   UNL     1     -10.324   5.427  69.273  1.00  0.00    -0.322 A  
HETATM    6  C   UNL     1      -9.920   7.807  69.475  1.00  0.00    -0.187 A  
HETATM    7  C   UNL     1     -10.329   6.725  68.710  1.00  0.00    -0.211 A  
HETATM    8  C   UNL     1      -9.551   7.584  70.790  1.00  0.00    -0.166 A  
HETATM    9  C   UNL     1     -10.742   7.054  67.419  1.00  0.00    -0.313 A  
HETATM   10  N   UNL     1     -11.188   6.075  66.522  1.00  0.00    -0.750 NA 
HETATM   11  N   UNL     1     -10.744   8.308  66.949  1.00  0.00    -0.236 NA 
HETATM   12  H1  UNL     1     -11.490   6.316  65.577  1.00  0.00     0.000 HD 
HETATM   13  C   UNL     1     -10.331   9.291  67.763  1.00  0.00    -0.237 A  
HETATM   14  H2  UNL     1     -11.944   5.558  66.970  1.00  0.00     0.000 HD 
HETATM   15  N   UNL     1      -9.902   9.060  69.009  1.00  0.00    -0.171 NA 
BRANCH   4  16
HETATM   16  O   UNL     1     -10.060   3.891  70.959  1.00  0.00    -0.134 OA 
HETATM   17  C   UNL     1      -9.172   2.957  70.367  1.00  0.00    -0.140 C  
ENDBRANCH   4  16
BRANCH  13  18
HETATM   18  N   UNL     1     -10.454  10.596  67.351  1.00  0.00    -0.219 NA 
HETATM   19  C   UNL     1     -11.668  12.149  65.907  1.00  0.00    -0.328 C  
HETATM   20  C   UNL     1     -10.773  10.898  65.956  1.00  0.00    -0.140 C  
HETATM   21  N   UNL     1     -11.078  13.273  66.652  1.00  0.00    -0.287 N  
HETATM   22  C   UNL     1     -10.973  14.512  66.038  1.00  0.00    -0.324 C  
HETATM   23  C   UNL     1     -10.707  12.942  68.039  1.00  0.00    -0.228 C  
HETATM   24  C   UNL     1      -9.816  11.679  68.105  1.00  0.00    -0.191 C  
HETATM   25  O   UNL     1     -11.352  14.674  64.874  1.00  0.00    -0.366 OA 
BRANCH  22  26
HETATM   26  C   UNL     1     -10.420  15.694  66.848  1.00  0.00    -0.307 C  
HETATM   27  C   UNL     1     -11.306  15.943  68.068  1.00  0.00    -0.284 C  
HETATM   28  O   UNL     1     -10.738  16.953  68.916  1.00  0.00    -0.329 OA 
HETATM   29  C   UNL     1     -10.305  18.029  68.187  1.00  0.00    -0.388 A  
HETATM   30  C   UNL     1     -10.027  19.195  68.897  1.00  0.00    -0.481 A  
HETATM   31  C   UNL     1      -9.590  20.333  68.219  1.00  0.00    -0.239 A  
HETATM   32  C   UNL     1      -9.425  20.301  66.834  1.00  0.00    -0.531 A  
HETATM   33  C   UNL     1      -9.699  19.132  66.122  1.00  0.00    -0.360 A  
HETATM   34  C   UNL     1     -10.129  17.992  66.800  1.00  0.00    -0.356 A  
HETATM   35  O   UNL     1     -10.375  16.877  66.041  1.00  0.00    -0.338 OA 
ENDBRANCH  22  26
ENDBRANCH  13  18
ENDBRANCH   2   3
TORSDOF 4
ENDMDL
MODEL       11
REMARK 921   NORMALIZED FREE ENERGY PREDICTED BY IDOCK:   -7.29 KCAL/MOL
REMARK 922        TOTAL FREE ENERGY PREDICTED BY IDOCK:   -9.53 KCAL/MOL
REMARK 923 INTER-LIGAND FREE ENERGY PREDICTED BY IDOCK:   -8.97 KCAL/MOL
REMARK 924 INTRA-LIGAND FREE ENERGY PREDICTED BY IDOCK:   -0.56 KCAL/MOL
REMARK 927      BINDING AFFINITY PREDICTED BY RF-SCORE:    0.00 PKD
ROOT
HETATM    1  C   UNL     1      -9.821   7.054  73.961  1.00  0.00    -0.308 C  
HETATM    2  O   UNL     1     -11.010   7.306  73.213  1.00  0.00    -0.352 OA 
ENDROOT
BRANCH   2   3
HETATM    3  C   UNL     1     -10.851   7.384  71.854  1.00  0.00    -0.229 A  
HETATM    4  C   UNL     1     -10.823   6.212  71.090  1.00  0.00    -0.270 A  
HETATM    5  C   UNL     1     -10.725   6.326  69.698  1.00  0.00    -0.367 A  
HETATM    6  C   UNL     1     -10.626   8.743  69.827  1.00  0.00    -0.224 A  
HETATM    7  C   UNL     1     -10.659   7.587  69.060  1.00  0.00    -0.190 A  
HETATM    8  C   UNL     1     -10.697   8.624  71.204  1.00  0.00    -0.303 A  
HETATM    9  C   UNL     1     -10.647   7.808  67.683  1.00  0.00    -0.213 A  
HETATM   10  N   UNL     1     -10.680   6.744  66.772  1.00  0.00    -0.513 NA 
HETATM   11  N   UNL     1     -10.605   9.030  67.139  1.00  0.00    -0.261 NA 
HETATM   12  H1  UNL     1     -10.671   6.906  65.764  1.00  0.00     0.000 HD 
HETATM   13  C   UNL     1     -10.577  10.090  67.961  1.00  0.00    -0.235 A  
HETATM   14  H2  UNL     1     -11.492   6.168  66.990  1.00  0.00     0.000 HD 
HETATM   15  N   UNL     1     -10.568   9.967  69.292  1.00  0.00    -0.212 NA 
BRANCH   4  16
HETATM   16  O   UNL     1     -10.900   4.909  71.496  1.00  0.00    -0.057 OA 
HETATM   17  C   UNL     1      -9.900   3.991  71.082  1.00  0.00    -0.166 C  
ENDBRANCH   4  16
BRANCH  13  18
HETATM   18  N   UNL     1     -10.673  11.353  67.427  1.00  0.00    -0.218 NA 
HETATM   19  C   UNL     1     -11.735  12.748  65.725  1.00  0.00    -0.402 C  
HETATM   20  C   UNL     1     -10.832  11.529  65.984  1.00  0.00    -0.276 C  
HETATM   21  N   UNL     1     -11.255  13.944  66.435  1.00  0.00    -0.310 N  
HETATM   22  C   UNL     1     -11.100  15.131  65.733  1.00  0.00    -0.330 C  
HETATM   23  C   UNL     1     -11.043  13.740  67.879  1.00  0.00    -0.264 C  
HETATM   24  C   UNL     1     -10.145  12.511  68.154  1.00  0.00    -0.225 C  
HETATM   25  O   UNL     1     -11.342  15.185  64.524  1.00  0.00    -0.357 OA 
BRANCH  22  26
HETATM   26  C   UNL     1     -10.665  16.391  66.497  1.00  0.00    -0.163 C  
HETATM   27  C   UNL     1     -10.771  17.610  65.583  1.00  0.00    -0.084 C  
HETATM   28  O   UNL     1     -10.501  18.819  66.309  1.00  0.00    -0.417 OA 
HETATM   29  C   UNL     1      -9.393  18.686  67.103  1.00  0.00    -0.290 A  
HETATM   30  C   UNL     1      -8.843  19.861  67.612  1.00  0.00    -0.406 A  
HETATM   31  C   UNL     1      -7.709  19.802  68.423  1.00  0.00    -0.336 A  
HETATM   32  C   UNL     1      -7.131  18.569  68.728  1.00  0.00    -0.310 A  
HETATM   33  C   UNL     1      -7.684  17.392  68.222  1.00  0.00    -0.241 A  
HETATM   34  C   UNL     1      -8.822  17.449  67.419  1.00  0.00    -0.227 A  
HETATM   35  O   UNL     1      -9.316  16.256  66.961  1.00  0.00    -0.213 OA 
ENDBRANCH  22  26
ENDBRANCH  13  18
ENDBRANCH   2   3
TORSDOF 4
ENDMDL
MODEL       12
REMARK 921   NORMALIZED FREE ENERGY PREDICTED BY IDOCK:   -7.17 KCAL/MOL
REMARK 922        TOTAL FREE ENERGY PREDICTED BY IDOCK:   -9.37 KCAL/MOL
REMARK 923 INTER-LIGAND FREE ENERGY PREDICTED BY IDOCK:   -8.84 KCAL/MOL
REMARK 924 INTRA-LIGAND FREE ENERGY PREDICTED BY IDOCK:   -0.54 KCAL/MOL
REMARK 927      BINDING AFFINITY PREDICTED BY RF-SCORE:    0.00 PKD
ROOT
HETATM    1  C   UNL     1      -6.738  18.912  69.296  1.00  0.00    -0.280 C  
HETATM    2  O   UNL     1      -8.122  19.237  69.172  1.00  0.00    -0.295 OA 
ENDROOT
BRANCH   2   3
HETATM    3  C   UNL     1      -8.832  18.478  68.279  1.00  0.00    -0.310 A  
HETATM    4  C   UNL     1      -9.326  19.064  67.108  1.00  0.00    -0.307 A  
HETATM    5  C   UNL     1      -9.991  18.249  66.184  1.00  0.00    -0.313 A  
HETATM    6  C   UNL     1      -9.726  16.300  67.598  1.00  0.00    -0.234 A  
HETATM    7  C   UNL     1     -10.165  16.863  66.408  1.00  0.00    -0.326 A  
HETATM    8  C   UNL     1      -9.092  17.115  68.520  1.00  0.00    -0.265 A  
HETATM    9  C   UNL     1     -10.733  15.955  65.516  1.00  0.00    -0.372 A  
HETATM   10  N   UNL     1     -11.222  16.364  64.269  1.00  0.00    -1.298 NA 
HETATM   11  N   UNL     1     -10.851  14.647  65.779  1.00  0.00    -0.311 NA 
HETATM   12  H1  UNL     1     -11.638  15.699  63.615  1.00  0.00     0.000 HD 
HETATM   13  C   UNL     1     -10.395  14.193  66.956  1.00  0.00    -0.267 A  
HETATM   14  H2  UNL     1     -10.472  16.855  63.782  1.00  0.00     0.000 HD 
HETATM   15  N   UNL     1      -9.854  14.999  67.876  1.00  0.00    -0.216 NA 
BRANCH   4  16
HETATM   16  O   UNL     1      -9.247  20.362  66.686  1.00  0.00    -0.317 OA 
HETATM   17  C   UNL     1      -7.972  20.961  66.516  1.00  0.00     0.272 C  
ENDBRANCH   4  16
BRANCH  13  18
HETATM   18  N   UNL     1     -10.380  12.840  67.190  1.00  0.00    -0.232 NA 
HETATM   19  C   UNL     1     -10.234  10.619  66.179  1.00  0.00    -0.248 C  
HETATM   20  C   UNL     1     -11.043  11.927  66.259  1.00  0.00    -0.314 C  
HETATM   21  N   UNL     1      -9.982  10.050  67.512  1.00  0.00    -0.181 N  
HETATM   22  C   UNL     1     -10.276   8.715  67.746  1.00  0.00    -0.225 C  
HETATM   23  C   UNL     1      -9.365  10.996  68.460  1.00  0.00    -0.188 C  
HETATM   24  C   UNL     1     -10.162  12.318  68.543  1.00  0.00    -0.206 C  
HETATM   25  O   UNL     1     -10.763   8.011  66.855  1.00  0.00    -0.322 OA 
BRANCH  22  26
HETATM   26  C   UNL     1      -9.944   8.113  69.119  1.00  0.00    -0.192 C  
HETATM   27  C   UNL     1      -8.819   7.089  68.975  1.00  0.00    -0.134 C  
HETATM   28  O   UNL     1      -8.395   6.611  70.260  1.00  0.00    -0.130 OA 
HETATM   29  C   UNL     1      -9.467   6.302  71.055  1.00  0.00    -0.175 A  
HETATM   30  C   UNL     1      -9.204   5.542  72.192  1.00  0.00    -0.155 A  
HETATM   31  C   UNL     1     -10.249   5.184  73.045  1.00  0.00    -0.217 A  
HETATM   32  C   UNL     1     -11.553   5.592  72.761  1.00  0.00    -0.289 A  
HETATM   33  C   UNL     1     -11.816   6.358  71.624  1.00  0.00    -0.361 A  
HETATM   34  C   UNL     1     -10.771   6.722  70.777  1.00  0.00    -0.233 A  
HETATM   35  O   UNL     1     -11.099   7.479  69.682  1.00  0.00    -0.198 OA 
ENDBRANCH  22  26
ENDBRANCH  13  18
ENDBRANCH   2   3
TORSDOF 4
ENDMDL
MODEL       13
REMARK 921   NORMALIZED FREE ENERGY PREDICTED BY IDOCK:   -7.14 KCAL/MOL
REMARK 922        TOTAL FREE ENERGY PREDICTED BY IDOCK:   -9.33 KCAL/MOL
REMARK 923 INTER-LIGAND FREE ENERGY PREDICTED BY IDOCK:   -8.65 KCAL/MOL
REMARK 924 INTRA-LIGAND FREE ENERGY PREDICTED BY IDOCK:   -0.69 KCAL/MOL
REMARK 927      BINDING AFFINITY PREDICTED BY RF-SCORE:    0.00 PKD
ROOT
HETATM    1  C   UNL     1      -6.916  18.491  68.904  1.00  0.00    -0.283 C  
HETATM    2  O   UNL     1      -8.312  18.771  68.810  1.00  0.00    -0.335 OA 
ENDROOT
BRANCH   2   3
HETATM    3  C   UNL     1      -9.015  17.994  67.926  1.00  0.00    -0.265 A  
HETATM    4  C   UNL     1      -9.601  18.580  66.799  1.00  0.00    -0.321 A  
HETATM    5  C   UNL     1     -10.257  17.751  65.882  1.00  0.00    -0.231 A  
HETATM    6  C   UNL     1      -9.801  15.783  67.219  1.00  0.00    -0.230 A  
HETATM    7  C   UNL     1     -10.332  16.351  66.069  1.00  0.00    -0.365 A  
HETATM    8  C   UNL     1      -9.177  16.611  68.136  1.00  0.00    -0.220 A  
HETATM    9  C   UNL     1     -10.883  15.434  65.175  1.00  0.00    -0.431 A  
HETATM   10  N   UNL     1     -11.457  15.846  63.966  1.00  0.00    -1.104 NA 
HETATM   11  N   UNL     1     -10.906  14.114  65.401  1.00  0.00    -0.320 NA 
HETATM   12  H1  UNL     1     -11.861  15.175  63.311  1.00  0.00     0.000 HD 
HETATM   13  C   UNL     1     -10.367  13.657  66.542  1.00  0.00    -0.282 A  
HETATM   14  H2  UNL     1     -10.764  16.399  63.461  1.00  0.00     0.000 HD 
HETATM   15  N   UNL     1      -9.833  14.469  67.461  1.00  0.00    -0.221 NA 
BRANCH   4  16
HETATM   16  O   UNL     1      -9.624  19.892  66.416  1.00  0.00    -0.382 OA 
HETATM   17  C   UNL     1     -10.592  20.325  65.474  1.00  0.00    -0.016 C  
ENDBRANCH   4  16
BRANCH  13  18
HETATM   18  N   UNL     1     -10.254  12.301  66.731  1.00  0.00    -0.210 NA 
HETATM   19  C   UNL     1      -9.681  10.161  65.700  1.00  0.00    -0.259 C  
HETATM   20  C   UNL     1     -10.624  11.377  65.658  1.00  0.00    -0.258 C  
HETATM   21  N   UNL     1      -9.635   9.551  67.038  1.00  0.00    -0.157 N  
HETATM   22  C   UNL     1      -9.827   8.183  67.166  1.00  0.00    -0.217 C  
HETATM   23  C   UNL     1      -9.318  10.501  68.119  1.00  0.00    -0.148 C  
HETATM   24  C   UNL     1     -10.251  11.734  68.083  1.00  0.00    -0.203 C  
HETATM   25  O   UNL     1     -10.054   7.482  66.176  1.00  0.00     0.029 OA 
BRANCH  22  26
HETATM   26  C   UNL     1      -9.707   7.546  68.559  1.00  0.00    -0.156 C  
HETATM   27  C   UNL     1      -9.141   6.133  68.433  1.00  0.00    -0.113 C  
HETATM   28  O   UNL     1      -8.890   5.564  69.727  1.00  0.00    -0.116 OA 
HETATM   29  C   UNL     1      -9.944   5.777  70.576  1.00  0.00    -0.195 A  
HETATM   30  C   UNL     1      -9.968   5.019  71.745  1.00  0.00    -0.250 A  
HETATM   31  C   UNL     1     -11.015   5.178  72.654  1.00  0.00    -0.303 A  
HETATM   32  C   UNL     1     -12.032   6.098  72.395  1.00  0.00    -0.240 A  
HETATM   33  C   UNL     1     -12.005   6.861  71.226  1.00  0.00    -0.402 A  
HETATM   34  C   UNL     1     -10.955   6.709  70.322  1.00  0.00    -0.303 A  
HETATM   35  O   UNL     1     -10.988   7.493  69.198  1.00  0.00    -0.138 OA 
ENDBRANCH  22  26
ENDBRANCH  13  18
ENDBRANCH   2   3
TORSDOF 4
ENDMDL
MODEL       14
REMARK 921   NORMALIZED FREE ENERGY PREDICTED BY IDOCK:   -7.10 KCAL/MOL
REMARK 922        TOTAL FREE ENERGY PREDICTED BY IDOCK:   -9.29 KCAL/MOL
REMARK 923 INTER-LIGAND FREE ENERGY PREDICTED BY IDOCK:   -8.55 KCAL/MOL
REMARK 924 INTRA-LIGAND FREE ENERGY PREDICTED BY IDOCK:   -0.74 KCAL/MOL
REMARK 927      BINDING AFFINITY PREDICTED BY RF-SCORE:    0.00 PKD
ROOT
HETATM    1  C   UNL     1      -9.014   7.332  74.108  1.00  0.00    -0.226 C  
HETATM    2  O   UNL     1     -10.312   7.182  73.535  1.00  0.00    -0.304 OA 
ENDROOT
BRANCH   2   3
HETATM    3  C   UNL     1     -10.344   6.991  72.178  1.00  0.00    -0.191 A  
HETATM    4  C   UNL     1     -10.554   5.707  71.662  1.00  0.00    -0.241 A  
HETATM    5  C   UNL     1     -10.646   5.554  70.273  1.00  0.00    -0.357 A  
HETATM    6  C   UNL     1     -10.268   7.919  69.911  1.00  0.00    -0.210 A  
HETATM    7  C   UNL     1     -10.536   6.659  69.397  1.00  0.00    -0.279 A  
HETATM    8  C   UNL     1     -10.152   8.061  71.283  1.00  0.00    -0.222 A  
HETATM    9  C   UNL     1     -10.699   6.624  68.012  1.00  0.00    -0.265 A  
HETATM   10  N   UNL     1     -10.978   5.428  67.339  1.00  0.00    -0.184 NA 
HETATM   11  N   UNL     1     -10.603   7.712  67.237  1.00  0.00    -0.317 NA 
HETATM   12  H1  UNL     1     -11.097   5.403  66.326  1.00  0.00     0.000 HD 
HETATM   13  C   UNL     1     -10.342   8.890  67.825  1.00  0.00    -0.242 A  
HETATM   14  H2  UNL     1     -11.808   5.014  67.763  1.00  0.00     0.000 HD 
HETATM   15  N   UNL     1     -10.155   9.008  69.144  1.00  0.00    -0.190 NA 
BRANCH   4  16
HETATM   16  O   UNL     1     -10.712   4.521  72.323  1.00  0.00    -0.151 OA 
HETATM   17  C   UNL     1      -9.568   3.746  72.644  1.00  0.00    -0.133 C  
ENDBRANCH   4  16
BRANCH  13  18
HETATM   18  N   UNL     1     -10.376  10.036  67.069  1.00  0.00    -0.236 NA 
HETATM   19  C   UNL     1     -10.777  10.978  64.850  1.00  0.00    -0.208 C  
HETATM   20  C   UNL     1      -9.912  10.014  65.682  1.00  0.00    -0.285 C  
HETATM   21  N   UNL     1     -10.834  12.319  65.451  1.00  0.00    -0.277 N  
HETATM   22  C   UNL     1     -10.561  13.427  64.662  1.00  0.00    -0.415 C  
HETATM   23  C   UNL     1     -11.248  12.325  66.865  1.00  0.00    -0.312 C  
HETATM   24  C   UNL     1     -10.394  11.353  67.712  1.00  0.00    -0.182 C  
HETATM   25  O   UNL     1     -10.255  13.296  63.473  1.00  0.00     0.082 OA 
BRANCH  22  26
HETATM   26  C   UNL     1     -10.692  14.827  65.282  1.00  0.00    -0.390 C  
HETATM   27  C   UNL     1     -11.108  15.830  64.207  1.00  0.00     0.020 C  
HETATM   28  O   UNL     1     -11.370  17.118  64.783  1.00  0.00    -0.745 OA 
HETATM   29  C   UNL     1     -10.389  17.475  65.671  1.00  0.00    -0.134 A  
HETATM   30  C   UNL     1     -10.352  18.813  66.058  1.00  0.00    -0.467 A  
HETATM   31  C   UNL     1      -9.376  19.249  66.954  1.00  0.00    -0.371 A  
HETATM   32  C   UNL     1      -8.443  18.346  67.465  1.00  0.00    -0.260 A  
HETATM   33  C   UNL     1      -8.483  17.005  67.081  1.00  0.00    -0.222 A  
HETATM   34  C   UNL     1      -9.462  16.567  66.192  1.00  0.00    -0.315 A  
HETATM   35  O   UNL     1      -9.447  15.237  65.862  1.00  0.00    -0.319 OA 
ENDBRANCH  22  26
ENDBRANCH  13  18
ENDBRANCH   2   3
TORSDOF 4
ENDMDL
MODEL       15
REMARK 921   NORMALIZED FREE ENERGY PREDICTED BY IDOCK:   -6.93 KCAL/MOL
REMARK 922        TOTAL FREE ENERGY PREDICTED BY IDOCK:   -9.08 KCAL/MOL
REMARK 923 INTER-LIGAND FREE ENERGY PREDICTED BY IDOCK:   -8.35 KCAL/MOL
REMARK 924 INTRA-LIGAND FREE ENERGY PREDICTED BY IDOCK:   -0.73 KCAL/MOL
REMARK 927      BINDING AFFINITY PREDICTED BY RF-SCORE:    0.00 PKD
ROOT
HETATM    1  C   UNL     1     -10.023  20.677  67.237  1.00  0.00    -0.312 C  
HETATM    2  O   UNL     1     -10.060  19.772  66.135  1.00  0.00    -0.435 OA 
ENDROOT
BRANCH   2   3
HETATM    3  C   UNL     1      -9.456  18.558  66.343  1.00  0.00    -0.301 A  
HETATM    4  C   UNL     1      -8.117  18.378  65.981  1.00  0.00    -0.084 A  
HETATM    5  C   UNL     1      -7.509  17.149  66.266  1.00  0.00    -0.344 A  
HETATM    6  C   UNL     1      -9.559  16.269  67.210  1.00  0.00    -0.230 A  
HETATM    7  C   UNL     1      -8.215  16.105  66.909  1.00  0.00    -0.273 A  
HETATM    8  C   UNL     1     -10.162  17.476  66.903  1.00  0.00    -0.329 A  
HETATM    9  C   UNL     1      -7.678  14.883  67.312  1.00  0.00    -0.197 A  
HETATM   10  N   UNL     1      -6.334  14.563  67.084  1.00  0.00    -0.283 NA 
HETATM   11  N   UNL     1      -8.395  13.939  67.936  1.00  0.00    -0.153 NA 
HETATM   12  H1  UNL     1      -5.941  13.668  67.379  1.00  0.00     0.000 HD 
HETATM   13  C   UNL     1      -9.689  14.188  68.188  1.00  0.00    -0.225 A  
HETATM   14  H2  UNL     1      -5.761  15.305  67.486  1.00  0.00     0.000 HD 
HETATM   15  N   UNL     1     -10.287  15.327  67.819  1.00  0.00    -0.241 NA 
BRANCH   4  16
HETATM   16  O   UNL     1      -7.254  19.253  65.383  1.00  0.00    -0.448 OA 
HETATM   17  C   UNL     1      -6.434  20.083  66.190  1.00  0.00    -0.206 C  
ENDBRANCH   4  16
BRANCH  13  18
HETATM   18  N   UNL     1     -10.407  13.296  68.947  1.00  0.00    -0.127 NA 
HETATM   19  C   UNL     1     -12.526  12.862  70.084  1.00  0.00    -0.074 C  
HETATM   20  C   UNL     1     -11.293  13.780  70.006  1.00  0.00    -0.023 C  
HETATM   21  N   UNL     1     -12.146  11.446  70.209  1.00  0.00    -0.358 N  
HETATM   22  C   UNL     1     -12.717  10.677  71.213  1.00  0.00    -0.433 C  
HETATM   23  C   UNL     1     -11.208  10.983  69.170  1.00  0.00    -0.255 C  
HETATM   24  C   UNL     1      -9.969  11.903  69.073  1.00  0.00     0.100 C  
HETATM   25  O   UNL     1     -13.521  11.174  72.008  1.00  0.00    -0.376 OA 
BRANCH  22  26
HETATM   26  C   UNL     1     -12.367   9.184  71.290  1.00  0.00    -0.315 C  
HETATM   27  C   UNL     1     -13.637   8.368  71.524  1.00  0.00    -0.297 C  
HETATM   28  O   UNL     1     -13.360   6.961  71.465  1.00  0.00    -0.329 OA 
HETATM   29  C   UNL     1     -12.235   6.645  72.180  1.00  0.00    -0.228 A  
HETATM   30  C   UNL     1     -12.033   5.296  72.465  1.00  0.00     0.046 A  
HETATM   31  C   UNL     1     -10.911   4.902  73.195  1.00  0.00    -0.376 A  
HETATM   32  C   UNL     1      -9.992   5.855  73.634  1.00  0.00    -0.193 A  
HETATM   33  C   UNL     1     -10.192   7.206  73.345  1.00  0.00    -0.367 A  
HETATM   34  C   UNL     1     -11.308   7.600  72.609  1.00  0.00    -0.370 A  
HETATM   35  O   UNL     1     -11.440   8.941  72.355  1.00  0.00    -0.313 OA 
ENDBRANCH  22  26
ENDBRANCH  13  18
ENDBRANCH   2   3
TORSDOF 4
ENDMDL
MODEL       16
REMARK 921   NORMALIZED FREE ENERGY PREDICTED BY IDOCK:   -6.84 KCAL/MOL
REMARK 922        TOTAL FREE ENERGY PREDICTED BY IDOCK:   -8.96 KCAL/MOL
REMARK 923 INTER-LIGAND FREE ENERGY PREDICTED BY IDOCK:   -8.94 KCAL/MOL
REMARK 924 INTRA-LIGAND FREE ENERGY PREDICTED BY IDOCK:   -0.03 KCAL/MOL
REMARK 927      BINDING AFFINITY PREDICTED BY RF-SCORE:    0.00 PKD
ROOT
HETATM    1  C   UNL     1      -9.825   7.355  70.661  1.00  0.00    -0.179 C  
HETATM    2  O   UNL     1     -11.045   7.675  69.994  1.00  0.00    -0.254 OA 
ENDROOT
BRANCH   2   3
HETATM    3  C   UNL     1     -11.641   8.849  70.377  1.00  0.00    -0.101 A  
HETATM    4  C   UNL     1     -12.619   8.837  71.377  1.00  0.00    -0.294 A  
HETATM    5  C   UNL     1     -13.162  10.059  71.792  1.00  0.00    -0.540 A  
HETATM    6  C   UNL     1     -11.814  11.286  70.197  1.00  0.00    -0.364 A  
HETATM    7  C   UNL     1     -12.741  11.287  71.229  1.00  0.00    -0.510 A  
HETATM    8  C   UNL     1     -11.300  10.074  69.772  1.00  0.00    -0.281 A  
HETATM    9  C   UNL     1     -13.154  12.556  71.632  1.00  0.00    -0.315 A  
HETATM   10  N   UNL     1     -14.084  12.729  72.665  1.00  0.00    -0.603 NA 
HETATM   11  N   UNL     1     -12.702  13.685  71.072  1.00  0.00    -0.343 NA 
HETATM   12  H1  UNL     1     -14.387  13.657  72.960  1.00  0.00     0.000 HD 
HETATM   13  C   UNL     1     -11.805  13.586  70.079  1.00  0.00    -0.301 A  
HETATM   14  H2  UNL     1     -13.736  12.237  73.488  1.00  0.00     0.000 HD 
HETATM   15  N   UNL     1     -11.369  12.408  69.620  1.00  0.00    -0.178 NA 
BRANCH   4  16
HETATM   16  O   UNL     1     -13.145   7.780  72.065  1.00  0.00    -0.285 OA 
HETATM   17  C   UNL     1     -14.279   7.105  71.543  1.00  0.00    -0.333 C  
ENDBRANCH   4  16
BRANCH  13  18
HETATM   18  N   UNL     1     -11.226  14.729  69.585  1.00  0.00    -0.266 NA 
HETATM   19  C   UNL     1     -10.559  17.028  70.077  1.00  0.00     0.185 C  
HETATM   20  C   UNL     1     -11.736  16.041  69.982  1.00  0.00    -0.278 C  
HETATM   21  N   UNL     1      -9.751  17.036  68.847  1.00  0.00    -0.269 N  
HETATM   22  C   UNL     1      -9.454  18.248  68.241  1.00  0.00    -0.308 C  
HETATM   23  C   UNL     1      -9.290  15.702  68.424  1.00  0.00    -0.195 C  
HETATM   24  C   UNL     1     -10.462  14.697  68.334  1.00  0.00    -0.243 C  
HETATM   25  O   UNL     1      -9.873  19.309  68.712  1.00  0.00    -0.405 OA 
BRANCH  22  26
HETATM   26  C   UNL     1      -8.552  18.251  66.997  1.00  0.00    -0.254 C  
HETATM   27  C   UNL     1      -7.283  17.449  67.278  1.00  0.00    -0.167 C  
HETATM   28  O   UNL     1      -6.485  17.321  66.092  1.00  0.00    -0.214 OA 
HETATM   29  C   UNL     1      -6.375  18.517  65.434  1.00  0.00    -0.271 A  
HETATM   30  C   UNL     1      -5.386  18.606  64.456  1.00  0.00    -0.208 A  
HETATM   31  C   UNL     1      -5.212  19.797  63.751  1.00  0.00    -0.252 A  
HETATM   32  C   UNL     1      -6.030  20.894  64.020  1.00  0.00    -0.342 A  
HETATM   33  C   UNL     1      -7.024  20.805  64.996  1.00  0.00    -0.004 A  
HETATM   34  C   UNL     1      -7.204  19.613  65.696  1.00  0.00    -0.281 A  
HETATM   35  O   UNL     1      -8.201  19.592  66.636  1.00  0.00    -0.286 OA 
ENDBRANCH  22  26
ENDBRANCH  13  18
ENDBRANCH   2   3
TORSDOF 4
ENDMDL
MODEL       17
REMARK 921   NORMALIZED FREE ENERGY PREDICTED BY IDOCK:   -6.83 KCAL/MOL
REMARK 922        TOTAL FREE ENERGY PREDICTED BY IDOCK:   -8.96 KCAL/MOL
REMARK 923 INTER-LIGAND FREE ENERGY PREDICTED BY IDOCK:   -8.28 KCAL/MOL
REMARK 924 INTRA-LIGAND FREE ENERGY PREDICTED BY IDOCK:   -0.68 KCAL/MOL
REMARK 927      BINDING AFFINITY PREDICTED BY RF-SCORE:    0.00 PKD
ROOT
HETATM    1  C   UNL     1      -9.517   4.243  66.346  1.00  0.00    -0.183 C  
HETATM    2  O   UNL     1      -9.643   4.063  67.756  1.00  0.00    -0.177 OA 
ENDROOT
BRANCH   2   3
HETATM    3  C   UNL     1      -9.990   5.182  68.468  1.00  0.00    -0.154 A  
HETATM    4  C   UNL     1     -10.115   5.108  69.860  1.00  0.00    -0.272 A  
HETATM    5  C   UNL     1     -10.405   6.282  70.565  1.00  0.00    -0.255 A  
HETATM    6  C   UNL     1     -10.501   7.578  68.521  1.00  0.00    -0.180 A  
HETATM    7  C   UNL     1     -10.567   7.523  69.906  1.00  0.00    -0.243 A  
HETATM    8  C   UNL     1     -10.240   6.410  67.826  1.00  0.00    -0.196 A  
HETATM    9  C   UNL     1     -10.771   8.757  70.523  1.00  0.00    -0.223 A  
HETATM   10  N   UNL     1     -10.858   8.872  71.916  1.00  0.00    -0.356 NA 
HETATM   11  N   UNL     1     -10.897   9.903  69.842  1.00  0.00    -0.258 NA 
HETATM   12  H1  UNL     1     -11.007   9.775  72.367  1.00  0.00     0.000 HD 
HETATM   13  C   UNL     1     -10.818   9.858  68.503  1.00  0.00    -0.217 A  
HETATM   14  H2  UNL     1     -10.019   8.455  72.319  1.00  0.00     0.000 HD 
HETATM   15  N   UNL     1     -10.642   8.715  67.832  1.00  0.00    -0.199 NA 
BRANCH   4  16
HETATM   16  O   UNL     1      -9.974   4.030  70.688  1.00  0.00    -0.187 OA 
HETATM   17  C   UNL     1     -10.192   4.190  72.081  1.00  0.00    -0.150 C  
ENDBRANCH   4  16
BRANCH  13  18
HETATM   18  N   UNL     1     -10.805  11.035  67.794  1.00  0.00    -0.229 NA 
HETATM   19  C   UNL     1     -11.704  12.237  65.866  1.00  0.00    -0.389 C  
HETATM   20  C   UNL     1     -10.898  11.012  66.334  1.00  0.00    -0.191 C  
HETATM   21  N   UNL     1     -11.169  13.490  66.422  1.00  0.00    -0.303 N  
HETATM   22  C   UNL     1     -10.906  14.552  65.570  1.00  0.00    -0.336 C  
HETATM   23  C   UNL     1     -11.026  13.481  67.889  1.00  0.00    -0.256 C  
HETATM   24  C   UNL     1     -10.227  12.249  68.375  1.00  0.00    -0.217 C  
HETATM   25  O   UNL     1     -11.099  14.448  64.355  1.00  0.00    -0.318 OA 
BRANCH  22  26
HETATM   26  C   UNL     1     -10.414  15.877  66.169  1.00  0.00    -0.326 C  
HETATM   27  C   UNL     1     -10.854  17.040  65.282  1.00  0.00    -0.071 C  
HETATM   28  O   UNL     1     -10.526  18.300  65.887  1.00  0.00    -0.532 OA 
HETATM   29  C   UNL     1      -9.249  18.297  66.381  1.00  0.00    -0.263 A  
HETATM   30  C   UNL     1      -8.700  19.536  66.707  1.00  0.00    -0.358 A  
HETATM   31  C   UNL     1      -7.401  19.609  67.208  1.00  0.00    -0.259 A  
HETATM   32  C   UNL     1      -6.654  18.445  67.388  1.00  0.00    -0.199 A  
HETATM   33  C   UNL     1      -7.204  17.203  67.067  1.00  0.00    -0.219 A  
HETATM   34  C   UNL     1      -8.505  17.128  66.573  1.00  0.00    -0.274 A  
HETATM   35  O   UNL     1      -8.985  15.877  66.283  1.00  0.00    -0.292 OA 
ENDBRANCH  22  26
ENDBRANCH  13  18
ENDBRANCH   2   3
TORSDOF 4
ENDMDL
MODEL       18
REMARK 921   NORMALIZED FREE ENERGY PREDICTED BY IDOCK:   -6.83 KCAL/MOL
REMARK 922        TOTAL FREE ENERGY PREDICTED BY IDOCK:   -8.95 KCAL/MOL
REMARK 923 INTER-LIGAND FREE ENERGY PREDICTED BY IDOCK:   -8.26 KCAL/MOL
REMARK 924 INTRA-LIGAND FREE ENERGY PREDICTED BY IDOCK:   -0.69 KCAL/MOL
REMARK 927      BINDING AFFINITY PREDICTED BY RF-SCORE:    0.00 PKD
ROOT
HETATM    1  C   UNL     1      -9.056   2.238  69.480  1.00  0.00    -0.115 C  
HETATM    2  O   UNL     1      -9.162   2.587  70.859  1.00  0.00    -0.105 OA 
ENDROOT
BRANCH   2   3
HETATM    3  C   UNL     1      -9.798   3.772  71.124  1.00  0.00    -0.143 A  
HETATM    4  C   UNL     1     -10.397   3.975  72.373  1.00  0.00    -0.137 A  
HETATM    5  C   UNL     1     -10.982   5.219  72.637  1.00  0.00    -0.316 A  
HETATM    6  C   UNL     1     -10.432   6.032  70.423  1.00  0.00    -0.246 A  
HETATM    7  C   UNL     1     -10.974   6.260  71.680  1.00  0.00    -0.310 A  
HETATM    8  C   UNL     1      -9.878   4.792  70.157  1.00  0.00    -0.308 A  
HETATM    9  C   UNL     1     -11.450   7.556  71.876  1.00  0.00    -0.270 A  
HETATM   10  N   UNL     1     -12.025   7.947  73.092  1.00  0.00    -0.609 NA 
HETATM   11  N   UNL     1     -11.396   8.506  70.934  1.00  0.00    -0.266 NA 
HETATM   12  H1  UNL     1     -12.373   8.896  73.236  1.00  0.00     0.000 HD 
HETATM   13  C   UNL     1     -10.852   8.193  69.748  1.00  0.00    -0.190 A  
HETATM   14  H2  UNL     1     -11.357   7.742  73.836  1.00  0.00     0.000 HD 
HETATM   15  N   UNL     1     -10.388   6.970  69.471  1.00  0.00    -0.205 NA 
BRANCH   4  16
HETATM   16  O   UNL     1     -10.493   3.123  73.438  1.00  0.00    -0.137 OA 
HETATM   17  C   UNL     1     -11.569   2.201  73.497  1.00  0.00    -0.169 C  
ENDBRANCH   4  16
BRANCH  13  18
HETATM   18  N   UNL     1     -10.660   9.186  68.818  1.00  0.00    -0.208 NA 
HETATM   19  C   UNL     1     -10.403   9.703  66.443  1.00  0.00    -0.176 C  
HETATM   20  C   UNL     1      -9.819   8.941  67.647  1.00  0.00    -0.182 C  
HETATM   21  N   UNL     1     -10.619  11.125  66.750  1.00  0.00    -0.252 N  
HETATM   22  C   UNL     1     -10.125  12.088  65.882  1.00  0.00    -0.236 C  
HETATM   23  C   UNL     1     -11.420  11.362  67.964  1.00  0.00    -0.307 C  
HETATM   24  C   UNL     1     -10.851  10.594  69.179  1.00  0.00    -0.237 C  
HETATM   25  O   UNL     1      -9.493  11.763  64.872  1.00  0.00    -0.164 OA 
BRANCH  22  26
HETATM   26  C   UNL     1     -10.417  13.567  66.174  1.00  0.00    -0.296 C  
HETATM   27  C   UNL     1     -10.648  14.316  64.863  1.00  0.00    -0.431 C  
HETATM   28  O   UNL     1     -11.057  15.670  65.111  1.00  0.00    -0.371 OA 
HETATM   29  C   UNL     1     -10.279  16.256  66.074  1.00  0.00    -0.358 A  
HETATM   30  C   UNL     1     -10.359  17.642  66.186  1.00  0.00    -0.334 A  
HETATM   31  C   UNL     1      -9.589  18.307  67.141  1.00  0.00    -0.281 A  
HETATM   32  C   UNL     1      -8.745  17.585  67.985  1.00  0.00    -0.254 A  
HETATM   33  C   UNL     1      -8.667  16.196  67.876  1.00  0.00    -0.174 A  
HETATM   34  C   UNL     1      -9.442  15.530  66.928  1.00  0.00    -0.228 A  
HETATM   35  O   UNL     1      -9.321  14.165  66.879  1.00  0.00    -0.243 OA 
ENDBRANCH  22  26
ENDBRANCH  13  18
ENDBRANCH   2   3
TORSDOF 4
ENDMDL
MODEL       19
REMARK 921   NORMALIZED FREE ENERGY PREDICTED BY IDOCK:   -6.83 KCAL/MOL
REMARK 922        TOTAL FREE ENERGY PREDICTED BY IDOCK:   -8.95 KCAL/MOL
REMARK 923 INTER-LIGAND FREE ENERGY PREDICTED BY IDOCK:   -8.33 KCAL/MOL
REMARK 924 INTRA-LIGAND FREE ENERGY PREDICTED BY IDOCK:   -0.62 KCAL/MOL
REMARK 927      BINDING AFFINITY PREDICTED BY RF-SCORE:    0.00 PKD
ROOT
HETATM    1  C   UNL     1     -11.083  15.504  70.359  1.00  0.00    -0.337 C  
HETATM    2  O   UNL     1     -12.230  14.770  69.932  1.00  0.00    -0.308 OA 
ENDROOT
BRANCH   2   3
HETATM    3  C   UNL     1     -12.396  13.539  70.512  1.00  0.00    -0.342 A  
HETATM    4  C   UNL     1     -13.286  13.388  71.580  1.00  0.00    -0.338 A  
HETATM    5  C   UNL     1     -13.483  12.107  72.108  1.00  0.00    -0.383 A  
HETATM    6  C   UNL     1     -11.884  11.143  70.565  1.00  0.00    -0.351 A  
HETATM    7  C   UNL     1     -12.810  10.978  71.584  1.00  0.00    -0.540 A  
HETATM    8  C   UNL     1     -11.673  12.416  70.064  1.00  0.00    -0.307 A  
HETATM    9  C   UNL     1     -13.002   9.655  71.981  1.00  0.00    -0.428 A  
HETATM   10  N   UNL     1     -13.906   9.319  72.996  1.00  0.00    -1.013 NA 
HETATM   11  N   UNL     1     -12.347   8.624  71.431  1.00  0.00    -0.305 NA 
HETATM   12  H1  UNL     1     -14.046   8.351  73.287  1.00  0.00     0.000 HD 
HETATM   13  C   UNL     1     -11.470   8.881  70.448  1.00  0.00    -0.157 A  
HETATM   14  H2  UNL     1     -14.816   9.707  72.748  1.00  0.00     0.000 HD 
HETATM   15  N   UNL     1     -11.214  10.122  70.021  1.00  0.00    -0.279 NA 
BRANCH   4  16
HETATM   16  O   UNL     1     -14.050  14.329  72.213  1.00  0.00    -0.484 OA 
HETATM   17  C   UNL     1     -13.422  15.288  73.049  1.00  0.00    -0.481 C  
ENDBRANCH   4  16
BRANCH  13  18
HETATM   18  N   UNL     1     -10.891   7.832  69.777  1.00  0.00    -0.239 NA 
HETATM   19  C   UNL     1     -10.614   5.405  69.683  1.00  0.00    -0.258 C  
HETATM   20  C   UNL     1     -10.384   6.677  70.519  1.00  0.00    -0.199 C  
HETATM   21  N   UNL     1     -10.071   5.540  68.322  1.00  0.00    -0.162 N  
HETATM   22  C   UNL     1      -9.240   4.548  67.823  1.00  0.00    -0.131 C  
HETATM   23  C   UNL     1     -10.544   6.737  67.604  1.00  0.00    -0.259 C  
HETATM   24  C   UNL     1     -10.329   8.022  68.437  1.00  0.00    -0.199 C  
HETATM   25  O   UNL     1      -8.940   3.570  68.513  1.00  0.00    -0.107 OA 
BRANCH  22  26
HETATM   26  C   UNL     1      -8.735   4.664  66.377  1.00  0.00    -0.112 C  
HETATM   27  C   UNL     1      -9.616   3.824  65.454  1.00  0.00    -0.174 C  
HETATM   28  O   UNL     1      -9.252   4.021  64.079  1.00  0.00    -0.135 OA 
HETATM   29  C   UNL     1      -7.893   3.973  63.913  1.00  0.00    -0.084 A  
HETATM   30  C   UNL     1      -7.427   3.835  62.607  1.00  0.00    -0.053 A  
HETATM   31  C   UNL     1      -6.055   3.773  62.363  1.00  0.00    -0.017 A  
HETATM   32  C   UNL     1      -5.152   3.855  63.424  1.00  0.00    -0.005 A  
HETATM   33  C   UNL     1      -5.618   3.998  64.732  1.00  0.00    -0.014 A  
HETATM   34  C   UNL     1      -6.989   4.068  64.975  1.00  0.00    -0.058 A  
HETATM   35  O   UNL     1      -7.378   4.214  66.282  1.00  0.00    -0.077 OA 
ENDBRANCH  22  26
ENDBRANCH  13  18
ENDBRANCH   2   3
TORSDOF 4
ENDMDL
MODEL       20
REMARK 921   NORMALIZED FREE ENERGY PREDICTED BY IDOCK:   -6.77 KCAL/MOL
REMARK 922        TOTAL FREE ENERGY PREDICTED BY IDOCK:   -8.88 KCAL/MOL
REMARK 923 INTER-LIGAND FREE ENERGY PREDICTED BY IDOCK:   -8.91 KCAL/MOL
REMARK 924 INTRA-LIGAND FREE ENERGY PREDICTED BY IDOCK:    0.03 KCAL/MOL
REMARK 927      BINDING AFFINITY PREDICTED BY RF-SCORE:    0.00 PKD
ROOT
HETATM    1  C   UNL     1     -10.934   7.688  73.150  1.00  0.00    -0.353 C  
HETATM    2  O   UNL     1     -11.613   7.015  72.089  1.00  0.00    -0.268 OA 
ENDROOT
BRANCH   2   3
HETATM    3  C   UNL     1     -11.106   7.226  70.833  1.00  0.00    -0.261 A  
HETATM    4  C   UNL     1     -10.595   6.148  70.101  1.00  0.00    -0.259 A  
HETATM    5  C   UNL     1     -10.145   6.383  68.796  1.00  0.00    -0.182 A  
HETATM    6  C   UNL     1     -10.651   8.746  68.965  1.00  0.00    -0.171 A  
HETATM    7  C   UNL     1     -10.201   7.671  68.213  1.00  0.00    -0.229 A  
HETATM    8  C   UNL     1     -11.071   8.513  70.264  1.00  0.00    -0.222 A  
HETATM    9  C   UNL     1      -9.860   7.989  66.899  1.00  0.00    -0.248 A  
HETATM   10  N   UNL     1      -9.390   7.015  66.009  1.00  0.00    -0.379 NA 
HETATM   11  N   UNL     1      -9.954   9.227  66.398  1.00  0.00    -0.277 NA 
HETATM   12  H1  UNL     1      -9.140   7.248  65.047  1.00  0.00     0.000 HD 
HETATM   13  C   UNL     1     -10.402  10.204  67.202  1.00  0.00    -0.238 A  
HETATM   14  H2  UNL     1     -10.073   6.258  65.981  1.00  0.00     0.000 HD 
HETATM   15  N   UNL     1     -10.734   9.988  68.479  1.00  0.00    -0.221 NA 
BRANCH   4  16
HETATM   16  O   UNL     1     -10.476   4.834  70.459  1.00  0.00    -0.178 OA 
HETATM   17  C   UNL     1      -9.326   4.409  71.172  1.00  0.00    -0.148 C  
ENDBRANCH   4  16
BRANCH  13  18
HETATM   18  N   UNL     1     -10.637  11.450  66.672  1.00  0.00    -0.247 NA 
HETATM   19  C   UNL     1     -12.262  12.892  65.552  1.00  0.00    -0.474 C  
HETATM   20  C   UNL     1     -11.444  11.591  65.460  1.00  0.00    -0.004 C  
HETATM   21  N   UNL     1     -11.411  14.053  65.856  1.00  0.00    -0.312 N  
HETATM   22  C   UNL     1     -11.511  15.190  65.068  1.00  0.00    -0.339 C  
HETATM   23  C   UNL     1     -10.560  13.878  67.046  1.00  0.00    -0.279 C  
HETATM   24  C   UNL     1      -9.740  12.569  66.972  1.00  0.00    -0.213 C  
HETATM   25  O   UNL     1     -12.290  15.228  64.111  1.00  0.00    -0.630 OA 
BRANCH  22  26
HETATM   26  C   UNL     1     -10.669  16.421  65.435  1.00  0.00    -0.296 C  
HETATM   27  C   UNL     1      -9.209  16.012  65.616  1.00  0.00    -0.035 C  
HETATM   28  O   UNL     1      -8.376  17.162  65.825  1.00  0.00    -0.519 OA 
HETATM   29  C   UNL     1      -8.935  18.022  66.734  1.00  0.00    -0.269 A  
HETATM   30  C   UNL     1      -8.101  19.007  67.260  1.00  0.00    -0.281 A  
HETATM   31  C   UNL     1      -8.601  19.912  68.195  1.00  0.00    -0.286 A  
HETATM   32  C   UNL     1      -9.934  19.836  68.600  1.00  0.00    -0.535 A  
HETATM   33  C   UNL     1     -10.771  18.853  68.070  1.00  0.00    -0.283 A  
HETATM   34  C   UNL     1     -10.275  17.952  67.129  1.00  0.00    -0.353 A  
HETATM   35  O   UNL     1     -11.152  17.016  66.646  1.00  0.00     0.080 OA 
ENDBRANCH  22  26
ENDBRANCH  13  18
ENDBRANCH   2   3
TORSDOF 4
ENDMDL
MODEL       21
REMARK 921   NORMALIZED FREE ENERGY PREDICTED BY IDOCK:   -6.77 KCAL/MOL
REMARK 922        TOTAL FREE ENERGY PREDICTED BY IDOCK:   -8.88 KCAL/MOL
REMARK 923 INTER-LIGAND FREE ENERGY PREDICTED BY IDOCK:   -8.23 KCAL/MOL
REMARK 924 INTRA-LIGAND FREE ENERGY PREDICTED BY IDOCK:   -0.65 KCAL/MOL
REMARK 927      BINDING AFFINITY PREDICTED BY RF-SCORE:    0.00 PKD
ROOT
HETATM    1  C   UNL     1     -10.188  11.455  62.972  1.00  0.00    -0.263 C  
HETATM    2  O   UNL     1     -11.111  12.474  63.354  1.00  0.00    -0.459 OA 
ENDROOT
BRANCH   2   3
HETATM    3  C   UNL     1     -11.253  12.670  64.704  1.00  0.00    -0.310 A  
HETATM    4  C   UNL     1     -11.694  13.909  65.183  1.00  0.00    -0.350 A  
HETATM    5  C   UNL     1     -11.891  14.058  66.561  1.00  0.00    -0.439 A  
HETATM    6  C   UNL     1     -11.167  11.786  66.987  1.00  0.00    -0.322 A  
HETATM    7  C   UNL     1     -11.661  12.993  67.462  1.00  0.00    -0.421 A  
HETATM    8  C   UNL     1     -10.948  11.652  65.627  1.00  0.00    -0.322 A  
HETATM    9  C   UNL     1     -11.910  13.014  68.834  1.00  0.00    -0.316 A  
HETATM   10  N   UNL     1     -12.414  14.157  69.469  1.00  0.00    -0.481 NA 
HETATM   11  N   UNL     1     -11.690  11.963  69.634  1.00  0.00    -0.326 NA 
HETATM   12  H1  UNL     1     -12.596  14.172  70.473  1.00  0.00     0.000 HD 
HETATM   13  C   UNL     1     -11.211  10.836  69.084  1.00  0.00    -0.262 A  
HETATM   14  H2  UNL     1     -13.272  14.430  68.990  1.00  0.00     0.000 HD 
HETATM   15  N   UNL     1     -10.929  10.737  67.781  1.00  0.00    -0.275 NA 
BRANCH   4  16
HETATM   16  O   UNL     1     -11.998  15.048  64.492  1.00  0.00    -0.440 OA 
HETATM   17  C   UNL     1     -11.195  16.204  64.670  1.00  0.00    -0.298 C  
ENDBRANCH   4  16
BRANCH  13  18
HETATM   18  N   UNL     1     -11.109   9.706  69.858  1.00  0.00    -0.241 NA 
HETATM   19  C   UNL     1     -11.880   8.568  71.879  1.00  0.00    -0.341 C  
HETATM   20  C   UNL     1     -11.162   9.808  71.316  1.00  0.00    -0.347 C  
HETATM   21  N   UNL     1     -11.286   7.318  71.378  1.00  0.00    -0.244 N  
HETATM   22  C   UNL     1     -10.936   6.325  72.281  1.00  0.00    -0.259 C  
HETATM   23  C   UNL     1     -11.185   7.249  69.909  1.00  0.00    -0.170 C  
HETATM   24  C   UNL     1     -10.475   8.495  69.329  1.00  0.00    -0.215 C  
HETATM   25  O   UNL     1     -11.101   6.488  73.493  1.00  0.00    -0.157 OA 
BRANCH  22  26
HETATM   26  C   UNL     1     -10.383   4.997  71.742  1.00  0.00    -0.200 C  
HETATM   27  C   UNL     1     -10.530   3.909  72.804  1.00  0.00    -0.153 C  
HETATM   28  O   UNL     1     -10.147   2.628  72.280  1.00  0.00    -0.162 OA 
HETATM   29  C   UNL     1      -8.972   2.708  71.580  1.00  0.00    -0.086 A  
HETATM   30  C   UNL     1      -8.331   1.505  71.292  1.00  0.00    -0.058 A  
HETATM   31  C   UNL     1      -7.127   1.511  70.587  1.00  0.00    -0.033 A  
HETATM   32  C   UNL     1      -6.569   2.719  70.168  1.00  0.00    -0.033 A  
HETATM   33  C   UNL     1      -7.213   3.924  70.451  1.00  0.00    -0.041 A  
HETATM   34  C   UNL     1      -8.420   3.919  71.148  1.00  0.00    -0.076 A  
HETATM   35  O   UNL     1      -9.001   5.137  71.389  1.00  0.00    -0.133 OA 
ENDBRANCH  22  26
ENDBRANCH  13  18
ENDBRANCH   2   3
TORSDOF 4
ENDMDL
MODEL       22
REMARK 921   NORMALIZED FREE ENERGY PREDICTED BY IDOCK:   -6.66 KCAL/MOL
REMARK 922        TOTAL FREE ENERGY PREDICTED BY IDOCK:   -8.75 KCAL/MOL
REMARK 923 INTER-LIGAND FREE ENERGY PREDICTED BY IDOCK:   -9.00 KCAL/MOL
REMARK 924 INTRA-LIGAND FREE ENERGY PREDICTED BY IDOCK:    0.25 KCAL/MOL
REMARK 927      BINDING AFFINITY PREDICTED BY RF-SCORE:    0.00 PKD
ROOT
HETATM    1  C   UNL     1     -10.337  19.452  67.992  1.00  0.00    -0.425 C  
HETATM    2  O   UNL     1     -10.880  18.488  67.091  1.00  0.00    -0.391 OA 
ENDROOT
BRANCH   2   3
HETATM    3  C   UNL     1     -10.269  17.260  67.097  1.00  0.00    -0.319 A  
HETATM    4  C   UNL     1      -9.004  17.111  66.519  1.00  0.00    -0.272 A  
HETATM    5  C   UNL     1      -8.378  15.861  66.598  1.00  0.00    -0.328 A  
HETATM    6  C   UNL     1     -10.271  14.903  67.767  1.00  0.00    -0.236 A  
HETATM    7  C   UNL     1      -8.992  14.765  67.248  1.00  0.00    -0.210 A  
HETATM    8  C   UNL     1     -10.897  16.133  67.663  1.00  0.00    -0.297 A  
HETATM    9  C   UNL     1      -8.418  13.511  67.456  1.00  0.00    -0.192 A  
HETATM   10  N   UNL     1      -7.129  13.212  66.996  1.00  0.00    -0.379 NA 
HETATM   11  N   UNL     1      -9.044  12.518  68.099  1.00  0.00    -0.201 NA 
HETATM   12  H1  UNL     1      -6.709  12.295  67.147  1.00  0.00     0.000 HD 
HETATM   13  C   UNL     1     -10.280  12.745  68.568  1.00  0.00    -0.200 A  
HETATM   14  H2  UNL     1      -6.491  13.915  67.368  1.00  0.00     0.000 HD 
HETATM   15  N   UNL     1     -10.910  13.912  68.396  1.00  0.00    -0.247 NA 
BRANCH   4  16
HETATM   16  O   UNL     1      -8.231  18.035  65.873  1.00  0.00    -0.517 OA 
HETATM   17  C   UNL     1      -6.821  17.879  65.867  1.00  0.00    -0.280 C  
ENDBRANCH   4  16
BRANCH  13  18
HETATM   18  N   UNL     1     -10.885  11.789  69.348  1.00  0.00    -0.129 NA 
HETATM   19  C   UNL     1     -12.983  11.036  70.351  1.00  0.00    -0.053 C  
HETATM   20  C   UNL     1     -11.943  12.169  70.284  1.00  0.00    -0.305 C  
HETATM   21  N   UNL     1     -12.356   9.735  70.636  1.00  0.00    -0.217 N  
HETATM   22  C   UNL     1     -12.865   8.949  71.658  1.00  0.00    -0.349 C  
HETATM   23  C   UNL     1     -11.254   9.388  69.721  1.00  0.00    -0.114 C  
HETATM   24  C   UNL     1     -10.207  10.523  69.637  1.00  0.00    -0.168 C  
HETATM   25  O   UNL     1     -13.820   9.337  72.338  1.00  0.00    -0.470 OA 
BRANCH  22  26
HETATM   26  C   UNL     1     -12.249   7.563  71.902  1.00  0.00    -0.306 C  
HETATM   27  C   UNL     1     -11.241   7.641  73.048  1.00  0.00    -0.333 C  
HETATM   28  O   UNL     1     -10.750   6.335  73.387  1.00  0.00    -0.255 OA 
HETATM   29  C   UNL     1     -10.417   5.621  72.267  1.00  0.00    -0.213 A  
HETATM   30  C   UNL     1      -9.645   4.478  72.459  1.00  0.00    -0.183 A  
HETATM   31  C   UNL     1      -9.262   3.706  71.362  1.00  0.00    -0.196 A  
HETATM   32  C   UNL     1      -9.657   4.076  70.075  1.00  0.00    -0.274 A  
HETATM   33  C   UNL     1     -10.435   5.218  69.882  1.00  0.00    -0.351 A  
HETATM   34  C   UNL     1     -10.824   5.985  70.979  1.00  0.00    -0.282 A  
HETATM   35  O   UNL     1     -11.592   7.091  70.719  1.00  0.00    -0.304 OA 
ENDBRANCH  22  26
ENDBRANCH  13  18
ENDBRANCH   2   3
TORSDOF 4
ENDMDL
MODEL       23
REMARK 921   NORMALIZED FREE ENERGY PREDICTED BY IDOCK:   -6.63 KCAL/MOL
REMARK 922        TOTAL FREE ENERGY PREDICTED BY IDOCK:   -8.70 KCAL/MOL
REMARK 923 INTER-LIGAND FREE ENERGY PREDICTED BY IDOCK:   -8.62 KCAL/MOL
REMARK 924 INTRA-LIGAND FREE ENERGY PREDICTED BY IDOCK:   -0.08 KCAL/MOL
REMARK 927      BINDING AFFINITY PREDICTED BY RF-SCORE:    0.00 PKD
ROOT
HETATM    1  C   UNL     1      -8.583   3.745  65.614  1.00  0.00    -0.112 C  
HETATM    2  O   UNL     1      -9.874   3.864  66.210  1.00  0.00    -0.191 OA 
ENDROOT
BRANCH   2   3
HETATM    3  C   UNL     1     -10.003   4.851  67.153  1.00  0.00    -0.197 A  
HETATM    4  C   UNL     1      -9.835   4.543  68.508  1.00  0.00    -0.089 A  
HETATM    5  C   UNL     1      -9.908   5.584  69.441  1.00  0.00    -0.240 A  
HETATM    6  C   UNL     1     -10.368   7.210  67.706  1.00  0.00    -0.202 A  
HETATM    7  C   UNL     1     -10.142   6.921  69.044  1.00  0.00    -0.175 A  
HETATM    8  C   UNL     1     -10.320   6.174  66.790  1.00  0.00    -0.292 A  
HETATM    9  C   UNL     1     -10.146   8.035  69.883  1.00  0.00    -0.198 A  
HETATM   10  N   UNL     1      -9.930   7.914  71.261  1.00  0.00    -0.175 NA 
HETATM   11  N   UNL     1     -10.354   9.282  69.442  1.00  0.00    -0.209 NA 
HETATM   12  H1  UNL     1      -9.933   8.729  71.875  1.00  0.00     0.000 HD 
HETATM   13  C   UNL     1     -10.562   9.465  68.129  1.00  0.00    -0.212 A  
HETATM   14  H2  UNL     1      -9.048   7.421  71.399  1.00  0.00     0.000 HD 
HETATM   15  N   UNL     1     -10.592   8.450  67.258  1.00  0.00    -0.298 NA 
BRANCH   4  16
HETATM   16  O   UNL     1      -9.577   3.338  69.099  1.00  0.00    -0.157 OA 
HETATM   17  C   UNL     1      -8.239   2.987  69.410  1.00  0.00    -0.054 C  
ENDBRANCH   4  16
BRANCH  13  18
HETATM   18  N   UNL     1     -10.640  10.744  67.635  1.00  0.00    -0.214 NA 
HETATM   19  C   UNL     1     -11.757  12.231  66.050  1.00  0.00    -0.388 C  
HETATM   20  C   UNL     1     -10.892  10.968  66.212  1.00  0.00    -0.170 C  
HETATM   21  N   UNL     1     -11.176  13.386  66.753  1.00  0.00    -0.302 N  
HETATM   22  C   UNL     1     -11.018  14.584  66.072  1.00  0.00    -0.324 C  
HETATM   23  C   UNL     1     -10.872  13.132  68.172  1.00  0.00    -0.251 C  
HETATM   24  C   UNL     1     -10.012  11.859  68.351  1.00  0.00    -0.203 C  
HETATM   25  O   UNL     1     -11.343  14.683  64.885  1.00  0.00    -0.366 OA 
BRANCH  22  26
HETATM   26  C   UNL     1     -10.476  15.802  66.835  1.00  0.00    -0.315 C  
HETATM   27  C   UNL     1     -11.289  16.016  68.111  1.00  0.00    -0.289 C  
HETATM   28  O   UNL     1     -10.720  17.063  68.911  1.00  0.00    -0.335 OA 
HETATM   29  C   UNL     1     -10.396  18.153  68.147  1.00  0.00    -0.379 A  
HETATM   30  C   UNL     1     -10.133  19.340  68.829  1.00  0.00    -0.477 A  
HETATM   31  C   UNL     1      -9.804  20.492  68.115  1.00  0.00    -0.216 A  
HETATM   32  C   UNL     1      -9.732  20.455  66.722  1.00  0.00    -0.528 A  
HETATM   33  C   UNL     1      -9.991  19.265  66.039  1.00  0.00    -0.403 A  
HETATM   34  C   UNL     1     -10.312  18.112  66.752  1.00  0.00    -0.365 A  
HETATM   35  O   UNL     1     -10.549  16.978  66.019  1.00  0.00    -0.299 OA 
ENDBRANCH  22  26
ENDBRANCH  13  18
ENDBRANCH   2   3
TORSDOF 4
ENDMDL
MODEL       24
REMARK 921   NORMALIZED FREE ENERGY PREDICTED BY IDOCK:   -6.62 KCAL/MOL
REMARK 922        TOTAL FREE ENERGY PREDICTED BY IDOCK:   -8.70 KCAL/MOL
REMARK 923 INTER-LIGAND FREE ENERGY PREDICTED BY IDOCK:   -9.06 KCAL/MOL
REMARK 924 INTRA-LIGAND FREE ENERGY PREDICTED BY IDOCK:    0.36 KCAL/MOL
REMARK 927      BINDING AFFINITY PREDICTED BY RF-SCORE:    0.00 PKD
ROOT
HETATM    1  C   UNL     1      -9.289   4.640  65.829  1.00  0.00    -0.158 C  
HETATM    2  O   UNL     1     -10.344   4.696  66.788  1.00  0.00    -0.217 OA 
ENDROOT
BRANCH   2   3
HETATM    3  C   UNL     1     -10.379   5.826  67.565  1.00  0.00    -0.220 A  
HETATM    4  C   UNL     1     -10.107   5.735  68.934  1.00  0.00    -0.186 A  
HETATM    5  C   UNL     1     -10.086   6.915  69.689  1.00  0.00    -0.195 A  
HETATM    6  C   UNL     1     -10.657   8.253  67.752  1.00  0.00    -0.168 A  
HETATM    7  C   UNL     1     -10.328   8.177  69.098  1.00  0.00    -0.228 A  
HETATM    8  C   UNL     1     -10.702   7.082  67.016  1.00  0.00    -0.423 A  
HETATM    9  C   UNL     1     -10.245   9.411  69.742  1.00  0.00    -0.220 A  
HETATM   10  N   UNL     1      -9.920   9.506  71.101  1.00  0.00    -0.265 NA 
HETATM   11  N   UNL     1     -10.467  10.576  69.121  1.00  0.00    -0.214 NA 
HETATM   12  H1  UNL     1      -9.860  10.409  71.572  1.00  0.00     0.000 HD 
HETATM   13  C   UNL     1     -10.778  10.551  67.816  1.00  0.00    -0.272 A  
HETATM   14  H2  UNL     1      -9.038   9.016  71.249  1.00  0.00     0.000 HD 
HETATM   15  N   UNL     1     -10.895   9.411  67.127  1.00  0.00    -0.158 NA 
BRANCH   4  16
HETATM   16  O   UNL     1      -9.823   4.634  69.692  1.00  0.00    -0.197 OA 
HETATM   17  C   UNL     1     -10.220   4.605  71.054  1.00  0.00    -0.136 C  
ENDBRANCH   4  16
BRANCH  13  18
HETATM   18  N   UNL     1     -10.873  11.737  67.128  1.00  0.00    -0.244 NA 
HETATM   19  C   UNL     1     -12.321  13.182  65.791  1.00  0.00    -0.435 C  
HETATM   20  C   UNL     1     -11.642  11.804  65.885  1.00  0.00    -0.130 C  
HETATM   21  N   UNL     1     -11.357  14.279  65.970  1.00  0.00    -0.328 N  
HETATM   22  C   UNL     1     -11.325  15.311  65.044  1.00  0.00    -0.358 C  
HETATM   23  C   UNL     1     -10.547  14.172  67.197  1.00  0.00    -0.278 C  
HETATM   24  C   UNL     1      -9.868  12.787  67.310  1.00  0.00    -0.207 C  
HETATM   25  O   UNL     1     -12.081  15.306  64.067  1.00  0.00    -0.565 OA 
BRANCH  22  26
HETATM   26  C   UNL     1     -10.364  16.487  65.278  1.00  0.00    -0.135 C  
HETATM   27  C   UNL     1      -9.062  15.974  65.890  1.00  0.00    -0.257 C  
HETATM   28  O   UNL     1      -8.094  17.030  65.993  1.00  0.00    -0.452 OA 
HETATM   29  C   UNL     1      -8.656  18.171  66.502  1.00  0.00    -0.263 A  
HETATM   30  C   UNL     1      -7.777  19.157  66.945  1.00  0.00    -0.251 A  
HETATM   31  C   UNL     1      -8.278  20.343  67.482  1.00  0.00    -0.333 A  
HETATM   32  C   UNL     1      -9.656  20.543  67.570  1.00  0.00    -0.545 A  
HETATM   33  C   UNL     1     -10.537  19.557  67.123  1.00  0.00    -0.605 A  
HETATM   34  C   UNL     1     -10.037  18.375  66.579  1.00  0.00    -0.388 A  
HETATM   35  O   UNL     1     -10.957  17.452  66.155  1.00  0.00    -0.029 OA 
ENDBRANCH  22  26
ENDBRANCH  13  18
ENDBRANCH   2   3
TORSDOF 4
ENDMDL
MODEL       25
REMARK 921   NORMALIZED FREE ENERGY PREDICTED BY IDOCK:   -6.61 KCAL/MOL
REMARK 922        TOTAL FREE ENERGY PREDICTED BY IDOCK:   -8.68 KCAL/MOL
REMARK 923 INTER-LIGAND FREE ENERGY PREDICTED BY IDOCK:   -8.24 KCAL/MOL
REMARK 924 INTRA-LIGAND FREE ENERGY PREDICTED BY IDOCK:   -0.44 KCAL/MOL
REMARK 927      BINDING AFFINITY PREDICTED BY RF-SCORE:    0.00 PKD
ROOT
HETATM    1  C   UNL     1     -12.182  15.785  71.433  1.00  0.00    -0.445 C  
HETATM    2  O   UNL     1     -11.297  16.403  70.500  1.00  0.00    -0.363 OA 
ENDROOT
BRANCH   2   3
HETATM    3  C   UNL     1     -11.079  15.707  69.339  1.00  0.00    -0.303 A  
HETATM    4  C   UNL     1     -10.905  16.400  68.136  1.00  0.00    -0.346 A  
HETATM    5  C   UNL     1     -10.620  15.666  66.979  1.00  0.00    -0.311 A  
HETATM    6  C   UNL     1     -10.733  13.571  68.189  1.00  0.00    -0.252 A  
HETATM    7  C   UNL     1     -10.501  14.257  67.005  1.00  0.00    -0.271 A  
HETATM    8  C   UNL     1     -11.041  14.299  69.325  1.00  0.00    -0.297 A  
HETATM    9  C   UNL     1     -10.135  13.446  65.931  1.00  0.00    -0.293 A  
HETATM   10  N   UNL     1      -9.863  13.985  64.668  1.00  0.00    -0.610 NA 
HETATM   11  N   UNL     1     -10.020  12.115  66.026  1.00  0.00    -0.232 NA 
HETATM   12  H1  UNL     1      -9.596  13.392  63.881  1.00  0.00     0.000 HD 
HETATM   13  C   UNL     1     -10.263  11.539  67.213  1.00  0.00    -0.202 A  
HETATM   14  H2  UNL     1      -9.145  14.701  64.779  1.00  0.00     0.000 HD 
HETATM   15  N   UNL     1     -10.636  12.241  68.289  1.00  0.00    -0.219 NA 
BRANCH   4  16
HETATM   16  O   UNL     1     -10.951  17.745  67.894  1.00  0.00    -0.308 OA 
HETATM   17  C   UNL     1      -9.812  18.542  68.177  1.00  0.00    -0.346 C  
ENDBRANCH   4  16
BRANCH  13  18
HETATM   18  N   UNL     1     -10.017  10.197  67.368  1.00  0.00    -0.186 NA 
HETATM   19  C   UNL     1      -9.089   8.184  66.338  1.00  0.00    -0.183 C  
HETATM   20  C   UNL     1     -10.154   9.290  66.228  1.00  0.00    -0.252 C  
HETATM   21  N   UNL     1      -9.123   7.521  67.651  1.00  0.00    -0.126 N  
HETATM   22  C   UNL     1      -9.169   6.136  67.709  1.00  0.00    -0.111 C  
HETATM   23  C   UNL     1      -9.042   8.448  68.793  1.00  0.00    -0.143 C  
HETATM   24  C   UNL     1     -10.101   9.571  68.690  1.00  0.00    -0.181 C  
HETATM   25  O   UNL     1      -9.200   5.462  66.675  1.00  0.00    -0.126 OA 
BRANCH  22  26
HETATM   26  C   UNL     1      -9.134   5.451  69.083  1.00  0.00    -0.107 C  
HETATM   27  C   UNL     1      -9.209   3.935  68.906  1.00  0.00    -0.152 C  
HETATM   28  O   UNL     1      -9.041   3.264  70.164  1.00  0.00    -0.096 OA 
HETATM   29  C   UNL     1      -9.797   3.849  71.145  1.00  0.00    -0.153 A  
HETATM   30  C   UNL     1      -9.971   3.121  72.320  1.00  0.00    -0.236 A  
HETATM   31  C   UNL     1     -10.735   3.652  73.359  1.00  0.00    -0.302 A  
HETATM   32  C   UNL     1     -11.318   4.912  73.225  1.00  0.00    -0.408 A  
HETATM   33  C   UNL     1     -11.140   5.645  72.050  1.00  0.00    -0.291 A  
HETATM   34  C   UNL     1     -10.370   5.118  71.014  1.00  0.00    -0.208 A  
HETATM   35  O   UNL     1     -10.231   5.892  69.892  1.00  0.00    -0.184 OA 
ENDBRANCH  22  26
ENDBRANCH  13  18
ENDBRANCH   2   3
TORSDOF 4
ENDMDL
MODEL       26
REMARK 921   NORMALIZED FREE ENERGY PREDICTED BY IDOCK:   -6.54 KCAL/MOL
REMARK 922        TOTAL FREE ENERGY PREDICTED BY IDOCK:   -8.60 KCAL/MOL
REMARK 923 INTER-LIGAND FREE ENERGY PREDICTED BY IDOCK:   -8.02 KCAL/MOL
REMARK 924 INTRA-LIGAND FREE ENERGY PREDICTED BY IDOCK:   -0.58 KCAL/MOL
REMARK 927      BINDING AFFINITY PREDICTED BY RF-SCORE:    0.00 PKD
ROOT
HETATM    1  C   UNL     1      -7.890   7.195  62.692  1.00  0.00    -0.135 C  
HETATM    2  O   UNL     1      -8.051   6.542  63.951  1.00  0.00    -0.105 OA 
ENDROOT
BRANCH   2   3
HETATM    3  C   UNL     1      -8.755   7.243  64.896  1.00  0.00     0.289 A  
HETATM    4  C   UNL     1      -9.185   6.598  66.061  1.00  0.00    -0.033 A  
HETATM    5  C   UNL     1      -9.844   7.355  67.037  1.00  0.00    -0.273 A  
HETATM    6  C   UNL     1      -9.700   9.361  65.687  1.00  0.00    -0.266 A  
HETATM    7  C   UNL     1     -10.075   8.740  66.870  1.00  0.00    -0.348 A  
HETATM    8  C   UNL     1      -9.072   8.603  64.714  1.00  0.00     0.176 A  
HETATM    9  C   UNL     1     -10.642   9.595  67.815  1.00  0.00    -0.264 A  
HETATM   10  N   UNL     1     -11.071   9.124  69.063  1.00  0.00    -0.443 NA 
HETATM   11  N   UNL     1     -10.817  10.905  67.604  1.00  0.00    -0.245 NA 
HETATM   12  H1  UNL     1     -11.486   9.749  69.754  1.00  0.00     0.000 HD 
HETATM   13  C   UNL     1     -10.421  11.418  66.429  1.00  0.00    -0.254 A  
HETATM   14  H2  UNL     1     -10.287   8.644  69.504  1.00  0.00     0.000 HD 
HETATM   15  N   UNL     1      -9.885  10.665  65.462  1.00  0.00    -0.241 NA 
BRANCH   4  16
HETATM   16  O   UNL     1      -9.043   5.290  66.432  1.00  0.00    -0.129 OA 
HETATM   17  C   UNL     1      -9.974   4.328  65.961  1.00  0.00    -0.219 C  
ENDBRANCH   4  16
BRANCH  13  18
HETATM   18  N   UNL     1     -10.463  12.778  66.244  1.00  0.00    -0.253 NA 
HETATM   19  C   UNL     1     -11.624  14.631  65.152  1.00  0.00    -0.371 C  
HETATM   20  C   UNL     1     -10.828  13.331  64.940  1.00  0.00    -0.345 C  
HETATM   21  N   UNL     1     -10.911  15.570  66.033  1.00  0.00    -0.319 N  
HETATM   22  C   UNL     1     -10.741  16.885  65.625  1.00  0.00    -0.167 C  
HETATM   23  C   UNL     1     -10.497  14.987  67.321  1.00  0.00    -0.265 C  
HETATM   24  C   UNL     1      -9.705  13.674  67.123  1.00  0.00    -0.245 C  
HETATM   25  O   UNL     1     -11.164  17.265  64.529  1.00  0.00    -1.083 OA 
BRANCH  22  26
HETATM   26  C   UNL     1     -10.058  17.874  66.581  1.00  0.00    -0.362 C  
HETATM   27  C   UNL     1     -10.251  19.301  66.071  1.00  0.00    -0.435 C  
HETATM   28  O   UNL     1      -9.741  20.255  67.015  1.00  0.00    -0.409 OA 
HETATM   29  C   UNL     1      -8.507  19.885  67.480  1.00  0.00    -0.329 A  
HETATM   30  C   UNL     1      -7.770  20.860  68.148  1.00  0.00     0.264 A  
HETATM   31  C   UNL     1      -6.502  20.555  68.643  1.00  0.00    -0.295 A  
HETATM   32  C   UNL     1      -5.975  19.275  68.473  1.00  0.00    -0.238 A  
HETATM   33  C   UNL     1      -6.714  18.295  67.808  1.00  0.00    -0.206 A  
HETATM   34  C   UNL     1      -7.985  18.597  67.320  1.00  0.00    -0.237 A  
HETATM   35  O   UNL     1      -8.658  17.588  66.682  1.00  0.00    -0.236 OA 
ENDBRANCH  22  26
ENDBRANCH  13  18
ENDBRANCH   2   3
TORSDOF 4
ENDMDL
MODEL       27
REMARK 921   NORMALIZED FREE ENERGY PREDICTED BY IDOCK:   -6.53 KCAL/MOL
REMARK 922        TOTAL FREE ENERGY PREDICTED BY IDOCK:   -8.59 KCAL/MOL
REMARK 923 INTER-LIGAND FREE ENERGY PREDICTED BY IDOCK:   -8.46 KCAL/MOL
REMARK 924 INTRA-LIGAND FREE ENERGY PREDICTED BY IDOCK:   -0.12 KCAL/MOL
REMARK 927      BINDING AFFINITY PREDICTED BY RF-SCORE:    0.00 PKD
ROOT
HETATM    1  C   UNL     1      -9.517   4.223  72.211  1.00  0.00    -0.132 C  
HETATM    2  O   UNL     1     -10.386   4.059  71.092  1.00  0.00    -0.014 OA 
ENDROOT
BRANCH   2   3
HETATM    3  C   UNL     1     -10.034   4.749  69.961  1.00  0.00    -0.244 A  
HETATM    4  C   UNL     1      -9.506   4.061  68.863  1.00  0.00    -0.167 A  
HETATM    5  C   UNL     1      -9.217   4.785  67.700  1.00  0.00    -0.144 A  
HETATM    6  C   UNL     1      -9.920   6.863  68.727  1.00  0.00    -0.153 A  
HETATM    7  C   UNL     1      -9.452   6.177  67.615  1.00  0.00    -0.111 A  
HETATM    8  C   UNL     1     -10.179   6.148  69.883  1.00  0.00    -0.246 A  
HETATM    9  C   UNL     1      -9.281   6.968  66.479  1.00  0.00    -0.164 A  
HETATM   10  N   UNL     1      -8.818   6.426  65.274  1.00  0.00    -0.364 NA 
HETATM   11  N   UNL     1      -9.541   8.281  66.457  1.00  0.00    -0.228 NA 
HETATM   12  H1  UNL     1      -8.693   7.005  64.443  1.00  0.00     0.000 HD 
HETATM   13  C   UNL     1      -9.992   8.859  67.581  1.00  0.00    -0.196 A  
HETATM   14  H2  UNL     1      -9.428   5.647  65.025  1.00  0.00     0.000 HD 
HETATM   15  N   UNL     1     -10.167   8.177  68.718  1.00  0.00    -0.204 NA 
BRANCH   4  16
HETATM   16  O   UNL     1      -9.228   2.730  68.725  1.00  0.00    -0.140 OA 
HETATM   17  C   UNL     1      -7.888   2.282  68.846  1.00  0.00    -0.049 C  
ENDBRANCH   4  16
BRANCH  13  18
HETATM   18  N   UNL     1     -10.396  10.171  67.543  1.00  0.00    -0.214 NA 
HETATM   19  C   UNL     1     -11.591  11.878  66.266  1.00  0.00    -0.246 C  
HETATM   20  C   UNL     1     -10.402  10.900  66.274  1.00  0.00    -0.250 C  
HETATM   21  N   UNL     1     -11.602  12.736  67.461  1.00  0.00    -0.335 N  
HETATM   22  C   UNL     1     -11.723  14.109  67.307  1.00  0.00    -0.392 C  
HETATM   23  C   UNL     1     -11.537  11.994  68.733  1.00  0.00    -0.311 C  
HETATM   24  C   UNL     1     -10.353  11.000  68.751  1.00  0.00    -0.199 C  
HETATM   25  O   UNL     1     -11.803  14.614  66.183  1.00  0.00    -0.352 OA 
BRANCH  22  26
HETATM   26  C   UNL     1     -11.803  14.990  68.563  1.00  0.00    -0.291 C  
HETATM   27  C   UNL     1     -10.490  14.904  69.338  1.00  0.00    -0.222 C  
HETATM   28  O   UNL     1     -10.485  15.821  70.443  1.00  0.00    -0.296 OA 
HETATM   29  C   UNL     1     -11.664  15.768  71.138  1.00  0.00    -0.428 A  
HETATM   30  C   UNL     1     -11.676  16.364  72.398  1.00  0.00    -0.459 A  
HETATM   31  C   UNL     1     -12.840  16.341  73.166  1.00  0.00    -0.446 A  
HETATM   32  C   UNL     1     -13.992  15.728  72.671  1.00  0.00    -0.557 A  
HETATM   33  C   UNL     1     -13.982  15.135  71.408  1.00  0.00    -0.595 A  
HETATM   34  C   UNL     1     -12.822  15.164  70.637  1.00  0.00    -0.388 A  
HETATM   35  O   UNL     1     -12.883  14.568  69.404  1.00  0.00     0.074 OA 
ENDBRANCH  22  26
ENDBRANCH  13  18
ENDBRANCH   2   3
TORSDOF 4
ENDMDL
MODEL       28
REMARK 921   NORMALIZED FREE ENERGY PREDICTED BY IDOCK:   -6.52 KCAL/MOL
REMARK 922        TOTAL FREE ENERGY PREDICTED BY IDOCK:   -8.57 KCAL/MOL
REMARK 923 INTER-LIGAND FREE ENERGY PREDICTED BY IDOCK:   -7.91 KCAL/MOL
REMARK 924 INTRA-LIGAND FREE ENERGY PREDICTED BY IDOCK:   -0.66 KCAL/MOL
REMARK 927      BINDING AFFINITY PREDICTED BY RF-SCORE:    0.00 PKD
ROOT
HETATM    1  C   UNL     1      -5.199   5.926  64.454  1.00  0.00    -0.016 C  
HETATM    2  O   UNL     1      -6.450   6.086  63.787  1.00  0.00    -0.028 OA 
ENDROOT
BRANCH   2   3
HETATM    3  C   UNL     1      -7.531   6.315  64.599  1.00  0.00    -0.087 A  
HETATM    4  C   UNL     1      -8.239   5.234  65.134  1.00  0.00    -0.135 A  
HETATM    5  C   UNL     1      -9.297   5.499  66.012  1.00  0.00    -0.161 A  
HETATM    6  C   UNL     1      -8.986   7.891  65.784  1.00  0.00    -0.080 A  
HETATM    7  C   UNL     1      -9.653   6.822  66.365  1.00  0.00    -0.149 A  
HETATM    8  C   UNL     1      -7.958   7.624  64.896  1.00  0.00    -0.135 A  
HETATM    9  C   UNL     1     -10.629   7.187  67.292  1.00  0.00    -0.327 A  
HETATM   10  N   UNL     1     -11.390   6.226  67.969  1.00  0.00    -0.532 NA 
HETATM   11  N   UNL     1     -10.907   8.460  67.599  1.00  0.00    -0.105 NA 
HETATM   12  H1  UNL     1     -12.104   6.492  68.648  1.00  0.00     0.000 HD 
HETATM   13  C   UNL     1     -10.207   9.428  66.986  1.00  0.00    -0.255 A  
HETATM   14  H2  UNL     1     -10.746   5.581  68.428  1.00  0.00     0.000 HD 
HETATM   15  N   UNL     1      -9.267   9.166  66.072  1.00  0.00    -0.197 NA 
BRANCH   4  16
HETATM   16  O   UNL     1      -8.047   3.893  64.949  1.00  0.00    -0.092 OA 
HETATM   17  C   UNL     1      -7.382   3.141  65.951  1.00  0.00    -0.072 C  
ENDBRANCH   4  16
BRANCH  13  18
HETATM   18  N   UNL     1     -10.378  10.731  67.385  1.00  0.00    -0.200 NA 
HETATM   19  C   UNL     1     -11.311  12.213  69.091  1.00  0.00    -0.276 C  
HETATM   20  C   UNL     1     -11.626  11.144  68.029  1.00  0.00    -0.263 C  
HETATM   21  N   UNL     1     -10.519  13.320  68.533  1.00  0.00    -0.251 N  
HETATM   22  C   UNL     1     -10.938  14.626  68.744  1.00  0.00    -0.258 C  
HETATM   23  C   UNL     1      -9.293  12.890  67.836  1.00  0.00    -0.208 C  
HETATM   24  C   UNL     1      -9.594  11.808  66.774  1.00  0.00    -0.200 C  
HETATM   25  O   UNL     1     -11.972  14.862  69.376  1.00  0.00    -0.302 OA 
BRANCH  22  26
HETATM   26  C   UNL     1     -10.067  15.777  68.218  1.00  0.00    -0.222 C  
HETATM   27  C   UNL     1      -8.993  16.123  69.247  1.00  0.00    -0.200 C  
HETATM   28  O   UNL     1      -8.081  17.102  68.726  1.00  0.00    -0.264 OA 
HETATM   29  C   UNL     1      -8.749  18.123  68.104  1.00  0.00    -0.277 A  
HETATM   30  C   UNL     1      -8.017  19.278  67.835  1.00  0.00    -0.327 A  
HETATM   31  C   UNL     1      -8.635  20.361  67.210  1.00  0.00    -0.414 A  
HETATM   32  C   UNL     1      -9.981  20.286  66.849  1.00  0.00    -0.592 A  
HETATM   33  C   UNL     1     -10.713  19.127  67.113  1.00  0.00    -0.567 A  
HETATM   34  C   UNL     1     -10.095  18.042  67.731  1.00  0.00    -0.353 A  
HETATM   35  O   UNL     1     -10.870  16.934  67.957  1.00  0.00    -0.363 OA 
ENDBRANCH  22  26
ENDBRANCH  13  18
ENDBRANCH   2   3
TORSDOF 4
ENDMDL
MODEL       29
REMARK 921   NORMALIZED FREE ENERGY PREDICTED BY IDOCK:   -6.46 KCAL/MOL
REMARK 922        TOTAL FREE ENERGY PREDICTED BY IDOCK:   -8.50 KCAL/MOL
REMARK 923 INTER-LIGAND FREE ENERGY PREDICTED BY IDOCK:   -8.48 KCAL/MOL
REMARK 924 INTRA-LIGAND FREE ENERGY PREDICTED BY IDOCK:   -0.02 KCAL/MOL
REMARK 927      BINDING AFFINITY PREDICTED BY RF-SCORE:    0.00 PKD
ROOT
HETATM    1  C   UNL     1     -10.203  19.795  69.030  1.00  0.00    -0.266 C  
HETATM    2  O   UNL     1      -9.118  18.943  68.665  1.00  0.00    -0.340 OA 
ENDROOT
BRANCH   2   3
HETATM    3  C   UNL     1      -9.467  17.762  68.062  1.00  0.00    -0.281 A  
HETATM    4  C   UNL     1      -9.314  17.616  66.679  1.00  0.00    -0.278 A  
HETATM    5  C   UNL     1      -9.618  16.377  66.102  1.00  0.00    -0.356 A  
HETATM    6  C   UNL     1     -10.273  15.455  68.244  1.00  0.00    -0.229 A  
HETATM    7  C   UNL     1     -10.066  15.286  66.883  1.00  0.00    -0.257 A  
HETATM    8  C   UNL     1      -9.996  16.689  68.806  1.00  0.00    -0.265 A  
HETATM    9  C   UNL     1     -10.310  13.994  66.418  1.00  0.00    -0.289 A  
HETATM   10  N   UNL     1     -10.144  13.658  65.069  1.00  0.00    -0.562 NA 
HETATM   11  N   UNL     1     -10.714  12.995  67.213  1.00  0.00    -0.248 NA 
HETATM   12  H1  UNL     1     -10.323  12.713  64.729  1.00  0.00     0.000 HD 
HETATM   13  C   UNL     1     -10.887  13.253  68.519  1.00  0.00    -0.265 A  
HETATM   14  H2  UNL     1      -9.196  13.916  64.794  1.00  0.00     0.000 HD 
HETATM   15  N   UNL     1     -10.692  14.468  69.043  1.00  0.00    -0.247 NA 
BRANCH   4  16
HETATM   16  O   UNL     1      -8.876  18.522  65.754  1.00  0.00    -0.419 OA 
HETATM   17  C   UNL     1      -7.517  18.930  65.769  1.00  0.00    -0.132 C  
ENDBRANCH   4  16
BRANCH  13  18
HETATM   18  N   UNL     1     -11.166  12.215  69.374  1.00  0.00    -0.217 NA 
HETATM   19  C   UNL     1     -12.898  11.085  70.676  1.00  0.00    -0.220 C  
HETATM   20  C   UNL     1     -12.127  12.400  70.462  1.00  0.00    -0.275 C  
HETATM   21  N   UNL     1     -11.990   9.941  70.854  1.00  0.00    -0.321 N  
HETATM   22  C   UNL     1     -12.173   9.093  71.936  1.00  0.00    -0.379 C  
HETATM   23  C   UNL     1     -10.989   9.798  69.782  1.00  0.00    -0.256 C  
HETATM   24  C   UNL     1     -10.214  11.115  69.549  1.00  0.00     0.083 C  
HETATM   25  O   UNL     1     -13.074   9.300  72.755  1.00  0.00    -0.331 OA 
BRANCH  22  26
HETATM   26  C   UNL     1     -11.264   7.863  72.074  1.00  0.00    -0.287 C  
HETATM   27  C   UNL     1      -9.837   8.308  72.387  1.00  0.00    -0.304 C  
HETATM   28  O   UNL     1      -8.994   7.177  72.655  1.00  0.00    -0.126 OA 
HETATM   29  C   UNL     1      -9.185   6.184  71.731  1.00  0.00    -0.144 A  
HETATM   30  C   UNL     1      -8.223   5.177  71.687  1.00  0.00    -0.116 A  
HETATM   31  C   UNL     1      -8.350   4.137  70.766  1.00  0.00    -0.086 A  
HETATM   32  C   UNL     1      -9.440   4.102  69.895  1.00  0.00    -0.265 A  
HETATM   33  C   UNL     1     -10.406   5.108  69.943  1.00  0.00    -0.347 A  
HETATM   34  C   UNL     1     -10.284   6.144  70.868  1.00  0.00    -0.201 A  
HETATM   35  O   UNL     1     -11.271   7.096  70.864  1.00  0.00    -0.257 OA 
ENDBRANCH  22  26
ENDBRANCH  13  18
ENDBRANCH   2   3
TORSDOF 4
ENDMDL
MODEL       30
REMARK 921   NORMALIZED FREE ENERGY PREDICTED BY IDOCK:   -6.41 KCAL/MOL
REMARK 922        TOTAL FREE ENERGY PREDICTED BY IDOCK:   -8.44 KCAL/MOL
REMARK 923 INTER-LIGAND FREE ENERGY PREDICTED BY IDOCK:   -7.81 KCAL/MOL
REMARK 924 INTRA-LIGAND FREE ENERGY PREDICTED BY IDOCK:   -0.62 KCAL/MOL
REMARK 927      BINDING AFFINITY PREDICTED BY RF-SCORE:    0.00 PKD
ROOT
HETATM    1  C   UNL     1      -6.962   5.001  63.486  1.00  0.00    -0.047 C  
HETATM    2  O   UNL     1      -7.167   4.517  64.813  1.00  0.00    -0.061 OA 
ENDROOT
BRANCH   2   3
HETATM    3  C   UNL     1      -8.085   5.209  65.561  1.00  0.00    -0.117 A  
HETATM    4  C   UNL     1      -8.764   4.561  66.598  1.00  0.00    -0.111 A  
HETATM    5  C   UNL     1      -9.646   5.311  67.386  1.00  0.00    -0.146 A  
HETATM    6  C   UNL     1      -9.224   7.313  66.090  1.00  0.00    -0.089 A  
HETATM    7  C   UNL     1      -9.855   6.691  67.158  1.00  0.00    -0.194 A  
HETATM    8  C   UNL     1      -8.373   6.562  65.298  1.00  0.00    -0.121 A  
HETATM    9  C   UNL     1     -10.641   7.540  67.936  1.00  0.00    -0.185 A  
HETATM   10  N   UNL     1     -11.342   7.067  69.053  1.00  0.00    -0.506 NA 
HETATM   11  N   UNL     1     -10.783   8.846  67.680  1.00  0.00    -0.213 NA 
HETATM   12  H1  UNL     1     -11.918   7.688  69.623  1.00  0.00     0.000 HD 
HETATM   13  C   UNL     1     -10.132   9.360  66.625  1.00  0.00    -0.262 A  
HETATM   14  H2  UNL     1     -10.676   6.603  69.670  1.00  0.00     0.000 HD 
HETATM   15  N   UNL     1      -9.372   8.613  65.817  1.00  0.00    -0.195 NA 
BRANCH   4  16
HETATM   16  O   UNL     1      -8.692   3.258  67.004  1.00  0.00    -0.109 OA 
HETATM   17  C   UNL     1      -9.402   2.849  68.161  1.00  0.00    -0.202 C  
ENDBRANCH   4  16
BRANCH  13  18
HETATM   18  N   UNL     1     -10.151  10.718  66.424  1.00  0.00    -0.220 NA 
HETATM   19  C   UNL     1     -11.370  12.595  65.440  1.00  0.00    -0.313 C  
HETATM   20  C   UNL     1     -10.645  11.266  65.160  1.00  0.00    -0.280 C  
HETATM   21  N   UNL     1     -10.533  13.521  66.219  1.00  0.00    -0.285 N  
HETATM   22  C   UNL     1     -10.370  14.824  65.773  1.00  0.00    -0.340 C  
HETATM   23  C   UNL     1      -9.994  12.941  67.462  1.00  0.00    -0.215 C  
HETATM   24  C   UNL     1      -9.272  11.600  67.197  1.00  0.00    -0.176 C  
HETATM   25  O   UNL     1     -10.902  15.204  64.726  1.00  0.00    -0.403 OA 
BRANCH  22  26
HETATM   26  C   UNL     1      -9.552  15.802  66.629  1.00  0.00    -0.247 C  
HETATM   27  C   UNL     1     -10.486  16.595  67.541  1.00  0.00    -0.317 C  
HETATM   28  O   UNL     1      -9.739  17.419  68.448  1.00  0.00    -0.277 OA 
HETATM   29  C   UNL     1      -8.730  18.084  67.802  1.00  0.00    -0.251 A  
HETATM   30  C   UNL     1      -8.137  19.142  68.488  1.00  0.00    -0.394 A  
HETATM   31  C   UNL     1      -7.108  19.868  67.888  1.00  0.00    -0.314 A  
HETATM   32  C   UNL     1      -6.671  19.533  66.606  1.00  0.00    -0.197 A  
HETATM   33  C   UNL     1      -7.262  18.470  65.920  1.00  0.00    -0.265 A  
HETATM   34  C   UNL     1      -8.285  17.739  66.522  1.00  0.00    -0.269 A  
HETATM   35  O   UNL     1      -8.817  16.706  65.795  1.00  0.00    -0.493 OA 
ENDBRANCH  22  26
ENDBRANCH  13  18
ENDBRANCH   2   3
TORSDOF 4
ENDMDL
MODEL       31
REMARK 921   NORMALIZED FREE ENERGY PREDICTED BY IDOCK:   -6.41 KCAL/MOL
REMARK 922        TOTAL FREE ENERGY PREDICTED BY IDOCK:   -8.44 KCAL/MOL
REMARK 923 INTER-LIGAND FREE ENERGY PREDICTED BY IDOCK:   -7.76 KCAL/MOL
REMARK 924 INTRA-LIGAND FREE ENERGY PREDICTED BY IDOCK:   -0.68 KCAL/MOL
REMARK 927      BINDING AFFINITY PREDICTED BY RF-SCORE:    0.00 PKD
ROOT
HETATM    1  C   UNL     1      -7.934   3.979  69.660  1.00  0.00    -0.055 C  
HETATM    2  O   UNL     1      -8.000   4.888  70.758  1.00  0.00    -0.079 OA 
ENDROOT
BRANCH   2   3
HETATM    3  C   UNL     1      -8.841   5.958  70.592  1.00  0.00    -0.141 A  
HETATM    4  C   UNL     1     -10.144   5.903  71.099  1.00  0.00    -0.198 A  
HETATM    5  C   UNL     1     -10.957   7.035  70.972  1.00  0.00    -0.279 A  
HETATM    6  C   UNL     1      -9.217   8.246  69.800  1.00  0.00    -0.154 A  
HETATM    7  C   UNL     1     -10.489   8.218  70.354  1.00  0.00    -0.223 A  
HETATM    8  C   UNL     1      -8.426   7.115  69.905  1.00  0.00    -0.140 A  
HETATM    9  C   UNL     1     -11.187   9.422  70.255  1.00  0.00    -0.246 A  
HETATM   10  N   UNL     1     -12.483   9.559  70.768  1.00  0.00    -0.482 NA 
HETATM   11  N   UNL     1     -10.680  10.516  69.674  1.00  0.00    -0.251 NA 
HETATM   12  H1  UNL     1     -12.994  10.440  70.696  1.00  0.00     0.000 HD 
HETATM   13  C   UNL     1      -9.439  10.449  69.167  1.00  0.00    -0.208 A  
HETATM   14  H2  UNL     1     -12.463   9.287  71.751  1.00  0.00     0.000 HD 
HETATM   15  N   UNL     1      -8.709   9.329  69.203  1.00  0.00    -0.135 NA 
BRANCH   4  16
HETATM   16  O   UNL     1     -10.781   4.882  71.748  1.00  0.00    -0.144 OA 
HETATM   17  C   UNL     1     -11.102   5.025  73.123  1.00  0.00    -0.326 C  
ENDBRANCH   4  16
BRANCH  13  18
HETATM   18  N   UNL     1      -8.848  11.594  68.691  1.00  0.00    -0.127 NA 
HETATM   19  C   UNL     1      -6.857  12.552  67.647  1.00  0.00    -0.136 C  
HETATM   20  C   UNL     1      -7.413  11.810  68.876  1.00  0.00    -0.080 C  
HETATM   21  N   UNL     1      -7.623  13.773  67.354  1.00  0.00    -0.166 N  
HETATM   22  C   UNL     1      -6.946  14.970  67.172  1.00  0.00     0.110 C  
HETATM   23  C   UNL     1      -9.075  13.554  67.226  1.00  0.00    -0.225 C  
HETATM   24  C   UNL     1      -9.645  12.799  68.449  1.00  0.00    -0.175 C  
HETATM   25  O   UNL     1      -5.716  15.021  67.272  1.00  0.00    -0.317 OA 
BRANCH  22  26
HETATM   26  C   UNL     1      -7.749  16.225  66.797  1.00  0.00    -0.260 C  
HETATM   27  C   UNL     1      -6.826  17.250  66.139  1.00  0.00    -0.192 C  
HETATM   28  O   UNL     1      -7.574  18.376  65.655  1.00  0.00    -0.522 OA 
HETATM   29  C   UNL     1      -8.480  18.809  66.587  1.00  0.00    -0.294 A  
HETATM   30  C   UNL     1      -9.041  20.067  66.377  1.00  0.00    -0.427 A  
HETATM   31  C   UNL     1      -9.966  20.575  67.289  1.00  0.00    -0.528 A  
HETATM   32  C   UNL     1     -10.332  19.823  68.406  1.00  0.00    -0.513 A  
HETATM   33  C   UNL     1      -9.774  18.561  68.614  1.00  0.00    -0.398 A  
HETATM   34  C   UNL     1      -8.856  18.049  67.699  1.00  0.00    -0.254 A  
HETATM   35  O   UNL     1      -8.351  16.802  67.962  1.00  0.00    -0.191 OA 
ENDBRANCH  22  26
ENDBRANCH  13  18
ENDBRANCH   2   3
TORSDOF 4
ENDMDL
MODEL       32
REMARK 921   NORMALIZED FREE ENERGY PREDICTED BY IDOCK:   -6.40 KCAL/MOL
REMARK 922        TOTAL FREE ENERGY PREDICTED BY IDOCK:   -8.42 KCAL/MOL
REMARK 923 INTER-LIGAND FREE ENERGY PREDICTED BY IDOCK:   -7.74 KCAL/MOL
REMARK 924 INTRA-LIGAND FREE ENERGY PREDICTED BY IDOCK:   -0.68 KCAL/MOL
REMARK 927      BINDING AFFINITY PREDICTED BY RF-SCORE:    0.00 PKD
ROOT
HETATM    1  C   UNL     1     -13.799  15.359  72.219  1.00  0.00    -0.548 C  
HETATM    2  O   UNL     1     -12.886  15.739  71.191  1.00  0.00    -0.486 OA 
ENDROOT
BRANCH   2   3
HETATM    3  C   UNL     1     -12.409  14.716  70.413  1.00  0.00    -0.339 A  
HETATM    4  C   UNL     1     -11.863  14.996  69.156  1.00  0.00    -0.308 A  
HETATM    5  C   UNL     1     -11.324  13.938  68.413  1.00  0.00    -0.316 A  
HETATM    6  C   UNL     1     -11.916  12.333  70.127  1.00  0.00    -0.298 A  
HETATM    7  C   UNL     1     -11.319  12.613  68.906  1.00  0.00    -0.345 A  
HETATM    8  C   UNL     1     -12.471  13.377  70.846  1.00  0.00    -0.439 A  
HETATM    9  C   UNL     1     -10.733  11.510  68.285  1.00  0.00    -0.211 A  
HETATM   10  N   UNL     1     -10.086  11.627  67.048  1.00  0.00    -0.207 NA 
HETATM   11  N   UNL     1     -10.743  10.281  68.815  1.00  0.00    -0.207 NA 
HETATM   12  H1  UNL     1      -9.657  10.820  66.593  1.00  0.00     0.000 HD 
HETATM   13  C   UNL     1     -11.344  10.106  70.002  1.00  0.00    -0.287 A  
HETATM   14  H2  UNL     1      -9.376  12.354  67.131  1.00  0.00     0.000 HD 
HETATM   15  N   UNL     1     -11.946  11.105  70.656  1.00  0.00    -0.362 NA 
BRANCH   4  16
HETATM   16  O   UNL     1     -11.743  16.194  68.508  1.00  0.00    -0.348 OA 
HETATM   17  C   UNL     1     -10.606  17.006  68.752  1.00  0.00    -0.346 C  
ENDBRANCH   4  16
BRANCH  13  18
HETATM   18  N   UNL     1     -11.248   8.887  70.627  1.00  0.00    -0.262 NA 
HETATM   19  C   UNL     1     -12.483   7.004  71.578  1.00  0.00    -0.386 C  
HETATM   20  C   UNL     1     -12.210   8.517  71.665  1.00  0.00    -0.322 C  
HETATM   21  N   UNL     1     -11.237   6.222  71.596  1.00  0.00    -0.273 N  
HETATM   22  C   UNL     1     -11.114   5.164  72.486  1.00  0.00    -0.194 C  
HETATM   23  C   UNL     1     -10.251   6.640  70.584  1.00  0.00    -0.189 C  
HETATM   24  C   UNL     1      -9.975   8.160  70.653  1.00  0.00    -0.189 C  
HETATM   25  O   UNL     1     -12.028   4.889  73.268  1.00  0.00    -0.193 OA 
BRANCH  22  26
HETATM   26  C   UNL     1      -9.838   4.311  72.449  1.00  0.00    -0.158 C  
HETATM   27  C   UNL     1     -10.148   2.897  72.939  1.00  0.00    -0.142 C  
HETATM   28  O   UNL     1      -9.006   2.040  72.787  1.00  0.00    -0.062 OA 
HETATM   29  C   UNL     1      -7.863   2.653  73.227  1.00  0.00    -0.055 A  
HETATM   30  C   UNL     1      -6.752   1.835  73.428  1.00  0.00    -0.018 A  
HETATM   31  C   UNL     1      -5.556   2.389  73.882  1.00  0.00     0.000 A  
HETATM   32  C   UNL     1      -5.469   3.760  74.129  1.00  0.00    -0.004 A  
HETATM   33  C   UNL     1      -6.579   4.580  73.923  1.00  0.00    -0.058 A  
HETATM   34  C   UNL     1      -7.773   4.028  73.462  1.00  0.00    -0.080 A  
HETATM   35  O   UNL     1      -8.822   4.891  73.276  1.00  0.00    -0.108 OA 
ENDBRANCH  22  26
ENDBRANCH  13  18
ENDBRANCH   2   3
TORSDOF 4
ENDMDL
MODEL       33
REMARK 921   NORMALIZED FREE ENERGY PREDICTED BY IDOCK:   -6.39 KCAL/MOL
REMARK 922        TOTAL FREE ENERGY PREDICTED BY IDOCK:   -8.41 KCAL/MOL
REMARK 923 INTER-LIGAND FREE ENERGY PREDICTED BY IDOCK:   -7.91 KCAL/MOL
REMARK 924 INTRA-LIGAND FREE ENERGY PREDICTED BY IDOCK:   -0.49 KCAL/MOL
REMARK 927      BINDING AFFINITY PREDICTED BY RF-SCORE:    0.00 PKD
ROOT
HETATM    1  C   UNL     1     -11.105  15.430  70.214  1.00  0.00    -0.311 C  
HETATM    2  O   UNL     1     -12.392  14.830  70.073  1.00  0.00    -0.325 OA 
ENDROOT
BRANCH   2   3
HETATM    3  C   UNL     1     -12.521  13.573  70.605  1.00  0.00    -0.333 A  
HETATM    4  C   UNL     1     -13.509  13.323  71.564  1.00  0.00    -0.179 A  
HETATM    5  C   UNL     1     -13.659  12.014  72.040  1.00  0.00    -0.230 A  
HETATM    6  C   UNL     1     -11.830  11.223  70.664  1.00  0.00    -0.267 A  
HETATM    7  C   UNL     1     -12.846  10.957  71.570  1.00  0.00    -0.560 A  
HETATM    8  C   UNL     1     -11.668  12.522  70.216  1.00  0.00    -0.200 A  
HETATM    9  C   UNL     1     -12.974   9.611  71.915  1.00  0.00    -0.435 A  
HETATM   10  N   UNL     1     -13.954   9.177  72.817  1.00  0.00    -0.969 NA 
HETATM   11  N   UNL     1     -12.183   8.651  71.419  1.00  0.00    -0.298 NA 
HETATM   12  H1  UNL     1     -14.047   8.193  73.069  1.00  0.00     0.000 HD 
HETATM   13  C   UNL     1     -11.227   9.004  70.546  1.00  0.00    -0.260 A  
HETATM   14  H2  UNL     1     -14.859   9.502  72.477  1.00  0.00     0.000 HD 
HETATM   15  N   UNL     1     -11.025  10.273  70.176  1.00  0.00    -0.298 NA 
BRANCH   4  16
HETATM   16  O   UNL     1     -14.409  14.183  72.128  1.00  0.00    -0.522 OA 
HETATM   17  C   UNL     1     -13.941  15.363  72.761  1.00  0.00    -0.427 C  
ENDBRANCH   4  16
BRANCH  13  18
HETATM   18  N   UNL     1     -10.497   8.022  69.922  1.00  0.00    -0.229 NA 
HETATM   19  C   UNL     1      -8.412   6.747  69.926  1.00  0.00    -0.140 C  
HETATM   20  C   UNL     1      -9.044   8.146  69.811  1.00  0.00    -0.148 C  
HETATM   21  N   UNL     1      -9.015   5.796  68.978  1.00  0.00    -0.117 N  
HETATM   22  C   UNL     1      -8.188   5.039  68.161  1.00  0.00    -0.096 C  
HETATM   23  C   UNL     1     -10.484   5.721  69.058  1.00  0.00    -0.266 C  
HETATM   24  C   UNL     1     -11.132   7.121  68.955  1.00  0.00    -0.015 C  
HETATM   25  O   UNL     1      -6.962   5.169  68.210  1.00  0.00    -0.058 OA 
BRANCH  22  26
HETATM   26  C   UNL     1      -8.824   3.999  67.226  1.00  0.00    -0.119 C  
HETATM   27  C   UNL     1      -7.792   2.934  66.861  1.00  0.00    -0.075 C  
HETATM   28  O   UNL     1      -8.394   1.877  66.099  1.00  0.00    -0.085 OA 
HETATM   29  C   UNL     1      -9.203   2.374  65.112  1.00  0.00    -0.110 A  
HETATM   30  C   UNL     1      -9.594   1.483  64.114  1.00  0.00    -0.130 A  
HETATM   31  C   UNL     1     -10.412   1.921  63.073  1.00  0.00    -0.136 A  
HETATM   32  C   UNL     1     -10.842   3.248  63.033  1.00  0.00    -0.174 A  
HETATM   33  C   UNL     1     -10.455   4.140  64.034  1.00  0.00    -0.096 A  
HETATM   34  C   UNL     1      -9.644   3.701  65.079  1.00  0.00    -0.171 A  
HETATM   35  O   UNL     1      -9.305   4.627  66.031  1.00  0.00    -0.137 OA 
ENDBRANCH  22  26
ENDBRANCH  13  18
ENDBRANCH   2   3
TORSDOF 4
ENDMDL
MODEL       34
REMARK 921   NORMALIZED FREE ENERGY PREDICTED BY IDOCK:   -6.38 KCAL/MOL
REMARK 922        TOTAL FREE ENERGY PREDICTED BY IDOCK:   -8.41 KCAL/MOL
REMARK 923 INTER-LIGAND FREE ENERGY PREDICTED BY IDOCK:   -7.72 KCAL/MOL
REMARK 924 INTRA-LIGAND FREE ENERGY PREDICTED BY IDOCK:   -0.68 KCAL/MOL
REMARK 927      BINDING AFFINITY PREDICTED BY RF-SCORE:    0.00 PKD
ROOT
HETATM    1  C   UNL     1     -12.472  15.729  63.958  1.00  0.00     0.506 C  
HETATM    2  O   UNL     1     -11.262  16.411  64.283  1.00  0.00    -0.861 OA 
ENDROOT
BRANCH   2   3
HETATM    3  C   UNL     1     -10.461  15.791  65.207  1.00  0.00    -0.401 A  
HETATM    4  C   UNL     1      -9.601  16.554  66.005  1.00  0.00    -0.290 A  
HETATM    5  C   UNL     1      -8.845  15.899  66.984  1.00  0.00    -0.240 A  
HETATM    6  C   UNL     1      -9.745  13.743  66.346  1.00  0.00    -0.294 A  
HETATM    7  C   UNL     1      -8.936  14.501  67.180  1.00  0.00    -0.244 A  
HETATM    8  C   UNL     1     -10.472  14.391  65.363  1.00  0.00    -0.391 A  
HETATM    9  C   UNL     1      -8.294  13.772  68.180  1.00  0.00    -0.165 A  
HETATM   10  N   UNL     1      -7.444  14.390  69.106  1.00  0.00    -0.213 NA 
HETATM   11  N   UNL     1      -8.437  12.449  68.327  1.00  0.00    -0.176 NA 
HETATM   12  H1  UNL     1      -6.974  13.856  69.837  1.00  0.00     0.000 HD 
HETATM   13  C   UNL     1      -9.243  11.799  67.472  1.00  0.00    -0.175 A  
HETATM   14  H2  UNL     1      -7.964  15.145  69.553  1.00  0.00     0.000 HD 
HETATM   15  N   UNL     1      -9.882  12.419  66.475  1.00  0.00    -0.230 NA 
BRANCH   4  16
HETATM   16  O   UNL     1      -9.382  17.903  66.001  1.00  0.00    -0.508 OA 
HETATM   17  C   UNL     1     -10.290  18.758  66.676  1.00  0.00    -0.420 C  
ENDBRANCH   4  16
BRANCH  13  18
HETATM   18  N   UNL     1      -9.513  10.469  67.688  1.00  0.00    -0.149 NA 
HETATM   19  C   UNL     1     -10.091   8.334  66.649  1.00  0.00    -0.281 C  
HETATM   20  C   UNL     1     -10.532   9.789  66.889  1.00  0.00    -0.211 C  
HETATM   21  N   UNL     1      -9.749   7.652  67.907  1.00  0.00    -0.144 N  
HETATM   22  C   UNL     1     -10.310   6.413  68.180  1.00  0.00    -0.192 C  
HETATM   23  C   UNL     1      -8.763   8.374  68.731  1.00  0.00    -0.136 C  
HETATM   24  C   UNL     1      -9.189   9.841  68.972  1.00  0.00    -0.165 C  
HETATM   25  O   UNL     1     -11.103   5.892  67.391  1.00  0.00    -0.247 OA 
BRANCH  22  26
HETATM   26  C   UNL     1      -9.893   5.679  69.463  1.00  0.00    -0.180 C  
HETATM   27  C   UNL     1      -9.840   4.174  69.201  1.00  0.00    -0.051 C  
HETATM   28  O   UNL     1      -9.321   3.474  70.342  1.00  0.00    -0.138 OA 
HETATM   29  C   UNL     1      -9.897   3.920  71.503  1.00  0.00    -0.177 A  
HETATM   30  C   UNL     1      -9.722   3.124  72.634  1.00  0.00    -0.197 A  
HETATM   31  C   UNL     1     -10.286   3.512  73.849  1.00  0.00    -0.236 A  
HETATM   32  C   UNL     1     -11.019   4.697  73.933  1.00  0.00    -0.333 A  
HETATM   33  C   UNL     1     -11.190   5.497  72.802  1.00  0.00    -0.358 A  
HETATM   34  C   UNL     1     -10.620   5.114  71.589  1.00  0.00    -0.156 A  
HETATM   35  O   UNL     1     -10.822   5.947  70.520  1.00  0.00    -0.272 OA 
ENDBRANCH  22  26
ENDBRANCH  13  18
ENDBRANCH   2   3
TORSDOF 4
ENDMDL
MODEL       35
REMARK 921   NORMALIZED FREE ENERGY PREDICTED BY IDOCK:   -6.35 KCAL/MOL
REMARK 922        TOTAL FREE ENERGY PREDICTED BY IDOCK:   -8.36 KCAL/MOL
REMARK 923 INTER-LIGAND FREE ENERGY PREDICTED BY IDOCK:   -8.36 KCAL/MOL
REMARK 924 INTRA-LIGAND FREE ENERGY PREDICTED BY IDOCK:   -0.00 KCAL/MOL
REMARK 927      BINDING AFFINITY PREDICTED BY RF-SCORE:    0.00 PKD
ROOT
HETATM    1  C   UNL     1     -10.130   5.179  70.644  1.00  0.00    -0.239 C  
HETATM    2  O   UNL     1     -10.962   5.375  69.502  1.00  0.00    -0.212 OA 
ENDROOT
BRANCH   2   3
HETATM    3  C   UNL     1     -10.538   6.332  68.616  1.00  0.00    -0.264 A  
HETATM    4  C   UNL     1     -10.039   5.950  67.366  1.00  0.00    -0.169 A  
HETATM    5  C   UNL     1      -9.675   6.952  66.459  1.00  0.00    -0.185 A  
HETATM    6  C   UNL     1     -10.244   8.696  68.040  1.00  0.00    -0.210 A  
HETATM    7  C   UNL     1      -9.806   8.324  66.778  1.00  0.00    -0.333 A  
HETATM    8  C   UNL     1     -10.578   7.701  68.943  1.00  0.00    -0.176 A  
HETATM    9  C   UNL     1      -9.554   9.391  65.917  1.00  0.00    -0.270 A  
HETATM   10  N   UNL     1      -9.108   9.184  64.605  1.00  0.00    -0.428 NA 
HETATM   11  N   UNL     1      -9.717  10.672  66.272  1.00  0.00    -0.192 NA 
HETATM   12  H1  UNL     1      -8.924   9.965  63.975  1.00  0.00     0.000 HD 
HETATM   13  C   UNL     1     -10.147  10.936  67.516  1.00  0.00    -0.184 A  
HETATM   14  H2  UNL     1      -9.768   8.557  64.144  1.00  0.00     0.000 HD 
HETATM   15  N   UNL     1     -10.394   9.972  68.410  1.00  0.00    -0.181 NA 
BRANCH   4  16
HETATM   16  O   UNL     1      -9.858   4.697  66.850  1.00  0.00    -0.183 OA 
HETATM   17  C   UNL     1      -8.788   4.464  65.948  1.00  0.00    -0.120 C  
ENDBRANCH   4  16
BRANCH  13  18
HETATM   18  N   UNL     1     -10.452  12.231  67.857  1.00  0.00    -0.208 NA 
HETATM   19  C   UNL     1     -11.378  13.698  69.578  1.00  0.00    -0.214 C  
HETATM   20  C   UNL     1     -11.661  12.521  68.628  1.00  0.00    -0.314 C  
HETATM   21  N   UNL     1     -10.821  14.857  68.861  1.00  0.00    -0.241 N  
HETATM   22  C   UNL     1     -11.392  16.107  69.048  1.00  0.00    -0.340 C  
HETATM   23  C   UNL     1      -9.637  14.542  68.042  1.00  0.00    -0.217 C  
HETATM   24  C   UNL     1      -9.904  13.353  67.090  1.00  0.00    -0.237 C  
HETATM   25  O   UNL     1     -12.368  16.251  69.791  1.00  0.00    -0.030 OA 
BRANCH  22  26
HETATM   26  C   UNL     1     -10.760  17.321  68.350  1.00  0.00    -0.332 C  
HETATM   27  C   UNL     1     -10.629  17.045  66.853  1.00  0.00    -0.208 C  
HETATM   28  O   UNL     1     -10.168  18.212  66.156  1.00  0.00    -0.401 OA 
HETATM   29  C   UNL     1      -9.118  18.800  66.810  1.00  0.00    -0.312 A  
HETATM   30  C   UNL     1      -8.382  19.740  66.093  1.00  0.00    -0.368 A  
HETATM   31  C   UNL     1      -7.294  20.375  66.694  1.00  0.00    -0.311 A  
HETATM   32  C   UNL     1      -6.948  20.072  68.011  1.00  0.00    -0.321 A  
HETATM   33  C   UNL     1      -7.688  19.133  68.731  1.00  0.00    -0.390 A  
HETATM   34  C   UNL     1      -8.780  18.505  68.135  1.00  0.00    -0.310 A  
HETATM   35  O   UNL     1      -9.466  17.598  68.900  1.00  0.00    -0.259 OA 
ENDBRANCH  22  26
ENDBRANCH  13  18
ENDBRANCH   2   3
TORSDOF 4
ENDMDL
MODEL       36
REMARK 921   NORMALIZED FREE ENERGY PREDICTED BY IDOCK:   -6.33 KCAL/MOL
REMARK 922        TOTAL FREE ENERGY PREDICTED BY IDOCK:   -8.34 KCAL/MOL
REMARK 923 INTER-LIGAND FREE ENERGY PREDICTED BY IDOCK:   -8.03 KCAL/MOL
REMARK 924 INTRA-LIGAND FREE ENERGY PREDICTED BY IDOCK:   -0.31 KCAL/MOL
REMARK 927      BINDING AFFINITY PREDICTED BY RF-SCORE:    0.00 PKD
ROOT
HETATM    1  C   UNL     1      -9.466   3.857  69.091  1.00  0.00    -0.176 C  
HETATM    2  O   UNL     1     -10.000   3.886  67.768  1.00  0.00    -0.064 OA 
ENDROOT
BRANCH   2   3
HETATM    3  C   UNL     1      -9.373   4.735  66.893  1.00  0.00    -0.134 A  
HETATM    4  C   UNL     1      -8.487   4.220  65.940  1.00  0.00    -0.113 A  
HETATM    5  C   UNL     1      -7.913   5.103  65.018  1.00  0.00    -0.104 A  
HETATM    6  C   UNL     1      -9.044   6.999  66.015  1.00  0.00    -0.069 A  
HETATM    7  C   UNL     1      -8.212   6.486  65.031  1.00  0.00    -0.115 A  
HETATM    8  C   UNL     1      -9.589   6.126  66.940  1.00  0.00    -0.164 A  
HETATM    9  C   UNL     1      -7.763   7.429  64.107  1.00  0.00    -0.121 A  
HETATM   10  N   UNL     1      -6.917   7.070  63.049  1.00  0.00    -0.055 NA 
HETATM   11  N   UNL     1      -8.098   8.724  64.161  1.00  0.00    -0.155 NA 
HETATM   12  H1  UNL     1      -6.588   7.760  62.373  1.00  0.00     0.000 HD 
HETATM   13  C   UNL     1      -8.910   9.128  65.150  1.00  0.00    -0.200 A  
HETATM   14  H2  UNL     1      -7.364   6.313  62.532  1.00  0.00     0.000 HD 
HETATM   15  N   UNL     1      -9.372   8.293  66.087  1.00  0.00    -0.204 NA 
BRANCH   4  16
HETATM   16  O   UNL     1      -8.085   2.929  65.737  1.00  0.00    -0.085 OA 
HETATM   17  C   UNL     1      -8.143   2.380  64.430  1.00  0.00    -0.082 C  
ENDBRANCH   4  16
BRANCH  13  18
HETATM   18  N   UNL     1      -9.378  10.420  65.145  1.00  0.00    -0.201 NA 
HETATM   19  C   UNL     1     -11.217  11.897  64.505  1.00  0.00    -0.319 C  
HETATM   20  C   UNL     1     -10.140  10.920  64.000  1.00  0.00    -0.358 C  
HETATM   21  N   UNL     1     -10.643  12.948  65.360  1.00  0.00    -0.284 N  
HETATM   22  C   UNL     1     -10.945  14.276  65.095  1.00  0.00    -0.363 C  
HETATM   23  C   UNL     1      -9.830  12.435  66.477  1.00  0.00    -0.235 C  
HETATM   24  C   UNL     1      -8.750  11.444  65.985  1.00  0.00    -0.131 C  
HETATM   25  O   UNL     1     -11.670  14.581  64.143  1.00  0.00    -0.315 OA 
BRANCH  22  26
HETATM   26  C   UNL     1     -10.397  15.361  66.035  1.00  0.00    -0.324 C  
HETATM   27  C   UNL     1     -11.037  15.218  67.415  1.00  0.00    -0.326 C  
HETATM   28  O   UNL     1     -10.444  16.131  68.351  1.00  0.00    -0.252 OA 
HETATM   29  C   UNL     1     -10.318  17.384  67.811  1.00  0.00    -0.358 A  
HETATM   30  C   UNL     1     -10.056  18.425  68.700  1.00  0.00    -0.407 A  
HETATM   31  C   UNL     1      -9.922  19.729  68.221  1.00  0.00    -0.557 A  
HETATM   32  C   UNL     1     -10.045  19.988  66.856  1.00  0.00    -0.601 A  
HETATM   33  C   UNL     1     -10.303  18.946  65.965  1.00  0.00    -0.485 A  
HETATM   34  C   UNL     1     -10.429  17.642  66.441  1.00  0.00    -0.286 A  
HETATM   35  O   UNL     1     -10.677  16.665  65.511  1.00  0.00    -0.392 OA 
ENDBRANCH  22  26
ENDBRANCH  13  18
ENDBRANCH   2   3
TORSDOF 4
ENDMDL
MODEL       37
REMARK 921   NORMALIZED FREE ENERGY PREDICTED BY IDOCK:   -6.27 KCAL/MOL
REMARK 922        TOTAL FREE ENERGY PREDICTED BY IDOCK:   -8.26 KCAL/MOL
REMARK 923 INTER-LIGAND FREE ENERGY PREDICTED BY IDOCK:   -7.90 KCAL/MOL
REMARK 924 INTRA-LIGAND FREE ENERGY PREDICTED BY IDOCK:   -0.36 KCAL/MOL
REMARK 927      BINDING AFFINITY PREDICTED BY RF-SCORE:    0.00 PKD
ROOT
HETATM    1  C   UNL     1     -10.859  19.637  66.420  1.00  0.00    -0.330 C  
HETATM    2  O   UNL     1     -10.714  18.782  67.553  1.00  0.00    -0.438 OA 
ENDROOT
BRANCH   2   3
HETATM    3  C   UNL     1      -9.727  17.835  67.459  1.00  0.00    -0.284 A  
HETATM    4  C   UNL     1      -8.384  18.229  67.463  1.00  0.00    -0.245 A  
HETATM    5  C   UNL     1      -7.398  17.235  67.432  1.00  0.00    -0.185 A  
HETATM    6  C   UNL     1      -9.064  15.479  67.337  1.00  0.00    -0.199 A  
HETATM    7  C   UNL     1      -7.732  15.861  67.401  1.00  0.00    -0.203 A  
HETATM    8  C   UNL     1     -10.034  16.466  67.342  1.00  0.00    -0.251 A  
HETATM    9  C   UNL     1      -6.830  14.799  67.456  1.00  0.00    -0.155 A  
HETATM   10  N   UNL     1      -5.448  15.016  67.527  1.00  0.00    -0.343 NA 
HETATM   11  N   UNL     1      -7.209  13.515  67.444  1.00  0.00    -0.146 NA 
HETATM   12  H1  UNL     1      -4.787  14.239  67.567  1.00  0.00     0.000 HD 
HETATM   13  C   UNL     1      -8.522  13.242  67.382  1.00  0.00    -0.206 A  
HETATM   14  H2  UNL     1      -5.265  15.624  68.326  1.00  0.00     0.000 HD 
HETATM   15  N   UNL     1      -9.452  14.200  67.309  1.00  0.00    -0.222 NA 
BRANCH   4  16
HETATM   16  O   UNL     1      -7.848  19.485  67.515  1.00  0.00    -0.253 OA 
HETATM   17  C   UNL     1      -7.095  19.873  68.653  1.00  0.00    -0.303 C  
ENDBRANCH   4  16
BRANCH  13  18
HETATM   18  N   UNL     1      -8.941  11.940  67.508  1.00  0.00    -0.166 NA 
HETATM   19  C   UNL     1      -9.607   9.911  66.318  1.00  0.00    -0.209 C  
HETATM   20  C   UNL     1      -9.929  11.394  66.577  1.00  0.00    -0.211 C  
HETATM   21  N   UNL     1      -9.469   9.154  67.573  1.00  0.00    -0.137 N  
HETATM   22  C   UNL     1     -10.174   7.970  67.730  1.00  0.00    -0.222 C  
HETATM   23  C   UNL     1      -8.513   9.744  68.527  1.00  0.00    -0.115 C  
HETATM   24  C   UNL     1      -8.819  11.237  68.788  1.00  0.00    -0.102 C  
HETATM   25  O   UNL     1     -10.924   7.559  66.840  1.00  0.00    -0.292 OA 
BRANCH  22  26
HETATM   26  C   UNL     1      -9.969   7.152  69.014  1.00  0.00    -0.174 C  
HETATM   27  C   UNL     1     -10.734   5.834  68.913  1.00  0.00    -0.263 C  
HETATM   28  O   UNL     1     -10.452   4.990  70.040  1.00  0.00    -0.276 OA 
HETATM   29  C   UNL     1     -10.507   5.694  71.214  1.00  0.00    -0.236 A  
HETATM   30  C   UNL     1     -10.564   4.947  72.389  1.00  0.00    -0.263 A  
HETATM   31  C   UNL     1     -10.629   5.598  73.622  1.00  0.00    -0.310 A  
HETATM   32  C   UNL     1     -10.631   6.992  73.678  1.00  0.00    -0.383 A  
HETATM   33  C   UNL     1     -10.568   7.740  72.501  1.00  0.00    -0.352 A  
HETATM   34  C   UNL     1     -10.495   7.091  71.270  1.00  0.00    -0.206 A  
HETATM   35  O   UNL     1     -10.431   7.886  70.155  1.00  0.00    -0.221 OA 
ENDBRANCH  22  26
ENDBRANCH  13  18
ENDBRANCH   2   3
TORSDOF 4
ENDMDL
MODEL       38
REMARK 921   NORMALIZED FREE ENERGY PREDICTED BY IDOCK:   -6.27 KCAL/MOL
REMARK 922        TOTAL FREE ENERGY PREDICTED BY IDOCK:   -8.26 KCAL/MOL
REMARK 923 INTER-LIGAND FREE ENERGY PREDICTED BY IDOCK:   -7.75 KCAL/MOL
REMARK 924 INTRA-LIGAND FREE ENERGY PREDICTED BY IDOCK:   -0.51 KCAL/MOL
REMARK 927      BINDING AFFINITY PREDICTED BY RF-SCORE:    0.00 PKD
ROOT
HETATM    1  C   UNL     1     -12.527  13.089  63.223  1.00  0.00    -0.190 C  
HETATM    2  O   UNL     1     -12.341  14.375  63.812  1.00  0.00    -0.736 OA 
ENDROOT
BRANCH   2   3
HETATM    3  C   UNL     1     -11.358  14.454  64.766  1.00  0.00    -0.388 A  
HETATM    4  C   UNL     1     -10.809  15.698  65.096  1.00  0.00    -0.431 A  
HETATM    5  C   UNL     1      -9.855  15.755  66.119  1.00  0.00    -0.341 A  
HETATM    6  C   UNL     1      -9.950  13.357  66.444  1.00  0.00    -0.293 A  
HETATM    7  C   UNL     1      -9.447  14.595  66.817  1.00  0.00    -0.275 A  
HETATM    8  C   UNL     1     -10.874  13.302  65.415  1.00  0.00    -0.304 A  
HETATM    9  C   UNL     1      -8.573  14.558  67.903  1.00  0.00    -0.161 A  
HETATM   10  N   UNL     1      -7.980  15.725  68.404  1.00  0.00    -0.137 NA 
HETATM   11  N   UNL     1      -8.240  13.427  68.536  1.00  0.00    -0.130 NA 
HETATM   12  H1  UNL     1      -7.341  15.698  69.199  1.00  0.00     0.000 HD 
HETATM   13  C   UNL     1      -8.779  12.276  68.105  1.00  0.00    -0.186 A  
HETATM   14  H2  UNL     1      -8.725  16.387  68.623  1.00  0.00     0.000 HD 
HETATM   15  N   UNL     1      -9.611  12.220  67.060  1.00  0.00    -0.203 NA 
BRANCH   4  16
HETATM   16  O   UNL     1     -11.078  16.932  64.572  1.00  0.00    -1.054 OA 
HETATM   17  C   UNL     1     -10.779  18.091  65.334  1.00  0.00     0.163 C  
ENDBRANCH   4  16
BRANCH  13  18
HETATM   18  N   UNL     1      -8.561  11.125  68.823  1.00  0.00    -0.155 NA 
HETATM   19  C   UNL     1      -7.015   9.922  70.285  1.00  0.00    -0.146 C  
HETATM   20  C   UNL     1      -7.219  10.547  68.893  1.00  0.00    -0.086 C  
HETATM   21  N   UNL     1      -8.099   8.987  70.628  1.00  0.00    -0.145 N  
HETATM   22  C   UNL     1      -7.778   7.716  71.079  1.00  0.00    -0.088 C  
HETATM   23  C   UNL     1      -9.450   9.562  70.499  1.00  0.00    -0.246 C  
HETATM   24  C   UNL     1      -9.664  10.204  69.109  1.00  0.00    -0.215 C  
HETATM   25  O   UNL     1      -6.600   7.359  71.177  1.00  0.00    -0.043 OA 
BRANCH  22  26
HETATM   26  C   UNL     1      -8.915   6.772  71.501  1.00  0.00    -0.137 C  
HETATM   27  C   UNL     1      -9.387   7.130  72.909  1.00  0.00    -0.148 C  
HETATM   28  O   UNL     1     -10.538   6.354  73.276  1.00  0.00    -0.236 OA 
HETATM   29  C   UNL     1     -10.370   5.033  72.955  1.00  0.00    -0.193 A  
HETATM   30  C   UNL     1     -11.262   4.131  73.532  1.00  0.00    -0.341 A  
HETATM   31  C   UNL     1     -11.147   2.769  73.255  1.00  0.00    -0.236 A  
HETATM   32  C   UNL     1     -10.145   2.312  72.398  1.00  0.00    -0.227 A  
HETATM   33  C   UNL     1      -9.255   3.215  71.816  1.00  0.00    -0.180 A  
HETATM   34  C   UNL     1      -9.374   4.577  72.086  1.00  0.00    -0.133 A  
HETATM   35  O   UNL     1      -8.470   5.410  71.477  1.00  0.00    -0.123 OA 
ENDBRANCH  22  26
ENDBRANCH  13  18
ENDBRANCH   2   3
TORSDOF 4
ENDMDL
MODEL       39
REMARK 921   NORMALIZED FREE ENERGY PREDICTED BY IDOCK:   -6.23 KCAL/MOL
REMARK 922        TOTAL FREE ENERGY PREDICTED BY IDOCK:   -8.22 KCAL/MOL
REMARK 923 INTER-LIGAND FREE ENERGY PREDICTED BY IDOCK:   -7.60 KCAL/MOL
REMARK 924 INTRA-LIGAND FREE ENERGY PREDICTED BY IDOCK:   -0.62 KCAL/MOL
REMARK 927      BINDING AFFINITY PREDICTED BY RF-SCORE:    0.00 PKD
ROOT
HETATM    1  C   UNL     1      -6.729  18.313  69.070  1.00  0.00    -0.261 C  
HETATM    2  O   UNL     1      -8.071  18.728  68.825  1.00  0.00    -0.332 OA 
ENDROOT
BRANCH   2   3
HETATM    3  C   UNL     1      -8.818  17.888  68.040  1.00  0.00    -0.268 A  
HETATM    4  C   UNL     1      -9.361  18.359  66.839  1.00  0.00    -0.290 A  
HETATM    5  C   UNL     1     -10.064  17.460  66.028  1.00  0.00    -0.273 A  
HETATM    6  C   UNL     1      -9.739  15.658  67.613  1.00  0.00    -0.225 A  
HETATM    7  C   UNL     1     -10.227  16.104  66.393  1.00  0.00    -0.315 A  
HETATM    8  C   UNL     1      -9.068  16.557  68.424  1.00  0.00    -0.222 A  
HETATM    9  C   UNL     1     -10.832  15.115  65.618  1.00  0.00    -0.360 A  
HETATM   10  N   UNL     1     -11.373  15.402  64.359  1.00  0.00    -0.709 NA 
HETATM   11  N   UNL     1     -10.938  13.839  66.012  1.00  0.00    -0.283 NA 
HETATM   12  H1  UNL     1     -11.815  14.678  63.791  1.00  0.00     0.000 HD 
HETATM   13  C   UNL     1     -10.434  13.501  67.209  1.00  0.00    -0.248 A  
HETATM   14  H2  UNL     1     -10.644  15.840  63.796  1.00  0.00     0.000 HD 
HETATM   15  N   UNL     1      -9.855  14.390  68.022  1.00  0.00    -0.216 NA 
BRANCH   4  16
HETATM   16  O   UNL     1      -9.299  19.609  66.290  1.00  0.00    -0.361 OA 
HETATM   17  C   UNL     1     -10.423  20.117  65.588  1.00  0.00    -0.218 C  
ENDBRANCH   4  16
BRANCH  13  18
HETATM   18  N   UNL     1     -10.409  12.176  67.573  1.00  0.00    -0.204 NA 
HETATM   19  C   UNL     1     -11.320  10.480  69.078  1.00  0.00    -0.257 C  
HETATM   20  C   UNL     1     -10.534  11.800  68.981  1.00  0.00    -0.099 C  
HETATM   21  N   UNL     1     -10.742   9.435  68.219  1.00  0.00    -0.204 N  
HETATM   22  C   UNL     1     -10.472   8.187  68.759  1.00  0.00    -0.174 C  
HETATM   23  C   UNL     1     -10.567   9.844  66.814  1.00  0.00    -0.144 C  
HETATM   24  C   UNL     1      -9.788  11.175  66.701  1.00  0.00    -0.199 C  
HETATM   25  O   UNL     1     -10.694   7.953  69.951  1.00  0.00    -0.244 OA 
BRANCH  22  26
HETATM   26  C   UNL     1      -9.935   7.082  67.837  1.00  0.00    -0.154 C  
HETATM   27  C   UNL     1     -11.101   6.300  67.235  1.00  0.00    -0.296 C  
HETATM   28  O   UNL     1     -10.634   5.351  66.264  1.00  0.00    -0.260 OA 
HETATM   29  C   UNL     1      -9.548   4.657  66.729  1.00  0.00    -0.181 A  
HETATM   30  C   UNL     1      -9.194   3.505  66.030  1.00  0.00    -0.167 A  
HETATM   31  C   UNL     1      -8.103   2.745  66.451  1.00  0.00    -0.083 A  
HETATM   32  C   UNL     1      -7.364   3.141  67.566  1.00  0.00    -0.058 A  
HETATM   33  C   UNL     1      -7.714   4.298  68.264  1.00  0.00    -0.075 A  
HETATM   34  C   UNL     1      -8.800   5.062  67.840  1.00  0.00    -0.103 A  
HETATM   35  O   UNL     1      -9.086   6.188  68.567  1.00  0.00    -0.118 OA 
ENDBRANCH  22  26
ENDBRANCH  13  18
ENDBRANCH   2   3
TORSDOF 4
ENDMDL
MODEL       40
REMARK 921   NORMALIZED FREE ENERGY PREDICTED BY IDOCK:   -6.22 KCAL/MOL
REMARK 922        TOTAL FREE ENERGY PREDICTED BY IDOCK:   -8.21 KCAL/MOL
REMARK 923 INTER-LIGAND FREE ENERGY PREDICTED BY IDOCK:   -7.73 KCAL/MOL
REMARK 924 INTRA-LIGAND FREE ENERGY PREDICTED BY IDOCK:   -0.48 KCAL/MOL
REMARK 927      BINDING AFFINITY PREDICTED BY RF-SCORE:    0.00 PKD
ROOT
HETATM    1  C   UNL     1      -5.611   4.738  70.217  1.00  0.00    -0.015 C  
HETATM    2  O   UNL     1      -5.552   5.250  68.887  1.00  0.00    -0.013 OA 
ENDROOT
BRANCH   2   3
HETATM    3  C   UNL     1      -6.742   5.692  68.368  1.00  0.00    -0.057 A  
HETATM    4  C   UNL     1      -7.651   4.771  67.835  1.00  0.00    -0.082 A  
HETATM    5  C   UNL     1      -8.885   5.246  67.373  1.00  0.00    -0.105 A  
HETATM    6  C   UNL     1      -8.294   7.532  67.912  1.00  0.00    -0.123 A  
HETATM    7  C   UNL     1      -9.224   6.617  67.438  1.00  0.00    -0.124 A  
HETATM    8  C   UNL     1      -7.066   7.062  68.344  1.00  0.00    -0.082 A  
HETATM    9  C   UNL     1     -10.453   7.174  67.086  1.00  0.00    -0.319 A  
HETATM   10  N   UNL     1     -11.499   6.384  66.594  1.00  0.00    -0.683 NA 
HETATM   11  N   UNL     1     -10.720   8.482  67.191  1.00  0.00    -0.229 NA 
HETATM   12  H1  UNL     1     -12.399   6.792  66.336  1.00  0.00     0.000 HD 
HETATM   13  C   UNL     1      -9.758   9.291  67.661  1.00  0.00    -0.157 A  
HETATM   14  H2  UNL     1     -11.674   5.638  67.267  1.00  0.00     0.000 HD 
HETATM   15  N   UNL     1      -8.546   8.842  68.005  1.00  0.00    -0.133 NA 
BRANCH   4  16
HETATM   16  O   UNL     1      -7.538   3.416  67.703  1.00  0.00    -0.068 OA 
HETATM   17  C   UNL     1      -8.545   2.698  67.009  1.00  0.00    -0.109 C  
ENDBRANCH   4  16
BRANCH  13  18
HETATM   18  N   UNL     1     -10.054  10.610  67.906  1.00  0.00    -0.164 NA 
HETATM   19  C   UNL     1     -11.313  12.168  69.307  1.00  0.00    -0.266 C  
HETATM   20  C   UNL     1     -11.406  10.994  68.315  1.00  0.00    -0.299 C  
HETATM   21  N   UNL     1     -10.501  13.273  68.772  1.00  0.00    -0.209 N  
HETATM   22  C   UNL     1     -11.013  14.562  68.796  1.00  0.00    -0.250 C  
HETATM   23  C   UNL     1      -9.163  12.864  68.311  1.00  0.00    -0.187 C  
HETATM   24  C   UNL     1      -9.240  11.678  67.321  1.00  0.00    -0.170 C  
HETATM   25  O   UNL     1     -12.143  14.784  69.241  1.00  0.00    -0.305 OA 
BRANCH  22  26
HETATM   26  C   UNL     1     -10.131  15.717  68.300  1.00  0.00    -0.218 C  
HETATM   27  C   UNL     1      -9.110  16.084  69.376  1.00  0.00    -0.189 C  
HETATM   28  O   UNL     1      -8.184  17.068  68.889  1.00  0.00    -0.254 OA 
HETATM   29  C   UNL     1      -8.833  18.076  68.226  1.00  0.00    -0.286 A  
HETATM   30  C   UNL     1      -8.101  19.237  67.982  1.00  0.00    -0.341 A  
HETATM   31  C   UNL     1      -8.700  20.308  67.318  1.00  0.00    -0.441 A  
HETATM   32  C   UNL     1     -10.027  20.215  66.896  1.00  0.00    -0.600 A  
HETATM   33  C   UNL     1     -10.758  19.051  67.136  1.00  0.00    -0.541 A  
HETATM   34  C   UNL     1     -10.159  17.977  67.792  1.00  0.00    -0.353 A  
HETATM   35  O   UNL     1     -10.932  16.864  67.991  1.00  0.00    -0.354 OA 
ENDBRANCH  22  26
ENDBRANCH  13  18
ENDBRANCH   2   3
TORSDOF 4
ENDMDL
MODEL       41
REMARK 921   NORMALIZED FREE ENERGY PREDICTED BY IDOCK:   -6.20 KCAL/MOL
REMARK 922        TOTAL FREE ENERGY PREDICTED BY IDOCK:   -8.18 KCAL/MOL
REMARK 923 INTER-LIGAND FREE ENERGY PREDICTED BY IDOCK:   -8.24 KCAL/MOL
REMARK 924 INTRA-LIGAND FREE ENERGY PREDICTED BY IDOCK:    0.06 KCAL/MOL
REMARK 927      BINDING AFFINITY PREDICTED BY RF-SCORE:    0.00 PKD
ROOT
HETATM    1  C   UNL     1      -9.135   7.719  73.852  1.00  0.00    -0.239 C  
HETATM    2  O   UNL     1      -8.970   6.593  72.992  1.00  0.00    -0.128 OA 
ENDROOT
BRANCH   2   3
HETATM    3  C   UNL     1      -9.330   6.788  71.683  1.00  0.00    -0.151 A  
HETATM    4  C   UNL     1      -9.902   5.739  70.956  1.00  0.00    -0.178 A  
HETATM    5  C   UNL     1     -10.319   5.988  69.643  1.00  0.00    -0.294 A  
HETATM    6  C   UNL     1      -9.555   8.284  69.755  1.00  0.00    -0.171 A  
HETATM    7  C   UNL     1     -10.178   7.264  69.050  1.00  0.00    -0.197 A  
HETATM    8  C   UNL     1      -9.121   8.025  71.044  1.00  0.00    -0.166 A  
HETATM    9  C   UNL     1     -10.637   7.634  67.786  1.00  0.00    -0.196 A  
HETATM   10  N   UNL     1     -11.291   6.721  66.949  1.00  0.00    -0.792 NA 
HETATM   11  N   UNL     1     -10.491   8.868  67.287  1.00  0.00    -0.282 NA 
HETATM   12  H1  UNL     1     -11.628   6.992  66.025  1.00  0.00     0.000 HD 
HETATM   13  C   UNL     1      -9.876   9.790  68.044  1.00  0.00    -0.148 A  
HETATM   14  H2  UNL     1     -12.078   6.328  67.466  1.00  0.00     0.000 HD 
HETATM   15  N   UNL     1      -9.389   9.514  69.259  1.00  0.00    -0.161 NA 
BRANCH   4  16
HETATM   16  O   UNL     1     -10.153   4.452  71.341  1.00  0.00    -0.186 OA 
HETATM   17  C   UNL     1      -9.363   3.864  72.362  1.00  0.00    -0.119 C  
ENDBRANCH   4  16
BRANCH  13  18
HETATM   18  N   UNL     1      -9.837  11.093  67.610  1.00  0.00    -0.172 NA 
HETATM   19  C   UNL     1     -11.040  12.863  66.430  1.00  0.00    -0.285 C  
HETATM   20  C   UNL     1     -10.427  11.455  66.322  1.00  0.00    -0.255 C  
HETATM   21  N   UNL     1     -10.073  13.841  66.953  1.00  0.00    -0.256 N  
HETATM   22  C   UNL     1      -9.882  15.035  66.272  1.00  0.00    -0.285 C  
HETATM   23  C   UNL     1      -9.442  13.440  68.223  1.00  0.00    -0.209 C  
HETATM   24  C   UNL     1      -8.831  12.023  68.132  1.00  0.00    -0.182 C  
HETATM   25  O   UNL     1     -10.498  15.272  65.229  1.00  0.00    -0.358 OA 
BRANCH  22  26
HETATM   26  C   UNL     1      -8.923  16.078  66.864  1.00  0.00    -0.227 C  
HETATM   27  C   UNL     1      -9.561  16.728  68.091  1.00  0.00    -0.242 C  
HETATM   28  O   UNL     1      -8.634  17.609  68.744  1.00  0.00    -0.272 OA 
HETATM   29  C   UNL     1      -7.985  18.407  67.840  1.00  0.00    -0.258 A  
HETATM   30  C   UNL     1      -7.303  19.508  68.354  1.00  0.00    -0.352 A  
HETATM   31  C   UNL     1      -6.625  20.369  67.490  1.00  0.00    -0.294 A  
HETATM   32  C   UNL     1      -6.626  20.125  66.116  1.00  0.00    -0.252 A  
HETATM   33  C   UNL     1      -7.305  19.020  65.602  1.00  0.00    -0.148 A  
HETATM   34  C   UNL     1      -7.976  18.155  66.464  1.00  0.00    -0.262 A  
HETATM   35  O   UNL     1      -8.618  17.087  65.893  1.00  0.00    -0.521 OA 
ENDBRANCH  22  26
ENDBRANCH  13  18
ENDBRANCH   2   3
TORSDOF 4
ENDMDL
MODEL       42
REMARK 921   NORMALIZED FREE ENERGY PREDICTED BY IDOCK:   -6.17 KCAL/MOL
REMARK 922        TOTAL FREE ENERGY PREDICTED BY IDOCK:   -8.14 KCAL/MOL
REMARK 923 INTER-LIGAND FREE ENERGY PREDICTED BY IDOCK:   -7.61 KCAL/MOL
REMARK 924 INTRA-LIGAND FREE ENERGY PREDICTED BY IDOCK:   -0.53 KCAL/MOL
REMARK 927      BINDING AFFINITY PREDICTED BY RF-SCORE:    0.00 PKD
ROOT
HETATM    1  C   UNL     1      -6.844  18.394  66.431  1.00  0.00    -0.217 C  
HETATM    2  O   UNL     1      -7.931  17.793  65.728  1.00  0.00    -0.544 OA 
ENDROOT
BRANCH   2   3
HETATM    3  C   UNL     1      -8.769  17.016  66.485  1.00  0.00    -0.263 A  
HETATM    4  C   UNL     1      -9.889  17.593  67.095  1.00  0.00    -0.306 A  
HETATM    5  C   UNL     1     -10.762  16.762  67.806  1.00  0.00    -0.321 A  
HETATM    6  C   UNL     1      -9.395  14.813  67.358  1.00  0.00    -0.197 A  
HETATM    7  C   UNL     1     -10.538  15.369  67.914  1.00  0.00    -0.267 A  
HETATM    8  C   UNL     1      -8.521  15.643  66.677  1.00  0.00    -0.323 A  
HETATM    9  C   UNL     1     -11.389  14.448  68.523  1.00  0.00    -0.282 A  
HETATM   10  N   UNL     1     -12.587  14.849  69.129  1.00  0.00    -0.512 NA 
HETATM   11  N   UNL     1     -11.130  13.135  68.574  1.00  0.00    -0.252 NA 
HETATM   12  H1  UNL     1     -13.210  14.175  69.575  1.00  0.00     0.000 HD 
HETATM   13  C   UNL     1      -9.999  12.689  68.007  1.00  0.00    -0.220 A  
HETATM   14  H2  UNL     1     -13.129  15.369  68.439  1.00  0.00     0.000 HD 
HETATM   15  N   UNL     1      -9.120  13.506  67.418  1.00  0.00    -0.209 NA 
BRANCH   4  16
HETATM   16  O   UNL     1     -10.303  18.896  67.094  1.00  0.00    -0.365 OA 
HETATM   17  C   UNL     1     -10.619  19.525  65.862  1.00  0.00    -0.476 C  
ENDBRANCH   4  16
BRANCH  13  18
HETATM   18  N   UNL     1      -9.781  11.335  67.926  1.00  0.00    -0.173 NA 
HETATM   19  C   UNL     1      -9.524   9.255  69.183  1.00  0.00    -0.157 C  
HETATM   20  C   UNL     1      -8.957  10.664  68.932  1.00  0.00    -0.168 C  
HETATM   21  N   UNL     1      -9.690   8.501  67.931  1.00  0.00    -0.156 N  
HETATM   22  C   UNL     1      -9.170   7.218  67.838  1.00  0.00    -0.131 C  
HETATM   23  C   UNL     1     -10.474   9.210  66.904  1.00  0.00    -0.217 C  
HETATM   24  C   UNL     1      -9.921  10.632  66.648  1.00  0.00    -0.212 C  
HETATM   25  O   UNL     1      -8.557   6.716  68.785  1.00  0.00    -0.122 OA 
BRANCH  22  26
HETATM   26  C   UNL     1      -9.409   6.414  66.552  1.00  0.00    -0.155 C  
HETATM   27  C   UNL     1     -10.460   5.335  66.807  1.00  0.00    -0.273 C  
HETATM   28  O   UNL     1     -10.803   4.656  65.589  1.00  0.00    -0.292 OA 
HETATM   29  C   UNL     1      -9.685   4.328  64.870  1.00  0.00    -0.176 A  
HETATM   30  C   UNL     1      -9.851   3.403  63.841  1.00  0.00    -0.166 A  
HETATM   31  C   UNL     1      -8.753   3.017  63.072  1.00  0.00    -0.085 A  
HETATM   32  C   UNL     1      -7.493   3.558  63.329  1.00  0.00    -0.055 A  
HETATM   33  C   UNL     1      -7.327   4.488  64.357  1.00  0.00    -0.070 A  
HETATM   34  C   UNL     1      -8.425   4.881  65.121  1.00  0.00    -0.139 A  
HETATM   35  O   UNL     1      -8.192   5.801  66.110  1.00  0.00    -0.106 OA 
ENDBRANCH  22  26
ENDBRANCH  13  18
ENDBRANCH   2   3
TORSDOF 4
ENDMDL
MODEL       43
REMARK 921   NORMALIZED FREE ENERGY PREDICTED BY IDOCK:   -6.16 KCAL/MOL
REMARK 922        TOTAL FREE ENERGY PREDICTED BY IDOCK:   -8.13 KCAL/MOL
REMARK 923 INTER-LIGAND FREE ENERGY PREDICTED BY IDOCK:   -7.81 KCAL/MOL
REMARK 924 INTRA-LIGAND FREE ENERGY PREDICTED BY IDOCK:   -0.32 KCAL/MOL
REMARK 927      BINDING AFFINITY PREDICTED BY RF-SCORE:    0.00 PKD
ROOT
HETATM    1  C   UNL     1      -7.558  16.704  68.382  1.00  0.00    -0.197 C  
HETATM    2  O   UNL     1      -8.170  16.804  67.097  1.00  0.00    -0.170 OA 
ENDROOT
BRANCH   2   3
HETATM    3  C   UNL     1      -9.138  15.872  66.826  1.00  0.00    -0.248 A  
HETATM    4  C   UNL     1     -10.213  16.207  65.996  1.00  0.00    -0.356 A  
HETATM    5  C   UNL     1     -11.151  15.215  65.686  1.00  0.00    -0.334 A  
HETATM    6  C   UNL     1      -9.995  13.588  67.058  1.00  0.00    -0.247 A  
HETATM    7  C   UNL     1     -11.029  13.898  66.186  1.00  0.00    -0.293 A  
HETATM    8  C   UNL     1      -9.085  14.579  67.382  1.00  0.00    -0.201 A  
HETATM    9  C   UNL     1     -11.858  12.822  65.868  1.00  0.00    -0.437 A  
HETATM   10  N   UNL     1     -12.946  12.969  64.999  1.00  0.00    -0.782 NA 
HETATM   11  N   UNL     1     -11.678  11.590  66.361  1.00  0.00    -0.367 NA 
HETATM   12  H1  UNL     1     -13.552  12.182  64.766  1.00  0.00     0.000 HD 
HETATM   13  C   UNL     1     -10.649  11.384  67.196  1.00  0.00    -0.243 A  
HETATM   14  H2  UNL     1     -12.600  13.368  64.126  1.00  0.00     0.000 HD 
HETATM   15  N   UNL     1      -9.818  12.364  67.567  1.00  0.00    -0.192 NA 
BRANCH   4  16
HETATM   16  O   UNL     1     -10.503  17.398  65.390  1.00  0.00    -0.648 OA 
HETATM   17  C   UNL     1     -10.318  18.607  66.108  1.00  0.00    -0.443 C  
ENDBRANCH   4  16
BRANCH  13  18
HETATM   18  N   UNL     1     -10.364  10.104  67.604  1.00  0.00    -0.203 NA 
HETATM   19  C   UNL     1     -10.202   8.582  69.509  1.00  0.00    -0.206 C  
HETATM   20  C   UNL     1      -9.665   9.875  68.869  1.00  0.00    -0.175 C  
HETATM   21  N   UNL     1     -10.154   7.447  68.573  1.00  0.00    -0.170 N  
HETATM   22  C   UNL     1      -9.572   6.257  68.982  1.00  0.00    -0.127 C  
HETATM   23  C   UNL     1     -10.811   7.709  67.280  1.00  0.00    -0.193 C  
HETATM   24  C   UNL     1     -10.289   9.011  66.630  1.00  0.00    -0.219 C  
HETATM   25  O   UNL     1      -9.081   6.149  70.110  1.00  0.00    -0.149 OA 
BRANCH  22  26
HETATM   26  C   UNL     1      -9.590   5.057  68.023  1.00  0.00    -0.141 C  
HETATM   27  C   UNL     1      -9.387   3.764  68.811  1.00  0.00    -0.164 C  
HETATM   28  O   UNL     1      -9.534   2.617  67.960  1.00  0.00    -0.211 OA 
HETATM   29  C   UNL     1      -8.857   2.782  66.781  1.00  0.00    -0.142 A  
HETATM   30  C   UNL     1      -8.656   1.639  66.009  1.00  0.00    -0.112 A  
HETATM   31  C   UNL     1      -7.968   1.731  64.800  1.00  0.00    -0.069 A  
HETATM   32  C   UNL     1      -7.486   2.965  64.361  1.00  0.00    -0.074 A  
HETATM   33  C   UNL     1      -7.691   4.111  65.132  1.00  0.00    -0.085 A  
HETATM   34  C   UNL     1      -8.385   4.021  66.337  1.00  0.00    -0.105 A  
HETATM   35  O   UNL     1      -8.555   5.185  67.041  1.00  0.00    -0.107 OA 
ENDBRANCH  22  26
ENDBRANCH  13  18
ENDBRANCH   2   3
TORSDOF 4
ENDMDL
MODEL       44
REMARK 921   NORMALIZED FREE ENERGY PREDICTED BY IDOCK:   -6.16 KCAL/MOL
REMARK 922        TOTAL FREE ENERGY PREDICTED BY IDOCK:   -8.12 KCAL/MOL
REMARK 923 INTER-LIGAND FREE ENERGY PREDICTED BY IDOCK:   -7.54 KCAL/MOL
REMARK 924 INTRA-LIGAND FREE ENERGY PREDICTED BY IDOCK:   -0.58 KCAL/MOL
REMARK 927      BINDING AFFINITY PREDICTED BY RF-SCORE:    0.00 PKD
ROOT
HETATM    1  C   UNL     1      -9.150   3.855  70.231  1.00  0.00    -0.119 C  
HETATM    2  O   UNL     1      -9.809   3.794  68.967  1.00  0.00    -0.096 OA 
ENDROOT
BRANCH   2   3
HETATM    3  C   UNL     1      -9.446   4.758  68.062  1.00  0.00    -0.140 A  
HETATM    4  C   UNL     1      -8.945   4.383  66.811  1.00  0.00    -0.118 A  
HETATM    5  C   UNL     1      -8.646   5.389  65.885  1.00  0.00    -0.131 A  
HETATM    6  C   UNL     1      -9.282   7.125  67.450  1.00  0.00    -0.127 A  
HETATM    7  C   UNL     1      -8.843   6.757  66.186  1.00  0.00    -0.161 A  
HETATM    8  C   UNL     1      -9.552   6.128  68.371  1.00  0.00    -0.123 A  
HETATM    9  C   UNL     1      -8.658   7.824  65.307  1.00  0.00    -0.042 A  
HETATM   10  N   UNL     1      -8.220   7.620  63.992  1.00  0.00    -0.350 NA 
HETATM   11  N   UNL     1      -8.881   9.099  65.647  1.00  0.00    -0.173 NA 
HETATM   12  H1  UNL     1      -8.084   8.400  63.349  1.00  0.00     0.000 HD 
HETATM   13  C   UNL     1      -9.307   9.359  66.893  1.00  0.00    -0.147 A  
HETATM   14  H2  UNL     1      -8.853   6.954  63.549  1.00  0.00     0.000 HD 
HETATM   15  N   UNL     1      -9.493   8.397  67.803  1.00  0.00    -0.147 NA 
BRANCH   4  16
HETATM   16  O   UNL     1      -8.707   3.134  66.310  1.00  0.00    -0.117 OA 
HETATM   17  C   UNL     1      -8.962   2.874  64.939  1.00  0.00    -0.133 C  
ENDBRANCH   4  16
BRANCH  13  18
HETATM   18  N   UNL     1      -9.674  10.641  67.220  1.00  0.00    -0.166 NA 
HETATM   19  C   UNL     1     -11.097  12.033  68.639  1.00  0.00    -0.250 C  
HETATM   20  C   UNL     1     -11.067  10.944  67.551  1.00  0.00    -0.310 C  
HETATM   21  N   UNL     1     -10.292  13.206  68.262  1.00  0.00    -0.247 N  
HETATM   22  C   UNL     1     -10.856  14.470  68.350  1.00  0.00    -0.243 C  
HETATM   23  C   UNL     1      -8.907  12.883  67.875  1.00  0.00    -0.190 C  
HETATM   24  C   UNL     1      -8.862  11.783  66.790  1.00  0.00    -0.191 C  
HETATM   25  O   UNL     1     -12.024  14.616  68.721  1.00  0.00    -0.306 OA 
BRANCH  22  26
HETATM   26  C   UNL     1      -9.986  15.692  68.021  1.00  0.00    -0.222 C  
HETATM   27  C   UNL     1      -9.201  16.115  69.261  1.00  0.00    -0.223 C  
HETATM   28  O   UNL     1      -8.278  17.169  68.948  1.00  0.00    -0.255 OA 
HETATM   29  C   UNL     1      -8.870  18.139  68.182  1.00  0.00    -0.280 A  
HETATM   30  C   UNL     1      -8.193  19.352  68.073  1.00  0.00    -0.353 A  
HETATM   31  C   UNL     1      -8.741  20.386  67.315  1.00  0.00    -0.429 A  
HETATM   32  C   UNL     1      -9.961  20.205  66.663  1.00  0.00    -0.595 A  
HETATM   33  C   UNL     1     -10.638  18.989  66.768  1.00  0.00    -0.508 A  
HETATM   34  C   UNL     1     -10.087  17.952  67.519  1.00  0.00    -0.342 A  
HETATM   35  O   UNL     1     -10.801  16.783  67.575  1.00  0.00    -0.307 OA 
ENDBRANCH  22  26
ENDBRANCH  13  18
ENDBRANCH   2   3
TORSDOF 4
ENDMDL
MODEL       45
REMARK 921   NORMALIZED FREE ENERGY PREDICTED BY IDOCK:   -6.15 KCAL/MOL
REMARK 922        TOTAL FREE ENERGY PREDICTED BY IDOCK:   -8.12 KCAL/MOL
REMARK 923 INTER-LIGAND FREE ENERGY PREDICTED BY IDOCK:   -7.51 KCAL/MOL
REMARK 924 INTRA-LIGAND FREE ENERGY PREDICTED BY IDOCK:   -0.61 KCAL/MOL
REMARK 927      BINDING AFFINITY PREDICTED BY RF-SCORE:    0.00 PKD
ROOT
HETATM    1  C   UNL     1      -7.341  19.300  69.003  1.00  0.00    -0.345 C  
HETATM    2  O   UNL     1      -8.755  19.125  69.075  1.00  0.00    -0.315 OA 
ENDROOT
BRANCH   2   3
HETATM    3  C   UNL     1      -9.296  18.270  68.150  1.00  0.00    -0.296 A  
HETATM    4  C   UNL     1      -9.999  18.785  67.056  1.00  0.00    -0.341 A  
HETATM    5  C   UNL     1     -10.483  17.891  66.094  1.00  0.00    -0.321 A  
HETATM    6  C   UNL     1      -9.626  15.987  67.322  1.00  0.00    -0.225 A  
HETATM    7  C   UNL     1     -10.272  16.497  66.205  1.00  0.00    -0.360 A  
HETATM    8  C   UNL     1      -9.172  16.873  68.284  1.00  0.00    -0.241 A  
HETATM    9  C   UNL     1     -10.635  15.536  65.261  1.00  0.00    -0.424 A  
HETATM   10  N   UNL     1     -11.293  15.888  64.076  1.00  0.00    -1.070 NA 
HETATM   11  N   UNL     1     -10.389  14.229  65.415  1.00  0.00    -0.348 NA 
HETATM   12  H1  UNL     1     -11.559  15.186  63.385  1.00  0.00     0.000 HD 
HETATM   13  C   UNL     1      -9.757  13.830  66.530  1.00  0.00    -0.293 A  
HETATM   14  H2  UNL     1     -10.731  16.596  63.602  1.00  0.00     0.000 HD 
HETATM   15  N   UNL     1      -9.389  14.682  67.492  1.00  0.00    -0.192 NA 
BRANCH   4  16
HETATM   16  O   UNL     1     -10.290  20.084  66.745  1.00  0.00    -0.440 OA 
HETATM   17  C   UNL     1     -10.797  20.394  65.456  1.00  0.00     0.295 C  
ENDBRANCH   4  16
BRANCH  13  18
HETATM   18  N   UNL     1      -9.372  12.516  66.645  1.00  0.00    -0.232 NA 
HETATM   19  C   UNL     1      -8.310  10.844  68.077  1.00  0.00    -0.122 C  
HETATM   20  C   UNL     1      -8.123  12.175  67.328  1.00  0.00    -0.176 C  
HETATM   21  N   UNL     1      -8.829   9.787  67.193  1.00  0.00    -0.132 N  
HETATM   22  C   UNL     1      -8.185   8.559  67.157  1.00  0.00    -0.108 C  
HETATM   23  C   UNL     1     -10.055  10.162  66.467  1.00  0.00    -0.234 C  
HETATM   24  C   UNL     1      -9.884  11.504  65.717  1.00  0.00    -0.234 C  
HETATM   25  O   UNL     1      -7.179   8.353  67.841  1.00  0.00    -0.087 OA 
BRANCH  22  26
HETATM   26  C   UNL     1      -8.775   7.441  66.285  1.00  0.00    -0.149 C  
HETATM   27  C   UNL     1      -9.837   6.676  67.074  1.00  0.00    -0.160 C  
HETATM   28  O   UNL     1     -10.500   5.714  66.240  1.00  0.00    -0.193 OA 
HETATM   29  C   UNL     1      -9.602   5.004  65.488  1.00  0.00    -0.089 A  
HETATM   30  C   UNL     1     -10.075   3.843  64.880  1.00  0.00    -0.187 A  
HETATM   31  C   UNL     1      -9.214   3.066  64.105  1.00  0.00    -0.119 A  
HETATM   32  C   UNL     1      -7.885   3.454  63.933  1.00  0.00    -0.081 A  
HETATM   33  C   UNL     1      -7.412   4.620  64.537  1.00  0.00    -0.072 A  
HETATM   34  C   UNL     1      -8.274   5.401  65.306  1.00  0.00    -0.133 A  
HETATM   35  O   UNL     1      -7.746   6.535  65.867  1.00  0.00    -0.085 OA 
ENDBRANCH  22  26
ENDBRANCH  13  18
ENDBRANCH   2   3
TORSDOF 4
ENDMDL
MODEL       46
REMARK 921   NORMALIZED FREE ENERGY PREDICTED BY IDOCK:   -6.15 KCAL/MOL
REMARK 922        TOTAL FREE ENERGY PREDICTED BY IDOCK:   -8.12 KCAL/MOL
REMARK 923 INTER-LIGAND FREE ENERGY PREDICTED BY IDOCK:   -7.48 KCAL/MOL
REMARK 924 INTRA-LIGAND FREE ENERGY PREDICTED BY IDOCK:   -0.65 KCAL/MOL
REMARK 927      BINDING AFFINITY PREDICTED BY RF-SCORE:    0.00 PKD
ROOT
HETATM    1  C   UNL     1      -9.419   6.591  74.292  1.00  0.00    -0.232 C  
HETATM    2  O   UNL     1      -9.573   5.360  73.586  1.00  0.00    -0.136 OA 
ENDROOT
BRANCH   2   3
HETATM    3  C   UNL     1      -9.657   5.466  72.222  1.00  0.00    -0.155 A  
HETATM    4  C   UNL     1      -9.886   4.322  71.450  1.00  0.00    -0.190 A  
HETATM    5  C   UNL     1     -10.031   4.471  70.065  1.00  0.00    -0.280 A  
HETATM    6  C   UNL     1      -9.671   6.862  70.208  1.00  0.00    -0.172 A  
HETATM    7  C   UNL     1      -9.958   5.739  69.444  1.00  0.00    -0.244 A  
HETATM    8  C   UNL     1      -9.501   6.706  71.572  1.00  0.00    -0.159 A  
HETATM    9  C   UNL     1     -10.175   6.002  68.092  1.00  0.00    -0.178 A  
HETATM   10  N   UNL     1     -10.478   4.977  67.187  1.00  0.00    -0.165 NA 
HETATM   11  N   UNL     1     -10.110   7.232  67.566  1.00  0.00    -0.176 NA 
HETATM   12  H1  UNL     1     -10.637   5.169  66.197  1.00  0.00     0.000 HD 
HETATM   13  C   UNL     1      -9.828   8.258  68.384  1.00  0.00    -0.172 A  
HETATM   14  H2  UNL     1     -11.290   4.474  67.543  1.00  0.00     0.000 HD 
HETATM   15  N   UNL     1      -9.589   8.091  69.689  1.00  0.00    -0.167 NA 
BRANCH   4  16
HETATM   16  O   UNL     1     -10.017   3.020  71.844  1.00  0.00    -0.170 OA 
HETATM   17  C   UNL     1      -8.862   2.200  71.932  1.00  0.00    -0.072 C  
ENDBRANCH   4  16
BRANCH  13  18
HETATM   18  N   UNL     1      -9.892   9.540  67.895  1.00  0.00    -0.150 NA 
HETATM   19  C   UNL     1     -10.671  10.966  66.069  1.00  0.00    -0.140 C  
HETATM   20  C   UNL     1      -9.764   9.785  66.458  1.00  0.00    -0.209 C  
HETATM   21  N   UNL     1     -10.423  12.146  66.911  1.00  0.00    -0.222 N  
HETATM   22  C   UNL     1     -10.204  13.375  66.307  1.00  0.00    -0.298 C  
HETATM   23  C   UNL     1     -10.499  11.876  68.358  1.00  0.00    -0.217 C  
HETATM   24  C   UNL     1      -9.600  10.685  68.762  1.00  0.00    -0.186 C  
HETATM   25  O   UNL     1     -10.197  13.482  65.077  1.00  0.00    -0.345 OA 
BRANCH  22  26
HETATM   26  C   UNL     1     -10.016  14.614  67.196  1.00  0.00    -0.240 C  
HETATM   27  C   UNL     1     -11.369  15.275  67.453  1.00  0.00    -0.284 C  
HETATM   28  O   UNL     1     -11.242  16.354  68.390  1.00  0.00    -0.362 OA 
HETATM   29  C   UNL     1     -10.168  17.150  68.091  1.00  0.00    -0.332 A  
HETATM   30  C   UNL     1     -10.114  18.392  68.720  1.00  0.00    -0.393 A  
HETATM   31  C   UNL     1      -9.052  19.258  68.457  1.00  0.00    -0.425 A  
HETATM   32  C   UNL     1      -8.044  18.878  67.571  1.00  0.00    -0.280 A  
HETATM   33  C   UNL     1      -8.094  17.632  66.945  1.00  0.00    -0.249 A  
HETATM   34  C   UNL     1      -9.151  16.763  67.213  1.00  0.00    -0.220 A  
HETATM   35  O   UNL     1      -9.136  15.554  66.568  1.00  0.00    -0.252 OA 
ENDBRANCH  22  26
ENDBRANCH  13  18
ENDBRANCH   2   3
TORSDOF 4
ENDMDL
MODEL       47
REMARK 921   NORMALIZED FREE ENERGY PREDICTED BY IDOCK:   -6.11 KCAL/MOL
REMARK 922        TOTAL FREE ENERGY PREDICTED BY IDOCK:   -8.07 KCAL/MOL
REMARK 923 INTER-LIGAND FREE ENERGY PREDICTED BY IDOCK:   -7.44 KCAL/MOL
REMARK 924 INTRA-LIGAND FREE ENERGY PREDICTED BY IDOCK:   -0.63 KCAL/MOL
REMARK 927      BINDING AFFINITY PREDICTED BY RF-SCORE:    0.00 PKD
ROOT
HETATM    1  C   UNL     1      -9.297   3.134  67.584  1.00  0.00    -0.200 C  
HETATM    2  O   UNL     1      -8.561   3.650  68.693  1.00  0.00    -0.083 OA 
ENDROOT
BRANCH   2   3
HETATM    3  C   UNL     1      -9.106   4.747  69.308  1.00  0.00    -0.105 A  
HETATM    4  C   UNL     1      -9.819   4.590  70.502  1.00  0.00    -0.227 A  
HETATM    5  C   UNL     1     -10.308   5.736  71.141  1.00  0.00    -0.286 A  
HETATM    6  C   UNL     1      -9.436   7.173  69.397  1.00  0.00    -0.153 A  
HETATM    7  C   UNL     1     -10.092   7.030  70.611  1.00  0.00    -0.201 A  
HETATM    8  C   UNL     1      -8.978   6.036  68.756  1.00  0.00    -0.118 A  
HETATM    9  C   UNL     1     -10.460   8.233  71.213  1.00  0.00    -0.211 A  
HETATM   10  N   UNL     1     -11.127   8.260  72.445  1.00  0.00    -0.360 NA 
HETATM   11  N   UNL     1     -10.208   9.430  70.669  1.00  0.00    -0.267 NA 
HETATM   12  H1  UNL     1     -11.397   9.140  72.885  1.00  0.00     0.000 HD 
HETATM   13  C   UNL     1      -9.567   9.470  69.491  1.00  0.00    -0.188 A  
HETATM   14  H2  UNL     1     -10.571   7.731  73.116  1.00  0.00     0.000 HD 
HETATM   15  N   UNL     1      -9.195   8.364  68.838  1.00  0.00    -0.147 NA 
BRANCH   4  16
HETATM   16  O   UNL     1     -10.116   3.449  71.193  1.00  0.00    -0.070 OA 
HETATM   17  C   UNL     1     -10.535   3.543  72.545  1.00  0.00    -0.068 C  
ENDBRANCH   4  16
BRANCH  13  18
HETATM   18  N   UNL     1      -9.177  10.685  68.983  1.00  0.00    -0.180 NA 
HETATM   19  C   UNL     1      -7.505  11.873  67.654  1.00  0.00    -0.127 C  
HETATM   20  C   UNL     1      -7.757  11.031  68.918  1.00  0.00    -0.140 C  
HETATM   21  N   UNL     1      -8.417  13.025  67.574  1.00  0.00    -0.178 N  
HETATM   22  C   UNL     1      -7.892  14.289  67.342  1.00  0.00    -0.187 C  
HETATM   23  C   UNL     1      -9.842  12.672  67.698  1.00  0.00    -0.210 C  
HETATM   24  C   UNL     1     -10.108  11.817  68.959  1.00  0.00     0.018 C  
HETATM   25  O   UNL     1      -6.675  14.454  67.222  1.00  0.00    -0.269 OA 
BRANCH  22  26
HETATM   26  C   UNL     1      -8.857  15.474  67.191  1.00  0.00    -0.212 C  
HETATM   27  C   UNL     1      -9.218  15.661  65.718  1.00  0.00    -0.211 C  
HETATM   28  O   UNL     1     -10.223  16.673  65.561  1.00  0.00    -0.550 OA 
HETATM   29  C   UNL     1      -9.935  17.781  66.313  1.00  0.00    -0.318 A  
HETATM   30  C   UNL     1     -10.646  18.942  66.017  1.00  0.00    -0.470 A  
HETATM   31  C   UNL     1     -10.400  20.110  66.738  1.00  0.00    -0.505 A  
HETATM   32  C   UNL     1      -9.447  20.115  67.757  1.00  0.00    -0.479 A  
HETATM   33  C   UNL     1      -8.737  18.952  68.057  1.00  0.00    -0.330 A  
HETATM   34  C   UNL     1      -8.988  17.782  67.343  1.00  0.00    -0.240 A  
HETATM   35  O   UNL     1      -8.259  16.675  67.693  1.00  0.00    -0.168 OA 
ENDBRANCH  22  26
ENDBRANCH  13  18
ENDBRANCH   2   3
TORSDOF 4
ENDMDL
MODEL       48
REMARK 921   NORMALIZED FREE ENERGY PREDICTED BY IDOCK:   -6.07 KCAL/MOL
REMARK 922        TOTAL FREE ENERGY PREDICTED BY IDOCK:   -8.02 KCAL/MOL
REMARK 923 INTER-LIGAND FREE ENERGY PREDICTED BY IDOCK:   -7.34 KCAL/MOL
REMARK 924 INTRA-LIGAND FREE ENERGY PREDICTED BY IDOCK:   -0.68 KCAL/MOL
REMARK 927      BINDING AFFINITY PREDICTED BY RF-SCORE:    0.00 PKD
ROOT
HETATM    1  C   UNL     1     -13.806   8.689  71.599  1.00  0.00    -0.392 C  
HETATM    2  O   UNL     1     -12.719   8.003  72.218  1.00  0.00    -0.285 OA 
ENDROOT
BRANCH   2   3
HETATM    3  C   UNL     1     -11.543   7.995  71.513  1.00  0.00    -0.275 A  
HETATM    4  C   UNL     1     -10.964   6.777  71.141  1.00  0.00    -0.257 A  
HETATM    5  C   UNL     1      -9.799   6.802  70.365  1.00  0.00    -0.186 A  
HETATM    6  C   UNL     1      -9.753   9.224  70.376  1.00  0.00    -0.244 A  
HETATM    7  C   UNL     1      -9.208   8.020  69.954  1.00  0.00    -0.152 A  
HETATM    8  C   UNL     1     -10.890   9.193  71.165  1.00  0.00    -0.381 A  
HETATM    9  C   UNL     1      -8.104   8.151  69.113  1.00  0.00    -0.121 A  
HETATM   10  N   UNL     1      -7.441   7.030  68.597  1.00  0.00    -0.100 NA 
HETATM   11  N   UNL     1      -7.603   9.335  68.742  1.00  0.00    -0.079 NA 
HETATM   12  H1  UNL     1      -6.632   7.125  67.982  1.00  0.00     0.000 HD 
HETATM   13  C   UNL     1      -8.198  10.448  69.200  1.00  0.00    -0.157 A  
HETATM   14  H2  UNL     1      -8.130   6.448  68.121  1.00  0.00     0.000 HD 
HETATM   15  N   UNL     1      -9.250  10.412  70.024  1.00  0.00     0.129 NA 
BRANCH   4  16
HETATM   16  O   UNL     1     -11.379   5.502  71.405  1.00  0.00    -0.109 OA 
HETATM   17  C   UNL     1     -10.952   4.865  72.599  1.00  0.00    -0.186 C  
ENDBRANCH   4  16
BRANCH  13  18
HETATM   18  N   UNL     1      -7.788  11.669  68.724  1.00  0.00    -0.125 NA 
HETATM   19  C   UNL     1      -5.955  12.928  67.710  1.00  0.00    -0.141 C  
HETATM   20  C   UNL     1      -6.411  12.115  68.935  1.00  0.00    -0.083 C  
HETATM   21  N   UNL     1      -6.901  14.008  67.388  1.00  0.00    -0.114 N  
HETATM   22  C   UNL     1      -6.421  15.297  67.208  1.00  0.00     0.079 C  
HETATM   23  C   UNL     1      -8.295  13.557  67.234  1.00  0.00    -0.179 C  
HETATM   24  C   UNL     1      -8.764  12.730  68.453  1.00  0.00    -0.119 C  
HETATM   25  O   UNL     1      -5.218  15.546  67.332  1.00  0.00    -0.323 OA 
BRANCH  22  26
HETATM   26  C   UNL     1      -7.407  16.403  66.803  1.00  0.00    -0.226 C  
HETATM   27  C   UNL     1      -6.673  17.483  66.009  1.00  0.00    -0.221 C  
HETATM   28  O   UNL     1      -7.594  18.460  65.501  1.00  0.00    -0.510 OA 
HETATM   29  C   UNL     1      -8.489  18.846  66.463  1.00  0.00    -0.304 A  
HETATM   30  C   UNL     1      -9.226  20.001  66.205  1.00  0.00    -0.426 A  
HETATM   31  C   UNL     1     -10.152  20.457  67.144  1.00  0.00    -0.502 A  
HETATM   32  C   UNL     1     -10.343  19.756  68.335  1.00  0.00    -0.513 A  
HETATM   33  C   UNL     1      -9.609  18.597  68.592  1.00  0.00    -0.407 A  
HETATM   34  C   UNL     1      -8.690  18.136  67.651  1.00  0.00    -0.248 A  
HETATM   35  O   UNL     1      -8.007  16.990  67.965  1.00  0.00    -0.185 OA 
ENDBRANCH  22  26
ENDBRANCH  13  18
ENDBRANCH   2   3
TORSDOF 4
ENDMDL
MODEL       49
REMARK 921   NORMALIZED FREE ENERGY PREDICTED BY IDOCK:   -6.06 KCAL/MOL
REMARK 922        TOTAL FREE ENERGY PREDICTED BY IDOCK:   -8.01 KCAL/MOL
REMARK 923 INTER-LIGAND FREE ENERGY PREDICTED BY IDOCK:   -7.50 KCAL/MOL
REMARK 924 INTRA-LIGAND FREE ENERGY PREDICTED BY IDOCK:   -0.51 KCAL/MOL
REMARK 927      BINDING AFFINITY PREDICTED BY RF-SCORE:    0.00 PKD
ROOT
HETATM    1  C   UNL     1     -11.699  15.815  71.703  1.00  0.00    -0.464 C  
HETATM    2  O   UNL     1     -12.561  15.603  70.586  1.00  0.00    -0.437 OA 
ENDROOT
BRANCH   2   3
HETATM    3  C   UNL     1     -12.018  14.902  69.541  1.00  0.00    -0.310 A  
HETATM    4  C   UNL     1     -11.488  15.590  68.444  1.00  0.00    -0.363 A  
HETATM    5  C   UNL     1     -10.882  14.848  67.422  1.00  0.00    -0.304 A  
HETATM    6  C   UNL     1     -11.372  12.758  68.544  1.00  0.00    -0.291 A  
HETATM    7  C   UNL     1     -10.792  13.438  67.483  1.00  0.00    -0.276 A  
HETATM    8  C   UNL     1     -11.994  13.494  69.538  1.00  0.00    -0.390 A  
HETATM    9  C   UNL     1     -10.135  12.620  66.565  1.00  0.00    -0.248 A  
HETATM   10  N   UNL     1      -9.495  13.152  65.438  1.00  0.00    -0.456 NA 
HETATM   11  N   UNL     1     -10.068  11.288  66.688  1.00  0.00    -0.208 NA 
HETATM   12  H1  UNL     1      -9.014  12.553  64.766  1.00  0.00     0.000 HD 
HETATM   13  C   UNL     1     -10.658  10.719  67.750  1.00  0.00    -0.228 A  
HETATM   14  H2  UNL     1      -8.833  13.860  65.757  1.00  0.00     0.000 HD 
HETATM   15  N   UNL     1     -11.324  11.428  68.667  1.00  0.00    -0.238 NA 
BRANCH   4  16
HETATM   16  O   UNL     1     -11.445  16.934  68.200  1.00  0.00    -0.103 OA 
HETATM   17  C   UNL     1     -10.348  17.693  68.683  1.00  0.00    -0.359 C  
ENDBRANCH   4  16
BRANCH  13  18
HETATM   18  N   UNL     1     -10.485   9.374  67.970  1.00  0.00    -0.220 NA 
HETATM   19  C   UNL     1     -10.812   7.528  69.538  1.00  0.00    -0.175 C  
HETATM   20  C   UNL     1     -10.131   8.889  69.304  1.00  0.00    -0.203 C  
HETATM   21  N   UNL     1     -10.526   6.579  68.450  1.00  0.00    -0.195 N  
HETATM   22  C   UNL     1     -10.066   5.309  68.763  1.00  0.00    -0.177 C  
HETATM   23  C   UNL     1     -10.833   7.099  67.106  1.00  0.00    -0.333 C  
HETATM   24  C   UNL     1     -10.164   8.472  66.861  1.00  0.00    -0.305 C  
HETATM   25  O   UNL     1      -9.877   4.977  69.937  1.00  0.00    -0.184 OA 
BRANCH  22  26
HETATM   26  C   UNL     1      -9.837   4.304  67.624  1.00  0.00    -0.094 C  
HETATM   27  C   UNL     1      -9.338   2.979  68.198  1.00  0.00    -0.198 C  
HETATM   28  O   UNL     1      -9.246   1.979  67.172  1.00  0.00    -0.126 OA 
HETATM   29  C   UNL     1      -8.645   2.475  66.046  1.00  0.00    -0.113 A  
HETATM   30  C   UNL     1      -8.213   1.543  65.104  1.00  0.00    -0.076 A  
HETATM   31  C   UNL     1      -7.587   1.977  63.936  1.00  0.00    -0.060 A  
HETATM   32  C   UNL     1      -7.398   3.340  63.708  1.00  0.00    -0.058 A  
HETATM   33  C   UNL     1      -7.835   4.274  64.649  1.00  0.00    -0.085 A  
HETATM   34  C   UNL     1      -8.468   3.843  65.813  1.00  0.00    -0.110 A  
HETATM   35  O   UNL     1      -8.876   4.813  66.691  1.00  0.00    -0.111 OA 
ENDBRANCH  22  26
ENDBRANCH  13  18
ENDBRANCH   2   3
TORSDOF 4
ENDMDL
MODEL       50
REMARK 921   NORMALIZED FREE ENERGY PREDICTED BY IDOCK:   -6.06 KCAL/MOL
REMARK 922        TOTAL FREE ENERGY PREDICTED BY IDOCK:   -8.00 KCAL/MOL
REMARK 923 INTER-LIGAND FREE ENERGY PREDICTED BY IDOCK:   -7.91 KCAL/MOL
REMARK 924 INTRA-LIGAND FREE ENERGY PREDICTED BY IDOCK:   -0.09 KCAL/MOL
REMARK 927      BINDING AFFINITY PREDICTED BY RF-SCORE:    0.00 PKD
ROOT
HETATM    1  C   UNL     1     -14.233  15.366  72.202  1.00  0.00    -0.565 C  
HETATM    2  O   UNL     1     -13.067  15.782  71.493  1.00  0.00    -0.484 OA 
ENDROOT
BRANCH   2   3
HETATM    3  C   UNL     1     -12.531  14.856  70.637  1.00  0.00    -0.352 A  
HETATM    4  C   UNL     1     -11.974  15.272  69.423  1.00  0.00    -0.315 A  
HETATM    5  C   UNL     1     -11.376  14.311  68.599  1.00  0.00    -0.302 A  
HETATM    6  C   UNL     1     -11.929  12.531  70.147  1.00  0.00    -0.301 A  
HETATM    7  C   UNL     1     -11.322  12.947  68.970  1.00  0.00    -0.341 A  
HETATM    8  C   UNL     1     -12.542  13.482  70.945  1.00  0.00    -0.414 A  
HETATM    9  C   UNL     1     -10.676  11.932  68.265  1.00  0.00    -0.223 A  
HETATM   10  N   UNL     1     -10.012  12.189  67.058  1.00  0.00    -0.201 NA 
HETATM   11  N   UNL     1     -10.643  10.660  68.680  1.00  0.00    -0.190 NA 
HETATM   12  H1  UNL     1      -9.540  11.446  66.542  1.00  0.00     0.000 HD 
HETATM   13  C   UNL     1     -11.258  10.352  69.832  1.00  0.00    -0.306 A  
HETATM   14  H2  UNL     1      -9.337  12.935  67.224  1.00  0.00     0.000 HD 
HETATM   15  N   UNL     1     -11.915  11.260  70.561  1.00  0.00    -0.364 NA 
BRANCH   4  16
HETATM   16  O   UNL     1     -11.895  16.529  68.890  1.00  0.00    -0.113 OA 
HETATM   17  C   UNL     1     -10.647  17.004  68.412  1.00  0.00    -0.375 C  
ENDBRANCH   4  16
BRANCH  13  18
HETATM   18  N   UNL     1     -11.120   9.085  70.346  1.00  0.00    -0.243 NA 
HETATM   19  C   UNL     1     -12.186   7.306  71.638  1.00  0.00    -0.343 C  
HETATM   20  C   UNL     1     -11.682   8.760  71.657  1.00  0.00    -0.332 C  
HETATM   21  N   UNL     1     -11.147   6.373  71.174  1.00  0.00    -0.277 N  
HETATM   22  C   UNL     1     -10.865   5.243  71.927  1.00  0.00    -0.149 C  
HETATM   23  C   UNL     1     -10.547   6.741  69.879  1.00  0.00    -0.222 C  
HETATM   24  C   UNL     1     -10.046   8.204  69.879  1.00  0.00    -0.195 C  
HETATM   25  O   UNL     1     -11.462   5.025  72.985  1.00  0.00    -0.309 OA 
BRANCH  22  26
HETATM   26  C   UNL     1      -9.829   4.240  71.397  1.00  0.00    -0.190 C  
HETATM   27  C   UNL     1      -8.430   4.847  71.491  1.00  0.00    -0.121 C  
HETATM   28  O   UNL     1      -7.429   3.883  71.131  1.00  0.00    -0.043 OA 
HETATM   29  C   UNL     1      -7.777   3.206  69.992  1.00  0.00    -0.043 A  
HETATM   30  C   UNL     1      -6.769   2.478  69.364  1.00  0.00    -0.033 A  
HETATM   31  C   UNL     1      -7.049   1.769  68.196  1.00  0.00    -0.039 A  
HETATM   32  C   UNL     1      -8.338   1.785  67.661  1.00  0.00    -0.080 A  
HETATM   33  C   UNL     1      -9.350   2.510  68.293  1.00  0.00    -0.262 A  
HETATM   34  C   UNL     1      -9.072   3.212  69.464  1.00  0.00    -0.130 A  
HETATM   35  O   UNL     1     -10.112   3.899  70.035  1.00  0.00    -0.056 OA 
ENDBRANCH  22  26
ENDBRANCH  13  18
ENDBRANCH   2   3
TORSDOF 4
ENDMDL
MODEL       51
REMARK 921   NORMALIZED FREE ENERGY PREDICTED BY IDOCK:   -6.00 KCAL/MOL
REMARK 922        TOTAL FREE ENERGY PREDICTED BY IDOCK:   -7.94 KCAL/MOL
REMARK 923 INTER-LIGAND FREE ENERGY PREDICTED BY IDOCK:   -7.54 KCAL/MOL
REMARK 924 INTRA-LIGAND FREE ENERGY PREDICTED BY IDOCK:   -0.40 KCAL/MOL
REMARK 927      BINDING AFFINITY PREDICTED BY RF-SCORE:    0.00 PKD
ROOT
HETATM    1  C   UNL     1      -7.603   4.149  63.799  1.00  0.00    -0.070 C  
HETATM    2  O   UNL     1      -7.384   4.057  65.206  1.00  0.00    -0.070 OA 
ENDROOT
BRANCH   2   3
HETATM    3  C   UNL     1      -8.253   4.773  65.989  1.00  0.00    -0.111 A  
HETATM    4  C   UNL     1      -9.236   4.103  66.725  1.00  0.00    -0.157 A  
HETATM    5  C   UNL     1     -10.066   4.855  67.567  1.00  0.00    -0.184 A  
HETATM    6  C   UNL     1      -8.987   6.922  66.909  1.00  0.00    -0.122 A  
HETATM    7  C   UNL     1      -9.925   6.257  67.687  1.00  0.00    -0.151 A  
HETATM    8  C   UNL     1      -8.188   6.178  66.060  1.00  0.00    -0.127 A  
HETATM    9  C   UNL     1     -10.639   7.079  68.558  1.00  0.00    -0.202 A  
HETATM   10  N   UNL     1     -11.620   6.562  69.413  1.00  0.00    -0.653 NA 
HETATM   11  N   UNL     1     -10.445   8.401  68.640  1.00  0.00    -0.196 NA 
HETATM   12  H1  UNL     1     -12.144   7.163  70.050  1.00  0.00     0.000 HD 
HETATM   13  C   UNL     1      -9.514   8.957  67.848  1.00  0.00    -0.142 A  
HETATM   14  H2  UNL     1     -11.196   5.816  69.964  1.00  0.00     0.000 HD 
HETATM   15  N   UNL     1      -8.798   8.243  66.973  1.00  0.00    -0.132 NA 
BRANCH   4  16
HETATM   16  O   UNL     1      -9.524   2.768  66.777  1.00  0.00    -0.093 OA 
HETATM   17  C   UNL     1      -9.198   2.031  67.944  1.00  0.00    -0.185 C  
ENDBRANCH   4  16
BRANCH  13  18
HETATM   18  N   UNL     1      -9.202  10.284  68.013  1.00  0.00    -0.134 NA 
HETATM   19  C   UNL     1      -7.434  11.892  68.522  1.00  0.00    -0.117 C  
HETATM   20  C   UNL     1      -8.243  10.690  69.041  1.00  0.00    -0.151 C  
HETATM   21  N   UNL     1      -8.308  12.975  68.044  1.00  0.00    -0.159 N  
HETATM   22  C   UNL     1      -8.097  14.268  68.501  1.00  0.00    -0.147 C  
HETATM   23  C   UNL     1      -9.308  12.544  67.052  1.00  0.00    -0.210 C  
HETATM   24  C   UNL     1     -10.122  11.329  67.555  1.00  0.00    -0.183 C  
HETATM   25  O   UNL     1      -7.199  14.511  69.313  1.00  0.00    -0.133 OA 
BRANCH  22  26
HETATM   26  C   UNL     1      -8.970  15.401  67.943  1.00  0.00    -0.173 C  
HETATM   27  C   UNL     1      -8.589  15.678  66.490  1.00  0.00    -0.300 C  
HETATM   28  O   UNL     1      -9.479  16.639  65.901  1.00  0.00    -0.447 OA 
HETATM   29  C   UNL     1      -9.689  17.701  66.739  1.00  0.00    -0.300 A  
HETATM   30  C   UNL     1     -10.269  18.837  66.177  1.00  0.00    -0.462 A  
HETATM   31  C   UNL     1     -10.507  19.960  66.970  1.00  0.00    -0.570 A  
HETATM   32  C   UNL     1     -10.169  19.943  68.324  1.00  0.00    -0.562 A  
HETATM   33  C   UNL     1      -9.592  18.805  68.889  1.00  0.00    -0.369 A  
HETATM   34  C   UNL     1      -9.362  17.680  68.099  1.00  0.00    -0.279 A  
HETATM   35  O   UNL     1      -8.798  16.595  68.718  1.00  0.00    -0.249 OA 
ENDBRANCH  22  26
ENDBRANCH  13  18
ENDBRANCH   2   3
TORSDOF 4
ENDMDL
MODEL       52
REMARK 921   NORMALIZED FREE ENERGY PREDICTED BY IDOCK:   -5.94 KCAL/MOL
REMARK 922        TOTAL FREE ENERGY PREDICTED BY IDOCK:   -7.86 KCAL/MOL
REMARK 923 INTER-LIGAND FREE ENERGY PREDICTED BY IDOCK:   -8.10 KCAL/MOL
REMARK 924 INTRA-LIGAND FREE ENERGY PREDICTED BY IDOCK:    0.24 KCAL/MOL
REMARK 927      BINDING AFFINITY PREDICTED BY RF-SCORE:    0.00 PKD
ROOT
HETATM    1  C   UNL     1      -9.427   3.705  69.188  1.00  0.00    -0.165 C  
HETATM    2  O   UNL     1      -9.527   3.483  67.782  1.00  0.00    -0.195 OA 
ENDROOT
BRANCH   2   3
HETATM    3  C   UNL     1      -9.047   4.492  66.987  1.00  0.00    -0.125 A  
HETATM    4  C   UNL     1      -8.113   4.203  65.986  1.00  0.00    -0.098 A  
HETATM    5  C   UNL     1      -7.691   5.242  65.148  1.00  0.00    -0.085 A  
HETATM    6  C   UNL     1      -9.067   6.851  66.324  1.00  0.00    -0.141 A  
HETATM    7  C   UNL     1      -8.188   6.558  65.291  1.00  0.00    -0.135 A  
HETATM    8  C   UNL     1      -9.462   5.826  67.166  1.00  0.00    -0.121 A  
HETATM    9  C   UNL     1      -7.898   7.638  64.458  1.00  0.00    -0.134 A  
HETATM   10  N   UNL     1      -7.030   7.506  63.367  1.00  0.00    -0.058 NA 
HETATM   11  N   UNL     1      -8.418   8.859  64.634  1.00  0.00    -0.174 NA 
HETATM   12  H1  UNL     1      -6.817   8.296  62.756  1.00  0.00     0.000 HD 
HETATM   13  C   UNL     1      -9.262   9.047  65.661  1.00  0.00    -0.225 A  
HETATM   14  H2  UNL     1      -7.371   6.742  62.783  1.00  0.00     0.000 HD 
HETATM   15  N   UNL     1      -9.579   8.071  66.518  1.00  0.00    -0.222 NA 
BRANCH   4  16
HETATM   16  O   UNL     1      -7.531   3.009  65.660  1.00  0.00    -0.071 OA 
HETATM   17  C   UNL     1      -7.960   2.320  64.497  1.00  0.00    -0.074 C  
ENDBRANCH   4  16
BRANCH  13  18
HETATM   18  N   UNL     1      -9.912  10.251  65.780  1.00  0.00    -0.259 NA 
HETATM   19  C   UNL     1     -11.507  11.792  64.752  1.00  0.00    -0.215 C  
HETATM   20  C   UNL     1     -10.154  11.074  64.594  1.00  0.00    -0.311 C  
HETATM   21  N   UNL     1     -11.593  12.522  66.027  1.00  0.00    -0.384 N  
HETATM   22  C   UNL     1     -11.988  13.851  66.021  1.00  0.00    -0.412 C  
HETATM   23  C   UNL     1     -11.292  11.697  67.210  1.00  0.00    -0.305 C  
HETATM   24  C   UNL     1      -9.940  10.961  67.061  1.00  0.00    -0.192 C  
HETATM   25  O   UNL     1     -12.248  14.428  64.960  1.00  0.00    -0.405 OA 
BRANCH  22  26
HETATM   26  C   UNL     1     -12.143  14.583  67.362  1.00  0.00    -0.257 C  
HETATM   27  C   UNL     1     -10.920  15.465  67.612  1.00  0.00    -0.315 C  
HETATM   28  O   UNL     1     -11.098  16.264  68.791  1.00  0.00    -0.323 OA 
HETATM   29  C   UNL     1     -11.594  15.518  69.828  1.00  0.00    -0.334 A  
HETATM   30  C   UNL     1     -11.518  16.084  71.099  1.00  0.00    -0.470 A  
HETATM   31  C   UNL     1     -11.997  15.378  72.203  1.00  0.00    -0.514 A  
HETATM   32  C   UNL     1     -12.556  14.111  72.033  1.00  0.00    -0.348 A  
HETATM   33  C   UNL     1     -12.637  13.546  70.760  1.00  0.00    -0.382 A  
HETATM   34  C   UNL     1     -12.166  14.254  69.655  1.00  0.00    -0.323 A  
HETATM   35  O   UNL     1     -12.281  13.642  68.434  1.00  0.00    -0.332 OA 
ENDBRANCH  22  26
ENDBRANCH  13  18
ENDBRANCH   2   3
TORSDOF 4
ENDMDL
MODEL       53
REMARK 921   NORMALIZED FREE ENERGY PREDICTED BY IDOCK:   -5.89 KCAL/MOL
REMARK 922        TOTAL FREE ENERGY PREDICTED BY IDOCK:   -7.79 KCAL/MOL
REMARK 923 INTER-LIGAND FREE ENERGY PREDICTED BY IDOCK:   -7.55 KCAL/MOL
REMARK 924 INTRA-LIGAND FREE ENERGY PREDICTED BY IDOCK:   -0.24 KCAL/MOL
REMARK 927      BINDING AFFINITY PREDICTED BY RF-SCORE:    0.00 PKD
ROOT
HETATM    1  C   UNL     1     -11.304  15.678  68.135  1.00  0.00    -0.340 C  
HETATM    2  O   UNL     1     -12.325  14.840  67.594  1.00  0.00    -0.102 OA 
ENDROOT
BRANCH   2   3
HETATM    3  C   UNL     1     -11.893  13.852  66.747  1.00  0.00    -0.424 A  
HETATM    4  C   UNL     1     -11.830  14.095  65.371  1.00  0.00    -0.362 A  
HETATM    5  C   UNL     1     -11.324  13.089  64.539  1.00  0.00    -0.377 A  
HETATM    6  C   UNL     1     -10.998  11.595  66.417  1.00  0.00    -0.295 A  
HETATM    7  C   UNL     1     -10.877  11.852  65.059  1.00  0.00    -0.351 A  
HETATM    8  C   UNL     1     -11.524  12.582  67.232  1.00  0.00    -0.416 A  
HETATM    9  C   UNL     1     -10.280  10.825  64.329  1.00  0.00    -0.354 A  
HETATM   10  N   UNL     1     -10.082  10.930  62.946  1.00  0.00    -0.696 NA 
HETATM   11  N   UNL     1      -9.858   9.682  64.884  1.00  0.00    -0.139 NA 
HETATM   12  H1  UNL     1      -9.645  10.179  62.412  1.00  0.00     0.000 HD 
HETATM   13  C   UNL     1     -10.016   9.523  66.207  1.00  0.00    -0.274 A  
HETATM   14  H2  UNL     1      -9.559  11.788  62.768  1.00  0.00     0.000 HD 
HETATM   15  N   UNL     1     -10.595  10.450  66.978  1.00  0.00    -0.251 NA 
BRANCH   4  16
HETATM   16  O   UNL     1     -12.180  15.215  64.670  1.00  0.00    -0.333 OA 
HETATM   17  C   UNL     1     -11.276  16.306  64.605  1.00  0.00    -0.254 C  
ENDBRANCH   4  16
BRANCH  13  18
HETATM   18  N   UNL     1      -9.468   8.422  66.818  1.00  0.00    -0.180 NA 
HETATM   19  C   UNL     1      -7.657   6.781  66.772  1.00  0.00    -0.090 C  
HETATM   20  C   UNL     1      -8.864   7.360  66.012  1.00  0.00    -0.146 C  
HETATM   21  N   UNL     1      -8.014   6.377  68.141  1.00  0.00    -0.108 N  
HETATM   22  C   UNL     1      -7.669   5.109  68.585  1.00  0.00    -0.079 C  
HETATM   23  C   UNL     1      -8.673   7.436  68.925  1.00  0.00    -0.132 C  
HETATM   24  C   UNL     1      -9.883   8.034  68.170  1.00  0.00    -0.170 C  
HETATM   25  O   UNL     1      -7.084   4.317  67.839  1.00  0.00    -0.058 OA 
BRANCH  22  26
HETATM   26  C   UNL     1      -7.984   4.722  70.037  1.00  0.00    -0.069 C  
HETATM   27  C   UNL     1      -7.829   3.213  70.214  1.00  0.00    -0.043 C  
HETATM   28  O   UNL     1      -7.984   2.840  71.592  1.00  0.00    -0.054 OA 
HETATM   29  C   UNL     1      -9.068   3.460  72.156  1.00  0.00    -0.103 A  
HETATM   30  C   UNL     1      -9.515   2.955  73.375  1.00  0.00    -0.120 A  
HETATM   31  C   UNL     1     -10.618   3.533  74.004  1.00  0.00    -0.276 A  
HETATM   32  C   UNL     1     -11.269   4.618  73.416  1.00  0.00    -0.423 A  
HETATM   33  C   UNL     1     -10.819   5.128  72.197  1.00  0.00    -0.218 A  
HETATM   34  C   UNL     1      -9.712   4.556  71.572  1.00  0.00    -0.175 A  
HETATM   35  O   UNL     1      -9.321   5.109  70.380  1.00  0.00    -0.144 OA 
ENDBRANCH  22  26
ENDBRANCH  13  18
ENDBRANCH   2   3
TORSDOF 4
ENDMDL
MODEL       54
REMARK 921   NORMALIZED FREE ENERGY PREDICTED BY IDOCK:   -5.85 KCAL/MOL
REMARK 922        TOTAL FREE ENERGY PREDICTED BY IDOCK:   -7.75 KCAL/MOL
REMARK 923 INTER-LIGAND FREE ENERGY PREDICTED BY IDOCK:   -7.78 KCAL/MOL
REMARK 924 INTRA-LIGAND FREE ENERGY PREDICTED BY IDOCK:    0.04 KCAL/MOL
REMARK 927      BINDING AFFINITY PREDICTED BY RF-SCORE:    0.00 PKD
ROOT
HETATM    1  C   UNL     1      -8.786  18.382  68.602  1.00  0.00    -0.283 C  
HETATM    2  O   UNL     1      -8.806  18.154  67.193  1.00  0.00    -0.250 OA 
ENDROOT
BRANCH   2   3
HETATM    3  C   UNL     1      -9.612  17.130  66.769  1.00  0.00    -0.270 A  
HETATM    4  C   UNL     1     -10.496  17.336  65.704  1.00  0.00    -0.181 A  
HETATM    5  C   UNL     1     -11.258  16.253  65.251  1.00  0.00    -0.035 A  
HETATM    6  C   UNL     1     -10.315  14.788  66.934  1.00  0.00    -0.267 A  
HETATM    7  C   UNL     1     -11.148  14.972  65.840  1.00  0.00    -0.334 A  
HETATM    8  C   UNL     1      -9.583  15.868  67.395  1.00  0.00    -0.221 A  
HETATM    9  C   UNL     1     -11.796  13.815  65.408  1.00  0.00    -0.358 A  
HETATM   10  N   UNL     1     -12.669  13.831  64.313  1.00  0.00    -0.653 NA 
HETATM   11  N   UNL     1     -11.635  12.623  65.996  1.00  0.00    -0.371 NA 
HETATM   12  H1  UNL     1     -13.143  12.984  63.996  1.00  0.00     0.000 HD 
HETATM   13  C   UNL     1     -10.806  12.542  67.049  1.00  0.00    -0.254 A  
HETATM   14  H2  UNL     1     -12.169  14.226  63.517  1.00  0.00     0.000 HD 
HETATM   15  N   UNL     1     -10.160  13.606  67.538  1.00  0.00    -0.235 NA 
BRANCH   4  16
HETATM   16  O   UNL     1     -10.736  18.473  64.983  1.00  0.00    -0.504 OA 
HETATM   17  C   UNL     1     -10.635  19.736  65.621  1.00  0.00    -0.355 C  
ENDBRANCH   4  16
BRANCH  13  18
HETATM   18  N   UNL     1     -10.520  11.308  67.580  1.00  0.00    -0.186 NA 
HETATM   19  C   UNL     1      -9.093   9.329  67.431  1.00  0.00    -0.126 C  
HETATM   20  C   UNL     1     -10.130  10.204  66.703  1.00  0.00    -0.223 C  
HETATM   21  N   UNL     1      -9.567   8.912  68.760  1.00  0.00    -0.155 N  
HETATM   22  C   UNL     1      -9.508   7.571  69.110  1.00  0.00    -0.150 C  
HETATM   23  C   UNL     1     -10.011  10.027  69.616  1.00  0.00    -0.236 C  
HETATM   24  C   UNL     1     -11.046  10.921  68.893  1.00  0.00    -0.252 C  
HETATM   25  O   UNL     1      -9.082   6.729  68.314  1.00  0.00    -0.126 OA 
BRANCH  22  26
HETATM   26  C   UNL     1      -9.939   7.156  70.524  1.00  0.00    -0.187 C  
HETATM   27  C   UNL     1      -8.911   7.646  71.542  1.00  0.00    -0.124 C  
HETATM   28  O   UNL     1      -9.355   7.391  72.883  1.00  0.00    -0.144 OA 
HETATM   29  C   UNL     1      -9.852   6.120  73.010  1.00  0.00    -0.168 A  
HETATM   30  C   UNL     1     -10.023   5.641  74.307  1.00  0.00    -0.245 A  
HETATM   31  C   UNL     1     -10.518   4.353  74.512  1.00  0.00    -0.295 A  
HETATM   32  C   UNL     1     -10.846   3.549  73.420  1.00  0.00    -0.312 A  
HETATM   33  C   UNL     1     -10.680   4.030  72.120  1.00  0.00     0.107 A  
HETATM   34  C   UNL     1     -10.193   5.320  71.915  1.00  0.00    -0.207 A  
HETATM   35  O   UNL     1     -10.059   5.731  70.614  1.00  0.00    -0.184 OA 
ENDBRANCH  22  26
ENDBRANCH  13  18
ENDBRANCH   2   3
TORSDOF 4
ENDMDL
MODEL       55
REMARK 921   NORMALIZED FREE ENERGY PREDICTED BY IDOCK:   -5.85 KCAL/MOL
REMARK 922        TOTAL FREE ENERGY PREDICTED BY IDOCK:   -7.75 KCAL/MOL
REMARK 923 INTER-LIGAND FREE ENERGY PREDICTED BY IDOCK:   -7.13 KCAL/MOL
REMARK 924 INTRA-LIGAND FREE ENERGY PREDICTED BY IDOCK:   -0.61 KCAL/MOL
REMARK 927      BINDING AFFINITY PREDICTED BY RF-SCORE:    0.00 PKD
ROOT
HETATM    1  C   UNL     1     -10.196  17.435  68.794  1.00  0.00    -0.361 C  
HETATM    2  O   UNL     1     -11.474  16.822  68.635  1.00  0.00    -0.188 OA 
ENDROOT
BRANCH   2   3
HETATM    3  C   UNL     1     -11.535  15.488  68.946  1.00  0.00    -0.354 A  
HETATM    4  C   UNL     1     -12.312  15.062  70.029  1.00  0.00    -0.309 A  
HETATM    5  C   UNL     1     -12.407  13.688  70.281  1.00  0.00    -0.392 A  
HETATM    6  C   UNL     1     -10.929  13.170  68.434  1.00  0.00    -0.262 A  
HETATM    7  C   UNL     1     -11.745  12.738  69.469  1.00  0.00    -0.383 A  
HETATM    8  C   UNL     1     -10.817  14.530  68.204  1.00  0.00    -0.246 A  
HETATM    9  C   UNL     1     -11.846  11.352  69.583  1.00  0.00    -0.362 A  
HETATM   10  N   UNL     1     -12.634  10.756  70.576  1.00  0.00    -0.340 NA 
HETATM   11  N   UNL     1     -11.208  10.502  68.768  1.00  0.00    -0.257 NA 
HETATM   12  H1  UNL     1     -12.708   9.741  70.660  1.00  0.00     0.000 HD 
HETATM   13  C   UNL     1     -10.441  11.013  67.793  1.00  0.00    -0.199 A  
HETATM   14  H2  UNL     1     -13.578  11.133  70.498  1.00  0.00     0.000 HD 
HETATM   15  N   UNL     1     -10.276  12.329  67.625  1.00  0.00    -0.200 NA 
BRANCH   4  16
HETATM   16  O   UNL     1     -13.046  15.800  70.914  1.00  0.00    -0.516 OA 
HETATM   17  C   UNL     1     -14.162  15.206  71.558  1.00  0.00    -0.549 C  
ENDBRANCH   4  16
BRANCH  13  18
HETATM   18  N   UNL     1      -9.890  10.166  66.863  1.00  0.00    -0.187 NA 
HETATM   19  C   UNL     1      -8.801   9.999  64.681  1.00  0.00    -0.200 C  
HETATM   20  C   UNL     1     -10.074  10.425  65.435  1.00  0.00    -0.284 C  
HETATM   21  N   UNL     1      -8.412   8.617  65.004  1.00  0.00    -0.177 N  
HETATM   22  C   UNL     1      -8.151   7.728  63.971  1.00  0.00    -0.062 C  
HETATM   23  C   UNL     1      -8.285   8.351  66.448  1.00  0.00    -0.109 C  
HETATM   24  C   UNL     1      -9.553   8.784  67.219  1.00  0.00    -0.165 C  
HETATM   25  O   UNL     1      -8.261   8.081  62.792  1.00  0.00    -0.167 OA 
BRANCH  22  26
HETATM   26  C   UNL     1      -7.678   6.309  64.318  1.00  0.00    -0.107 C  
HETATM   27  C   UNL     1      -7.091   5.643  63.074  1.00  0.00    -0.045 C  
HETATM   28  O   UNL     1      -6.517   4.368  63.399  1.00  0.00    -0.025 OA 
HETATM   29  C   UNL     1      -7.351   3.638  64.204  1.00  0.00    -0.059 A  
HETATM   30  C   UNL     1      -7.065   2.280  64.335  1.00  0.00    -0.052 A  
HETATM   31  C   UNL     1      -7.876   1.474  65.133  1.00  0.00    -0.071 A  
HETATM   32  C   UNL     1      -8.968   2.026  65.804  1.00  0.00    -0.108 A  
HETATM   33  C   UNL     1      -9.252   3.387  65.678  1.00  0.00    -0.154 A  
HETATM   34  C   UNL     1      -8.437   4.195  64.886  1.00  0.00    -0.115 A  
HETATM   35  O   UNL     1      -8.770   5.523  64.810  1.00  0.00    -0.128 OA 
ENDBRANCH  22  26
ENDBRANCH  13  18
ENDBRANCH   2   3
TORSDOF 4
ENDMDL
MODEL       56
REMARK 921   NORMALIZED FREE ENERGY PREDICTED BY IDOCK:   -5.81 KCAL/MOL
REMARK 922        TOTAL FREE ENERGY PREDICTED BY IDOCK:   -7.70 KCAL/MOL
REMARK 923 INTER-LIGAND FREE ENERGY PREDICTED BY IDOCK:   -7.04 KCAL/MOL
REMARK 924 INTRA-LIGAND FREE ENERGY PREDICTED BY IDOCK:   -0.66 KCAL/MOL
REMARK 927      BINDING AFFINITY PREDICTED BY RF-SCORE:    0.00 PKD
ROOT
HETATM    1  C   UNL     1      -6.920  18.748  66.318  1.00  0.00    -0.235 C  
HETATM    2  O   UNL     1      -8.206  18.465  65.769  1.00  0.00    -0.494 OA 
ENDROOT
BRANCH   2   3
HETATM    3  C   UNL     1      -8.945  17.528  66.442  1.00  0.00    -0.238 A  
HETATM    4  C   UNL     1     -10.079  17.924  67.161  1.00  0.00    -0.340 A  
HETATM    5  C   UNL     1     -10.851  16.936  67.785  1.00  0.00    -0.281 A  
HETATM    6  C   UNL     1      -9.354  15.186  67.034  1.00  0.00    -0.230 A  
HETATM    7  C   UNL     1     -10.512  15.565  67.697  1.00  0.00    -0.279 A  
HETATM    8  C   UNL     1      -8.580  16.168  66.441  1.00  0.00    -0.365 A  
HETATM    9  C   UNL     1     -11.259  14.504  68.206  1.00  0.00    -0.277 A  
HETATM   10  N   UNL     1     -12.457  14.719  68.900  1.00  0.00    -0.569 NA 
HETATM   11  N   UNL     1     -10.895  13.223  68.073  1.00  0.00    -0.237 NA 
HETATM   12  H1  UNL     1     -13.004  13.943  69.273  1.00  0.00     0.000 HD 
HETATM   13  C   UNL     1      -9.758  12.951  67.413  1.00  0.00    -0.201 A  
HETATM   14  H2  UNL     1     -13.069  15.277  68.305  1.00  0.00     0.000 HD 
HETATM   15  N   UNL     1      -8.974  13.910  66.910  1.00  0.00    -0.237 NA 
BRANCH   4  16
HETATM   16  O   UNL     1     -10.595  19.176  67.349  1.00  0.00    -0.433 OA 
HETATM   17  C   UNL     1     -10.198  19.929  68.483  1.00  0.00    -0.409 C  
ENDBRANCH   4  16
BRANCH  13  18
HETATM   18  N   UNL     1      -9.437  11.643  67.145  1.00  0.00    -0.175 NA 
HETATM   19  C   UNL     1      -8.419  10.103  65.543  1.00  0.00    -0.153 C  
HETATM   20  C   UNL     1      -9.545  11.126  65.781  1.00  0.00    -0.221 C  
HETATM   21  N   UNL     1      -8.393   9.066  66.586  1.00  0.00    -0.117 N  
HETATM   22  C   UNL     1      -8.363   7.731  66.213  1.00  0.00    -0.131 C  
HETATM   23  C   UNL     1      -8.342   9.598  67.960  1.00  0.00    -0.117 C  
HETATM   24  C   UNL     1      -9.462  10.635  68.209  1.00  0.00    -0.159 C  
HETATM   25  O   UNL     1      -8.376   7.408  65.021  1.00  0.00    -0.125 OA 
BRANCH  22  26
HETATM   26  C   UNL     1      -8.266   6.658  67.308  1.00  0.00    -0.121 C  
HETATM   27  C   UNL     1      -6.799   6.319  67.570  1.00  0.00    -0.063 C  
HETATM   28  O   UNL     1      -6.672   5.421  68.682  1.00  0.00    -0.050 OA 
HETATM   29  C   UNL     1      -7.578   4.397  68.601  1.00  0.00    -0.063 A  
HETATM   30  C   UNL     1      -7.359   3.299  69.431  1.00  0.00    -0.048 A  
HETATM   31  C   UNL     1      -8.239   2.217  69.396  1.00  0.00    -0.065 A  
HETATM   32  C   UNL     1      -9.338   2.236  68.537  1.00  0.00    -0.250 A  
HETATM   33  C   UNL     1      -9.561   3.337  67.709  1.00  0.00    -0.144 A  
HETATM   34  C   UNL     1      -8.687   4.422  67.748  1.00  0.00    -0.105 A  
HETATM   35  O   UNL     1      -8.967   5.473  66.913  1.00  0.00    -0.112 OA 
ENDBRANCH  22  26
ENDBRANCH  13  18
ENDBRANCH   2   3
TORSDOF 4
ENDMDL
MODEL       57
REMARK 921   NORMALIZED FREE ENERGY PREDICTED BY IDOCK:   -5.80 KCAL/MOL
REMARK 922        TOTAL FREE ENERGY PREDICTED BY IDOCK:   -7.69 KCAL/MOL
REMARK 923 INTER-LIGAND FREE ENERGY PREDICTED BY IDOCK:   -7.02 KCAL/MOL
REMARK 924 INTRA-LIGAND FREE ENERGY PREDICTED BY IDOCK:   -0.67 KCAL/MOL
REMARK 927      BINDING AFFINITY PREDICTED BY RF-SCORE:    0.00 PKD
ROOT
HETATM    1  C   UNL     1     -10.369   4.593  65.698  1.00  0.00    -0.238 C  
HETATM    2  O   UNL     1      -9.331   4.594  66.677  1.00  0.00    -0.131 OA 
ENDROOT
BRANCH   2   3
HETATM    3  C   UNL     1      -9.430   5.558  67.647  1.00  0.00    -0.118 A  
HETATM    4  C   UNL     1      -9.804   5.198  68.947  1.00  0.00    -0.172 A  
HETATM    5  C   UNL     1      -9.834   6.194  69.931  1.00  0.00    -0.205 A  
HETATM    6  C   UNL     1      -9.181   7.896  68.336  1.00  0.00    -0.134 A  
HETATM    7  C   UNL     1      -9.492   7.535  69.639  1.00  0.00    -0.156 A  
HETATM    8  C   UNL     1      -9.179   6.913  67.361  1.00  0.00    -0.130 A  
HETATM    9  C   UNL     1      -9.407   8.577  70.562  1.00  0.00    -0.170 A  
HETATM   10  N   UNL     1      -9.687   8.376  71.919  1.00  0.00    -0.233 NA 
HETATM   11  N   UNL     1      -9.058   9.825  70.226  1.00  0.00    -0.217 NA 
HETATM   12  H1  UNL     1      -9.625   9.138  72.595  1.00  0.00     0.000 HD 
HETATM   13  C   UNL     1      -8.772  10.080  68.939  1.00  0.00    -0.146 A  
HETATM   14  H2  UNL     1      -9.098   7.613  72.252  1.00  0.00     0.000 HD 
HETATM   15  N   UNL     1      -8.847   9.143  67.988  1.00  0.00    -0.129 NA 
BRANCH   4  16
HETATM   16  O   UNL     1     -10.143   3.971  69.445  1.00  0.00    -0.022 OA 
HETATM   17  C   UNL     1      -9.141   3.159  70.034  1.00  0.00    -0.127 C  
ENDBRANCH   4  16
BRANCH  13  18
HETATM   18  N   UNL     1      -8.280  11.315  68.596  1.00  0.00    -0.149 NA 
HETATM   19  C   UNL     1      -6.289  12.593  67.980  1.00  0.00    -0.093 C  
HETATM   20  C   UNL     1      -6.961  11.736  69.069  1.00  0.00    -0.107 C  
HETATM   21  N   UNL     1      -7.158  13.696  67.540  1.00  0.00    -0.171 N  
HETATM   22  C   UNL     1      -6.649  14.986  67.502  1.00  0.00    -0.125 C  
HETATM   23  C   UNL     1      -8.504  13.267  67.119  1.00  0.00    -0.176 C  
HETATM   24  C   UNL     1      -9.186  12.396  68.200  1.00  0.00    -0.205 C  
HETATM   25  O   UNL     1      -5.487  15.216  67.850  1.00  0.00    -0.127 OA 
BRANCH  22  26
HETATM   26  C   UNL     1      -7.542  16.118  66.974  1.00  0.00    -0.225 C  
HETATM   27  C   UNL     1      -6.689  17.141  66.224  1.00  0.00    -0.178 C  
HETATM   28  O   UNL     1      -7.513  18.139  65.604  1.00  0.00    -0.535 OA 
HETATM   29  C   UNL     1      -8.478  18.592  66.464  1.00  0.00    -0.291 A  
HETATM   30  C   UNL     1      -9.135  19.767  66.105  1.00  0.00    -0.403 A  
HETATM   31  C   UNL     1     -10.125  20.291  66.937  1.00  0.00    -0.565 A  
HETATM   32  C   UNL     1     -10.459  19.637  68.124  1.00  0.00    -0.503 A  
HETATM   33  C   UNL     1      -9.805  18.457  68.481  1.00  0.00    -0.402 A  
HETATM   34  C   UNL     1      -8.822  17.929  67.647  1.00  0.00    -0.250 A  
HETATM   35  O   UNL     1      -8.223  16.765  68.056  1.00  0.00    -0.184 OA 
ENDBRANCH  22  26
ENDBRANCH  13  18
ENDBRANCH   2   3
TORSDOF 4
ENDMDL
MODEL       58
REMARK 921   NORMALIZED FREE ENERGY PREDICTED BY IDOCK:   -5.78 KCAL/MOL
REMARK 922        TOTAL FREE ENERGY PREDICTED BY IDOCK:   -7.66 KCAL/MOL
REMARK 923 INTER-LIGAND FREE ENERGY PREDICTED BY IDOCK:   -7.71 KCAL/MOL
REMARK 924 INTRA-LIGAND FREE ENERGY PREDICTED BY IDOCK:    0.06 KCAL/MOL
REMARK 927      BINDING AFFINITY PREDICTED BY RF-SCORE:    0.00 PKD
ROOT
HETATM    1  C   UNL     1      -8.842  17.996  68.585  1.00  0.00    -0.262 C  
HETATM    2  O   UNL     1      -8.936  18.071  67.164  1.00  0.00    -0.247 OA 
ENDROOT
BRANCH   2   3
HETATM    3  C   UNL     1      -9.567  17.018  66.554  1.00  0.00    -0.278 A  
HETATM    4  C   UNL     1     -10.456  17.256  65.500  1.00  0.00    -0.122 A  
HETATM    5  C   UNL     1     -11.034  16.156  64.855  1.00  0.00    -0.364 A  
HETATM    6  C   UNL     1      -9.900  14.601  66.326  1.00  0.00    -0.300 A  
HETATM    7  C   UNL     1     -10.736  14.829  65.242  1.00  0.00    -0.406 A  
HETATM    8  C   UNL     1      -9.351  15.692  66.977  1.00  0.00    -0.241 A  
HETATM    9  C   UNL     1     -11.189  13.671  64.610  1.00  0.00    -0.373 A  
HETATM   10  N   UNL     1     -12.039  13.730  63.498  1.00  0.00    -0.920 NA 
HETATM   11  N   UNL     1     -10.854  12.439  65.012  1.00  0.00    -0.285 NA 
HETATM   12  H1  UNL     1     -12.371  12.883  63.036  1.00  0.00     0.000 HD 
HETATM   13  C   UNL     1     -10.038  12.317  66.071  1.00  0.00    -0.248 A  
HETATM   14  H2  UNL     1     -11.593  14.318  62.793  1.00  0.00     0.000 HD 
HETATM   15  N   UNL     1      -9.572  13.374  66.744  1.00  0.00    -0.256 NA 
BRANCH   4  16
HETATM   16  O   UNL     1     -10.859  18.443  64.956  1.00  0.00    -0.641 OA 
HETATM   17  C   UNL     1     -10.935  19.596  65.779  1.00  0.00    -0.166 C  
ENDBRANCH   4  16
BRANCH  13  18
HETATM   18  N   UNL     1      -9.571  11.072  66.415  1.00  0.00    -0.193 NA 
HETATM   19  C   UNL     1      -7.622   9.600  66.498  1.00  0.00    -0.098 C  
HETATM   20  C   UNL     1      -8.561  10.413  65.588  1.00  0.00    -0.167 C  
HETATM   21  N   UNL     1      -8.369   8.693  67.384  1.00  0.00    -0.115 N  
HETATM   22  C   UNL     1      -8.003   7.357  67.448  1.00  0.00    -0.112 C  
HETATM   23  C   UNL     1      -9.423   9.357  68.170  1.00  0.00    -0.133 C  
HETATM   24  C   UNL     1     -10.368  10.186  67.270  1.00  0.00    -0.237 C  
HETATM   25  O   UNL     1      -7.075   6.922  66.760  1.00  0.00    -0.071 OA 
BRANCH  22  26
HETATM   26  C   UNL     1      -8.744   6.434  68.428  1.00  0.00    -0.113 C  
HETATM   27  C   UNL     1      -8.350   6.781  69.862  1.00  0.00    -0.135 C  
HETATM   28  O   UNL     1      -9.128   6.027  70.804  1.00  0.00    -0.151 OA 
HETATM   29  C   UNL     1      -9.203   4.708  70.444  1.00  0.00    -0.125 A  
HETATM   30  C   UNL     1      -9.652   3.818  71.417  1.00  0.00    -0.236 A  
HETATM   31  C   UNL     1      -9.747   2.457  71.123  1.00  0.00    -0.180 A  
HETATM   32  C   UNL     1      -9.398   1.990  69.856  1.00  0.00    -0.164 A  
HETATM   33  C   UNL     1      -8.952   2.881  68.879  1.00  0.00    -0.186 A  
HETATM   34  C   UNL     1      -8.864   4.242  69.169  1.00  0.00    -0.091 A  
HETATM   35  O   UNL     1      -8.424   5.062  68.163  1.00  0.00    -0.099 OA 
ENDBRANCH  22  26
ENDBRANCH  13  18
ENDBRANCH   2   3
TORSDOF 4
ENDMDL
MODEL       59
REMARK 921   NORMALIZED FREE ENERGY PREDICTED BY IDOCK:   -5.75 KCAL/MOL
REMARK 922        TOTAL FREE ENERGY PREDICTED BY IDOCK:   -7.62 KCAL/MOL
REMARK 923 INTER-LIGAND FREE ENERGY PREDICTED BY IDOCK:   -6.97 KCAL/MOL
REMARK 924 INTRA-LIGAND FREE ENERGY PREDICTED BY IDOCK:   -0.65 KCAL/MOL
REMARK 927      BINDING AFFINITY PREDICTED BY RF-SCORE:    0.00 PKD
ROOT
HETATM    1  C   UNL     1      -9.273   4.196  69.738  1.00  0.00    -0.143 C  
HETATM    2  O   UNL     1      -9.743   4.007  68.404  1.00  0.00    -0.143 OA 
ENDROOT
BRANCH   2   3
HETATM    3  C   UNL     1      -9.252   4.886  67.473  1.00  0.00    -0.123 A  
HETATM    4  C   UNL     1      -8.540   4.403  66.369  1.00  0.00    -0.112 A  
HETATM    5  C   UNL     1      -8.109   5.318  65.402  1.00  0.00    -0.121 A  
HETATM    6  C   UNL     1      -9.034   7.181  66.643  1.00  0.00    -0.146 A  
HETATM    7  C   UNL     1      -8.381   6.702  65.517  1.00  0.00    -0.144 A  
HETATM    8  C   UNL     1      -9.435   6.275  67.609  1.00  0.00    -0.115 A  
HETATM    9  C   UNL     1      -8.072   7.678  64.570  1.00  0.00    -0.098 A  
HETATM   10  N   UNL     1      -7.414   7.356  63.376  1.00  0.00    -0.094 NA 
HETATM   11  N   UNL     1      -8.374   8.972  64.729  1.00  0.00    -0.164 NA 
HETATM   12  H1  UNL     1      -7.188   8.070  62.683  1.00  0.00     0.000 HD 
HETATM   13  C   UNL     1      -9.009   9.343  65.852  1.00  0.00    -0.178 A  
HETATM   14  H2  UNL     1      -7.950   6.625  62.909  1.00  0.00     0.000 HD 
HETATM   15  N   UNL     1      -9.326   8.474  66.817  1.00  0.00    -0.168 NA 
BRANCH   4  16
HETATM   16  O   UNL     1      -8.196   3.118  66.053  1.00  0.00    -0.091 OA 
HETATM   17  C   UNL     1      -8.801   2.492  64.932  1.00  0.00    -0.119 C  
ENDBRANCH   4  16
BRANCH  13  18
HETATM   18  N   UNL     1      -9.450  10.638  65.973  1.00  0.00    -0.185 NA 
HETATM   19  C   UNL     1     -11.385  12.127  65.868  1.00  0.00    -0.356 C  
HETATM   20  C   UNL     1     -10.498  11.142  65.085  1.00  0.00    -0.277 C  
HETATM   21  N   UNL     1     -10.589  13.176  66.526  1.00  0.00    -0.282 N  
HETATM   22  C   UNL     1     -10.944  14.505  66.351  1.00  0.00    -0.324 C  
HETATM   23  C   UNL     1      -9.500  12.658  67.373  1.00  0.00    -0.189 C  
HETATM   24  C   UNL     1      -8.607  11.658  66.602  1.00  0.00    -0.179 C  
HETATM   25  O   UNL     1     -11.904  14.814  65.638  1.00  0.00    -0.314 OA 
BRANCH  22  26
HETATM   26  C   UNL     1     -10.149  15.587  67.098  1.00  0.00    -0.254 C  
HETATM   27  C   UNL     1     -11.077  16.348  68.044  1.00  0.00    -0.292 C  
HETATM   28  O   UNL     1     -10.336  17.273  68.854  1.00  0.00    -0.331 OA 
HETATM   29  C   UNL     1      -9.437  17.983  68.102  1.00  0.00    -0.289 A  
HETATM   30  C   UNL     1      -8.885  19.117  68.693  1.00  0.00    -0.404 A  
HETATM   31  C   UNL     1      -7.968  19.893  67.984  1.00  0.00    -0.314 A  
HETATM   32  C   UNL     1      -7.600  19.530  66.688  1.00  0.00    -0.271 A  
HETATM   33  C   UNL     1      -8.149  18.391  66.097  1.00  0.00    -0.201 A  
HETATM   34  C   UNL     1      -9.060  17.611  66.808  1.00  0.00    -0.260 A  
HETATM   35  O   UNL     1      -9.556  16.504  66.170  1.00  0.00    -0.290 OA 
ENDBRANCH  22  26
ENDBRANCH  13  18
ENDBRANCH   2   3
TORSDOF 4
ENDMDL
MODEL       60
REMARK 921   NORMALIZED FREE ENERGY PREDICTED BY IDOCK:   -5.65 KCAL/MOL
REMARK 922        TOTAL FREE ENERGY PREDICTED BY IDOCK:   -7.50 KCAL/MOL
REMARK 923 INTER-LIGAND FREE ENERGY PREDICTED BY IDOCK:   -6.84 KCAL/MOL
REMARK 924 INTRA-LIGAND FREE ENERGY PREDICTED BY IDOCK:   -0.67 KCAL/MOL
REMARK 927      BINDING AFFINITY PREDICTED BY RF-SCORE:    0.00 PKD
ROOT
HETATM    1  C   UNL     1      -6.821   5.392  73.184  1.00  0.00    -0.079 C  
HETATM    2  O   UNL     1      -7.819   4.376  73.093  1.00  0.00    -0.088 OA 
ENDROOT
BRANCH   2   3
HETATM    3  C   UNL     1      -9.092   4.816  72.840  1.00  0.00    -0.118 A  
HETATM    4  C   UNL     1     -10.185   4.011  73.180  1.00  0.00    -0.155 A  
HETATM    5  C   UNL     1     -11.474   4.515  72.970  1.00  0.00    -0.205 A  
HETATM    6  C   UNL     1     -10.601   6.574  72.042  1.00  0.00    -0.217 A  
HETATM    7  C   UNL     1     -11.688   5.806  72.433  1.00  0.00    -0.281 A  
HETATM    8  C   UNL     1      -9.329   6.061  72.228  1.00  0.00    -0.149 A  
HETATM    9  C   UNL     1     -12.924   6.429  72.267  1.00  0.00     0.210 A  
HETATM   10  N   UNL     1     -14.119   5.788  72.617  1.00  0.00    -0.181 NA 
HETATM   11  N   UNL     1     -13.059   7.665  71.770  1.00  0.00    -0.337 NA 
HETATM   12  H1  UNL     1     -15.024   6.244  72.495  1.00  0.00     0.000 HD 
HETATM   13  C   UNL     1     -11.949   8.333  71.420  1.00  0.00    -0.299 A  
HETATM   14  H2  UNL     1     -14.044   5.493  73.590  1.00  0.00     0.000 HD 
HETATM   15  N   UNL     1     -10.727   7.803  71.530  1.00  0.00    -0.221 NA 
BRANCH   4  16
HETATM   16  O   UNL     1     -10.204   2.759  73.730  1.00  0.00    -0.104 OA 
HETATM   17  C   UNL     1     -11.378   1.971  73.623  1.00  0.00    -0.217 C  
ENDBRANCH   4  16
BRANCH  13  18
HETATM   18  N   UNL     1     -12.054   9.649  71.039  1.00  0.00    -0.320 NA 
HETATM   19  C   UNL     1     -12.545  11.928  71.771  1.00  0.00    -0.053 C  
HETATM   20  C   UNL     1     -13.096  10.499  71.615  1.00  0.00    -0.446 C  
HETATM   21  N   UNL     1     -11.973  12.434  70.513  1.00  0.00    -0.284 N  
HETATM   22  C   UNL     1     -12.367  13.678  70.043  1.00  0.00    -0.278 C  
HETATM   23  C   UNL     1     -10.966  11.543  69.911  1.00  0.00     0.116 C  
HETATM   24  C   UNL     1     -11.502  10.100  69.758  1.00  0.00    -0.228 C  
HETATM   25  O   UNL     1     -13.200  14.351  70.658  1.00  0.00    -0.322 OA 
BRANCH  22  26
HETATM   26  C   UNL     1     -11.712  14.228  68.767  1.00  0.00    -0.343 C  
HETATM   27  C   UNL     1     -11.608  15.749  68.854  1.00  0.00    -0.394 C  
HETATM   28  O   UNL     1     -10.878  16.278  67.736  1.00  0.00    -0.328 OA 
HETATM   29  C   UNL     1     -11.294  15.713  66.559  1.00  0.00     0.062 A  
HETATM   30  C   UNL     1     -10.899  16.352  65.385  1.00  0.00    -0.249 A  
HETATM   31  C   UNL     1     -11.291  15.837  64.149  1.00  0.00    -0.031 A  
HETATM   32  C   UNL     1     -12.072  14.682  64.089  1.00  0.00    -0.346 A  
HETATM   33  C   UNL     1     -12.464  14.040  65.265  1.00  0.00    -0.495 A  
HETATM   34  C   UNL     1     -12.066  14.549  66.499  1.00  0.00    -0.309 A  
HETATM   35  O   UNL     1     -12.482  13.866  67.613  1.00  0.00    -0.152 OA 
ENDBRANCH  22  26
ENDBRANCH  13  18
ENDBRANCH   2   3
TORSDOF 4
ENDMDL
MODEL       61
REMARK 921   NORMALIZED FREE ENERGY PREDICTED BY IDOCK:   -5.63 KCAL/MOL
REMARK 922        TOTAL FREE ENERGY PREDICTED BY IDOCK:   -7.48 KCAL/MOL
REMARK 923 INTER-LIGAND FREE ENERGY PREDICTED BY IDOCK:   -7.06 KCAL/MOL
REMARK 924 INTRA-LIGAND FREE ENERGY PREDICTED BY IDOCK:   -0.42 KCAL/MOL
REMARK 927      BINDING AFFINITY PREDICTED BY RF-SCORE:    0.00 PKD
ROOT
HETATM    1  C   UNL     1     -10.060  19.990  69.506  1.00  0.00     0.046 C  
HETATM    2  O   UNL     1      -9.097  19.090  68.960  1.00  0.00    -0.303 OA 
ENDROOT
BRANCH   2   3
HETATM    3  C   UNL     1      -9.603  18.074  68.190  1.00  0.00    -0.301 A  
HETATM    4  C   UNL     1      -9.879  18.300  66.837  1.00  0.00    -0.331 A  
HETATM    5  C   UNL     1     -10.334  17.226  66.062  1.00  0.00    -0.312 A  
HETATM    6  C   UNL     1     -10.293  15.734  67.969  1.00  0.00    -0.252 A  
HETATM    7  C   UNL     1     -10.511  15.936  66.613  1.00  0.00    -0.306 A  
HETATM    8  C   UNL     1      -9.869  16.804  68.737  1.00  0.00    -0.264 A  
HETATM    9  C   UNL     1     -10.873  14.788  65.910  1.00  0.00    -0.330 A  
HETATM   10  N   UNL     1     -11.126  14.824  64.532  1.00  0.00    -0.622 NA 
HETATM   11  N   UNL     1     -11.006  13.587  66.487  1.00  0.00    -0.289 NA 
HETATM   12  H1  UNL     1     -11.391  13.984  64.017  1.00  0.00     0.000 HD 
HETATM   13  C   UNL     1     -10.773  13.488  67.805  1.00  0.00    -0.252 A  
HETATM   14  H2  UNL     1     -10.310  15.228  64.074  1.00  0.00     0.000 HD 
HETATM   15  N   UNL     1     -10.438  14.542  68.557  1.00  0.00    -0.243 NA 
BRANCH   4  16
HETATM   16  O   UNL     1      -9.754  19.448  66.105  1.00  0.00    -0.368 OA 
HETATM   17  C   UNL     1      -8.532  20.167  66.144  1.00  0.00    -0.188 C  
ENDBRANCH   4  16
BRANCH  13  18
HETATM   18  N   UNL     1     -10.768  12.245  68.391  1.00  0.00    -0.226 NA 
HETATM   19  C   UNL     1     -12.009  10.666  69.782  1.00  0.00    -0.291 C  
HETATM   20  C   UNL     1     -11.354  12.057  69.718  1.00  0.00    -0.126 C  
HETATM   21  N   UNL     1     -11.077   9.603  69.374  1.00  0.00    -0.186 N  
HETATM   22  C   UNL     1     -10.913   8.495  70.191  1.00  0.00    -0.216 C  
HETATM   23  C   UNL     1     -10.448   9.831  68.061  1.00  0.00    -0.226 C  
HETATM   24  C   UNL     1      -9.795  11.230  67.978  1.00  0.00    -0.178 C  
HETATM   25  O   UNL     1     -11.525   8.403  71.259  1.00  0.00    -0.264 OA 
BRANCH  22  26
HETATM   26  C   UNL     1      -9.991   7.359  69.722  1.00  0.00    -0.188 C  
HETATM   27  C   UNL     1     -10.408   6.048  70.386  1.00  0.00    -0.223 C  
HETATM   28  O   UNL     1      -9.652   4.946  69.864  1.00  0.00    -0.147 OA 
HETATM   29  C   UNL     1      -8.318   5.249  69.787  1.00  0.00    -0.098 A  
HETATM   30  C   UNL     1      -7.443   4.182  69.599  1.00  0.00    -0.053 A  
HETATM   31  C   UNL     1      -6.070   4.415  69.519  1.00  0.00    -0.026 A  
HETATM   32  C   UNL     1      -5.575   5.716  69.622  1.00  0.00    -0.008 A  
HETATM   33  C   UNL     1      -6.452   6.786  69.805  1.00  0.00    -0.044 A  
HETATM   34  C   UNL     1      -7.824   6.555  69.878  1.00  0.00    -0.115 A  
HETATM   35  O   UNL     1      -8.628   7.651  70.053  1.00  0.00    -0.135 OA 
ENDBRANCH  22  26
ENDBRANCH  13  18
ENDBRANCH   2   3
TORSDOF 4
ENDMDL
MODEL       62
REMARK 921   NORMALIZED FREE ENERGY PREDICTED BY IDOCK:   -5.63 KCAL/MOL
REMARK 922        TOTAL FREE ENERGY PREDICTED BY IDOCK:   -7.48 KCAL/MOL
REMARK 923 INTER-LIGAND FREE ENERGY PREDICTED BY IDOCK:   -6.76 KCAL/MOL
REMARK 924 INTRA-LIGAND FREE ENERGY PREDICTED BY IDOCK:   -0.71 KCAL/MOL
REMARK 927      BINDING AFFINITY PREDICTED BY RF-SCORE:    0.00 PKD
ROOT
HETATM    1  C   UNL     1     -11.726  14.796  70.782  1.00  0.00    -0.300 C  
HETATM    2  O   UNL     1     -12.569  14.375  69.711  1.00  0.00    -0.280 OA 
ENDROOT
BRANCH   2   3
HETATM    3  C   UNL     1     -11.960  13.628  68.736  1.00  0.00    -0.359 A  
HETATM    4  C   UNL     1     -11.444  14.259  67.599  1.00  0.00    -0.346 A  
HETATM    5  C   UNL     1     -10.770  13.478  66.652  1.00  0.00    -0.282 A  
HETATM    6  C   UNL     1     -11.168  11.456  67.924  1.00  0.00    -0.288 A  
HETATM    7  C   UNL     1     -10.601  12.084  66.825  1.00  0.00    -0.260 A  
HETATM    8  C   UNL     1     -11.856  12.228  68.844  1.00  0.00    -0.355 A  
HETATM    9  C   UNL     1      -9.876  11.237  65.988  1.00  0.00    -0.229 A  
HETATM   10  N   UNL     1      -9.239  11.718  64.836  1.00  0.00    -0.422 NA 
HETATM   11  N   UNL     1      -9.735   9.926  66.217  1.00  0.00    -0.206 NA 
HETATM   12  H1  UNL     1      -8.708  11.098  64.223  1.00  0.00     0.000 HD 
HETATM   13  C   UNL     1     -10.319   9.406  67.308  1.00  0.00    -0.260 A  
HETATM   14  H2  UNL     1      -8.627  12.486  65.112  1.00  0.00     0.000 HD 
HETATM   15  N   UNL     1     -11.047  10.144  68.153  1.00  0.00    -0.258 NA 
BRANCH   4  16
HETATM   16  O   UNL     1     -11.471  15.580  67.251  1.00  0.00    -0.246 OA 
HETATM   17  C   UNL     1     -10.445  16.443  67.715  1.00  0.00    -0.300 C  
ENDBRANCH   4  16
BRANCH  13  18
HETATM   18  N   UNL     1     -10.074   8.095  67.637  1.00  0.00    -0.192 NA 
HETATM   19  C   UNL     1      -9.535   5.869  66.786  1.00  0.00    -0.142 C  
HETATM   20  C   UNL     1     -10.558   7.019  66.772  1.00  0.00    -0.227 C  
HETATM   21  N   UNL     1      -9.207   5.446  68.156  1.00  0.00    -0.109 N  
HETATM   22  C   UNL     1      -9.271   4.099  68.483  1.00  0.00    -0.145 C  
HETATM   23  C   UNL     1      -8.776   6.546  69.036  1.00  0.00    -0.128 C  
HETATM   24  C   UNL     1      -9.789   7.715  69.024  1.00  0.00    -0.168 C  
HETATM   25  O   UNL     1      -9.617   3.262  67.644  1.00  0.00    -0.206 OA 
BRANCH  22  26
HETATM   26  C   UNL     1      -8.859   3.660  69.896  1.00  0.00    -0.090 C  
HETATM   27  C   UNL     1      -8.130   2.320  69.828  1.00  0.00    -0.041 C  
HETATM   28  O   UNL     1      -7.615   1.951  71.116  1.00  0.00    -0.033 OA 
HETATM   29  C   UNL     1      -8.549   2.142  72.099  1.00  0.00    -0.064 A  
HETATM   30  C   UNL     1      -8.296   1.539  73.329  1.00  0.00    -0.053 A  
HETATM   31  C   UNL     1      -9.207   1.685  74.375  1.00  0.00    -0.077 A  
HETATM   32  C   UNL     1     -10.367   2.438  74.191  1.00  0.00    -0.190 A  
HETATM   33  C   UNL     1     -10.619   3.047  72.961  1.00  0.00    -0.240 A  
HETATM   34  C   UNL     1      -9.705   2.908  71.918  1.00  0.00    -0.157 A  
HETATM   35  O   UNL     1     -10.012   3.536  70.738  1.00  0.00    -0.115 OA 
ENDBRANCH  22  26
ENDBRANCH  13  18
ENDBRANCH   2   3
TORSDOF 4
ENDMDL
MODEL       63
REMARK 921   NORMALIZED FREE ENERGY PREDICTED BY IDOCK:   -5.58 KCAL/MOL
REMARK 922        TOTAL FREE ENERGY PREDICTED BY IDOCK:   -7.42 KCAL/MOL
REMARK 923 INTER-LIGAND FREE ENERGY PREDICTED BY IDOCK:   -7.45 KCAL/MOL
REMARK 924 INTRA-LIGAND FREE ENERGY PREDICTED BY IDOCK:    0.03 KCAL/MOL
REMARK 927      BINDING AFFINITY PREDICTED BY RF-SCORE:    0.00 PKD
ROOT
HETATM    1  C   UNL     1      -7.144   6.145  73.020  1.00  0.00    -0.080 C  
HETATM    2  O   UNL     1      -8.111   5.151  72.685  1.00  0.00    -0.107 OA 
ENDROOT
BRANCH   2   3
HETATM    3  C   UNL     1      -9.378   5.615  72.440  1.00  0.00    -0.143 A  
HETATM    4  C   UNL     1     -10.481   4.797  72.709  1.00  0.00    -0.202 A  
HETATM    5  C   UNL     1     -11.764   5.322  72.510  1.00  0.00    -0.112 A  
HETATM    6  C   UNL     1     -10.863   7.432  71.734  1.00  0.00    -0.223 A  
HETATM    7  C   UNL     1     -11.960   6.647  72.055  1.00  0.00    -0.361 A  
HETATM    8  C   UNL     1      -9.597   6.900  71.906  1.00  0.00    -0.159 A  
HETATM    9  C   UNL     1     -13.190   7.288  71.910  1.00  0.00    -0.233 A  
HETATM   10  N   UNL     1     -14.395   6.633  72.197  1.00  0.00    -0.540 NA 
HETATM   11  N   UNL     1     -13.310   8.554  71.492  1.00  0.00    -0.319 NA 
HETATM   12  H1  UNL     1     -15.295   7.102  72.090  1.00  0.00     0.000 HD 
HETATM   13  C   UNL     1     -12.191   9.237  71.206  1.00  0.00    -0.334 A  
HETATM   14  H2  UNL     1     -14.338   6.274  73.150  1.00  0.00     0.000 HD 
HETATM   15  N   UNL     1     -10.973   8.692  71.301  1.00  0.00    -0.250 NA 
BRANCH   4  16
HETATM   16  O   UNL     1     -10.516   3.512  73.175  1.00  0.00    -0.155 OA 
HETATM   17  C   UNL     1     -10.329   2.438  72.268  1.00  0.00    -0.086 C  
ENDBRANCH   4  16
BRANCH  13  18
HETATM   18  N   UNL     1     -12.281  10.575  70.909  1.00  0.00    -0.353 NA 
HETATM   19  C   UNL     1     -12.816  12.800  71.769  1.00  0.00    -0.237 C  
HETATM   20  C   UNL     1     -13.353  11.384  71.490  1.00  0.00    -0.083 C  
HETATM   21  N   UNL     1     -12.186  13.390  70.577  1.00  0.00    -0.365 N  
HETATM   22  C   UNL     1     -12.561  14.663  70.174  1.00  0.00    -0.283 C  
HETATM   23  C   UNL     1     -11.147  12.541  69.967  1.00  0.00     0.483 C  
HETATM   24  C   UNL     1     -11.670  11.112  69.691  1.00  0.00    -0.339 C  
HETATM   25  O   UNL     1     -13.425  15.292  70.791  1.00  0.00    -0.398 OA 
BRANCH  22  26
HETATM   26  C   UNL     1     -11.847  15.297  68.971  1.00  0.00    -0.318 C  
HETATM   27  C   UNL     1     -11.878  14.333  67.785  1.00  0.00    -0.379 C  
HETATM   28  O   UNL     1     -11.339  14.953  66.608  1.00  0.00    -0.349 OA 
HETATM   29  C   UNL     1     -10.174  15.618  66.884  1.00  0.00    -0.281 A  
HETATM   30  C   UNL     1      -9.391  15.990  65.793  1.00  0.00    -0.250 A  
HETATM   31  C   UNL     1      -8.188  16.664  66.000  1.00  0.00    -0.146 A  
HETATM   32  C   UNL     1      -7.771  16.970  67.296  1.00  0.00    -0.196 A  
HETATM   33  C   UNL     1      -8.557  16.601  68.389  1.00  0.00    -0.221 A  
HETATM   34  C   UNL     1      -9.763  15.934  68.183  1.00  0.00    -0.212 A  
HETATM   35  O   UNL     1     -10.487  15.606  69.300  1.00  0.00    -0.215 OA 
ENDBRANCH  22  26
ENDBRANCH  13  18
ENDBRANCH   2   3
TORSDOF 4
ENDMDL
MODEL       64
REMARK 921   NORMALIZED FREE ENERGY PREDICTED BY IDOCK:   -5.58 KCAL/MOL
REMARK 922        TOTAL FREE ENERGY PREDICTED BY IDOCK:   -7.41 KCAL/MOL
REMARK 923 INTER-LIGAND FREE ENERGY PREDICTED BY IDOCK:   -7.36 KCAL/MOL
REMARK 924 INTRA-LIGAND FREE ENERGY PREDICTED BY IDOCK:   -0.05 KCAL/MOL
REMARK 927      BINDING AFFINITY PREDICTED BY RF-SCORE:    0.00 PKD
ROOT
HETATM    1  C   UNL     1     -10.645  18.382  67.805  1.00  0.00    -0.391 C  
HETATM    2  O   UNL     1     -10.058  17.629  68.865  1.00  0.00    -0.351 OA 
ENDROOT
BRANCH   2   3
HETATM    3  C   UNL     1      -9.236  16.602  68.479  1.00  0.00    -0.234 A  
HETATM    4  C   UNL     1      -7.882  16.851  68.232  1.00  0.00    -0.208 A  
HETATM    5  C   UNL     1      -7.054  15.770  67.904  1.00  0.00    -0.149 A  
HETATM    6  C   UNL     1      -8.912  14.219  68.010  1.00  0.00    -0.183 A  
HETATM    7  C   UNL     1      -7.556  14.450  67.823  1.00  0.00    -0.175 A  
HETATM    8  C   UNL     1      -9.730  15.294  68.309  1.00  0.00    -0.210 A  
HETATM    9  C   UNL     1      -6.802  13.301  67.590  1.00  0.00    -0.163 A  
HETATM   10  N   UNL     1      -5.418  13.364  67.385  1.00  0.00    -0.355 NA 
HETATM   11  N   UNL     1      -7.334  12.073  67.545  1.00  0.00    -0.126 NA 
HETATM   12  H1  UNL     1      -4.866  12.523  67.214  1.00  0.00     0.000 HD 
HETATM   13  C   UNL     1      -8.656  11.947  67.740  1.00  0.00    -0.154 A  
HETATM   14  H2  UNL     1      -5.004  13.855  68.177  1.00  0.00     0.000 HD 
HETATM   15  N   UNL     1      -9.454  12.998  67.951  1.00  0.00    -0.211 NA 
BRANCH   4  16
HETATM   16  O   UNL     1      -7.193  18.031  68.281  1.00  0.00    -0.231 OA 
HETATM   17  C   UNL     1      -5.962  18.146  67.586  1.00  0.00    -0.159 C  
ENDBRANCH   4  16
BRANCH  13  18
HETATM   18  N   UNL     1      -9.200  10.689  67.835  1.00  0.00    -0.147 NA 
HETATM   19  C   UNL     1      -9.633   8.584  66.671  1.00  0.00    -0.227 C  
HETATM   20  C   UNL     1      -9.895  10.101  66.690  1.00  0.00    -0.200 C  
HETATM   21  N   UNL     1      -9.954   7.958  67.964  1.00  0.00    -0.170 N  
HETATM   22  C   UNL     1     -10.769   6.836  67.989  1.00  0.00    -0.241 C  
HETATM   23  C   UNL     1      -9.294   8.594  69.118  1.00  0.00    -0.153 C  
HETATM   24  C   UNL     1      -9.540  10.121  69.143  1.00  0.00    -0.212 C  
HETATM   25  O   UNL     1     -11.239   6.374  66.945  1.00  0.00    -0.368 OA 
BRANCH  22  26
HETATM   26  C   UNL     1     -11.041   6.150  69.336  1.00  0.00    -0.409 C  
HETATM   27  C   UNL     1     -11.829   7.091  70.245  1.00  0.00    -0.194 C  
HETATM   28  O   UNL     1     -12.215   6.427  71.458  1.00  0.00    -0.312 OA 
HETATM   29  C   UNL     1     -11.171   5.719  71.991  1.00  0.00    -0.247 A  
HETATM   30  C   UNL     1     -11.312   5.293  73.311  1.00  0.00    -0.318 A  
HETATM   31  C   UNL     1     -10.286   4.573  73.921  1.00  0.00    -0.244 A  
HETATM   32  C   UNL     1      -9.122   4.275  73.211  1.00  0.00    -0.113 A  
HETATM   33  C   UNL     1      -8.982   4.697  71.888  1.00  0.00    -0.150 A  
HETATM   34  C   UNL     1     -10.010   5.410  71.275  1.00  0.00    -0.193 A  
HETATM   35  O   UNL     1      -9.809   5.790  69.973  1.00  0.00    -0.164 OA 
ENDBRANCH  22  26
ENDBRANCH  13  18
ENDBRANCH   2   3
TORSDOF 4
ENDMDL
MODEL       65
REMARK 921   NORMALIZED FREE ENERGY PREDICTED BY IDOCK:   -5.57 KCAL/MOL
REMARK 922        TOTAL FREE ENERGY PREDICTED BY IDOCK:   -7.40 KCAL/MOL
REMARK 923 INTER-LIGAND FREE ENERGY PREDICTED BY IDOCK:   -6.77 KCAL/MOL
REMARK 924 INTRA-LIGAND FREE ENERGY PREDICTED BY IDOCK:   -0.64 KCAL/MOL
REMARK 927      BINDING AFFINITY PREDICTED BY RF-SCORE:    0.00 PKD
ROOT
HETATM    1  C   UNL     1     -11.120  16.710  64.473  1.00  0.00     0.094 C  
HETATM    2  O   UNL     1     -10.014  16.504  65.350  1.00  0.00    -0.552 OA 
ENDROOT
BRANCH   2   3
HETATM    3  C   UNL     1     -10.302  15.863  66.528  1.00  0.00    -0.300 A  
HETATM    4  C   UNL     1     -10.840  16.585  67.598  1.00  0.00    -0.269 A  
HETATM    5  C   UNL     1     -11.184  15.891  68.764  1.00  0.00    -0.359 A  
HETATM    6  C   UNL     1     -10.415  13.792  67.832  1.00  0.00    -0.246 A  
HETATM    7  C   UNL     1     -11.004  14.492  68.875  1.00  0.00    -0.268 A  
HETATM    8  C   UNL     1     -10.052  14.487  66.692  1.00  0.00    -0.275 A  
HETATM    9  C   UNL     1     -11.393  13.700  69.954  1.00  0.00    -0.056 A  
HETATM   10  N   UNL     1     -12.006  14.255  71.085  1.00  0.00    -0.444 NA 
HETATM   11  N   UNL     1     -11.213  12.374  69.991  1.00  0.00     0.115 NA 
HETATM   12  H1  UNL     1     -12.290  13.675  71.875  1.00  0.00     0.000 HD 
HETATM   13  C   UNL     1     -10.635  11.782  68.934  1.00  0.00    -0.180 A  
HETATM   14  H2  UNL     1     -12.821  14.783  70.774  1.00  0.00     0.000 HD 
HETATM   15  N   UNL     1     -10.217  12.470  67.866  1.00  0.00    -0.213 NA 
BRANCH   4  16
HETATM   16  O   UNL     1     -11.118  17.920  67.693  1.00  0.00    -0.211 OA 
HETATM   17  C   UNL     1     -10.163  18.790  68.281  1.00  0.00    -0.375 C  
ENDBRANCH   4  16
BRANCH  13  18
HETATM   18  N   UNL     1     -10.566  10.411  68.890  1.00  0.00    -0.202 NA 
HETATM   19  C   UNL     1     -10.436   8.443  67.447  1.00  0.00    -0.283 C  
HETATM   20  C   UNL     1     -11.272   9.674  67.841  1.00  0.00     0.103 C  
HETATM   21  N   UNL     1     -10.071   7.632  68.619  1.00  0.00    -0.185 N  
HETATM   22  C   UNL     1     -10.312   6.266  68.599  1.00  0.00    -0.206 C  
HETATM   23  C   UNL     1      -9.413   8.395  69.694  1.00  0.00    -0.166 C  
HETATM   24  C   UNL     1     -10.236   9.642  70.093  1.00  0.00    -0.264 C  
HETATM   25  O   UNL     1     -10.843   5.733  67.620  1.00  0.00    -0.258 OA 
BRANCH  22  26
HETATM   26  C   UNL     1      -9.864   5.419  69.799  1.00  0.00    -0.201 C  
HETATM   27  C   UNL     1      -9.754   3.953  69.382  1.00  0.00    -0.102 C  
HETATM   28  O   UNL     1      -9.206   3.158  70.445  1.00  0.00    -0.116 OA 
HETATM   29  C   UNL     1      -9.795   3.458  71.645  1.00  0.00    -0.152 A  
HETATM   30  C   UNL     1      -9.587   2.557  72.687  1.00  0.00    -0.166 A  
HETATM   31  C   UNL     1     -10.162   2.795  73.935  1.00  0.00    -0.192 A  
HETATM   32  C   UNL     1     -10.939   3.936  74.141  1.00  0.00    -0.165 A  
HETATM   33  C   UNL     1     -11.143   4.842  73.099  1.00  0.00    -0.388 A  
HETATM   34  C   UNL     1     -10.563   4.608  71.854  1.00  0.00    -0.038 A  
HETATM   35  O   UNL     1     -10.799   5.540  70.877  1.00  0.00    -0.246 OA 
ENDBRANCH  22  26
ENDBRANCH  13  18
ENDBRANCH   2   3
TORSDOF 4
ENDMDL
MODEL       66
REMARK 921   NORMALIZED FREE ENERGY PREDICTED BY IDOCK:   -5.56 KCAL/MOL
REMARK 922        TOTAL FREE ENERGY PREDICTED BY IDOCK:   -7.39 KCAL/MOL
REMARK 923 INTER-LIGAND FREE ENERGY PREDICTED BY IDOCK:   -7.73 KCAL/MOL
REMARK 924 INTRA-LIGAND FREE ENERGY PREDICTED BY IDOCK:    0.34 KCAL/MOL
REMARK 927      BINDING AFFINITY PREDICTED BY RF-SCORE:    0.00 PKD
ROOT
HETATM    1  C   UNL     1      -9.317  18.363  68.686  1.00  0.00    -0.318 C  
HETATM    2  O   UNL     1      -9.096  18.210  67.285  1.00  0.00    -0.248 OA 
ENDROOT
BRANCH   2   3
HETATM    3  C   UNL     1      -9.765  17.173  66.688  1.00  0.00    -0.276 A  
HETATM    4  C   UNL     1     -10.540  17.410  65.548  1.00  0.00    -0.108 A  
HETATM    5  C   UNL     1     -11.158  16.320  64.924  1.00  0.00    -0.301 A  
HETATM    6  C   UNL     1     -10.290  14.782  66.581  1.00  0.00    -0.273 A  
HETATM    7  C   UNL     1     -11.010  15.002  65.416  1.00  0.00    -0.380 A  
HETATM    8  C   UNL     1      -9.703  15.866  67.210  1.00  0.00    -0.224 A  
HETATM    9  C   UNL     1     -11.511  13.845  64.820  1.00  0.00    -0.362 A  
HETATM   10  N   UNL     1     -12.257  13.897  63.635  1.00  0.00    -0.971 NA 
HETATM   11  N   UNL     1     -11.320  12.620  65.325  1.00  0.00    -0.305 NA 
HETATM   12  H1  UNL     1     -12.624  13.051  63.199  1.00  0.00     0.000 HD 
HETATM   13  C   UNL     1     -10.608  12.505  66.457  1.00  0.00    -0.242 A  
HETATM   14  H2  UNL     1     -11.706  14.396  62.937  1.00  0.00     0.000 HD 
HETATM   15  N   UNL     1     -10.108  13.564  67.102  1.00  0.00    -0.242 NA 
BRANCH   4  16
HETATM   16  O   UNL     1     -10.790  18.586  64.898  1.00  0.00    -0.508 OA 
HETATM   17  C   UNL     1     -10.896  19.786  65.647  1.00  0.00    -0.232 C  
ENDBRANCH   4  16
BRANCH  13  18
HETATM   18  N   UNL     1     -10.283  11.252  66.917  1.00  0.00    -0.212 NA 
HETATM   19  C   UNL     1     -10.560   9.633  68.727  1.00  0.00    -0.216 C  
HETATM   20  C   UNL     1     -10.047  11.033  68.344  1.00  0.00    -0.184 C  
HETATM   21  N   UNL     1     -10.004   8.589  67.851  1.00  0.00    -0.171 N  
HETATM   22  C   UNL     1      -9.419   7.468  68.421  1.00  0.00    -0.148 C  
HETATM   23  C   UNL     1     -10.197   8.848  66.413  1.00  0.00    -0.203 C  
HETATM   24  C   UNL     1      -9.695  10.256  66.017  1.00  0.00    -0.218 C  
HETATM   25  O   UNL     1      -9.346   7.349  69.648  1.00  0.00    -0.150 OA 
BRANCH  22  26
HETATM   26  C   UNL     1      -8.905   6.352  67.499  1.00  0.00    -0.111 C  
HETATM   27  C   UNL     1      -7.796   6.896  66.600  1.00  0.00    -0.107 C  
HETATM   28  O   UNL     1      -7.204   5.843  65.824  1.00  0.00    -0.071 OA 
HETATM   29  C   UNL     1      -8.161   5.034  65.271  1.00  0.00    -0.117 A  
HETATM   30  C   UNL     1      -7.745   4.177  64.254  1.00  0.00    -0.084 A  
HETATM   31  C   UNL     1      -8.667   3.329  63.641  1.00  0.00    -0.089 A  
HETATM   32  C   UNL     1     -10.001   3.335  64.048  1.00  0.00    -0.178 A  
HETATM   33  C   UNL     1     -10.418   4.190  65.070  1.00  0.00    -0.187 A  
HETATM   34  C   UNL     1      -9.496   5.032  65.689  1.00  0.00    -0.141 A  
HETATM   35  O   UNL     1      -9.970   5.841  66.689  1.00  0.00    -0.154 OA 
ENDBRANCH  22  26
ENDBRANCH  13  18
ENDBRANCH   2   3
TORSDOF 4
ENDMDL
MODEL       67
REMARK 921   NORMALIZED FREE ENERGY PREDICTED BY IDOCK:   -5.48 KCAL/MOL
REMARK 922        TOTAL FREE ENERGY PREDICTED BY IDOCK:   -7.29 KCAL/MOL
REMARK 923 INTER-LIGAND FREE ENERGY PREDICTED BY IDOCK:   -6.66 KCAL/MOL
REMARK 924 INTRA-LIGAND FREE ENERGY PREDICTED BY IDOCK:   -0.63 KCAL/MOL
REMARK 927      BINDING AFFINITY PREDICTED BY RF-SCORE:    0.00 PKD
ROOT
HETATM    1  C   UNL     1     -11.808   6.662  70.369  1.00  0.00    -0.346 C  
HETATM    2  O   UNL     1     -11.447   6.012  69.151  1.00  0.00    -0.316 OA 
ENDROOT
BRANCH   2   3
HETATM    3  C   UNL     1     -10.539   6.678  68.369  1.00  0.00    -0.242 A  
HETATM    4  C   UNL     1     -10.173   6.149  67.127  1.00  0.00    -0.199 A  
HETATM    5  C   UNL     1      -9.294   6.884  66.322  1.00  0.00    -0.144 A  
HETATM    6  C   UNL     1      -9.102   8.626  67.994  1.00  0.00    -0.140 A  
HETATM    7  C   UNL     1      -8.782   8.136  66.736  1.00  0.00    -0.145 A  
HETATM    8  C   UNL     1      -9.950   7.883  68.796  1.00  0.00    -0.194 A  
HETATM    9  C   UNL     1      -7.974   8.981  65.976  1.00  0.00    -0.103 A  
HETATM   10  N   UNL     1      -7.565   8.633  64.682  1.00  0.00    -0.105 NA 
HETATM   11  N   UNL     1      -7.537  10.167  66.417  1.00  0.00    -0.104 NA 
HETATM   12  H1  UNL     1      -6.973   9.252  64.126  1.00  0.00     0.000 HD 
HETATM   13  C   UNL     1      -7.900  10.560  67.648  1.00  0.00    -0.105 A  
HETATM   14  H2  UNL     1      -8.398   8.420  64.135  1.00  0.00     0.000 HD 
HETATM   15  N   UNL     1      -8.657   9.802  68.449  1.00  0.00    -0.118 NA 
BRANCH   4  16
HETATM   16  O   UNL     1     -10.565   4.983  66.529  1.00  0.00    -0.291 OA 
HETATM   17  C   UNL     1      -9.910   4.553  65.347  1.00  0.00    -0.191 C  
ENDBRANCH   4  16
BRANCH  13  18
HETATM   18  N   UNL     1      -7.579  11.828  68.068  1.00  0.00    -0.108 NA 
HETATM   19  C   UNL     1      -6.051  13.182  69.411  1.00  0.00    -0.107 C  
HETATM   20  C   UNL     1      -7.093  12.049  69.430  1.00  0.00     0.085 C  
HETATM   21  N   UNL     1      -6.568  14.389  68.746  1.00  0.00    -0.085 N  
HETATM   22  C   UNL     1      -6.461  15.614  69.388  1.00  0.00    -0.156 C  
HETATM   23  C   UNL     1      -7.108  14.145  67.397  1.00  0.00    -0.077 C  
HETATM   24  C   UNL     1      -8.149  13.001  67.399  1.00  0.00    -0.180 C  
HETATM   25  O   UNL     1      -5.955  15.696  70.511  1.00  0.00    -0.104 OA 
BRANCH  22  26
HETATM   26  C   UNL     1      -6.940  16.877  68.656  1.00  0.00    -0.191 C  
HETATM   27  C   UNL     1      -6.285  18.111  69.274  1.00  0.00    -0.253 C  
HETATM   28  O   UNL     1      -6.609  19.292  68.525  1.00  0.00    -0.240 OA 
HETATM   29  C   UNL     1      -7.943  19.338  68.220  1.00  0.00    -0.326 A  
HETATM   30  C   UNL     1      -8.442  20.562  67.778  1.00  0.00    -0.162 A  
HETATM   31  C   UNL     1      -9.794  20.684  67.456  1.00  0.00    -0.485 A  
HETATM   32  C   UNL     1     -10.643  19.583  67.572  1.00  0.00    -0.599 A  
HETATM   33  C   UNL     1     -10.143  18.356  68.010  1.00  0.00    -0.392 A  
HETATM   34  C   UNL     1      -8.791  18.231  68.324  1.00  0.00    -0.287 A  
HETATM   35  O   UNL     1      -8.365  16.997  68.743  1.00  0.00    -0.251 OA 
ENDBRANCH  22  26
ENDBRANCH  13  18
ENDBRANCH   2   3
TORSDOF 4
ENDMDL
MODEL       68
REMARK 921   NORMALIZED FREE ENERGY PREDICTED BY IDOCK:   -5.48 KCAL/MOL
REMARK 922        TOTAL FREE ENERGY PREDICTED BY IDOCK:   -7.29 KCAL/MOL
REMARK 923 INTER-LIGAND FREE ENERGY PREDICTED BY IDOCK:   -6.60 KCAL/MOL
REMARK 924 INTRA-LIGAND FREE ENERGY PREDICTED BY IDOCK:   -0.68 KCAL/MOL
REMARK 927      BINDING AFFINITY PREDICTED BY RF-SCORE:    0.00 PKD
ROOT
HETATM    1  C   UNL     1     -10.805   5.404  72.626  1.00  0.00    -0.256 C  
HETATM    2  O   UNL     1      -9.513   5.219  72.049  1.00  0.00    -0.143 OA 
ENDROOT
BRANCH   2   3
HETATM    3  C   UNL     1      -9.326   5.793  70.818  1.00  0.00    -0.163 A  
HETATM    4  C   UNL     1      -9.661   5.081  69.661  1.00  0.00    -0.170 A  
HETATM    5  C   UNL     1      -9.519   5.718  68.423  1.00  0.00    -0.137 A  
HETATM    6  C   UNL     1      -8.668   7.730  69.469  1.00  0.00    -0.135 A  
HETATM    7  C   UNL     1      -9.055   7.051  68.323  1.00  0.00    -0.126 A  
HETATM    8  C   UNL     1      -8.785   7.087  70.689  1.00  0.00    -0.149 A  
HETATM    9  C   UNL     1      -8.962   7.799  67.150  1.00  0.00    -0.126 A  
HETATM   10  N   UNL     1      -9.319   7.259  65.908  1.00  0.00    -0.389 NA 
HETATM   11  N   UNL     1      -8.533   9.067  67.124  1.00  0.00    -0.113 NA 
HETATM   12  H1  UNL     1      -9.250   7.807  65.049  1.00  0.00     0.000 HD 
HETATM   13  C   UNL     1      -8.180   9.643  68.284  1.00  0.00    -0.106 A  
HETATM   14  H2  UNL     1     -10.273   6.907  65.980  1.00  0.00     0.000 HD 
HETATM   15  N   UNL     1      -8.222   8.991  69.451  1.00  0.00    -0.114 NA 
BRANCH   4  16
HETATM   16  O   UNL     1     -10.147   3.810  69.534  1.00  0.00     0.081 OA 
HETATM   17  C   UNL     1      -9.240   2.721  69.476  1.00  0.00    -0.134 C  
ENDBRANCH   4  16
BRANCH  13  18
HETATM   18  N   UNL     1      -7.870  10.980  68.299  1.00  0.00    -0.114 NA 
HETATM   19  C   UNL     1      -6.097  12.636  68.600  1.00  0.00    -0.067 C  
HETATM   20  C   UNL     1      -6.893  11.496  69.260  1.00  0.00    -0.114 C  
HETATM   21  N   UNL     1      -6.984  13.660  68.025  1.00  0.00    -0.116 N  
HETATM   22  C   UNL     1      -6.768  14.995  68.337  1.00  0.00    -0.111 C  
HETATM   23  C   UNL     1      -8.001  13.124  67.104  1.00  0.00    -0.073 C  
HETATM   24  C   UNL     1      -8.801  11.969  67.750  1.00  0.00    -0.165 C  
HETATM   25  O   UNL     1      -5.857  15.325  69.101  1.00  0.00    -0.097 OA 
BRANCH  22  26
HETATM   26  C   UNL     1      -7.655  16.061  67.677  1.00  0.00    -0.146 C  
HETATM   27  C   UNL     1      -6.844  16.838  66.641  1.00  0.00    -0.220 C  
HETATM   28  O   UNL     1      -7.682  17.748  65.913  1.00  0.00    -0.501 OA 
HETATM   29  C   UNL     1      -8.511  18.442  66.754  1.00  0.00    -0.264 A  
HETATM   30  C   UNL     1      -9.142  19.566  66.224  1.00  0.00    -0.403 A  
HETATM   31  C   UNL     1      -9.995  20.325  67.024  1.00  0.00    -0.601 A  
HETATM   32  C   UNL     1     -10.221  19.957  68.351  1.00  0.00    -0.557 A  
HETATM   33  C   UNL     1      -9.593  18.829  68.881  1.00  0.00    -0.369 A  
HETATM   34  C   UNL     1      -8.746  18.065  68.080  1.00  0.00    -0.261 A  
HETATM   35  O   UNL     1      -8.167  16.968  68.662  1.00  0.00    -0.245 OA 
ENDBRANCH  22  26
ENDBRANCH  13  18
ENDBRANCH   2   3
TORSDOF 4
ENDMDL
MODEL       69
REMARK 921   NORMALIZED FREE ENERGY PREDICTED BY IDOCK:   -5.46 KCAL/MOL
REMARK 922        TOTAL FREE ENERGY PREDICTED BY IDOCK:   -7.27 KCAL/MOL
REMARK 923 INTER-LIGAND FREE ENERGY PREDICTED BY IDOCK:   -7.18 KCAL/MOL
REMARK 924 INTRA-LIGAND FREE ENERGY PREDICTED BY IDOCK:   -0.09 KCAL/MOL
REMARK 927      BINDING AFFINITY PREDICTED BY RF-SCORE:    0.00 PKD
ROOT
HETATM    1  C   UNL     1     -10.279  16.974  68.600  1.00  0.00    -0.321 C  
HETATM    2  O   UNL     1     -11.557  16.342  68.543  1.00  0.00    -0.346 OA 
ENDROOT
BRANCH   2   3
HETATM    3  C   UNL     1     -11.617  15.078  69.071  1.00  0.00    -0.319 A  
HETATM    4  C   UNL     1     -12.361  14.846  70.234  1.00  0.00    -0.341 A  
HETATM    5  C   UNL     1     -12.458  13.534  70.712  1.00  0.00    -0.428 A  
HETATM    6  C   UNL     1     -11.045  12.700  68.931  1.00  0.00    -0.259 A  
HETATM    7  C   UNL     1     -11.830  12.455  70.048  1.00  0.00    -0.363 A  
HETATM    8  C   UNL     1     -10.931  14.002  68.477  1.00  0.00    -0.274 A  
HETATM    9  C   UNL     1     -11.938  11.108  70.393  1.00  0.00    -0.378 A  
HETATM   10  N   UNL     1     -12.697  10.694  71.495  1.00  0.00    -0.425 NA 
HETATM   11  N   UNL     1     -11.333  10.127  69.711  1.00  0.00    -0.257 NA 
HETATM   12  H1  UNL     1     -12.776   9.708  71.748  1.00  0.00     0.000 HD 
HETATM   13  C   UNL     1     -10.594  10.460  68.641  1.00  0.00    -0.209 A  
HETATM   14  H2  UNL     1     -13.640  11.065  71.384  1.00  0.00     0.000 HD 
HETATM   15  N   UNL     1     -10.425  11.729  68.252  1.00  0.00    -0.199 NA 
BRANCH   4  16
HETATM   16  O   UNL     1     -13.061  15.730  71.007  1.00  0.00    -0.505 OA 
HETATM   17  C   UNL     1     -14.074  15.245  71.873  1.00  0.00    -0.557 C  
ENDBRANCH   4  16
BRANCH  13  18
HETATM   18  N   UNL     1     -10.081   9.464  67.847  1.00  0.00    -0.183 NA 
HETATM   19  C   UNL     1      -8.822   8.951  65.816  1.00  0.00    -0.186 C  
HETATM   20  C   UNL     1     -10.090   9.609  66.391  1.00  0.00    -0.247 C  
HETATM   21  N   UNL     1      -8.662   7.567  66.289  1.00  0.00    -0.143 N  
HETATM   22  C   UNL     1      -8.430   6.559  65.365  1.00  0.00    -0.115 C  
HETATM   23  C   UNL     1      -8.711   7.425  67.755  1.00  0.00    -0.126 C  
HETATM   24  C   UNL     1      -9.975   8.091  68.348  1.00  0.00    -0.185 C  
HETATM   25  O   UNL     1      -8.377   6.809  64.157  1.00  0.00    -0.003 OA 
BRANCH  22  26
HETATM   26  C   UNL     1      -8.194   5.129  65.875  1.00  0.00    -0.115 C  
HETATM   27  C   UNL     1      -9.487   4.573  66.469  1.00  0.00    -0.173 C  
HETATM   28  O   UNL     1      -9.333   3.192  66.829  1.00  0.00    -0.173 OA 
HETATM   29  C   UNL     1      -8.157   2.981  67.500  1.00  0.00    -0.076 A  
HETATM   30  C   UNL     1      -8.030   1.768  68.174  1.00  0.00    -0.062 A  
HETATM   31  C   UNL     1      -6.862   1.488  68.883  1.00  0.00    -0.029 A  
HETATM   32  C   UNL     1      -5.822   2.418  68.914  1.00  0.00    -0.023 A  
HETATM   33  C   UNL     1      -5.947   3.631  68.235  1.00  0.00    -0.027 A  
HETATM   34  C   UNL     1      -7.110   3.908  67.519  1.00  0.00    -0.056 A  
HETATM   35  O   UNL     1      -7.165   5.115  66.872  1.00  0.00    -0.074 OA 
ENDBRANCH  22  26
ENDBRANCH  13  18
ENDBRANCH   2   3
TORSDOF 4
ENDMDL
MODEL       70
REMARK 921   NORMALIZED FREE ENERGY PREDICTED BY IDOCK:   -5.44 KCAL/MOL
REMARK 922        TOTAL FREE ENERGY PREDICTED BY IDOCK:   -7.24 KCAL/MOL
REMARK 923 INTER-LIGAND FREE ENERGY PREDICTED BY IDOCK:   -7.42 KCAL/MOL
REMARK 924 INTRA-LIGAND FREE ENERGY PREDICTED BY IDOCK:    0.18 KCAL/MOL
REMARK 927      BINDING AFFINITY PREDICTED BY RF-SCORE:    0.00 PKD
ROOT
HETATM    1  C   UNL     1      -7.994   5.573  68.972  1.00  0.00    -0.095 C  
HETATM    2  O   UNL     1      -9.156   5.982  68.252  1.00  0.00    -0.113 OA 
ENDROOT
BRANCH   2   3
HETATM    3  C   UNL     1      -9.909   6.962  68.847  1.00  0.00    -0.147 A  
HETATM    4  C   UNL     1     -10.700   6.651  69.958  1.00  0.00    -0.240 A  
HETATM    5  C   UNL     1     -11.406   7.686  70.584  1.00  0.00    -0.288 A  
HETATM    6  C   UNL     1     -10.591   9.311  68.984  1.00  0.00    -0.205 A  
HETATM    7  C   UNL     1     -11.329   9.020  70.122  1.00  0.00    -0.139 A  
HETATM    8  C   UNL     1      -9.916   8.281  68.354  1.00  0.00    -0.211 A  
HETATM    9  C   UNL     1     -11.921  10.130  70.725  1.00  0.00    -0.348 A  
HETATM   10  N   UNL     1     -12.697  10.005  71.884  1.00  0.00    -0.405 NA 
HETATM   11  N   UNL     1     -11.795  11.375  70.249  1.00  0.00    -0.346 NA 
HETATM   12  H1  UNL     1     -13.131  10.817  72.325  1.00  0.00     0.000 HD 
HETATM   13  C   UNL     1     -11.059  11.560  69.143  1.00  0.00    -0.259 A  
HETATM   14  H2  UNL     1     -12.136   9.528  72.589  1.00  0.00     0.000 HD 
HETATM   15  N   UNL     1     -10.472  10.549  68.493  1.00  0.00    -0.177 NA 
BRANCH   4  16
HETATM   16  O   UNL     1     -10.893   5.448  70.578  1.00  0.00    -0.239 OA 
HETATM   17  C   UNL     1     -10.225   5.180  71.800  1.00  0.00    -0.209 C  
ENDBRANCH   4  16
BRANCH  13  18
HETATM   18  N   UNL     1     -10.802  12.841  68.717  1.00  0.00    -0.245 NA 
HETATM   19  C   UNL     1     -11.289  15.213  69.049  1.00  0.00    -0.294 C  
HETATM   20  C   UNL     1     -11.875  13.835  68.692  1.00  0.00    -0.374 C  
HETATM   21  N   UNL     1     -10.129  15.548  68.207  1.00  0.00    -0.216 N  
HETATM   22  C   UNL     1     -10.091  16.778  67.566  1.00  0.00    -0.276 C  
HETATM   23  C   UNL     1      -9.079  14.514  68.194  1.00  0.00    -0.191 C  
HETATM   24  C   UNL     1      -9.656  13.122  67.847  1.00  0.00    -0.218 C  
HETATM   25  O   UNL     1     -11.023  17.579  67.682  1.00  0.00    -0.294 OA 
BRANCH  22  26
HETATM   26  C   UNL     1      -8.845  17.146  66.747  1.00  0.00    -0.246 C  
HETATM   27  C   UNL     1      -7.586  16.812  67.544  1.00  0.00    -0.158 C  
HETATM   28  O   UNL     1      -6.407  17.018  66.751  1.00  0.00    -0.180 OA 
HETATM   29  C   UNL     1      -6.463  18.211  66.079  1.00  0.00    -0.252 A  
HETATM   30  C   UNL     1      -5.269  18.677  65.530  1.00  0.00    -0.194 A  
HETATM   31  C   UNL     1      -5.250  19.887  64.838  1.00  0.00    -0.191 A  
HETATM   32  C   UNL     1      -6.423  20.628  64.691  1.00  0.00    -0.313 A  
HETATM   33  C   UNL     1      -7.620  20.159  65.236  1.00  0.00     0.117 A  
HETATM   34  C   UNL     1      -7.642  18.946  65.921  1.00  0.00    -0.178 A  
HETATM   35  O   UNL     1      -8.851  18.542  66.426  1.00  0.00    -0.300 OA 
ENDBRANCH  22  26
ENDBRANCH  13  18
ENDBRANCH   2   3
TORSDOF 4
ENDMDL
MODEL       71
REMARK 921   NORMALIZED FREE ENERGY PREDICTED BY IDOCK:   -5.40 KCAL/MOL
REMARK 922        TOTAL FREE ENERGY PREDICTED BY IDOCK:   -7.20 KCAL/MOL
REMARK 923 INTER-LIGAND FREE ENERGY PREDICTED BY IDOCK:   -7.11 KCAL/MOL
REMARK 924 INTRA-LIGAND FREE ENERGY PREDICTED BY IDOCK:   -0.08 KCAL/MOL
REMARK 927      BINDING AFFINITY PREDICTED BY RF-SCORE:    0.00 PKD
ROOT
HETATM    1  C   UNL     1      -7.400   6.559  72.924  1.00  0.00    -0.086 C  
HETATM    2  O   UNL     1      -6.735   6.757  71.678  1.00  0.00    -0.059 OA 
ENDROOT
BRANCH   2   3
HETATM    3  C   UNL     1      -7.532   7.160  70.637  1.00  0.00    -0.081 A  
HETATM    4  C   UNL     1      -8.077   6.207  69.771  1.00  0.00    -0.119 A  
HETATM    5  C   UNL     1      -8.939   6.643  68.758  1.00  0.00    -0.125 A  
HETATM    6  C   UNL     1      -8.675   8.956  69.425  1.00  0.00    -0.142 A  
HETATM    7  C   UNL     1      -9.267   8.010  68.601  1.00  0.00    -0.143 A  
HETATM    8  C   UNL     1      -7.803   8.523  70.409  1.00  0.00    -0.089 A  
HETATM    9  C   UNL     1     -10.178   8.533  67.684  1.00  0.00    -0.236 A  
HETATM   10  N   UNL     1     -10.862   7.709  66.782  1.00  0.00    -0.479 NA 
HETATM   11  N   UNL     1     -10.461   9.839  67.597  1.00  0.00    -0.234 NA 
HETATM   12  H1  UNL     1     -11.529   8.091  66.110  1.00  0.00     0.000 HD 
HETATM   13  C   UNL     1      -9.840  10.680  68.439  1.00  0.00    -0.161 A  
HETATM   14  H2  UNL     1     -11.338   6.983  67.318  1.00  0.00     0.000 HD 
HETATM   15  N   UNL     1      -8.940  10.264  69.336  1.00  0.00    -0.190 NA 
BRANCH   4  16
HETATM   16  O   UNL     1      -7.916   4.849  69.761  1.00  0.00    -0.068 OA 
HETATM   17  C   UNL     1      -9.010   4.016  70.109  1.00  0.00    -0.096 C  
ENDBRANCH   4  16
BRANCH  13  18
HETATM   18  N   UNL     1     -10.216  12.001  68.462  1.00  0.00    -0.219 NA 
HETATM   19  C   UNL     1     -11.583  13.690  69.581  1.00  0.00    -0.278 C  
HETATM   20  C   UNL     1     -11.593  12.366  68.795  1.00  0.00    -0.326 C  
HETATM   21  N   UNL     1     -10.830  14.738  68.875  1.00  0.00    -0.245 N  
HETATM   22  C   UNL     1     -11.416  15.981  68.684  1.00  0.00    -0.377 C  
HETATM   23  C   UNL     1      -9.463  14.340  68.493  1.00  0.00    -0.206 C  
HETATM   24  C   UNL     1      -9.457  13.006  67.712  1.00  0.00    -0.209 C  
HETATM   25  O   UNL     1     -12.563  16.205  69.081  1.00  0.00     0.171 OA 
BRANCH  22  26
HETATM   26  C   UNL     1     -10.595  17.090  68.009  1.00  0.00    -0.373 C  
HETATM   27  C   UNL     1     -10.221  16.663  66.590  1.00  0.00    -0.303 C  
HETATM   28  O   UNL     1      -9.571  17.734  65.888  1.00  0.00    -0.517 OA 
HETATM   29  C   UNL     1      -8.617  18.334  66.668  1.00  0.00    -0.273 A  
HETATM   30  C   UNL     1      -7.708  19.165  66.017  1.00  0.00    -0.267 A  
HETATM   31  C   UNL     1      -6.706  19.803  66.747  1.00  0.00    -0.210 A  
HETATM   32  C   UNL     1      -6.617  19.614  68.127  1.00  0.00    -0.295 A  
HETATM   33  C   UNL     1      -7.531  18.786  68.780  1.00  0.00    -0.337 A  
HETATM   34  C   UNL     1      -8.538  18.154  68.053  1.00  0.00    -0.265 A  
HETATM   35  O   UNL     1      -9.404  17.359  68.758  1.00  0.00    -0.277 OA 
ENDBRANCH  22  26
ENDBRANCH  13  18
ENDBRANCH   2   3
TORSDOF 4
ENDMDL
MODEL       72
REMARK 921   NORMALIZED FREE ENERGY PREDICTED BY IDOCK:   -5.38 KCAL/MOL
REMARK 922        TOTAL FREE ENERGY PREDICTED BY IDOCK:   -7.17 KCAL/MOL
REMARK 923 INTER-LIGAND FREE ENERGY PREDICTED BY IDOCK:   -6.62 KCAL/MOL
REMARK 924 INTRA-LIGAND FREE ENERGY PREDICTED BY IDOCK:   -0.55 KCAL/MOL
REMARK 927      BINDING AFFINITY PREDICTED BY RF-SCORE:    0.00 PKD
ROOT
HETATM    1  C   UNL     1     -11.763   6.281  72.876  1.00  0.00     0.075 C  
HETATM    2  O   UNL     1     -10.345   6.370  73.012  1.00  0.00    -0.192 OA 
ENDROOT
BRANCH   2   3
HETATM    3  C   UNL     1      -9.647   6.550  71.846  1.00  0.00    -0.150 A  
HETATM    4  C   UNL     1      -8.789   5.545  71.388  1.00  0.00    -0.136 A  
HETATM    5  C   UNL     1      -8.140   5.730  70.162  1.00  0.00    -0.108 A  
HETATM    6  C   UNL     1      -9.143   7.917  69.876  1.00  0.00    -0.146 A  
HETATM    7  C   UNL     1      -8.338   6.898  69.387  1.00  0.00    -0.132 A  
HETATM    8  C   UNL     1      -9.762   7.740  71.101  1.00  0.00    -0.175 A  
HETATM    9  C   UNL     1      -7.809   7.138  68.120  1.00  0.00    -0.118 A  
HETATM   10  N   UNL     1      -6.979   6.205  67.485  1.00  0.00    -0.067 NA 
HETATM   11  N   UNL     1      -8.051   8.258  67.427  1.00  0.00    -0.119 NA 
HETATM   12  H1  UNL     1      -6.592   6.381  66.557  1.00  0.00     0.000 HD 
HETATM   13  C   UNL     1      -8.843   9.188  67.980  1.00  0.00    -0.129 A  
HETATM   14  H2  UNL     1      -7.473   5.314  67.455  1.00  0.00     0.000 HD 
HETATM   15  N   UNL     1      -9.377   9.045  69.198  1.00  0.00    -0.147 NA 
BRANCH   4  16
HETATM   16  O   UNL     1      -8.479   4.341  71.958  1.00  0.00    -0.103 OA 
HETATM   17  C   UNL     1      -7.388   3.592  71.450  1.00  0.00    -0.036 C  
ENDBRANCH   4  16
BRANCH  13  18
HETATM   18  N   UNL     1      -9.215  10.280  67.234  1.00  0.00    -0.141 NA 
HETATM   19  C   UNL     1     -10.191  11.045  65.127  1.00  0.00    -0.291 C  
HETATM   20  C   UNL     1      -9.031  10.273  65.782  1.00  0.00    -0.161 C  
HETATM   21  N   UNL     1     -10.354  12.385  65.713  1.00  0.00    -0.257 N  
HETATM   22  C   UNL     1     -10.430  13.487  64.874  1.00  0.00    -0.402 C  
HETATM   23  C   UNL     1     -10.482  12.386  67.182  1.00  0.00    -0.219 C  
HETATM   24  C   UNL     1      -9.328  11.604  67.852  1.00  0.00    -0.174 C  
HETATM   25  O   UNL     1     -10.343  13.354  63.649  1.00  0.00    -0.006 OA 
BRANCH  22  26
HETATM   26  C   UNL     1     -10.671  14.872  65.491  1.00  0.00    -0.356 C  
HETATM   27  C   UNL     1     -10.912  15.896  64.383  1.00  0.00    -0.013 C  
HETATM   28  O   UNL     1     -11.274  17.171  64.934  1.00  0.00    -0.670 OA 
HETATM   29  C   UNL     1     -10.456  17.513  65.978  1.00  0.00    -0.274 A  
HETATM   30  C   UNL     1     -10.493  18.842  66.393  1.00  0.00    -0.505 A  
HETATM   31  C   UNL     1      -9.681  19.263  67.447  1.00  0.00    -0.405 A  
HETATM   32  C   UNL     1      -8.839  18.353  68.087  1.00  0.00    -0.319 A  
HETATM   33  C   UNL     1      -8.805  17.020  67.675  1.00  0.00    -0.220 A  
HETATM   34  C   UNL     1      -9.621  16.597  66.627  1.00  0.00    -0.263 A  
HETATM   35  O   UNL     1      -9.542  15.274  66.277  1.00  0.00    -0.259 OA 
ENDBRANCH  22  26
ENDBRANCH  13  18
ENDBRANCH   2   3
TORSDOF 4
ENDMDL
MODEL       73
REMARK 921   NORMALIZED FREE ENERGY PREDICTED BY IDOCK:   -5.36 KCAL/MOL
REMARK 922        TOTAL FREE ENERGY PREDICTED BY IDOCK:   -7.15 KCAL/MOL
REMARK 923 INTER-LIGAND FREE ENERGY PREDICTED BY IDOCK:   -6.54 KCAL/MOL
REMARK 924 INTRA-LIGAND FREE ENERGY PREDICTED BY IDOCK:   -0.61 KCAL/MOL
REMARK 927      BINDING AFFINITY PREDICTED BY RF-SCORE:    0.00 PKD
ROOT
HETATM    1  C   UNL     1     -10.784  19.524  65.974  1.00  0.00    -0.430 C  
HETATM    2  O   UNL     1     -10.603  18.820  67.202  1.00  0.00    -0.406 OA 
ENDROOT
BRANCH   2   3
HETATM    3  C   UNL     1      -9.609  17.875  67.203  1.00  0.00    -0.280 A  
HETATM    4  C   UNL     1      -8.273  18.274  67.315  1.00  0.00    -0.237 A  
HETATM    5  C   UNL     1      -7.285  17.283  67.380  1.00  0.00    -0.183 A  
HETATM    6  C   UNL     1      -8.933  15.520  67.166  1.00  0.00    -0.214 A  
HETATM    7  C   UNL     1      -7.612  15.907  67.338  1.00  0.00    -0.208 A  
HETATM    8  C   UNL     1      -9.903  16.504  67.077  1.00  0.00    -0.259 A  
HETATM    9  C   UNL     1      -6.715  14.849  67.482  1.00  0.00    -0.139 A  
HETATM   10  N   UNL     1      -5.345  15.072  67.667  1.00  0.00    -0.324 NA 
HETATM   11  N   UNL     1      -7.090  13.564  67.454  1.00  0.00    -0.140 NA 
HETATM   12  H1  UNL     1      -4.689  14.297  67.772  1.00  0.00     0.000 HD 
HETATM   13  C   UNL     1      -8.392  13.286  67.284  1.00  0.00    -0.177 A  
HETATM   14  H2  UNL     1      -5.232  15.689  68.471  1.00  0.00     0.000 HD 
HETATM   15  N   UNL     1      -9.315  14.240  67.121  1.00  0.00    -0.219 NA 
BRANCH   4  16
HETATM   16  O   UNL     1      -7.746  19.532  67.397  1.00  0.00    -0.242 OA 
HETATM   17  C   UNL     1      -6.395  19.747  67.020  1.00  0.00    -0.187 C  
ENDBRANCH   4  16
BRANCH  13  18
HETATM   18  N   UNL     1      -8.817  11.984  67.390  1.00  0.00    -0.171 NA 
HETATM   19  C   UNL     1     -10.441  10.469  68.410  1.00  0.00    -0.186 C  
HETATM   20  C   UNL     1      -9.304  11.473  68.672  1.00  0.00    -0.137 C  
HETATM   21  N   UNL     1     -10.039   9.426  67.453  1.00  0.00    -0.200 N  
HETATM   22  C   UNL     1     -10.245   8.093  67.778  1.00  0.00    -0.228 C  
HETATM   23  C   UNL     1      -9.496   9.951  66.188  1.00  0.00    -0.200 C  
HETATM   24  C   UNL     1      -8.360  10.970  66.436  1.00  0.00    -0.165 C  
HETATM   25  O   UNL     1     -10.742   7.777  68.863  1.00  0.00    -0.185 OA 
BRANCH  22  26
HETATM   26  C   UNL     1      -9.887   7.016  66.743  1.00  0.00    -0.186 C  
HETATM   27  C   UNL     1     -10.830   5.823  66.893  1.00  0.00    -0.254 C  
HETATM   28  O   UNL     1     -10.606   4.860  65.852  1.00  0.00    -0.287 OA 
HETATM   29  C   UNL     1      -9.269   4.622  65.672  1.00  0.00    -0.151 A  
HETATM   30  C   UNL     1      -8.928   3.496  64.926  1.00  0.00    -0.131 A  
HETATM   31  C   UNL     1      -7.585   3.188  64.708  1.00  0.00    -0.077 A  
HETATM   32  C   UNL     1      -6.586   4.009  65.232  1.00  0.00    -0.047 A  
HETATM   33  C   UNL     1      -6.927   5.140  65.976  1.00  0.00    -0.067 A  
HETATM   34  C   UNL     1      -8.269   5.453  66.187  1.00  0.00    -0.111 A  
HETATM   35  O   UNL     1      -8.533   6.580  66.921  1.00  0.00    -0.112 OA 
ENDBRANCH  22  26
ENDBRANCH  13  18
ENDBRANCH   2   3
TORSDOF 4
ENDMDL
MODEL       74
REMARK 921   NORMALIZED FREE ENERGY PREDICTED BY IDOCK:   -5.36 KCAL/MOL
REMARK 922        TOTAL FREE ENERGY PREDICTED BY IDOCK:   -7.14 KCAL/MOL
REMARK 923 INTER-LIGAND FREE ENERGY PREDICTED BY IDOCK:   -7.04 KCAL/MOL
REMARK 924 INTRA-LIGAND FREE ENERGY PREDICTED BY IDOCK:   -0.10 KCAL/MOL
REMARK 927      BINDING AFFINITY PREDICTED BY RF-SCORE:    0.00 PKD
ROOT
HETATM    1  C   UNL     1     -11.409  15.484  64.345  1.00  0.00    -0.252 C  
HETATM    2  O   UNL     1     -10.360  15.462  65.313  1.00  0.00    -0.367 OA 
ENDROOT
BRANCH   2   3
HETATM    3  C   UNL     1     -10.627  14.761  66.460  1.00  0.00    -0.299 A  
HETATM    4  C   UNL     1     -11.244  15.404  67.539  1.00  0.00    -0.302 A  
HETATM    5  C   UNL     1     -11.563  14.646  68.672  1.00  0.00    -0.343 A  
HETATM    6  C   UNL     1     -10.613  12.644  67.694  1.00  0.00    -0.218 A  
HETATM    7  C   UNL     1     -11.280  13.262  68.743  1.00  0.00    -0.317 A  
HETATM    8  C   UNL     1     -10.277  13.403  66.587  1.00  0.00    -0.274 A  
HETATM    9  C   UNL     1     -11.633  12.406  69.785  1.00  0.00    -0.232 A  
HETATM   10  N   UNL     1     -12.314  12.874  70.916  1.00  0.00    -0.401 NA 
HETATM   11  N   UNL     1     -11.354  11.097  69.784  1.00  0.00    -0.274 NA 
HETATM   12  H1  UNL     1     -12.573  12.248  71.680  1.00  0.00     0.000 HD 
HETATM   13  C   UNL     1     -10.706  10.587  68.725  1.00  0.00    -0.216 A  
HETATM   14  H2  UNL     1     -13.159  13.350  70.600  1.00  0.00     0.000 HD 
HETATM   15  N   UNL     1     -10.315  11.340  67.692  1.00  0.00    -0.180 NA 
BRANCH   4  16
HETATM   16  O   UNL     1     -11.626  16.710  67.668  1.00  0.00     0.124 OA 
HETATM   17  C   UNL     1     -10.641  17.701  67.915  1.00  0.00    -0.387 C  
ENDBRANCH   4  16
BRANCH  13  18
HETATM   18  N   UNL     1     -10.532   9.227  68.639  1.00  0.00    -0.212 NA 
HETATM   19  C   UNL     1     -11.116   7.055  69.593  1.00  0.00    -0.219 C  
HETATM   20  C   UNL     1     -10.454   8.419  69.856  1.00  0.00    -0.222 C  
HETATM   21  N   UNL     1     -10.566   6.402  68.394  1.00  0.00    -0.228 N  
HETATM   22  C   UNL     1     -10.134   5.087  68.477  1.00  0.00    -0.114 C  
HETATM   23  C   UNL     1     -10.596   7.246  67.186  1.00  0.00    -0.346 C  
HETATM   24  C   UNL     1      -9.944   8.625  67.439  1.00  0.00    -0.210 C  
HETATM   25  O   UNL     1     -10.190   4.470  69.545  1.00  0.00    -0.168 OA 
BRANCH  22  26
HETATM   26  C   UNL     1      -9.627   4.394  67.204  1.00  0.00    -0.195 C  
HETATM   27  C   UNL     1      -8.288   5.000  66.784  1.00  0.00    -0.107 C  
HETATM   28  O   UNL     1      -7.725   4.280  65.677  1.00  0.00    -0.088 OA 
HETATM   29  C   UNL     1      -8.666   4.035  64.713  1.00  0.00    -0.119 A  
HETATM   30  C   UNL     1      -8.194   3.631  63.465  1.00  0.00    -0.089 A  
HETATM   31  C   UNL     1      -9.096   3.370  62.433  1.00  0.00    -0.088 A  
HETATM   32  C   UNL     1     -10.467   3.507  62.651  1.00  0.00    -0.187 A  
HETATM   33  C   UNL     1     -10.941   3.907  63.902  1.00  0.00    -0.051 A  
HETATM   34  C   UNL     1     -10.041   4.161  64.936  1.00  0.00    -0.202 A  
HETATM   35  O   UNL     1     -10.574   4.544  66.139  1.00  0.00    -0.254 OA 
ENDBRANCH  22  26
ENDBRANCH  13  18
ENDBRANCH   2   3
TORSDOF 4
ENDMDL
MODEL       75
REMARK 921   NORMALIZED FREE ENERGY PREDICTED BY IDOCK:   -5.29 KCAL/MOL
REMARK 922        TOTAL FREE ENERGY PREDICTED BY IDOCK:   -7.06 KCAL/MOL
REMARK 923 INTER-LIGAND FREE ENERGY PREDICTED BY IDOCK:   -7.12 KCAL/MOL
REMARK 924 INTRA-LIGAND FREE ENERGY PREDICTED BY IDOCK:    0.06 KCAL/MOL
REMARK 927      BINDING AFFINITY PREDICTED BY RF-SCORE:    0.00 PKD
ROOT
HETATM    1  C   UNL     1     -12.264  15.233  64.160  1.00  0.00    -0.114 C  
HETATM    2  O   UNL     1     -11.052  15.931  64.438  1.00  0.00    -0.486 OA 
ENDROOT
BRANCH   2   3
HETATM    3  C   UNL     1     -10.216  15.331  65.344  1.00  0.00    -0.383 A  
HETATM    4  C   UNL     1      -9.240  16.090  65.998  1.00  0.00    -0.340 A  
HETATM    5  C   UNL     1      -8.445  15.464  66.966  1.00  0.00    -0.262 A  
HETATM    6  C   UNL     1      -9.541  13.335  66.596  1.00  0.00    -0.262 A  
HETATM    7  C   UNL     1      -8.613  14.097  67.291  1.00  0.00    -0.231 A  
HETATM    8  C   UNL     1     -10.307  13.953  65.623  1.00  0.00    -0.337 A  
HETATM    9  C   UNL     1      -7.935  13.406  68.295  1.00  0.00    -0.147 A  
HETATM   10  N   UNL     1      -6.967  14.034  69.089  1.00  0.00    -0.117 NA 
HETATM   11  N   UNL     1      -8.153  12.114  68.569  1.00  0.00    -0.140 NA 
HETATM   12  H1  UNL     1      -6.471  13.528  69.824  1.00  0.00     0.000 HD 
HETATM   13  C   UNL     1      -9.073  11.458  67.844  1.00  0.00    -0.164 A  
HETATM   14  H2  UNL     1      -7.393  14.860  69.510  1.00  0.00     0.000 HD 
HETATM   15  N   UNL     1      -9.755  12.041  66.852  1.00  0.00    -0.200 NA 
BRANCH   4  16
HETATM   16  O   UNL     1      -8.931  17.415  65.857  1.00  0.00    -0.521 OA 
HETATM   17  C   UNL     1      -9.614  18.376  66.645  1.00  0.00    -0.320 C  
ENDBRANCH   4  16
BRANCH  13  18
HETATM   18  N   UNL     1      -9.412  10.175  68.198  1.00  0.00    -0.141 NA 
HETATM   19  C   UNL     1     -10.876   8.780  69.571  1.00  0.00    -0.142 C  
HETATM   20  C   UNL     1      -9.787   9.869  69.578  1.00  0.00    -0.223 C  
HETATM   21  N   UNL     1     -10.472   7.609  68.777  1.00  0.00    -0.207 N  
HETATM   22  C   UNL     1     -10.577   6.343  69.335  1.00  0.00    -0.257 C  
HETATM   23  C   UNL     1     -10.041   7.934  67.405  1.00  0.00    -0.226 C  
HETATM   24  C   UNL     1      -8.955   9.035  67.397  1.00  0.00    -0.124 C  
HETATM   25  O   UNL     1     -10.986   6.195  70.490  1.00  0.00    -0.274 OA 
BRANCH  22  26
HETATM   26  C   UNL     1     -10.220   5.123  68.473  1.00  0.00    -0.112 C  
HETATM   27  C   UNL     1      -8.723   4.837  68.581  1.00  0.00    -0.097 C  
HETATM   28  O   UNL     1      -8.384   3.622  67.895  1.00  0.00    -0.090 OA 
HETATM   29  C   UNL     1      -8.977   3.563  66.662  1.00  0.00    -0.149 A  
HETATM   30  C   UNL     1      -8.490   2.604  65.777  1.00  0.00    -0.103 A  
HETATM   31  C   UNL     1      -9.042   2.493  64.501  1.00  0.00    -0.128 A  
HETATM   32  C   UNL     1     -10.084   3.336  64.114  1.00  0.00    -0.175 A  
HETATM   33  C   UNL     1     -10.577   4.294  65.002  1.00  0.00    -0.168 A  
HETATM   34  C   UNL     1     -10.030   4.401  66.280  1.00  0.00    -0.235 A  
HETATM   35  O   UNL     1     -10.564   5.359  67.102  1.00  0.00    -0.242 OA 
ENDBRANCH  22  26
ENDBRANCH  13  18
ENDBRANCH   2   3
TORSDOF 4
ENDMDL
MODEL       76
REMARK 921   NORMALIZED FREE ENERGY PREDICTED BY IDOCK:   -5.22 KCAL/MOL
REMARK 922        TOTAL FREE ENERGY PREDICTED BY IDOCK:   -6.98 KCAL/MOL
REMARK 923 INTER-LIGAND FREE ENERGY PREDICTED BY IDOCK:   -6.45 KCAL/MOL
REMARK 924 INTRA-LIGAND FREE ENERGY PREDICTED BY IDOCK:   -0.52 KCAL/MOL
REMARK 927      BINDING AFFINITY PREDICTED BY RF-SCORE:    0.00 PKD
ROOT
HETATM    1  C   UNL     1      -5.497   5.831  66.497  1.00  0.00    -0.013 C  
HETATM    2  O   UNL     1      -6.623   6.307  65.762  1.00  0.00    -0.045 OA 
ENDROOT
BRANCH   2   3
HETATM    3  C   UNL     1      -7.662   6.789  66.516  1.00  0.00    -0.102 A  
HETATM    4  C   UNL     1      -8.384   5.919  67.339  1.00  0.00    -0.105 A  
HETATM    5  C   UNL     1      -9.397   6.453  68.146  1.00  0.00    -0.108 A  
HETATM    6  C   UNL     1      -9.015   8.683  67.282  1.00  0.00    -0.133 A  
HETATM    7  C   UNL     1      -9.694   7.835  68.145  1.00  0.00    -0.171 A  
HETATM    8  C   UNL     1      -8.033   8.147  66.468  1.00  0.00    -0.101 A  
HETATM    9  C   UNL     1     -10.619   8.474  68.971  1.00  0.00    -0.154 A  
HETATM   10  N   UNL     1     -11.385   7.759  69.901  1.00  0.00    -0.461 NA 
HETATM   11  N   UNL     1     -10.842   9.794  68.937  1.00  0.00    -0.214 NA 
HETATM   12  H1  UNL     1     -12.062   8.226  70.505  1.00  0.00     0.000 HD 
HETATM   13  C   UNL     1     -10.135  10.534  68.069  1.00  0.00    -0.165 A  
HETATM   14  H2  UNL     1     -10.746   7.232  70.495  1.00  0.00     0.000 HD 
HETATM   15  N   UNL     1      -9.242  10.000  67.230  1.00  0.00    -0.141 NA 
BRANCH   4  16
HETATM   16  O   UNL     1      -8.245   4.570  67.511  1.00  0.00    -0.100 OA 
HETATM   17  C   UNL     1      -9.243   3.853  68.220  1.00  0.00    -0.155 C  
ENDBRANCH   4  16
BRANCH  13  18
HETATM   18  N   UNL     1     -10.246  11.903  68.112  1.00  0.00    -0.193 NA 
HETATM   19  C   UNL     1     -11.671  13.793  68.721  1.00  0.00    -0.356 C  
HETATM   20  C   UNL     1     -11.531  12.544  67.831  1.00  0.00    -0.315 C  
HETATM   21  N   UNL     1     -10.507  14.684  68.599  1.00  0.00    -0.237 N  
HETATM   22  C   UNL     1     -10.711  16.033  68.346  1.00  0.00    -0.289 C  
HETATM   23  C   UNL     1      -9.214  14.016  68.827  1.00  0.00    -0.050 C  
HETATM   24  C   UNL     1      -9.063  12.753  67.948  1.00  0.00    -0.204 C  
HETATM   25  O   UNL     1     -11.851  16.483  68.206  1.00  0.00     0.015 OA 
BRANCH  22  26
HETATM   26  C   UNL     1      -9.493  16.967  68.291  1.00  0.00    -0.250 C  
HETATM   27  C   UNL     1      -9.911  18.383  68.681  1.00  0.00    -0.376 C  
HETATM   28  O   UNL     1      -8.768  19.248  68.770  1.00  0.00    -0.362 OA 
HETATM   29  C   UNL     1      -7.934  19.082  67.697  1.00  0.00    -0.259 A  
HETATM   30  C   UNL     1      -6.966  20.065  67.498  1.00  0.00    -0.284 A  
HETATM   31  C   UNL     1      -6.086  19.964  66.420  1.00  0.00    -0.177 A  
HETATM   32  C   UNL     1      -6.170  18.878  65.548  1.00  0.00    -0.292 A  
HETATM   33  C   UNL     1      -7.136  17.891  65.749  1.00  0.00    -0.215 A  
HETATM   34  C   UNL     1      -8.011  17.987  66.830  1.00  0.00    -0.231 A  
HETATM   35  O   UNL     1      -8.931  16.981  66.972  1.00  0.00    -0.210 OA 
ENDBRANCH  22  26
ENDBRANCH  13  18
ENDBRANCH   2   3
TORSDOF 4
ENDMDL
MODEL       77
REMARK 921   NORMALIZED FREE ENERGY PREDICTED BY IDOCK:   -5.18 KCAL/MOL
REMARK 922        TOTAL FREE ENERGY PREDICTED BY IDOCK:   -6.92 KCAL/MOL
REMARK 923 INTER-LIGAND FREE ENERGY PREDICTED BY IDOCK:   -6.47 KCAL/MOL
REMARK 924 INTRA-LIGAND FREE ENERGY PREDICTED BY IDOCK:   -0.44 KCAL/MOL
REMARK 927      BINDING AFFINITY PREDICTED BY RF-SCORE:    0.00 PKD
ROOT
HETATM    1  C   UNL     1     -10.523   4.456  65.532  1.00  0.00    -0.199 C  
HETATM    2  O   UNL     1      -9.308   4.229  66.244  1.00  0.00    -0.140 OA 
ENDROOT
BRANCH   2   3
HETATM    3  C   UNL     1      -8.730   5.341  66.801  1.00  0.00    -0.112 A  
HETATM    4  C   UNL     1      -7.562   5.210  67.559  1.00  0.00    -0.088 A  
HETATM    5  C   UNL     1      -6.959   6.370  68.060  1.00  0.00    -0.076 A  
HETATM    6  C   UNL     1      -8.692   7.771  67.110  1.00  0.00    -0.125 A  
HETATM    7  C   UNL     1      -7.501   7.653  67.812  1.00  0.00    -0.108 A  
HETATM    8  C   UNL     1      -9.298   6.619  66.639  1.00  0.00    -0.192 A  
HETATM    9  C   UNL     1      -6.932   8.869  68.190  1.00  0.00    -0.077 A  
HETATM   10  N   UNL     1      -5.727   8.922  68.903  1.00  0.00    -0.040 NA 
HETATM   11  N   UNL     1      -7.485  10.055  67.907  1.00  0.00    -0.088 NA 
HETATM   12  H1  UNL     1      -5.311   9.811  69.180  1.00  0.00     0.000 HD 
HETATM   13  C   UNL     1      -8.639  10.070  67.222  1.00  0.00    -0.125 A  
HETATM   14  H2  UNL     1      -5.027   8.398  68.377  1.00  0.00     0.000 HD 
HETATM   15  N   UNL     1      -9.260   8.950  66.836  1.00  0.00    -0.142 NA 
BRANCH   4  16
HETATM   16  O   UNL     1      -6.865   4.082  67.893  1.00  0.00    -0.046 OA 
HETATM   17  C   UNL     1      -6.140   4.048  69.112  1.00  0.00    -0.027 C  
ENDBRANCH   4  16
BRANCH  13  18
HETATM   18  N   UNL     1      -9.151  11.273  66.801  1.00  0.00    -0.169 NA 
HETATM   19  C   UNL     1     -10.925  12.378  65.535  1.00  0.00    -0.293 C  
HETATM   20  C   UNL     1      -9.744  11.393  65.469  1.00  0.00    -0.230 C  
HETATM   21  N   UNL     1     -10.534  13.660  66.143  1.00  0.00    -0.292 N  
HETATM   22  C   UNL     1     -10.843  14.843  65.488  1.00  0.00    -0.356 C  
HETATM   23  C   UNL     1      -9.885  13.525  67.460  1.00  0.00    -0.227 C  
HETATM   24  C   UNL     1      -8.703  12.529  67.411  1.00  0.00    -0.189 C  
HETATM   25  O   UNL     1     -11.422  14.828  64.398  1.00  0.00    -0.336 OA 
BRANCH  22  26
HETATM   26  C   UNL     1     -10.493  16.176  66.165  1.00  0.00    -0.325 C  
HETATM   27  C   UNL     1     -10.910  17.337  65.264  1.00  0.00     0.004 C  
HETATM   28  O   UNL     1     -10.720  18.596  65.929  1.00  0.00    -0.420 OA 
HETATM   29  C   UNL     1      -9.500  18.651  66.550  1.00  0.00    -0.322 A  
HETATM   30  C   UNL     1      -9.061  19.909  66.958  1.00  0.00    -0.446 A  
HETATM   31  C   UNL     1      -7.825  20.041  67.591  1.00  0.00    -0.341 A  
HETATM   32  C   UNL     1      -7.033  18.916  67.820  1.00  0.00    -0.234 A  
HETATM   33  C   UNL     1      -7.473  17.655  67.415  1.00  0.00    -0.209 A  
HETATM   34  C   UNL     1      -8.712  17.521  66.790  1.00  0.00    -0.257 A  
HETATM   35  O   UNL     1      -9.085  16.254  66.424  1.00  0.00    -0.248 OA 
ENDBRANCH  22  26
ENDBRANCH  13  18
ENDBRANCH   2   3
TORSDOF 4
ENDMDL
MODEL       78
REMARK 921   NORMALIZED FREE ENERGY PREDICTED BY IDOCK:   -5.12 KCAL/MOL
REMARK 922        TOTAL FREE ENERGY PREDICTED BY IDOCK:   -6.85 KCAL/MOL
REMARK 923 INTER-LIGAND FREE ENERGY PREDICTED BY IDOCK:   -6.23 KCAL/MOL
REMARK 924 INTRA-LIGAND FREE ENERGY PREDICTED BY IDOCK:   -0.63 KCAL/MOL
REMARK 927      BINDING AFFINITY PREDICTED BY RF-SCORE:    0.00 PKD
ROOT
HETATM    1  C   UNL     1     -12.178   6.833  70.859  1.00  0.00    -0.331 C  
HETATM    2  O   UNL     1     -10.927   6.816  71.547  1.00  0.00    -0.231 OA 
ENDROOT
BRANCH   2   3
HETATM    3  C   UNL     1      -9.840   7.212  70.811  1.00  0.00    -0.178 A  
HETATM    4  C   UNL     1      -9.194   6.293  69.977  1.00  0.00    -0.152 A  
HETATM    5  C   UNL     1      -8.128   6.744  69.188  1.00  0.00    -0.120 A  
HETATM    6  C   UNL     1      -8.309   8.985  70.090  1.00  0.00    -0.151 A  
HETATM    7  C   UNL     1      -7.704   8.093  69.217  1.00  0.00    -0.104 A  
HETATM    8  C   UNL     1      -9.345   8.528  70.887  1.00  0.00    -0.214 A  
HETATM    9  C   UNL     1      -6.715   8.656  68.411  1.00  0.00    -0.064 A  
HETATM   10  N   UNL     1      -6.010   7.890  67.474  1.00  0.00    -0.044 NA 
HETATM   11  N   UNL     1      -6.371   9.949  68.471  1.00  0.00    -0.050 NA 
HETATM   12  H1  UNL     1      -5.287   8.302  66.884  1.00  0.00     0.000 HD 
HETATM   13  C   UNL     1      -7.014  10.737  69.347  1.00  0.00    -0.116 A  
HETATM   14  H2  UNL     1      -6.690   7.435  66.865  1.00  0.00     0.000 HD 
HETATM   15  N   UNL     1      -7.961  10.273  70.169  1.00  0.00    -0.092 NA 
BRANCH   4  16
HETATM   16  O   UNL     1      -9.457   4.966  69.779  1.00  0.00    -0.126 OA 
HETATM   17  C   UNL     1      -9.783   4.509  68.477  1.00  0.00    -0.130 C  
ENDBRANCH   4  16
BRANCH  13  18
HETATM   18  N   UNL     1      -6.775  12.089  69.329  1.00  0.00    -0.107 NA 
HETATM   19  C   UNL     1      -5.206  13.869  69.917  1.00  0.00    -0.094 C  
HETATM   20  C   UNL     1      -6.090  12.728  70.453  1.00  0.00    -0.024 C  
HETATM   21  N   UNL     1      -5.968  14.795  69.063  1.00  0.00    -0.091 N  
HETATM   22  C   UNL     1      -5.894  16.158  69.309  1.00  0.00    -0.130 C  
HETATM   23  C   UNL     1      -6.701  14.135  67.968  1.00  0.00    -0.148 C  
HETATM   24  C   UNL     1      -7.585  12.979  68.492  1.00  0.00    -0.121 C  
HETATM   25  O   UNL     1      -5.215  16.595  70.243  1.00  0.00    -0.171 OA 
BRANCH  22  26
HETATM   26  C   UNL     1      -6.636  17.120  68.370  1.00  0.00    -0.164 C  
HETATM   27  C   UNL     1      -6.067  18.530  68.520  1.00  0.00    -0.197 C  
HETATM   28  O   UNL     1      -6.648  19.422  67.557  1.00  0.00    -0.206 OA 
HETATM   29  C   UNL     1      -8.007  19.266  67.491  1.00  0.00    -0.260 A  
HETATM   30  C   UNL     1      -8.722  20.269  66.840  1.00  0.00    -0.385 A  
HETATM   31  C   UNL     1     -10.110  20.179  66.739  1.00  0.00    -0.591 A  
HETATM   32  C   UNL     1     -10.781  19.084  67.285  1.00  0.00    -0.556 A  
HETATM   33  C   UNL     1     -10.065  18.076  67.933  1.00  0.00    -0.360 A  
HETATM   34  C   UNL     1      -8.677  18.161  68.027  1.00  0.00    -0.269 A  
HETATM   35  O   UNL     1      -8.037  17.135  68.671  1.00  0.00    -0.250 OA 
ENDBRANCH  22  26
ENDBRANCH  13  18
ENDBRANCH   2   3
TORSDOF 4
ENDMDL
MODEL       79
REMARK 921   NORMALIZED FREE ENERGY PREDICTED BY IDOCK:   -5.12 KCAL/MOL
REMARK 922        TOTAL FREE ENERGY PREDICTED BY IDOCK:   -6.85 KCAL/MOL
REMARK 923 INTER-LIGAND FREE ENERGY PREDICTED BY IDOCK:   -6.32 KCAL/MOL
REMARK 924 INTRA-LIGAND FREE ENERGY PREDICTED BY IDOCK:   -0.52 KCAL/MOL
REMARK 927      BINDING AFFINITY PREDICTED BY RF-SCORE:    0.00 PKD
ROOT
HETATM    1  C   UNL     1      -7.576   2.622  71.844  1.00  0.00    -0.048 C  
HETATM    2  O   UNL     1      -8.910   3.128  71.838  1.00  0.00    -0.079 OA 
ENDROOT
BRANCH   2   3
HETATM    3  C   UNL     1      -9.259   3.869  70.739  1.00  0.00    -0.128 A  
HETATM    4  C   UNL     1      -9.483   3.232  69.514  1.00  0.00    -0.135 A  
HETATM    5  C   UNL     1      -9.901   4.007  68.426  1.00  0.00    -0.051 A  
HETATM    6  C   UNL     1      -9.821   6.037  69.745  1.00  0.00    -0.165 A  
HETATM    7  C   UNL     1     -10.103   5.402  68.544  1.00  0.00    -0.242 A  
HETATM    8  C   UNL     1      -9.383   5.270  70.810  1.00  0.00    -0.205 A  
HETATM    9  C   UNL     1     -10.599   6.244  67.549  1.00  0.00    -0.278 A  
HETATM   10  N   UNL     1     -10.935   5.757  66.279  1.00  0.00    -0.737 NA 
HETATM   11  N   UNL     1     -10.786   7.558  67.729  1.00  0.00    -0.140 NA 
HETATM   12  H1  UNL     1     -11.297   6.373  65.551  1.00  0.00     0.000 HD 
HETATM   13  C   UNL     1     -10.487   8.084  68.926  1.00  0.00    -0.191 A  
HETATM   14  H2  UNL     1     -11.598   4.992  66.402  1.00  0.00     0.000 HD 
HETATM   15  N   UNL     1      -9.990   7.351  69.929  1.00  0.00    -0.186 NA 
BRANCH   4  16
HETATM   16  O   UNL     1      -9.375   1.907  69.192  1.00  0.00    -0.125 OA 
HETATM   17  C   UNL     1      -9.446   1.515  67.831  1.00  0.00    -0.116 C  
ENDBRANCH   4  16
BRANCH  13  18
HETATM   18  N   UNL     1     -10.800   9.397  69.177  1.00  0.00    -0.196 NA 
HETATM   19  C   UNL     1     -11.843  10.959  70.741  1.00  0.00    -0.319 C  
HETATM   20  C   UNL     1     -12.064   9.738  69.830  1.00  0.00     0.215 C  
HETATM   21  N   UNL     1     -11.213  12.074  70.017  1.00  0.00     0.037 N  
HETATM   22  C   UNL     1     -11.779  13.338  70.094  1.00  0.00    -0.184 C  
HETATM   23  C   UNL     1      -9.970  11.707  69.315  1.00  0.00     0.252 C  
HETATM   24  C   UNL     1     -10.175  10.474  68.404  1.00  0.00    -0.172 C  
HETATM   25  O   UNL     1     -12.811  13.529  70.745  1.00  0.00    -0.261 OA 
BRANCH  22  26
HETATM   26  C   UNL     1     -11.075  14.508  69.392  1.00  0.00    -0.268 C  
HETATM   27  C   UNL     1     -11.590  15.832  69.954  1.00  0.00    -0.351 C  
HETATM   28  O   UNL     1     -10.853  16.940  69.414  1.00  0.00    -0.308 OA 
HETATM   29  C   UNL     1     -10.694  16.818  68.059  1.00  0.00    -0.355 A  
HETATM   30  C   UNL     1     -10.280  17.957  67.372  1.00  0.00    -0.363 A  
HETATM   31  C   UNL     1     -10.103  17.909  65.989  1.00  0.00    -0.258 A  
HETATM   32  C   UNL     1     -10.335  16.720  65.296  1.00  0.00    -0.077 A  
HETATM   33  C   UNL     1     -10.745  15.577  65.984  1.00  0.00    -0.331 A  
HETATM   34  C   UNL     1     -10.914  15.622  67.367  1.00  0.00    -0.293 A  
HETATM   35  O   UNL     1     -11.313  14.463  67.980  1.00  0.00    -0.268 OA 
ENDBRANCH  22  26
ENDBRANCH  13  18
ENDBRANCH   2   3
TORSDOF 4
ENDMDL
MODEL       80
REMARK 921   NORMALIZED FREE ENERGY PREDICTED BY IDOCK:   -5.12 KCAL/MOL
REMARK 922        TOTAL FREE ENERGY PREDICTED BY IDOCK:   -6.84 KCAL/MOL
REMARK 923 INTER-LIGAND FREE ENERGY PREDICTED BY IDOCK:   -6.29 KCAL/MOL
REMARK 924 INTRA-LIGAND FREE ENERGY PREDICTED BY IDOCK:   -0.56 KCAL/MOL
REMARK 927      BINDING AFFINITY PREDICTED BY RF-SCORE:    0.00 PKD
ROOT
HETATM    1  C   UNL     1      -7.098   4.423  74.496  1.00  0.00    -0.071 C  
HETATM    2  O   UNL     1      -7.307   3.946  73.167  1.00  0.00    -0.064 OA 
ENDROOT
BRANCH   2   3
HETATM    3  C   UNL     1      -8.235   4.634  72.429  1.00  0.00    -0.114 A  
HETATM    4  C   UNL     1      -9.571   4.221  72.433  1.00  0.00    -0.141 A  
HETATM    5  C   UNL     1     -10.507   4.982  71.722  1.00  0.00    -0.246 A  
HETATM    6  C   UNL     1      -8.794   6.518  70.964  1.00  0.00    -0.139 A  
HETATM    7  C   UNL     1     -10.130   6.147  71.014  1.00  0.00    -0.231 A  
HETATM    8  C   UNL     1      -7.869   5.747  71.647  1.00  0.00    -0.109 A  
HETATM    9  C   UNL     1     -10.995   7.017  70.351  1.00  0.00    -0.268 A  
HETATM   10  N   UNL     1     -12.376   6.786  70.311  1.00  0.00    -0.561 NA 
HETATM   11  N   UNL     1     -10.578   8.119  69.714  1.00  0.00    -0.231 NA 
HETATM   12  H1  UNL     1     -13.009   7.422  69.825  1.00  0.00     0.000 HD 
HETATM   13  C   UNL     1      -9.265   8.397  69.721  1.00  0.00    -0.157 A  
HETATM   14  H2  UNL     1     -12.706   6.686  71.271  1.00  0.00     0.000 HD 
HETATM   15  N   UNL     1      -8.367   7.607  70.317  1.00  0.00    -0.130 NA 
BRANCH   4  16
HETATM   16  O   UNL     1     -10.148   3.154  73.064  1.00  0.00    -0.131 OA 
HETATM   17  C   UNL     1     -10.313   1.935  72.359  1.00  0.00    -0.156 C  
ENDBRANCH   4  16
BRANCH  13  18
HETATM   18  N   UNL     1      -8.833   9.590  69.195  1.00  0.00    -0.140 NA 
HETATM   19  C   UNL     1      -7.352  10.659  67.570  1.00  0.00    -0.091 C  
HETATM   20  C   UNL     1      -7.429   9.759  68.816  1.00  0.00    -0.075 C  
HETATM   21  N   UNL     1      -8.087  11.920  67.760  1.00  0.00    -0.137 N  
HETATM   22  C   UNL     1      -7.455  13.121  67.473  1.00  0.00    -0.160 C  
HETATM   23  C   UNL     1      -9.483  11.740  68.197  1.00  0.00    -0.193 C  
HETATM   24  C   UNL     1      -9.576  10.829  69.442  1.00  0.00    -0.030 C  
HETATM   25  O   UNL     1      -6.285  13.141  67.080  1.00  0.00    -0.282 OA 
BRANCH  22  26
HETATM   26  C   UNL     1      -8.253  14.427  67.608  1.00  0.00    -0.176 C  
HETATM   27  C   UNL     1      -9.138  14.620  66.378  1.00  0.00    -0.209 C  
HETATM   28  O   UNL     1      -9.996  15.760  66.538  1.00  0.00    -0.247 OA 
HETATM   29  C   UNL     1      -9.304  16.837  67.026  1.00  0.00    -0.233 A  
HETATM   30  C   UNL     1      -9.931  18.078  66.932  1.00  0.00    -0.340 A  
HETATM   31  C   UNL     1      -9.283  19.221  67.403  1.00  0.00    -0.356 A  
HETATM   32  C   UNL     1      -8.013  19.120  67.971  1.00  0.00    -0.331 A  
HETATM   33  C   UNL     1      -7.387  17.876  68.070  1.00  0.00    -0.230 A  
HETATM   34  C   UNL     1      -8.036  16.734  67.607  1.00  0.00    -0.177 A  
HETATM   35  O   UNL     1      -7.367  15.545  67.739  1.00  0.00    -0.129 OA 
ENDBRANCH  22  26
ENDBRANCH  13  18
ENDBRANCH   2   3
TORSDOF 4
ENDMDL
MODEL       81
REMARK 921   NORMALIZED FREE ENERGY PREDICTED BY IDOCK:   -5.11 KCAL/MOL
REMARK 922        TOTAL FREE ENERGY PREDICTED BY IDOCK:   -6.84 KCAL/MOL
REMARK 923 INTER-LIGAND FREE ENERGY PREDICTED BY IDOCK:   -6.14 KCAL/MOL
REMARK 924 INTRA-LIGAND FREE ENERGY PREDICTED BY IDOCK:   -0.70 KCAL/MOL
REMARK 927      BINDING AFFINITY PREDICTED BY RF-SCORE:    0.00 PKD
ROOT
HETATM    1  C   UNL     1      -6.349   4.873  71.531  1.00  0.00    -0.026 C  
HETATM    2  O   UNL     1      -5.572   4.896  70.335  1.00  0.00    -0.014 OA 
ENDROOT
BRANCH   2   3
HETATM    3  C   UNL     1      -6.224   5.336  69.212  1.00  0.00    -0.033 A  
HETATM    4  C   UNL     1      -6.443   4.456  68.147  1.00  0.00    -0.038 A  
HETATM    5  C   UNL     1      -7.169   4.916  67.042  1.00  0.00    -0.077 A  
HETATM    6  C   UNL     1      -7.409   7.119  68.020  1.00  0.00    -0.097 A  
HETATM    7  C   UNL     1      -7.681   6.234  66.987  1.00  0.00    -0.100 A  
HETATM    8  C   UNL     1      -6.668   6.668  69.098  1.00  0.00    -0.052 A  
HETATM    9  C   UNL     1      -8.486   6.757  65.976  1.00  0.00    -0.142 A  
HETATM   10  N   UNL     1      -8.855   5.990  64.863  1.00  0.00    -0.367 NA 
HETATM   11  N   UNL     1      -8.957   8.010  65.991  1.00  0.00    -0.173 NA 
HETATM   12  H1  UNL     1      -9.443   6.373  64.123  1.00  0.00     0.000 HD 
HETATM   13  C   UNL     1      -8.642   8.794  67.034  1.00  0.00    -0.116 A  
HETATM   14  H2  UNL     1      -9.295   5.135  65.203  1.00  0.00     0.000 HD 
HETATM   15  N   UNL     1      -7.862   8.377  68.036  1.00  0.00    -0.109 NA 
BRANCH   4  16
HETATM   16  O   UNL     1      -6.064   3.150  68.007  1.00  0.00    -0.026 OA 
HETATM   17  C   UNL     1      -6.970   2.121  68.370  1.00  0.00    -0.040 C  
ENDBRANCH   4  16
BRANCH  13  18
HETATM   18  N   UNL     1      -9.226  10.033  67.139  1.00  0.00    -0.141 NA 
HETATM   19  C   UNL     1     -11.325  11.260  67.388  1.00  0.00    -0.276 C  
HETATM   20  C   UNL     1     -10.518  10.292  66.504  1.00  0.00    -0.173 C  
HETATM   21  N   UNL     1     -10.556  12.470  67.716  1.00  0.00    -0.215 N  
HETATM   22  C   UNL     1     -11.132  13.715  67.511  1.00  0.00    -0.277 C  
HETATM   23  C   UNL     1      -9.231  12.198  68.303  1.00  0.00    -0.192 C  
HETATM   24  C   UNL     1      -8.414  11.218  67.430  1.00  0.00    -0.137 C  
HETATM   25  O   UNL     1     -12.269  13.815  67.041  1.00  0.00    -0.401 OA 
BRANCH  22  26
HETATM   26  C   UNL     1     -10.348  14.970  67.922  1.00  0.00    -0.241 C  
HETATM   27  C   UNL     1     -11.299  15.992  68.543  1.00  0.00    -0.382 C  
HETATM   28  O   UNL     1     -10.574  17.118  69.060  1.00  0.00    -0.324 OA 
HETATM   29  C   UNL     1      -9.631  17.555  68.168  1.00  0.00    -0.294 A  
HETATM   30  C   UNL     1      -9.081  18.814  68.403  1.00  0.00    -0.372 A  
HETATM   31  C   UNL     1      -8.119  19.326  67.532  1.00  0.00    -0.307 A  
HETATM   32  C   UNL     1      -7.705  18.576  66.430  1.00  0.00    -0.291 A  
HETATM   33  C   UNL     1      -8.252  17.314  66.196  1.00  0.00    -0.258 A  
HETATM   34  C   UNL     1      -9.207  16.798  67.070  1.00  0.00    -0.225 A  
HETATM   35  O   UNL     1      -9.698  15.551  66.785  1.00  0.00    -0.226 OA 
ENDBRANCH  22  26
ENDBRANCH  13  18
ENDBRANCH   2   3
TORSDOF 4
ENDMDL
MODEL       82
REMARK 921   NORMALIZED FREE ENERGY PREDICTED BY IDOCK:   -5.07 KCAL/MOL
REMARK 922        TOTAL FREE ENERGY PREDICTED BY IDOCK:   -6.78 KCAL/MOL
REMARK 923 INTER-LIGAND FREE ENERGY PREDICTED BY IDOCK:   -6.20 KCAL/MOL
REMARK 924 INTRA-LIGAND FREE ENERGY PREDICTED BY IDOCK:   -0.58 KCAL/MOL
REMARK 927      BINDING AFFINITY PREDICTED BY RF-SCORE:    0.00 PKD
ROOT
HETATM    1  C   UNL     1      -9.460   4.168  64.604  1.00  0.00    -0.168 C  
HETATM    2  O   UNL     1      -8.264   4.212  65.380  1.00  0.00    -0.104 OA 
ENDROOT
BRANCH   2   3
HETATM    3  C   UNL     1      -8.338   4.933  66.544  1.00  0.00    -0.107 A  
HETATM    4  C   UNL     1      -8.387   4.265  67.773  1.00  0.00    -0.098 A  
HETATM    5  C   UNL     1      -8.396   5.028  68.946  1.00  0.00    -0.083 A  
HETATM    6  C   UNL     1      -8.365   7.099  67.690  1.00  0.00    -0.117 A  
HETATM    7  C   UNL     1      -8.353   6.441  68.912  1.00  0.00    -0.121 A  
HETATM    8  C   UNL     1      -8.382   6.340  66.533  1.00  0.00    -0.114 A  
HETATM    9  C   UNL     1      -8.271   7.285  70.020  1.00  0.00    -0.132 A  
HETATM   10  N   UNL     1      -8.245   6.777  71.325  1.00  0.00    -0.118 NA 
HETATM   11  N   UNL     1      -8.212   8.619  69.921  1.00  0.00    -0.117 NA 
HETATM   12  H1  UNL     1      -8.186   7.394  72.135  1.00  0.00     0.000 HD 
HETATM   13  C   UNL     1      -8.228   9.166  68.695  1.00  0.00    -0.114 A  
HETATM   14  H2  UNL     1      -7.481   6.104  71.386  1.00  0.00     0.000 HD 
HETATM   15  N   UNL     1      -8.323   8.431  67.582  1.00  0.00    -0.129 NA 
BRANCH   4  16
HETATM   16  O   UNL     1      -8.408   2.922  68.031  1.00  0.00    -0.075 OA 
HETATM   17  C   UNL     1      -9.534   2.357  68.684  1.00  0.00    -0.128 C  
ENDBRANCH   4  16
BRANCH  13  18
HETATM   18  N   UNL     1      -8.030  10.518  68.564  1.00  0.00    -0.111 NA 
HETATM   19  C   UNL     1      -6.381  12.294  68.246  1.00  0.00    -0.055 C  
HETATM   20  C   UNL     1      -6.851  11.148  69.160  1.00  0.00    -0.102 C  
HETATM   21  N   UNL     1      -7.475  13.226  67.931  1.00  0.00    -0.125 N  
HETATM   22  C   UNL     1      -7.277  14.587  68.111  1.00  0.00    -0.130 C  
HETATM   23  C   UNL     1      -8.679  12.575  67.385  1.00  0.00    -0.189 C  
HETATM   24  C   UNL     1      -9.156  11.414  68.288  1.00  0.00    -0.179 C  
HETATM   25  O   UNL     1      -6.205  15.017  68.547  1.00  0.00    -0.086 OA 
BRANCH  22  26
HETATM   26  C   UNL     1      -8.400  15.557  67.714  1.00  0.00    -0.146 C  
HETATM   27  C   UNL     1      -8.301  15.878  66.223  1.00  0.00    -0.200 C  
HETATM   28  O   UNL     1      -9.417  16.673  65.795  1.00  0.00    -0.495 OA 
HETATM   29  C   UNL     1      -9.666  17.695  66.673  1.00  0.00    -0.301 A  
HETATM   30  C   UNL     1     -10.505  18.714  66.226  1.00  0.00    -0.468 A  
HETATM   31  C   UNL     1     -10.797  19.790  67.065  1.00  0.00    -0.465 A  
HETATM   32  C   UNL     1     -10.254  19.843  68.349  1.00  0.00    -0.557 A  
HETATM   33  C   UNL     1      -9.418  18.820  68.799  1.00  0.00    -0.380 A  
HETATM   34  C   UNL     1      -9.132  17.741  67.965  1.00  0.00    -0.269 A  
HETATM   35  O   UNL     1      -8.308  16.769  68.471  1.00  0.00    -0.222 OA 
ENDBRANCH  22  26
ENDBRANCH  13  18
ENDBRANCH   2   3
TORSDOF 4
ENDMDL
MODEL       83
REMARK 921   NORMALIZED FREE ENERGY PREDICTED BY IDOCK:   -5.00 KCAL/MOL
REMARK 922        TOTAL FREE ENERGY PREDICTED BY IDOCK:   -6.70 KCAL/MOL
REMARK 923 INTER-LIGAND FREE ENERGY PREDICTED BY IDOCK:   -6.02 KCAL/MOL
REMARK 924 INTRA-LIGAND FREE ENERGY PREDICTED BY IDOCK:   -0.68 KCAL/MOL
REMARK 927      BINDING AFFINITY PREDICTED BY RF-SCORE:    0.00 PKD
ROOT
HETATM    1  C   UNL     1     -12.341  15.768  71.090  1.00  0.00    -0.427 C  
HETATM    2  O   UNL     1     -11.029  15.826  70.533  1.00  0.00    -0.317 OA 
ENDROOT
BRANCH   2   3
HETATM    3  C   UNL     1     -10.878  15.229  69.308  1.00  0.00    -0.257 A  
HETATM    4  C   UNL     1     -10.948  16.003  68.145  1.00  0.00    -0.339 A  
HETATM    5  C   UNL     1     -10.725  15.377  66.913  1.00  0.00    -0.314 A  
HETATM    6  C   UNL     1     -10.420  13.223  67.978  1.00  0.00    -0.242 A  
HETATM    7  C   UNL     1     -10.428  13.996  66.826  1.00  0.00    -0.277 A  
HETATM    8  C   UNL     1     -10.667  13.842  69.191  1.00  0.00    -0.154 A  
HETATM    9  C   UNL     1     -10.106  13.301  65.661  1.00  0.00    -0.272 A  
HETATM   10  N   UNL     1     -10.068  13.939  64.415  1.00  0.00    -0.739 NA 
HETATM   11  N   UNL     1      -9.815  11.994  65.647  1.00  0.00    -0.244 NA 
HETATM   12  H1  UNL     1      -9.833  13.429  63.562  1.00  0.00     0.000 HD 
HETATM   13  C   UNL     1      -9.830  11.327  66.811  1.00  0.00    -0.199 A  
HETATM   14  H2  UNL     1      -9.436  14.736  64.489  1.00  0.00     0.000 HD 
HETATM   15  N   UNL     1     -10.146  11.914  67.971  1.00  0.00    -0.189 NA 
BRANCH   4  16
HETATM   16  O   UNL     1     -11.191  17.341  68.006  1.00  0.00    -0.191 OA 
HETATM   17  C   UNL     1     -10.386  18.107  67.124  1.00  0.00    -0.379 C  
ENDBRANCH   4  16
BRANCH  13  18
HETATM   18  N   UNL     1      -9.401  10.023  66.841  1.00  0.00    -0.156 NA 
HETATM   19  C   UNL     1      -8.628   8.123  65.511  1.00  0.00    -0.149 C  
HETATM   20  C   UNL     1      -9.790   9.099  65.775  1.00  0.00    -0.178 C  
HETATM   21  N   UNL     1      -8.173   7.468  66.748  1.00  0.00    -0.121 N  
HETATM   22  C   UNL     1      -8.046   6.087  66.775  1.00  0.00    -0.105 C  
HETATM   23  C   UNL     1      -7.839   8.406  67.834  1.00  0.00    -0.107 C  
HETATM   24  C   UNL     1      -8.993   9.399  68.103  1.00  0.00    -0.128 C  
HETATM   25  O   UNL     1      -8.327   5.408  65.784  1.00  0.00    -0.117 OA 
BRANCH  22  26
HETATM   26  C   UNL     1      -7.503   5.420  68.048  1.00  0.00    -0.077 C  
HETATM   27  C   UNL     1      -6.009   5.143  67.888  1.00  0.00    -0.022 C  
HETATM   28  O   UNL     1      -5.447   4.645  69.112  1.00  0.00    -0.010 OA 
HETATM   29  C   UNL     1      -6.240   3.674  69.664  1.00  0.00    -0.028 A  
HETATM   30  C   UNL     1      -5.668   2.895  70.668  1.00  0.00    -0.017 A  
HETATM   31  C   UNL     1      -6.415   1.882  71.271  1.00  0.00    -0.019 A  
HETATM   32  C   UNL     1      -7.733   1.655  70.874  1.00  0.00    -0.032 A  
HETATM   33  C   UNL     1      -8.308   2.438  69.872  1.00  0.00    -0.077 A  
HETATM   34  C   UNL     1      -7.565   3.455  69.275  1.00  0.00    -0.051 A  
HETATM   35  O   UNL     1      -8.192   4.190  68.302  1.00  0.00    -0.087 OA 
ENDBRANCH  22  26
ENDBRANCH  13  18
ENDBRANCH   2   3
TORSDOF 4
ENDMDL
MODEL       84
REMARK 921   NORMALIZED FREE ENERGY PREDICTED BY IDOCK:   -4.99 KCAL/MOL
REMARK 922        TOTAL FREE ENERGY PREDICTED BY IDOCK:   -6.69 KCAL/MOL
REMARK 923 INTER-LIGAND FREE ENERGY PREDICTED BY IDOCK:   -6.04 KCAL/MOL
REMARK 924 INTRA-LIGAND FREE ENERGY PREDICTED BY IDOCK:   -0.65 KCAL/MOL
REMARK 927      BINDING AFFINITY PREDICTED BY RF-SCORE:    0.00 PKD
ROOT
HETATM    1  C   UNL     1      -9.825  17.522  68.612  1.00  0.00    -0.338 C  
HETATM    2  O   UNL     1      -9.614  17.174  67.245  1.00  0.00    -0.239 OA 
ENDROOT
BRANCH   2   3
HETATM    3  C   UNL     1      -9.829  15.858  66.927  1.00  0.00    -0.243 A  
HETATM    4  C   UNL     1     -10.339  15.521  65.669  1.00  0.00    -0.384 A  
HETATM    5  C   UNL     1     -10.486  14.165  65.350  1.00  0.00    -0.372 A  
HETATM    6  C   UNL     1      -9.681  13.488  67.532  1.00  0.00    -0.228 A  
HETATM    7  C   UNL     1     -10.129  13.146  66.264  1.00  0.00    -0.285 A  
HETATM    8  C   UNL     1      -9.562  14.829  67.851  1.00  0.00    -0.210 A  
HETATM    9  C   UNL     1     -10.155  11.775  66.012  1.00  0.00    -0.231 A  
HETATM   10  N   UNL     1     -10.580  11.267  64.777  1.00  0.00    -0.315 NA 
HETATM   11  N   UNL     1      -9.784  10.858  66.914  1.00  0.00    -0.178 NA 
HETATM   12  H1  UNL     1     -10.600  10.263  64.593  1.00  0.00     0.000 HD 
HETATM   13  C   UNL     1      -9.363  11.283  68.115  1.00  0.00    -0.181 A  
HETATM   14  H2  UNL     1     -10.023  11.710  64.047  1.00  0.00     0.000 HD 
HETATM   15  N   UNL     1      -9.323  12.578  68.445  1.00  0.00    -0.185 NA 
BRANCH   4  16
HETATM   16  O   UNL     1     -10.717  16.336  64.639  1.00  0.00    -0.670 OA 
HETATM   17  C   UNL     1     -11.942  16.086  63.967  1.00  0.00     0.362 C  
ENDBRANCH   4  16
BRANCH  13  18
HETATM   18  N   UNL     1      -8.849  10.371  69.004  1.00  0.00    -0.164 NA 
HETATM   19  C   UNL     1      -6.936   9.777  70.404  1.00  0.00    -0.138 C  
HETATM   20  C   UNL     1      -7.426  10.033  68.967  1.00  0.00    -0.087 C  
HETATM   21  N   UNL     1      -7.777   8.792  71.101  1.00  0.00    -0.113 N  
HETATM   22  C   UNL     1      -7.174   7.718  71.740  1.00  0.00    -0.067 C  
HETATM   23  C   UNL     1      -9.215   9.112  71.083  1.00  0.00    -0.231 C  
HETATM   24  C   UNL     1      -9.719   9.382  69.646  1.00  0.00    -0.190 C  
HETATM   25  O   UNL     1      -5.948   7.574  71.713  1.00  0.00    -0.036 OA 
BRANCH  22  26
HETATM   26  C   UNL     1      -8.056   6.734  72.524  1.00  0.00    -0.104 C  
HETATM   27  C   UNL     1      -7.258   6.136  73.681  1.00  0.00    -0.084 C  
HETATM   28  O   UNL     1      -8.095   5.317  74.511  1.00  0.00    -0.101 OA 
HETATM   29  C   UNL     1      -8.883   4.487  73.758  1.00  0.00    -0.104 A  
HETATM   30  C   UNL     1      -9.504   3.435  74.428  1.00  0.00    -0.120 A  
HETATM   31  C   UNL     1     -10.316   2.546  73.723  1.00  0.00    -0.206 A  
HETATM   32  C   UNL     1     -10.511   2.715  72.352  1.00  0.00    -0.109 A  
HETATM   33  C   UNL     1      -9.894   3.772  71.681  1.00  0.00    -0.240 A  
HETATM   34  C   UNL     1      -9.088   4.664  72.386  1.00  0.00    -0.125 A  
HETATM   35  O   UNL     1      -8.517   5.682  71.667  1.00  0.00    -0.128 OA 
ENDBRANCH  22  26
ENDBRANCH  13  18
ENDBRANCH   2   3
TORSDOF 4
ENDMDL
MODEL       85
REMARK 921   NORMALIZED FREE ENERGY PREDICTED BY IDOCK:   -4.98 KCAL/MOL
REMARK 922        TOTAL FREE ENERGY PREDICTED BY IDOCK:   -6.68 KCAL/MOL
REMARK 923 INTER-LIGAND FREE ENERGY PREDICTED BY IDOCK:   -6.76 KCAL/MOL
REMARK 924 INTRA-LIGAND FREE ENERGY PREDICTED BY IDOCK:    0.08 KCAL/MOL
REMARK 927      BINDING AFFINITY PREDICTED BY RF-SCORE:    0.00 PKD
ROOT
HETATM    1  C   UNL     1      -9.528   1.731  68.949  1.00  0.00    -0.123 C  
HETATM    2  O   UNL     1      -9.602   1.695  70.374  1.00  0.00    -0.103 OA 
ENDROOT
BRANCH   2   3
HETATM    3  C   UNL     1      -9.849   2.896  70.986  1.00  0.00     0.008 A  
HETATM    4  C   UNL     1     -10.315   2.921  72.305  1.00  0.00    -0.046 A  
HETATM    5  C   UNL     1     -10.495   4.163  72.925  1.00  0.00    -0.246 A  
HETATM    6  C   UNL     1      -9.809   5.346  70.925  1.00  0.00    -0.188 A  
HETATM    7  C   UNL     1     -10.213   5.375  72.252  1.00  0.00    -0.244 A  
HETATM    8  C   UNL     1      -9.657   4.116  70.309  1.00  0.00    -0.269 A  
HETATM    9  C   UNL     1     -10.277   6.653  72.807  1.00  0.00    -0.187 A  
HETATM   10  N   UNL     1     -10.665   6.854  74.138  1.00  0.00    -0.475 NA 
HETATM   11  N   UNL     1      -9.977   7.764  72.122  1.00  0.00    -0.182 NA 
HETATM   12  H1  UNL     1     -10.712   7.789  74.544  1.00  0.00     0.000 HD 
HETATM   13  C   UNL     1      -9.593   7.636  70.842  1.00  0.00    -0.164 A  
HETATM   14  H2  UNL     1     -10.062   6.284  74.731  1.00  0.00     0.000 HD 
HETATM   15  N   UNL     1      -9.523   6.450  70.228  1.00  0.00    -0.161 NA 
BRANCH   4  16
HETATM   16  O   UNL     1     -10.620   1.881  73.138  1.00  0.00    -0.115 OA 
HETATM   17  C   UNL     1     -10.535   2.065  74.541  1.00  0.00    -0.136 C  
ENDBRANCH   4  16
BRANCH  13  18
HETATM   18  N   UNL     1      -9.150   8.745  70.164  1.00  0.00    -0.159 NA 
HETATM   19  C   UNL     1      -7.202  10.086  69.544  1.00  0.00    -0.105 C  
HETATM   20  C   UNL     1      -8.055   9.549  70.708  1.00  0.00    -0.035 C  
HETATM   21  N   UNL     1      -8.024  10.778  68.539  1.00  0.00    -0.122 N  
HETATM   22  C   UNL     1      -7.652  12.046  68.117  1.00  0.00    -0.120 C  
HETATM   23  C   UNL     1      -9.158   9.981  68.039  1.00  0.00    -0.131 C  
HETATM   24  C   UNL     1     -10.017   9.426  69.198  1.00  0.00    -0.182 C  
HETATM   25  O   UNL     1      -6.655  12.601  68.590  1.00  0.00    -0.072 OA 
BRANCH  22  26
HETATM   26  C   UNL     1      -8.476  12.731  67.017  1.00  0.00    -0.153 C  
HETATM   27  C   UNL     1      -8.393  14.248  67.180  1.00  0.00    -0.180 C  
HETATM   28  O   UNL     1      -9.041  14.916  66.087  1.00  0.00    -0.266 OA 
HETATM   29  C   UNL     1     -10.257  14.350  65.808  1.00  0.00    -0.337 A  
HETATM   30  C   UNL     1     -11.117  15.084  64.994  1.00  0.00    -0.421 A  
HETATM   31  C   UNL     1     -12.375  14.572  64.673  1.00  0.00    -0.419 A  
HETATM   32  C   UNL     1     -12.768  13.326  65.163  1.00  0.00    -0.464 A  
HETATM   33  C   UNL     1     -11.904  12.588  65.974  1.00  0.00    -0.478 A  
HETATM   34  C   UNL     1     -10.645  13.095  66.288  1.00  0.00    -0.284 A  
HETATM   35  O   UNL     1      -9.846  12.317  67.085  1.00  0.00    -0.200 OA 
ENDBRANCH  22  26
ENDBRANCH  13  18
ENDBRANCH   2   3
TORSDOF 4
ENDMDL
MODEL       86
REMARK 921   NORMALIZED FREE ENERGY PREDICTED BY IDOCK:   -4.88 KCAL/MOL
REMARK 922        TOTAL FREE ENERGY PREDICTED BY IDOCK:   -6.55 KCAL/MOL
REMARK 923 INTER-LIGAND FREE ENERGY PREDICTED BY IDOCK:   -5.90 KCAL/MOL
REMARK 924 INTRA-LIGAND FREE ENERGY PREDICTED BY IDOCK:   -0.65 KCAL/MOL
REMARK 927      BINDING AFFINITY PREDICTED BY RF-SCORE:    0.00 PKD
ROOT
HETATM    1  C   UNL     1     -10.840  19.813  65.831  1.00  0.00    -0.284 C  
HETATM    2  O   UNL     1     -10.804  19.093  67.062  1.00  0.00    -0.455 OA 
ENDROOT
BRANCH   2   3
HETATM    3  C   UNL     1      -9.752  18.227  67.212  1.00  0.00    -0.297 A  
HETATM    4  C   UNL     1      -8.514  18.708  67.651  1.00  0.00    -0.267 A  
HETATM    5  C   UNL     1      -7.478  17.789  67.857  1.00  0.00    -0.210 A  
HETATM    6  C   UNL     1      -8.873  15.941  67.145  1.00  0.00    -0.207 A  
HETATM    7  C   UNL     1      -7.661  16.403  67.638  1.00  0.00    -0.161 A  
HETATM    8  C   UNL     1      -9.885  16.856  66.918  1.00  0.00    -0.278 A  
HETATM    9  C   UNL     1      -6.724  15.403  67.896  1.00  0.00    -0.160 A  
HETATM   10  N   UNL     1      -5.452  15.705  68.399  1.00  0.00    -0.097 NA 
HETATM   11  N   UNL     1      -6.965  14.103  67.686  1.00  0.00    -0.179 NA 
HETATM   12  H1  UNL     1      -4.766  14.974  68.587  1.00  0.00     0.000 HD 
HETATM   13  C   UNL     1      -8.168  13.750  67.208  1.00  0.00    -0.159 A  
HETATM   14  H2  UNL     1      -5.572  16.250  69.253  1.00  0.00     0.000 HD 
HETATM   15  N   UNL     1      -9.117  14.646  66.917  1.00  0.00    -0.240 NA 
BRANCH   4  16
HETATM   16  O   UNL     1      -8.134  19.987  67.945  1.00  0.00    -0.299 OA 
HETATM   17  C   UNL     1      -6.767  20.349  67.836  1.00  0.00    -0.300 C  
ENDBRANCH   4  16
BRANCH  13  18
HETATM   18  N   UNL     1      -8.485  12.417  67.116  1.00  0.00    -0.181 NA 
HETATM   19  C   UNL     1     -10.185  10.789  66.457  1.00  0.00    -0.235 C  
HETATM   20  C   UNL     1      -9.851  11.967  67.389  1.00  0.00    -0.183 C  
HETATM   21  N   UNL     1      -9.168   9.727  66.531  1.00  0.00    -0.152 N  
HETATM   22  C   UNL     1      -9.572   8.416  66.736  1.00  0.00    -0.219 C  
HETATM   23  C   UNL     1      -7.790  10.201  66.311  1.00  0.00    -0.113 C  
HETATM   24  C   UNL     1      -7.444  11.392  67.234  1.00  0.00    -0.134 C  
HETATM   25  O   UNL     1     -10.767   8.138  66.875  1.00  0.00    -0.309 OA 
BRANCH  22  26
HETATM   26  C   UNL     1      -8.509   7.307  66.742  1.00  0.00    -0.121 C  
HETATM   27  C   UNL     1      -8.648   6.454  65.483  1.00  0.00    -0.109 C  
HETATM   28  O   UNL     1      -7.583   5.495  65.395  1.00  0.00    -0.076 OA 
HETATM   29  C   UNL     1      -7.378   4.867  66.595  1.00  0.00    -0.082 A  
HETATM   30  C   UNL     1      -6.603   3.710  66.572  1.00  0.00    -0.041 A  
HETATM   31  C   UNL     1      -6.358   3.015  67.756  1.00  0.00    -0.033 A  
HETATM   32  C   UNL     1      -6.884   3.480  68.962  1.00  0.00    -0.045 A  
HETATM   33  C   UNL     1      -7.656   4.642  68.986  1.00  0.00    -0.060 A  
HETATM   34  C   UNL     1      -7.895   5.342  67.805  1.00  0.00    -0.092 A  
HETATM   35  O   UNL     1      -8.657   6.477  67.901  1.00  0.00    -0.118 OA 
ENDBRANCH  22  26
ENDBRANCH  13  18
ENDBRANCH   2   3
TORSDOF 4
ENDMDL
MODEL       87
REMARK 921   NORMALIZED FREE ENERGY PREDICTED BY IDOCK:   -4.80 KCAL/MOL
REMARK 922        TOTAL FREE ENERGY PREDICTED BY IDOCK:   -6.45 KCAL/MOL
REMARK 923 INTER-LIGAND FREE ENERGY PREDICTED BY IDOCK:   -5.80 KCAL/MOL
REMARK 924 INTRA-LIGAND FREE ENERGY PREDICTED BY IDOCK:   -0.65 KCAL/MOL
REMARK 927      BINDING AFFINITY PREDICTED BY RF-SCORE:    0.00 PKD
ROOT
HETATM    1  C   UNL     1     -10.280   4.727  70.977  1.00  0.00    -0.168 C  
HETATM    2  O   UNL     1      -9.767   4.090  69.808  1.00  0.00    -0.204 OA 
ENDROOT
BRANCH   2   3
HETATM    3  C   UNL     1      -9.401   4.928  68.787  1.00  0.00    -0.135 A  
HETATM    4  C   UNL     1      -9.348   4.444  67.476  1.00  0.00    -0.154 A  
HETATM    5  C   UNL     1      -9.034   5.340  66.447  1.00  0.00    -0.128 A  
HETATM    6  C   UNL     1      -8.774   7.168  68.015  1.00  0.00    -0.127 A  
HETATM    7  C   UNL     1      -8.779   6.707  66.706  1.00  0.00    -0.121 A  
HETATM    8  C   UNL     1      -9.059   6.272  69.031  1.00  0.00    -0.129 A  
HETATM    9  C   UNL     1      -8.545   7.692  65.747  1.00  0.00    -0.139 A  
HETATM   10  N   UNL     1      -8.520   7.390  64.380  1.00  0.00    -0.362 NA 
HETATM   11  N   UNL     1      -8.329   8.977  66.056  1.00  0.00    -0.118 NA 
HETATM   12  H1  UNL     1      -8.349   8.111  63.678  1.00  0.00     0.000 HD 
HETATM   13  C   UNL     1      -8.344   9.330  67.351  1.00  0.00    -0.122 A  
HETATM   14  H2  UNL     1      -9.397   6.925  64.144  1.00  0.00     0.000 HD 
HETATM   15  N   UNL     1      -8.544   8.446  68.334  1.00  0.00    -0.138 NA 
BRANCH   4  16
HETATM   16  O   UNL     1      -9.582   3.182  67.006  1.00  0.00    -0.147 OA 
HETATM   17  C   UNL     1      -8.752   2.654  65.984  1.00  0.00    -0.128 C  
ENDBRANCH   4  16
BRANCH  13  18
HETATM   18  N   UNL     1      -8.264  10.660  67.682  1.00  0.00    -0.108 NA 
HETATM   19  C   UNL     1      -7.188  12.320  69.118  1.00  0.00     0.041 C  
HETATM   20  C   UNL     1      -8.070  11.059  69.076  1.00  0.00    -0.104 C  
HETATM   21  N   UNL     1      -7.715  13.384  68.248  1.00  0.00    -0.132 N  
HETATM   22  C   UNL     1      -7.878  14.661  68.765  1.00  0.00    -0.146 C  
HETATM   23  C   UNL     1      -7.960  12.957  66.860  1.00  0.00     0.079 C  
HETATM   24  C   UNL     1      -8.836  11.684  66.803  1.00  0.00    -0.184 C  
HETATM   25  O   UNL     1      -7.605  14.905  69.943  1.00  0.00    -0.130 OA 
BRANCH  22  26
HETATM   26  C   UNL     1      -8.362  15.780  67.830  1.00  0.00    -0.149 C  
HETATM   27  C   UNL     1      -7.159  16.528  67.256  1.00  0.00    -0.171 C  
HETATM   28  O   UNL     1      -7.576  17.490  66.275  1.00  0.00    -0.268 OA 
HETATM   29  C   UNL     1      -8.652  18.215  66.714  1.00  0.00    -0.259 A  
HETATM   30  C   UNL     1      -8.955  19.376  66.007  1.00  0.00    -0.180 A  
HETATM   31  C   UNL     1     -10.034  20.168  66.402  1.00  0.00    -0.573 A  
HETATM   32  C   UNL     1     -10.810  19.794  67.499  1.00  0.00    -0.406 A  
HETATM   33  C   UNL     1     -10.510  18.628  68.205  1.00  0.00    -0.315 A  
HETATM   34  C   UNL     1      -9.437  17.833  67.806  1.00  0.00    -0.262 A  
HETATM   35  O   UNL     1      -9.201  16.699  68.540  1.00  0.00    -0.218 OA 
ENDBRANCH  22  26
ENDBRANCH  13  18
ENDBRANCH   2   3
TORSDOF 4
ENDMDL
MODEL       88
REMARK 921   NORMALIZED FREE ENERGY PREDICTED BY IDOCK:   -4.74 KCAL/MOL
REMARK 922        TOTAL FREE ENERGY PREDICTED BY IDOCK:   -6.38 KCAL/MOL
REMARK 923 INTER-LIGAND FREE ENERGY PREDICTED BY IDOCK:   -5.65 KCAL/MOL
REMARK 924 INTRA-LIGAND FREE ENERGY PREDICTED BY IDOCK:   -0.73 KCAL/MOL
REMARK 927      BINDING AFFINITY PREDICTED BY RF-SCORE:    0.00 PKD
ROOT
HETATM    1  C   UNL     1      -6.040   3.588  70.004  1.00  0.00    -0.023 C  
HETATM    2  O   UNL     1      -5.791   4.016  68.666  1.00  0.00    -0.021 OA 
ENDROOT
BRANCH   2   3
HETATM    3  C   UNL     1      -6.642   4.975  68.181  1.00  0.00    -0.049 A  
HETATM    4  C   UNL     1      -7.818   4.592  67.526  1.00  0.00    -0.090 A  
HETATM    5  C   UNL     1      -8.699   5.594  67.100  1.00  0.00    -0.108 A  
HETATM    6  C   UNL     1      -7.232   7.339  67.919  1.00  0.00    -0.091 A  
HETATM    7  C   UNL     1      -8.427   6.964  67.322  1.00  0.00    -0.121 A  
HETATM    8  C   UNL     1      -6.352   6.346  68.314  1.00  0.00    -0.040 A  
HETATM    9  C   UNL     1      -9.277   8.027  67.016  1.00  0.00    -0.147 A  
HETATM   10  N   UNL     1     -10.523   7.816  66.413  1.00  0.00    -0.398 NA 
HETATM   11  N   UNL     1      -8.970   9.305  67.271  1.00  0.00    -0.123 NA 
HETATM   12  H1  UNL     1     -11.145   8.594  66.189  1.00  0.00     0.000 HD 
HETATM   13  C   UNL     1      -7.790   9.571  67.852  1.00  0.00    -0.091 A  
HETATM   14  H2  UNL     1     -11.044   7.154  66.989  1.00  0.00     0.000 HD 
HETATM   15  N   UNL     1      -6.910   8.613  68.162  1.00  0.00    -0.068 NA 
BRANCH   4  16
HETATM   16  O   UNL     1      -8.282   3.340  67.235  1.00  0.00    -0.081 OA 
HETATM   17  C   UNL     1      -9.287   2.763  68.053  1.00  0.00    -0.204 C  
ENDBRANCH   4  16
BRANCH  13  18
HETATM   18  N   UNL     1      -7.515  10.857  68.247  1.00  0.00    -0.089 NA 
HETATM   19  C   UNL     1      -6.101  12.280  69.644  1.00  0.00    -0.132 C  
HETATM   20  C   UNL     1      -7.128  11.133  69.631  1.00  0.00    -0.048 C  
HETATM   21  N   UNL     1      -6.584  13.455  68.902  1.00  0.00    -0.102 N  
HETATM   22  C   UNL     1      -6.536  14.703  69.505  1.00  0.00    -0.149 C  
HETATM   23  C   UNL     1      -7.025  13.156  67.528  1.00  0.00    -0.149 C  
HETATM   24  C   UNL     1      -8.049  11.998  67.498  1.00  0.00    -0.159 C  
HETATM   25  O   UNL     1      -6.112  14.832  70.657  1.00  0.00    -0.163 OA 
BRANCH  22  26
HETATM   26  C   UNL     1      -6.977  15.932  68.697  1.00  0.00    -0.127 C  
HETATM   27  C   UNL     1      -6.096  17.128  69.055  1.00  0.00    -0.185 C  
HETATM   28  O   UNL     1      -6.396  18.254  68.216  1.00  0.00    -0.191 OA 
HETATM   29  C   UNL     1      -7.748  18.444  68.103  1.00  0.00    -0.290 A  
HETATM   30  C   UNL     1      -8.167  19.669  67.587  1.00  0.00    -0.335 A  
HETATM   31  C   UNL     1      -9.530  19.934  67.449  1.00  0.00    -0.484 A  
HETATM   32  C   UNL     1     -10.470  18.973  67.823  1.00  0.00    -0.499 A  
HETATM   33  C   UNL     1     -10.051  17.745  68.336  1.00  0.00    -0.376 A  
HETATM   34  C   UNL     1      -8.690  17.476  68.466  1.00  0.00    -0.282 A  
HETATM   35  O   UNL     1      -8.347  16.249  68.972  1.00  0.00    -0.232 OA 
ENDBRANCH  22  26
ENDBRANCH  13  18
ENDBRANCH   2   3
TORSDOF 4
ENDMDL
MODEL       89
REMARK 921   NORMALIZED FREE ENERGY PREDICTED BY IDOCK:   -4.74 KCAL/MOL
REMARK 922        TOTAL FREE ENERGY PREDICTED BY IDOCK:   -6.38 KCAL/MOL
REMARK 923 INTER-LIGAND FREE ENERGY PREDICTED BY IDOCK:   -6.52 KCAL/MOL
REMARK 924 INTRA-LIGAND FREE ENERGY PREDICTED BY IDOCK:    0.15 KCAL/MOL
REMARK 927      BINDING AFFINITY PREDICTED BY RF-SCORE:    0.00 PKD
ROOT
HETATM    1  C   UNL     1     -11.016  15.253  64.817  1.00  0.00    -0.386 C  
HETATM    2  O   UNL     1     -10.032  15.039  65.829  1.00  0.00    -0.301 OA 
ENDROOT
BRANCH   2   3
HETATM    3  C   UNL     1     -10.401  14.198  66.847  1.00  0.00    -0.269 A  
HETATM    4  C   UNL     1     -11.179  14.685  67.903  1.00  0.00    -0.304 A  
HETATM    5  C   UNL     1     -11.595  13.786  68.893  1.00  0.00    -0.358 A  
HETATM    6  C   UNL     1     -10.428  11.952  67.825  1.00  0.00    -0.202 A  
HETATM    7  C   UNL     1     -11.250  12.415  68.842  1.00  0.00    -0.330 A  
HETATM    8  C   UNL     1      -9.999  12.849  66.863  1.00  0.00    -0.238 A  
HETATM    9  C   UNL     1     -11.684  11.429  69.728  1.00  0.00    -0.344 A  
HETATM   10  N   UNL     1     -12.522  11.734  70.808  1.00  0.00    -0.348 NA 
HETATM   11  N   UNL     1     -11.339  10.141  69.614  1.00  0.00    -0.248 NA 
HETATM   12  H1  UNL     1     -12.840  11.013  71.456  1.00  0.00     0.000 HD 
HETATM   13  C   UNL     1     -10.540   9.785  68.596  1.00  0.00    -0.221 A  
HETATM   14  H2  UNL     1     -13.346  12.212  70.442  1.00  0.00     0.000 HD 
HETATM   15  N   UNL     1     -10.065  10.670  67.713  1.00  0.00    -0.170 NA 
BRANCH   4  16
HETATM   16  O   UNL     1     -11.641  15.951  68.129  1.00  0.00    -0.329 OA 
HETATM   17  C   UNL     1     -10.713  17.013  68.285  1.00  0.00    -0.372 C  
ENDBRANCH   4  16
BRANCH  13  18
HETATM   18  N   UNL     1     -10.286   8.453  68.380  1.00  0.00    -0.202 NA 
HETATM   19  C   UNL     1      -9.737   6.748  66.718  1.00  0.00    -0.171 C  
HETATM   20  C   UNL     1     -10.767   7.802  67.161  1.00  0.00    -0.267 C  
HETATM   21  N   UNL     1      -9.399   5.820  67.809  1.00  0.00    -0.105 N  
HETATM   22  C   UNL     1      -9.453   4.454  67.578  1.00  0.00    -0.166 C  
HETATM   23  C   UNL     1      -8.971   6.488  69.051  1.00  0.00    -0.129 C  
HETATM   24  C   UNL     1      -9.991   7.558  69.503  1.00  0.00    -0.180 C  
HETATM   25  O   UNL     1      -9.798   4.013  66.477  1.00  0.00    -0.212 OA 
BRANCH  22  26
HETATM   26  C   UNL     1      -9.032   3.496  68.702  1.00  0.00    -0.130 C  
HETATM   27  C   UNL     1      -9.772   3.854  69.990  1.00  0.00    -0.172 C  
HETATM   28  O   UNL     1      -9.501   2.893  71.021  1.00  0.00    -0.138 OA 
HETATM   29  C   UNL     1      -8.164   2.601  71.090  1.00  0.00    -0.057 A  
HETATM   30  C   UNL     1      -7.728   1.935  72.234  1.00  0.00    -0.044 A  
HETATM   31  C   UNL     1      -6.378   1.612  72.376  1.00  0.00    -0.013 A  
HETATM   32  C   UNL     1      -5.469   1.951  71.373  1.00  0.00    -0.004 A  
HETATM   33  C   UNL     1      -5.907   2.613  70.225  1.00  0.00    -0.018 A  
HETATM   34  C   UNL     1      -7.256   2.929  70.079  1.00  0.00    -0.040 A  
HETATM   35  O   UNL     1      -7.619   3.576  68.925  1.00  0.00    -0.052 OA 
ENDBRANCH  22  26
ENDBRANCH  13  18
ENDBRANCH   2   3
TORSDOF 4
ENDMDL
MODEL       90
REMARK 921   NORMALIZED FREE ENERGY PREDICTED BY IDOCK:   -4.68 KCAL/MOL
REMARK 922        TOTAL FREE ENERGY PREDICTED BY IDOCK:   -6.31 KCAL/MOL
REMARK 923 INTER-LIGAND FREE ENERGY PREDICTED BY IDOCK:   -5.65 KCAL/MOL
REMARK 924 INTRA-LIGAND FREE ENERGY PREDICTED BY IDOCK:   -0.65 KCAL/MOL
REMARK 927      BINDING AFFINITY PREDICTED BY RF-SCORE:    0.00 PKD
ROOT
HETATM    1  C   UNL     1     -11.405  14.855  69.055  1.00  0.00    -0.292 C  
HETATM    2  O   UNL     1     -10.730  15.138  67.831  1.00  0.00    -0.256 OA 
ENDROOT
BRANCH   2   3
HETATM    3  C   UNL     1     -10.594  14.080  66.970  1.00  0.00    -0.279 A  
HETATM    4  C   UNL     1     -10.491  14.312  65.594  1.00  0.00    -0.324 A  
HETATM    5  C   UNL     1     -10.287  13.217  64.747  1.00  0.00    -0.369 A  
HETATM    6  C   UNL     1     -10.344  11.669  66.609  1.00  0.00    -0.222 A  
HETATM    7  C   UNL     1     -10.181  11.899  65.251  1.00  0.00    -0.309 A  
HETATM    8  C   UNL     1     -10.571  12.753  67.440  1.00  0.00    -0.241 A  
HETATM    9  C   UNL     1      -9.893  10.758  64.503  1.00  0.00    -0.310 A  
HETATM   10  N   UNL     1      -9.697  10.822  63.117  1.00  0.00    -0.334 NA 
HETATM   11  N   UNL     1      -9.785   9.538  65.043  1.00  0.00    -0.177 NA 
HETATM   12  H1  UNL     1      -9.487   9.987  62.570  1.00  0.00     0.000 HD 
HETATM   13  C   UNL     1      -9.958   9.412  66.368  1.00  0.00    -0.276 A  
HETATM   14  H2  UNL     1      -8.966  11.509  62.935  1.00  0.00     0.000 HD 
HETATM   15  N   UNL     1     -10.254  10.452  67.155  1.00  0.00    -0.211 NA 
BRANCH   4  16
HETATM   16  O   UNL     1     -10.538  15.493  64.907  1.00  0.00    -0.423 OA 
HETATM   17  C   UNL     1     -11.620  15.741  64.024  1.00  0.00     0.092 C  
ENDBRANCH   4  16
BRANCH  13  18
HETATM   18  N   UNL     1      -9.716   8.197  66.962  1.00  0.00    -0.192 NA 
HETATM   19  C   UNL     1      -9.859   5.770  66.719  1.00  0.00    -0.162 C  
HETATM   20  C   UNL     1     -10.651   7.088  66.771  1.00  0.00    -0.227 C  
HETATM   21  N   UNL     1      -8.968   5.621  67.881  1.00  0.00    -0.109 N  
HETATM   22  C   UNL     1      -9.002   4.444  68.614  1.00  0.00    -0.115 C  
HETATM   23  C   UNL     1      -8.070   6.769  68.098  1.00  0.00    -0.115 C  
HETATM   24  C   UNL     1      -8.852   8.103  68.142  1.00  0.00    -0.132 C  
HETATM   25  O   UNL     1      -9.781   3.535  68.312  1.00  0.00    -0.130 OA 
BRANCH  22  26
HETATM   26  C   UNL     1      -8.020   4.271  69.782  1.00  0.00    -0.056 C  
HETATM   27  C   UNL     1      -7.414   2.869  69.744  1.00  0.00    -0.044 C  
HETATM   28  O   UNL     1      -6.392   2.725  70.742  1.00  0.00    -0.022 OA 
HETATM   29  C   UNL     1      -6.799   3.233  71.947  1.00  0.00    -0.026 A  
HETATM   30  C   UNL     1      -6.042   2.881  73.063  1.00  0.00    -0.009 A  
HETATM   31  C   UNL     1      -6.402   3.356  74.324  1.00  0.00    -0.025 A  
HETATM   32  C   UNL     1      -7.514   4.187  74.467  1.00  0.00    -0.075 A  
HETATM   33  C   UNL     1      -8.270   4.544  73.350  1.00  0.00    -0.099 A  
HETATM   34  C   UNL     1      -7.906   4.076  72.088  1.00  0.00    -0.080 A  
HETATM   35  O   UNL     1      -8.689   4.469  71.033  1.00  0.00    -0.108 OA 
ENDBRANCH  22  26
ENDBRANCH  13  18
ENDBRANCH   2   3
TORSDOF 4
ENDMDL
MODEL       91
REMARK 921   NORMALIZED FREE ENERGY PREDICTED BY IDOCK:   -4.65 KCAL/MOL
REMARK 922        TOTAL FREE ENERGY PREDICTED BY IDOCK:   -6.26 KCAL/MOL
REMARK 923 INTER-LIGAND FREE ENERGY PREDICTED BY IDOCK:   -7.04 KCAL/MOL
REMARK 924 INTRA-LIGAND FREE ENERGY PREDICTED BY IDOCK:    0.78 KCAL/MOL
REMARK 927      BINDING AFFINITY PREDICTED BY RF-SCORE:    0.00 PKD
ROOT
HETATM    1  C   UNL     1      -9.454   3.034  71.908  1.00  0.00    -0.137 C  
HETATM    2  O   UNL     1     -10.113   4.299  71.861  1.00  0.00    -0.181 OA 
ENDROOT
BRANCH   2   3
HETATM    3  C   UNL     1      -9.954   5.008  70.698  1.00  0.00    -0.230 A  
HETATM    4  C   UNL     1      -9.706   4.330  69.500  1.00  0.00    -0.201 A  
HETATM    5  C   UNL     1      -9.614   5.076  68.319  1.00  0.00    -0.187 A  
HETATM    6  C   UNL     1      -9.956   7.154  69.515  1.00  0.00    -0.164 A  
HETATM    7  C   UNL     1      -9.770   6.482  68.316  1.00  0.00    -0.131 A  
HETATM    8  C   UNL     1     -10.020   6.415  70.683  1.00  0.00    -0.213 A  
HETATM    9  C   UNL     1      -9.783   7.301  67.188  1.00  0.00    -0.168 A  
HETATM   10  N   UNL     1      -9.611   6.776  65.900  1.00  0.00    -0.384 NA 
HETATM   11  N   UNL     1      -9.956   8.628  67.249  1.00  0.00    -0.198 NA 
HETATM   12  H1  UNL     1      -9.620   7.376  65.075  1.00  0.00     0.000 HD 
HETATM   13  C   UNL     1     -10.130   9.190  68.455  1.00  0.00    -0.196 A  
HETATM   14  H2  UNL     1     -10.308   6.044  65.764  1.00  0.00     0.000 HD 
HETATM   15  N   UNL     1     -10.114   8.480  69.587  1.00  0.00    -0.197 NA 
BRANCH   4  16
HETATM   16  O   UNL     1      -9.550   2.990  69.276  1.00  0.00    -0.143 OA 
HETATM   17  C   UNL     1      -9.202   2.537  67.978  1.00  0.00    -0.206 C  
ENDBRANCH   4  16
BRANCH  13  18
HETATM   18  N   UNL     1     -10.446  10.525  68.530  1.00  0.00    -0.177 NA 
HETATM   19  C   UNL     1     -11.648  12.245  69.783  1.00  0.00    -0.243 C  
HETATM   20  C   UNL     1     -11.776  10.939  68.978  1.00  0.00    -0.320 C  
HETATM   21  N   UNL     1     -10.908  13.276  69.038  1.00  0.00    -0.215 N  
HETATM   22  C   UNL     1     -11.453  14.545  68.915  1.00  0.00    -0.300 C  
HETATM   23  C   UNL     1      -9.593  12.830  68.543  1.00  0.00    -0.110 C  
HETATM   24  C   UNL     1      -9.705  11.513  67.741  1.00  0.00    -0.174 C  
HETATM   25  O   UNL     1     -12.555  14.809  69.406  1.00  0.00    -0.115 OA 
BRANCH  22  26
HETATM   26  C   UNL     1     -10.641  15.633  68.197  1.00  0.00    -0.274 C  
HETATM   27  C   UNL     1     -10.239  15.143  66.807  1.00  0.00    -0.264 C  
HETATM   28  O   UNL     1      -9.597  16.189  66.061  1.00  0.00    -0.305 OA 
HETATM   29  C   UNL     1      -8.665  16.842  66.823  1.00  0.00    -0.232 A  
HETATM   30  C   UNL     1      -7.760  17.655  66.143  1.00  0.00    -0.293 A  
HETATM   31  C   UNL     1      -6.779  18.346  66.854  1.00  0.00    -0.208 A  
HETATM   32  C   UNL     1      -6.707  18.228  68.243  1.00  0.00    -0.218 A  
HETATM   33  C   UNL     1      -7.616  17.418  68.924  1.00  0.00    -0.224 A  
HETATM   34  C   UNL     1      -8.602  16.733  68.216  1.00  0.00    -0.226 A  
HETATM   35  O   UNL     1      -9.465  15.959  68.947  1.00  0.00    -0.207 OA 
ENDBRANCH  22  26
ENDBRANCH  13  18
ENDBRANCH   2   3
TORSDOF 4
ENDMDL
MODEL       92
REMARK 921   NORMALIZED FREE ENERGY PREDICTED BY IDOCK:   -4.62 KCAL/MOL
REMARK 922        TOTAL FREE ENERGY PREDICTED BY IDOCK:   -6.22 KCAL/MOL
REMARK 923 INTER-LIGAND FREE ENERGY PREDICTED BY IDOCK:   -6.42 KCAL/MOL
REMARK 924 INTRA-LIGAND FREE ENERGY PREDICTED BY IDOCK:    0.19 KCAL/MOL
REMARK 927      BINDING AFFINITY PREDICTED BY RF-SCORE:    0.00 PKD
ROOT
HETATM    1  C   UNL     1      -5.494   7.015  65.840  1.00  0.00    -0.027 C  
HETATM    2  O   UNL     1      -6.261   7.874  64.997  1.00  0.00    -0.041 OA 
ENDROOT
BRANCH   2   3
HETATM    3  C   UNL     1      -7.376   8.427  65.571  1.00  0.00    -0.083 A  
HETATM    4  C   UNL     1      -8.406   7.598  66.028  1.00  0.00    -0.135 A  
HETATM    5  C   UNL     1      -9.502   8.188  66.669  1.00  0.00    -0.274 A  
HETATM    6  C   UNL     1      -8.587  10.408  66.354  1.00  0.00    -0.132 A  
HETATM    7  C   UNL     1      -9.583   9.587  66.863  1.00  0.00    -0.217 A  
HETATM    8  C   UNL     1      -7.519   9.822  65.699  1.00  0.00    -0.110 A  
HETATM    9  C   UNL     1     -10.585  10.259  67.562  1.00  0.00    -0.268 A  
HETATM   10  N   UNL     1     -11.660   9.573  68.140  1.00  0.00    -0.115 NA 
HETATM   11  N   UNL     1     -10.594  11.588  67.729  1.00  0.00    -0.186 NA 
HETATM   12  H1  UNL     1     -12.394  10.065  68.651  1.00  0.00     0.000 HD 
HETATM   13  C   UNL     1      -9.587  12.301  67.202  1.00  0.00    -0.200 A  
HETATM   14  H2  UNL     1     -11.280   8.852  68.753  1.00  0.00     0.000 HD 
HETATM   15  N   UNL     1      -8.597  11.737  66.502  1.00  0.00    -0.175 NA 
BRANCH   4  16
HETATM   16  O   UNL     1      -8.516   6.236  65.968  1.00  0.00    -0.131 OA 
HETATM   17  C   UNL     1      -8.882   5.516  67.134  1.00  0.00    -0.106 C  
ENDBRANCH   4  16
BRANCH  13  18
HETATM   18  N   UNL     1      -9.503  13.644  67.478  1.00  0.00    -0.214 NA 
HETATM   19  C   UNL     1     -10.130  15.428  69.026  1.00  0.00    -0.234 C  
HETATM   20  C   UNL     1     -10.647  14.346  68.061  1.00  0.00    -0.241 C  
HETATM   21  N   UNL     1      -9.140  16.307  68.382  1.00  0.00    -0.197 N  
HETATM   22  C   UNL     1      -9.299  17.682  68.468  1.00  0.00    -0.291 C  
HETATM   23  C   UNL     1      -8.022  15.587  67.748  1.00  0.00    -0.143 C  
HETATM   24  C   UNL     1      -8.527  14.489  66.783  1.00  0.00    -0.074 C  
HETATM   25  O   UNL     1     -10.267  18.170  69.059  1.00  0.00    -0.381 OA 
BRANCH  22  26
HETATM   26  C   UNL     1      -8.224  18.591  67.853  1.00  0.00    -0.261 C  
HETATM   27  C   UNL     1      -8.847  19.927  67.451  1.00  0.00    -0.336 C  
HETATM   28  O   UNL     1      -7.840  20.845  66.999  1.00  0.00    -0.251 OA 
HETATM   29  C   UNL     1      -6.966  20.240  66.134  1.00  0.00    -0.259 A  
HETATM   30  C   UNL     1      -6.143  21.080  65.387  1.00  0.00    -0.253 A  
HETATM   31  C   UNL     1      -5.234  20.533  64.481  1.00  0.00    -0.219 A  
HETATM   32  C   UNL     1      -5.145  19.149  64.329  1.00  0.00    -0.232 A  
HETATM   33  C   UNL     1      -5.966  18.307  65.081  1.00  0.00    -0.170 A  
HETATM   34  C   UNL     1      -6.869  18.852  65.991  1.00  0.00    -0.252 A  
HETATM   35  O   UNL     1      -7.641  17.969  66.701  1.00  0.00    -0.208 OA 
ENDBRANCH  22  26
ENDBRANCH  13  18
ENDBRANCH   2   3
TORSDOF 4
ENDMDL
MODEL       93
REMARK 921   NORMALIZED FREE ENERGY PREDICTED BY IDOCK:   -4.56 KCAL/MOL
REMARK 922        TOTAL FREE ENERGY PREDICTED BY IDOCK:   -6.16 KCAL/MOL
REMARK 923 INTER-LIGAND FREE ENERGY PREDICTED BY IDOCK:   -5.65 KCAL/MOL
REMARK 924 INTRA-LIGAND FREE ENERGY PREDICTED BY IDOCK:   -0.51 KCAL/MOL
REMARK 927      BINDING AFFINITY PREDICTED BY RF-SCORE:    0.00 PKD
ROOT
HETATM    1  C   UNL     1      -8.492   2.662  66.099  1.00  0.00    -0.098 C  
HETATM    2  O   UNL     1      -9.353   3.597  65.451  1.00  0.00    -0.147 OA 
ENDROOT
BRANCH   2   3
HETATM    3  C   UNL     1      -8.766   4.772  65.059  1.00  0.00    -0.147 A  
HETATM    4  C   UNL     1      -8.052   4.825  63.856  1.00  0.00    -0.108 A  
HETATM    5  C   UNL     1      -7.520   6.054  63.451  1.00  0.00    -0.076 A  
HETATM    6  C   UNL     1      -8.348   7.156  65.442  1.00  0.00    -0.118 A  
HETATM    7  C   UNL     1      -7.692   7.227  64.222  1.00  0.00    -0.124 A  
HETATM    8  C   UNL     1      -8.851   5.933  65.851  1.00  0.00    -0.154 A  
HETATM    9  C   UNL     1      -7.277   8.510  63.864  1.00  0.00    -0.097 A  
HETATM   10  N   UNL     1      -6.603   8.751  62.661  1.00  0.00    -0.095 NA 
HETATM   11  N   UNL     1      -7.488   9.587  64.631  1.00  0.00    -0.108 NA 
HETATM   12  H1  UNL     1      -6.299   9.690  62.399  1.00  0.00     0.000 HD 
HETATM   13  C   UNL     1      -8.134   9.421  65.795  1.00  0.00    -0.114 A  
HETATM   14  H2  UNL     1      -7.174   8.383  61.901  1.00  0.00     0.000 HD 
HETATM   15  N   UNL     1      -8.550   8.224  66.222  1.00  0.00    -0.130 NA 
BRANCH   4  16
HETATM   16  O   UNL     1      -7.793   3.829  62.956  1.00  0.00    -0.068 OA 
HETATM   17  C   UNL     1      -6.448   3.472  62.683  1.00  0.00    -0.022 C  
ENDBRANCH   4  16
BRANCH  13  18
HETATM   18  N   UNL     1      -8.483  10.528  66.530  1.00  0.00    -0.136 NA 
HETATM   19  C   UNL     1      -8.194  12.939  66.806  1.00  0.00     0.097 C  
HETATM   20  C   UNL     1      -7.492  11.569  66.804  1.00  0.00    -0.118 C  
HETATM   21  N   UNL     1      -9.357  12.955  67.707  1.00  0.00    -0.195 N  
HETATM   22  C   UNL     1      -9.480  13.977  68.637  1.00  0.00    -0.142 C  
HETATM   23  C   UNL     1     -10.321  11.868  67.460  1.00  0.00    -0.200 C  
HETATM   24  C   UNL     1      -9.628  10.486  67.444  1.00  0.00    -0.158 C  
HETATM   25  O   UNL     1      -8.617  14.856  68.726  1.00  0.00    -0.164 OA 
BRANCH  22  26
HETATM   26  C   UNL     1     -10.732  14.024  69.524  1.00  0.00     0.027 C  
HETATM   27  C   UNL     1     -11.908  14.586  68.727  1.00  0.00    -0.315 C  
HETATM   28  O   UNL     1     -13.124  14.514  69.488  1.00  0.00     0.346 OA 
HETATM   29  C   UNL     1     -12.933  14.950  70.772  1.00  0.00    -0.365 A  
HETATM   30  C   UNL     1     -14.078  15.228  71.516  1.00  0.00    -0.625 A  
HETATM   31  C   UNL     1     -13.959  15.682  72.830  1.00  0.00    -0.563 A  
HETATM   32  C   UNL     1     -12.697  15.851  73.399  1.00  0.00    -0.676 A  
HETATM   33  C   UNL     1     -11.549  15.568  72.656  1.00  0.00    -0.503 A  
HETATM   34  C   UNL     1     -11.667  15.107  71.347  1.00  0.00    -0.374 A  
HETATM   35  O   UNL     1     -10.501  14.844  70.676  1.00  0.00     0.021 OA 
ENDBRANCH  22  26
ENDBRANCH  13  18
ENDBRANCH   2   3
TORSDOF 4
ENDMDL
MODEL       94
REMARK 921   NORMALIZED FREE ENERGY PREDICTED BY IDOCK:   -4.56 KCAL/MOL
REMARK 922        TOTAL FREE ENERGY PREDICTED BY IDOCK:   -6.15 KCAL/MOL
REMARK 923 INTER-LIGAND FREE ENERGY PREDICTED BY IDOCK:   -5.51 KCAL/MOL
REMARK 924 INTRA-LIGAND FREE ENERGY PREDICTED BY IDOCK:   -0.64 KCAL/MOL
REMARK 927      BINDING AFFINITY PREDICTED BY RF-SCORE:    0.00 PKD
ROOT
HETATM    1  C   UNL     1      -5.409  18.779  71.196  1.00  0.00    -0.256 C  
HETATM    2  O   UNL     1      -5.736  19.342  69.927  1.00  0.00    -0.229 OA 
ENDROOT
BRANCH   2   3
HETATM    3  C   UNL     1      -6.575  18.593  69.143  1.00  0.00    -0.270 A  
HETATM    4  C   UNL     1      -7.484  19.231  68.291  1.00  0.00    -0.300 A  
HETATM    5  C   UNL     1      -8.281  18.440  67.456  1.00  0.00    -0.255 A  
HETATM    6  C   UNL     1      -7.323  16.401  68.344  1.00  0.00    -0.168 A  
HETATM    7  C   UNL     1      -8.182  17.029  67.455  1.00  0.00    -0.199 A  
HETATM    8  C   UNL     1      -6.555  17.186  69.187  1.00  0.00    -0.231 A  
HETATM    9  C   UNL     1      -8.866  16.161  66.603  1.00  0.00    -0.264 A  
HETATM   10  N   UNL     1      -9.769  16.638  65.645  1.00  0.00    -0.548 NA 
HETATM   11  N   UNL     1      -8.714  14.832  66.638  1.00  0.00    -0.233 NA 
HETATM   12  H1  UNL     1     -10.270  16.003  65.022  1.00  0.00     0.000 HD 
HETATM   13  C   UNL     1      -7.858  14.314  67.533  1.00  0.00    -0.194 A  
HETATM   14  H2  UNL     1      -9.283  17.325  65.068  1.00  0.00     0.000 HD 
HETATM   15  N   UNL     1      -7.176  15.073  68.397  1.00  0.00    -0.107 NA 
BRANCH   4  16
HETATM   16  O   UNL     1      -7.720  20.566  68.116  1.00  0.00    -0.131 OA 
HETATM   17  C   UNL     1      -7.286  21.198  66.923  1.00  0.00    -0.032 C  
ENDBRANCH   4  16
BRANCH  13  18
HETATM   18  N   UNL     1      -7.583  12.969  67.493  1.00  0.00    -0.159 NA 
HETATM   19  C   UNL     1      -6.041  11.204  68.188  1.00  0.00    -0.049 C  
HETATM   20  C   UNL     1      -6.199  12.506  67.382  1.00  0.00    -0.158 C  
HETATM   21  N   UNL     1      -7.050  10.201  67.811  1.00  0.00    -0.085 N  
HETATM   22  C   UNL     1      -6.641   8.914  67.497  1.00  0.00    -0.062 C  
HETATM   23  C   UNL     1      -8.437  10.695  67.872  1.00  0.00    -0.120 C  
HETATM   24  C   UNL     1      -8.609  12.009  67.075  1.00  0.00    -0.185 C  
HETATM   25  O   UNL     1      -5.444   8.610  67.514  1.00  0.00    -0.037 OA 
BRANCH  22  26
HETATM   26  C   UNL     1      -7.707   7.857  67.174  1.00  0.00    -0.101 C  
HETATM   27  C   UNL     1      -8.063   7.079  68.439  1.00  0.00    -0.124 C  
HETATM   28  O   UNL     1      -9.154   6.178  68.197  1.00  0.00    -0.114 OA 
HETATM   29  C   UNL     1      -8.977   5.486  67.028  1.00  0.00    -0.113 A  
HETATM   30  C   UNL     1      -9.787   4.369  66.832  1.00  0.00    -0.235 A  
HETATM   31  C   UNL     1      -9.658   3.613  65.667  1.00  0.00    -0.142 A  
HETATM   32  C   UNL     1      -8.723   3.977  64.698  1.00  0.00    -0.123 A  
HETATM   33  C   UNL     1      -7.914   5.098  64.891  1.00  0.00    -0.102 A  
HETATM   34  C   UNL     1      -8.049   5.859  66.051  1.00  0.00    -0.115 A  
HETATM   35  O   UNL     1      -7.227   6.950  66.174  1.00  0.00    -0.071 OA 
ENDBRANCH  22  26
ENDBRANCH  13  18
ENDBRANCH   2   3
TORSDOF 4
ENDMDL
MODEL       95
REMARK 921   NORMALIZED FREE ENERGY PREDICTED BY IDOCK:   -4.51 KCAL/MOL
REMARK 922        TOTAL FREE ENERGY PREDICTED BY IDOCK:   -6.10 KCAL/MOL
REMARK 923 INTER-LIGAND FREE ENERGY PREDICTED BY IDOCK:   -6.78 KCAL/MOL
REMARK 924 INTRA-LIGAND FREE ENERGY PREDICTED BY IDOCK:    0.68 KCAL/MOL
REMARK 927      BINDING AFFINITY PREDICTED BY RF-SCORE:    0.00 PKD
ROOT
HETATM    1  C   UNL     1      -5.607   1.471  67.427  1.00  0.00    -0.018 C  
HETATM    2  O   UNL     1      -6.314   1.543  66.189  1.00  0.00    -0.022 OA 
ENDROOT
BRANCH   2   3
HETATM    3  C   UNL     1      -6.709   2.798  65.804  1.00  0.00    -0.043 A  
HETATM    4  C   UNL     1      -6.501   3.218  64.486  1.00  0.00    -0.034 A  
HETATM    5  C   UNL     1      -6.974   4.479  64.106  1.00  0.00    -0.046 A  
HETATM    6  C   UNL     1      -7.804   4.924  66.338  1.00  0.00    -0.099 A  
HETATM    7  C   UNL     1      -7.654   5.322  65.017  1.00  0.00    -0.082 A  
HETATM    8  C   UNL     1      -7.311   3.687  66.715  1.00  0.00    -0.068 A  
HETATM    9  C   UNL     1      -8.237   6.552  64.715  1.00  0.00    -0.073 A  
HETATM   10  N   UNL     1      -8.176   7.093  63.424  1.00  0.00    -0.343 NA 
HETATM   11  N   UNL     1      -8.886   7.295  65.620  1.00  0.00    -0.075 NA 
HETATM   12  H1  UNL     1      -8.603   7.993  63.203  1.00  0.00     0.000 HD 
HETATM   13  C   UNL     1      -8.982   6.828  66.874  1.00  0.00    -0.128 A  
HETATM   14  H2  UNL     1      -8.550   6.401  62.775  1.00  0.00     0.000 HD 
HETATM   15  N   UNL     1      -8.437   5.667  67.252  1.00  0.00    -0.107 NA 
BRANCH   4  16
HETATM   16  O   UNL     1      -5.899   2.560  63.450  1.00  0.00    -0.009 OA 
HETATM   17  C   UNL     1      -6.638   1.598  62.714  1.00  0.00    -0.013 C  
ENDBRANCH   4  16
BRANCH  13  18
HETATM   18  N   UNL     1      -9.759   7.505  67.782  1.00  0.00    -0.142 NA 
HETATM   19  C   UNL     1     -10.570   7.577  70.086  1.00  0.00    -0.235 C  
HETATM   20  C   UNL     1     -10.536   6.767  68.778  1.00  0.00    -0.208 C  
HETATM   21  N   UNL     1     -11.026   8.958  69.862  1.00  0.00    -0.217 N  
HETATM   22  C   UNL     1     -12.041   9.473  70.654  1.00  0.00    -0.162 C  
HETATM   23  C   UNL     1     -10.274   9.675  68.816  1.00  0.00    -0.196 C  
HETATM   24  C   UNL     1     -10.222   8.867  67.499  1.00  0.00    -0.248 C  
HETATM   25  O   UNL     1     -12.574   8.781  71.526  1.00  0.00    -0.311 OA 
BRANCH  22  26
HETATM   26  C   UNL     1     -12.461  10.938  70.459  1.00  0.00    -0.351 C  
HETATM   27  C   UNL     1     -11.313  11.724  69.828  1.00  0.00    -0.170 C  
HETATM   28  O   UNL     1     -11.723  13.062  69.509  1.00  0.00    -0.297 OA 
HETATM   29  C   UNL     1     -12.418  13.630  70.544  1.00  0.00    -0.324 A  
HETATM   30  C   UNL     1     -12.598  15.010  70.495  1.00  0.00    -0.420 A  
HETATM   31  C   UNL     1     -13.291  15.657  71.519  1.00  0.00    -0.535 A  
HETATM   32  C   UNL     1     -13.806  14.922  72.587  1.00  0.00    -0.516 A  
HETATM   33  C   UNL     1     -13.630  13.538  72.634  1.00  0.00    -0.572 A  
HETATM   34  C   UNL     1     -12.946  12.890  71.608  1.00  0.00    -0.313 A  
HETATM   35  O   UNL     1     -12.813  11.530  71.715  1.00  0.00    -0.399 OA 
ENDBRANCH  22  26
ENDBRANCH  13  18
ENDBRANCH   2   3
TORSDOF 4
ENDMDL
MODEL       96
REMARK 921   NORMALIZED FREE ENERGY PREDICTED BY IDOCK:   -4.51 KCAL/MOL
REMARK 922        TOTAL FREE ENERGY PREDICTED BY IDOCK:   -6.09 KCAL/MOL
REMARK 923 INTER-LIGAND FREE ENERGY PREDICTED BY IDOCK:   -5.44 KCAL/MOL
REMARK 924 INTRA-LIGAND FREE ENERGY PREDICTED BY IDOCK:   -0.65 KCAL/MOL
REMARK 927      BINDING AFFINITY PREDICTED BY RF-SCORE:    0.00 PKD
ROOT
HETATM    1  C   UNL     1     -11.374  16.433  67.677  1.00  0.00     0.032 C  
HETATM    2  O   UNL     1     -10.361  16.066  68.612  1.00  0.00    -0.225 OA 
ENDROOT
BRANCH   2   3
HETATM    3  C   UNL     1      -9.444  15.150  68.165  1.00  0.00    -0.201 A  
HETATM    4  C   UNL     1      -8.190  15.583  67.721  1.00  0.00    -0.147 A  
HETATM    5  C   UNL     1      -7.252  14.619  67.331  1.00  0.00    -0.182 A  
HETATM    6  C   UNL     1      -8.810  12.817  67.767  1.00  0.00    -0.187 A  
HETATM    7  C   UNL     1      -7.544  13.236  67.383  1.00  0.00    -0.137 A  
HETATM    8  C   UNL     1      -9.742  13.774  68.126  1.00  0.00    -0.227 A  
HETATM    9  C   UNL     1      -6.654  12.201  67.102  1.00  0.00    -0.127 A  
HETATM   10  N   UNL     1      -5.336  12.458  66.703  1.00  0.00    -0.409 NA 
HETATM   11  N   UNL     1      -6.986  10.907  67.189  1.00  0.00    -0.092 NA 
HETATM   12  H1  UNL     1      -4.684  11.700  66.497  1.00  0.00     0.000 HD 
HETATM   13  C   UNL     1      -8.234  10.596  67.571  1.00  0.00    -0.111 A  
HETATM   14  H2  UNL     1      -4.906  13.058  67.407  1.00  0.00     0.000 HD 
HETATM   15  N   UNL     1      -9.155  11.527  67.842  1.00  0.00    -0.162 NA 
BRANCH   4  16
HETATM   16  O   UNL     1      -7.697  16.854  67.617  1.00  0.00    -0.160 OA 
HETATM   17  C   UNL     1      -7.199  17.503  68.776  1.00  0.00    -0.257 C  
ENDBRANCH   4  16
BRANCH  13  18
HETATM   18  N   UNL     1      -8.555   9.280  67.800  1.00  0.00    -0.117 NA 
HETATM   19  C   UNL     1      -9.036   7.113  66.777  1.00  0.00    -0.137 C  
HETATM   20  C   UNL     1      -9.477   8.583  66.902  1.00  0.00    -0.183 C  
HETATM   21  N   UNL     1      -8.871   6.478  68.094  1.00  0.00    -0.116 N  
HETATM   22  C   UNL     1      -9.487   5.259  68.340  1.00  0.00    -0.124 C  
HETATM   23  C   UNL     1      -7.987   7.218  69.011  1.00  0.00    -0.119 C  
HETATM   24  C   UNL     1      -8.412   8.700  69.138  1.00  0.00    -0.124 C  
HETATM   25  O   UNL     1     -10.182   4.718  67.474  1.00  0.00    -0.140 OA 
BRANCH  22  26
HETATM   26  C   UNL     1      -9.252   4.571  69.692  1.00  0.00    -0.130 C  
HETATM   27  C   UNL     1      -9.440   3.062  69.543  1.00  0.00    -0.103 C  
HETATM   28  O   UNL     1      -9.094   2.380  70.758  1.00  0.00    -0.090 OA 
HETATM   29  C   UNL     1      -9.635   3.004  71.850  1.00  0.00    -0.152 A  
HETATM   30  C   UNL     1      -9.643   2.284  73.043  1.00  0.00    -0.130 A  
HETATM   31  C   UNL     1     -10.185   2.855  74.195  1.00  0.00    -0.196 A  
HETATM   32  C   UNL     1     -10.712   4.146  74.153  1.00  0.00    -0.289 A  
HETATM   33  C   UNL     1     -10.700   4.870  72.960  1.00  0.00    -0.305 A  
HETATM   34  C   UNL     1     -10.152   4.304  71.811  1.00  0.00    -0.157 A  
HETATM   35  O   UNL     1     -10.167   5.071  70.675  1.00  0.00    -0.238 OA 
ENDBRANCH  22  26
ENDBRANCH  13  18
ENDBRANCH   2   3
TORSDOF 4
ENDMDL
MODEL       97
REMARK 921   NORMALIZED FREE ENERGY PREDICTED BY IDOCK:   -4.49 KCAL/MOL
REMARK 922        TOTAL FREE ENERGY PREDICTED BY IDOCK:   -6.07 KCAL/MOL
REMARK 923 INTER-LIGAND FREE ENERGY PREDICTED BY IDOCK:   -6.26 KCAL/MOL
REMARK 924 INTRA-LIGAND FREE ENERGY PREDICTED BY IDOCK:    0.18 KCAL/MOL
REMARK 927      BINDING AFFINITY PREDICTED BY RF-SCORE:    0.00 PKD
ROOT
HETATM    1  C   UNL     1      -8.821   2.657  68.977  1.00  0.00    -0.099 C  
HETATM    2  O   UNL     1      -9.305   3.280  70.166  1.00  0.00    -0.145 OA 
ENDROOT
BRANCH   2   3
HETATM    3  C   UNL     1      -8.874   4.564  70.381  1.00  0.00    -0.087 A  
HETATM    4  C   UNL     1      -7.872   4.811  71.326  1.00  0.00    -0.088 A  
HETATM    5  C   UNL     1      -7.407   6.123  71.476  1.00  0.00    -0.089 A  
HETATM    6  C   UNL     1      -8.957   6.944  69.805  1.00  0.00    -0.141 A  
HETATM    7  C   UNL     1      -7.922   7.186  70.697  1.00  0.00    -0.101 A  
HETATM    8  C   UNL     1      -9.431   5.650  69.679  1.00  0.00    -0.180 A  
HETATM    9  C   UNL     1      -7.467   8.504  70.709  1.00  0.00    -0.072 A  
HETATM   10  N   UNL     1      -6.425   8.910  71.552  1.00  0.00    -0.074 NA 
HETATM   11  N   UNL     1      -7.984   9.463  69.930  1.00  0.00    -0.113 NA 
HETATM   12  H1  UNL     1      -6.093   9.875  71.562  1.00  0.00     0.000 HD 
HETATM   13  C   UNL     1      -8.982   9.134  69.097  1.00  0.00    -0.144 A  
HETATM   14  H2  UNL     1      -5.624   8.304  71.377  1.00  0.00     0.000 HD 
HETATM   15  N   UNL     1      -9.489   7.898  69.035  1.00  0.00    -0.151 NA 
BRANCH   4  16
HETATM   16  O   UNL     1      -7.226   3.937  72.155  1.00  0.00    -0.048 OA 
HETATM   17  C   UNL     1      -6.067   3.265  71.689  1.00  0.00    -0.014 C  
ENDBRANCH   4  16
BRANCH  13  18
HETATM   18  N   UNL     1      -9.433  10.066  68.193  1.00  0.00    -0.138 NA 
HETATM   19  C   UNL     1     -10.575  10.421  66.062  1.00  0.00    -0.065 C  
HETATM   20  C   UNL     1      -9.354   9.793  66.758  1.00  0.00    -0.152 C  
HETATM   21  N   UNL     1     -10.727  11.844  66.403  1.00  0.00    -0.256 N  
HETATM   22  C   UNL     1     -10.889  12.771  65.384  1.00  0.00    -0.286 C  
HETATM   23  C   UNL     1     -10.748  12.114  67.852  1.00  0.00    -0.207 C  
HETATM   24  C   UNL     1      -9.531  11.480  68.566  1.00  0.00    -0.174 C  
HETATM   25  O   UNL     1     -10.887  12.416  64.202  1.00  0.00    -0.315 OA 
BRANCH  22  26
HETATM   26  C   UNL     1     -11.116  14.244  65.754  1.00  0.00    -0.310 C  
HETATM   27  C   UNL     1     -10.370  15.144  64.770  1.00  0.00    -0.135 C  
HETATM   28  O   UNL     1     -10.674  16.527  65.009  1.00  0.00    -0.662 OA 
HETATM   29  C   UNL     1     -10.620  16.825  66.345  1.00  0.00    -0.192 A  
HETATM   30  C   UNL     1     -10.583  18.176  66.684  1.00  0.00    -0.296 A  
HETATM   31  C   UNL     1     -10.520  18.554  68.025  1.00  0.00    -0.395 A  
HETATM   32  C   UNL     1     -10.500  17.581  69.025  1.00  0.00    -0.250 A  
HETATM   33  C   UNL     1     -10.541  16.228  68.686  1.00  0.00    -0.297 A  
HETATM   34  C   UNL     1     -10.612  15.850  67.347  1.00  0.00    -0.315 A  
HETATM   35  O   UNL     1     -10.655  14.505  67.085  1.00  0.00    -0.269 OA 
ENDBRANCH  22  26
ENDBRANCH  13  18
ENDBRANCH   2   3
TORSDOF 4
ENDMDL
MODEL       98
REMARK 921   NORMALIZED FREE ENERGY PREDICTED BY IDOCK:   -4.42 KCAL/MOL
REMARK 922        TOTAL FREE ENERGY PREDICTED BY IDOCK:   -5.98 KCAL/MOL
REMARK 923 INTER-LIGAND FREE ENERGY PREDICTED BY IDOCK:   -6.77 KCAL/MOL
REMARK 924 INTRA-LIGAND FREE ENERGY PREDICTED BY IDOCK:    0.78 KCAL/MOL
REMARK 927      BINDING AFFINITY PREDICTED BY RF-SCORE:    0.00 PKD
ROOT
HETATM    1  C   UNL     1      -8.845   4.221  71.271  1.00  0.00    -0.111 C  
HETATM    2  O   UNL     1      -8.735   5.607  71.590  1.00  0.00    -0.134 OA 
ENDROOT
BRANCH   2   3
HETATM    3  C   UNL     1      -8.217   6.404  70.601  1.00  0.00    -0.125 A  
HETATM    4  C   UNL     1      -7.057   6.009  69.927  1.00  0.00    -0.072 A  
HETATM    5  C   UNL     1      -6.589   6.811  68.879  1.00  0.00    -0.051 A  
HETATM    6  C   UNL     1      -8.378   8.411  69.204  1.00  0.00    -0.122 A  
HETATM    7  C   UNL     1      -7.263   7.993  68.493  1.00  0.00    -0.085 A  
HETATM    8  C   UNL     1      -8.821   7.628  70.256  1.00  0.00    -0.145 A  
HETATM    9  C   UNL     1      -6.929   8.809  67.413  1.00  0.00    -0.075 A  
HETATM   10  N   UNL     1      -5.830   8.523  66.592  1.00  0.00    -0.047 NA 
HETATM   11  N   UNL     1      -7.620   9.908  67.085  1.00  0.00    -0.092 NA 
HETATM   12  H1  UNL     1      -5.585   9.120  65.802  1.00  0.00     0.000 HD 
HETATM   13  C   UNL     1      -8.687  10.233  67.831  1.00  0.00    -0.122 A  
HETATM   14  H2  UNL     1      -5.937   7.570  66.244  1.00  0.00     0.000 HD 
HETATM   15  N   UNL     1      -9.065   9.515  68.894  1.00  0.00    -0.138 NA 
BRANCH   4  16
HETATM   16  O   UNL     1      -6.275   4.903  70.119  1.00  0.00    -0.023 OA 
HETATM   17  C   UNL     1      -5.128   4.998  70.947  1.00  0.00    -0.004 C  
ENDBRANCH   4  16
BRANCH  13  18
HETATM   18  N   UNL     1      -9.490  11.273  67.432  1.00  0.00    -0.165 NA 
HETATM   19  C   UNL     1     -11.770  11.971  66.894  1.00  0.00    -0.266 C  
HETATM   20  C   UNL     1     -10.610  11.029  66.523  1.00  0.00    -0.254 C  
HETATM   21  N   UNL     1     -11.334  13.375  66.960  1.00  0.00    -0.305 N  
HETATM   22  C   UNL     1     -12.054  14.340  66.271  1.00  0.00    -0.413 C  
HETATM   23  C   UNL     1     -10.169  13.601  67.834  1.00  0.00    -0.250 C  
HETATM   24  C   UNL     1      -9.000  12.654  67.479  1.00  0.00    -0.187 C  
HETATM   25  O   UNL     1     -13.039  14.030  65.594  1.00  0.00    -0.639 OA 
BRANCH  22  26
HETATM   26  C   UNL     1     -11.633  15.811  66.402  1.00  0.00     0.410 C  
HETATM   27  C   UNL     1     -11.092  16.314  65.065  1.00  0.00    -0.254 C  
HETATM   28  O   UNL     1     -10.818  17.723  65.121  1.00  0.00    -0.671 OA 
HETATM   29  C   UNL     1     -10.146  18.054  66.268  1.00  0.00    -0.363 A  
HETATM   30  C   UNL     1      -9.549  19.312  66.302  1.00  0.00    -0.411 A  
HETATM   31  C   UNL     1      -8.842  19.714  67.436  1.00  0.00    -0.376 A  
HETATM   32  C   UNL     1      -8.739  18.860  68.534  1.00  0.00    -0.382 A  
HETATM   33  C   UNL     1      -9.342  17.602  68.502  1.00  0.00    -0.291 A  
HETATM   34  C   UNL     1     -10.054  17.202  67.373  1.00  0.00    -0.301 A  
HETATM   35  O   UNL     1     -10.625  15.956  67.410  1.00  0.00    -0.305 OA 
ENDBRANCH  22  26
ENDBRANCH  13  18
ENDBRANCH   2   3
TORSDOF 4
ENDMDL
MODEL       99
REMARK 921   NORMALIZED FREE ENERGY PREDICTED BY IDOCK:   -4.40 KCAL/MOL
REMARK 922        TOTAL FREE ENERGY PREDICTED BY IDOCK:   -5.96 KCAL/MOL
REMARK 923 INTER-LIGAND FREE ENERGY PREDICTED BY IDOCK:   -5.33 KCAL/MOL
REMARK 924 INTRA-LIGAND FREE ENERGY PREDICTED BY IDOCK:   -0.62 KCAL/MOL
REMARK 927      BINDING AFFINITY PREDICTED BY RF-SCORE:    0.00 PKD
ROOT
HETATM    1  C   UNL     1      -5.410  18.771  71.195  1.00  0.00    -0.256 C  
HETATM    2  O   UNL     1      -5.687  19.290  69.895  1.00  0.00    -0.228 OA 
ENDROOT
BRANCH   2   3
HETATM    3  C   UNL     1      -6.536  18.539  69.124  1.00  0.00    -0.265 A  
HETATM    4  C   UNL     1      -7.358  19.166  68.181  1.00  0.00    -0.270 A  
HETATM    5  C   UNL     1      -8.166  18.367  67.364  1.00  0.00    -0.248 A  
HETATM    6  C   UNL     1      -7.391  16.344  68.448  1.00  0.00    -0.168 A  
HETATM    7  C   UNL     1      -8.162  16.956  67.471  1.00  0.00    -0.191 A  
HETATM    8  C   UNL     1      -6.614  17.140  69.271  1.00  0.00    -0.234 A  
HETATM    9  C   UNL     1      -8.861  16.072  66.650  1.00  0.00    -0.272 A  
HETATM   10  N   UNL     1      -9.683  16.531  65.612  1.00  0.00    -0.534 NA 
HETATM   11  N   UNL     1      -8.800  14.742  66.788  1.00  0.00    -0.257 NA 
HETATM   12  H1  UNL     1     -10.194  15.884  65.012  1.00  0.00     0.000 HD 
HETATM   13  C   UNL     1      -8.026  14.240  67.762  1.00  0.00    -0.168 A  
HETATM   14  H2  UNL     1      -9.124  17.140  65.014  1.00  0.00     0.000 HD 
HETATM   15  N   UNL     1      -7.337  15.017  68.604  1.00  0.00    -0.112 NA 
BRANCH   4  16
HETATM   16  O   UNL     1      -7.494  20.497  67.898  1.00  0.00    -0.268 OA 
HETATM   17  C   UNL     1      -6.558  21.124  67.036  1.00  0.00    -0.335 C  
ENDBRANCH   4  16
BRANCH  13  18
HETATM   18  N   UNL     1      -7.840  12.881  67.835  1.00  0.00    -0.136 NA 
HETATM   19  C   UNL     1      -6.575  10.969  66.988  1.00  0.00    -0.100 C  
HETATM   20  C   UNL     1      -7.536  12.116  66.626  1.00  0.00     0.158 C  
HETATM   21  N   UNL     1      -7.085  10.161  68.106  1.00  0.00    -0.078 N  
HETATM   22  C   UNL     1      -7.135   8.781  67.977  1.00  0.00    -0.079 C  
HETATM   23  C   UNL     1      -7.442  10.948  69.300  1.00  0.00    -0.124 C  
HETATM   24  C   UNL     1      -8.399  12.110  68.950  1.00  0.00     0.185 C  
HETATM   25  O   UNL     1      -6.774   8.231  66.932  1.00  0.00    -0.060 OA 
BRANCH  22  26
HETATM   26  C   UNL     1      -7.603   7.942  69.176  1.00  0.00    -0.098 C  
HETATM   27  C   UNL     1      -6.394   7.501  70.000  1.00  0.00    -0.031 C  
HETATM   28  O   UNL     1      -6.810   6.831  71.200  1.00  0.00    -0.056 OA 
HETATM   29  C   UNL     1      -7.799   5.919  70.944  1.00  0.00    -0.102 A  
HETATM   30  C   UNL     1      -8.069   4.990  71.947  1.00  0.00    -0.115 A  
HETATM   31  C   UNL     1      -9.059   4.027  71.752  1.00  0.00    -0.171 A  
HETATM   32  C   UNL     1      -9.781   3.997  70.558  1.00  0.00    -0.258 A  
HETATM   33  C   UNL     1      -9.514   4.931  69.555  1.00  0.00    -0.216 A  
HETATM   34  C   UNL     1      -8.531   5.898  69.752  1.00  0.00    -0.125 A  
HETATM   35  O   UNL     1      -8.324   6.787  68.729  1.00  0.00    -0.119 OA 
ENDBRANCH  22  26
ENDBRANCH  13  18
ENDBRANCH   2   3
TORSDOF 4
ENDMDL
MODEL      100
REMARK 921   NORMALIZED FREE ENERGY PREDICTED BY IDOCK:   -4.24 KCAL/MOL
REMARK 922        TOTAL FREE ENERGY PREDICTED BY IDOCK:   -5.75 KCAL/MOL
REMARK 923 INTER-LIGAND FREE ENERGY PREDICTED BY IDOCK:   -5.72 KCAL/MOL
REMARK 924 INTRA-LIGAND FREE ENERGY PREDICTED BY IDOCK:   -0.03 KCAL/MOL
REMARK 927      BINDING AFFINITY PREDICTED BY RF-SCORE:    0.00 PKD
ROOT
HETATM    1  C   UNL     1      -6.452   3.203  69.080  1.00  0.00    -0.030 C  
HETATM    2  O   UNL     1      -7.044   2.904  67.816  1.00  0.00    -0.048 OA 
ENDROOT
BRANCH   2   3
HETATM    3  C   UNL     1      -7.246   3.977  66.987  1.00  0.00    -0.068 A  
HETATM    4  C   UNL     1      -7.001   3.850  65.615  1.00  0.00    -0.062 A  
HETATM    5  C   UNL     1      -7.279   4.943  64.785  1.00  0.00    -0.063 A  
HETATM    6  C   UNL     1      -7.985   6.291  66.670  1.00  0.00    -0.108 A  
HETATM    7  C   UNL     1      -7.801   6.152  65.302  1.00  0.00    -0.105 A  
HETATM    8  C   UNL     1      -7.684   5.217  67.489  1.00  0.00    -0.096 A  
HETATM    9  C   UNL     1      -8.191   7.261  64.552  1.00  0.00    -0.010 A  
HETATM   10  N   UNL     1      -8.072   7.279  63.156  1.00  0.00    -0.299 NA 
HETATM   11  N   UNL     1      -8.698   8.373  65.099  1.00  0.00    -0.131 NA 
HETATM   12  H1  UNL     1      -8.358   8.090  62.607  1.00  0.00     0.000 HD 
HETATM   13  C   UNL     1      -8.841   8.415  66.433  1.00  0.00    -0.153 A  
HETATM   14  H2  UNL     1      -8.563   6.463  62.789  1.00  0.00     0.000 HD 
HETATM   15  N   UNL     1      -8.476   7.403  67.227  1.00  0.00    -0.118 NA 
BRANCH   4  16
HETATM   16  O   UNL     1      -6.530   2.776  64.913  1.00  0.00    -0.029 OA 
HETATM   17  C   UNL     1      -7.444   1.802  64.436  1.00  0.00    -0.058 C  
ENDBRANCH   4  16
BRANCH  13  18
HETATM   18  N   UNL     1      -9.485   9.487  67.002  1.00  0.00    -0.150 NA 
HETATM   19  C   UNL     1     -10.534  10.366  69.027  1.00  0.00    -0.219 C  
HETATM   20  C   UNL     1     -10.577   9.267  67.950  1.00  0.00    -0.231 C  
HETATM   21  N   UNL     1     -10.506  11.712  68.433  1.00  0.00    -0.205 N  
HETATM   22  C   UNL     1     -11.409  12.667  68.876  1.00  0.00    -0.297 C  
HETATM   23  C   UNL     1      -9.437  11.905  67.437  1.00  0.00    -0.175 C  
HETATM   24  C   UNL     1      -9.462  10.801  66.355  1.00  0.00    -0.171 C  
HETATM   25  O   UNL     1     -12.242  12.392  69.746  1.00  0.00    -0.232 OA 
BRANCH  22  26
HETATM   26  C   UNL     1     -11.326  14.088  68.300  1.00  0.00    -0.288 C  
HETATM   27  C   UNL     1     -11.433  14.034  66.777  1.00  0.00    -0.363 C  
HETATM   28  O   UNL     1     -11.495  15.356  66.221  1.00  0.00    -0.170 OA 
HETATM   29  C   UNL     1     -10.555  16.178  66.785  1.00  0.00    -0.277 A  
HETATM   30  C   UNL     1     -10.297  17.379  66.127  1.00  0.00    -0.329 A  
HETATM   31  C   UNL     1      -9.348  18.262  66.641  1.00  0.00    -0.304 A  
HETATM   32  C   UNL     1      -8.662  17.946  67.815  1.00  0.00    -0.250 A  
HETATM   33  C   UNL     1      -8.923  16.745  68.477  1.00  0.00    -0.244 A  
HETATM   34  C   UNL     1      -9.877  15.866  67.968  1.00  0.00    -0.218 A  
HETATM   35  O   UNL     1     -10.088  14.708  68.671  1.00  0.00    -0.225 OA 
ENDBRANCH  22  26
ENDBRANCH  13  18
ENDBRANCH   2   3
TORSDOF 4
ENDMDL
MODEL      101
REMARK 921   NORMALIZED FREE ENERGY PREDICTED BY IDOCK:   -4.07 KCAL/MOL
REMARK 922        TOTAL FREE ENERGY PREDICTED BY IDOCK:   -5.56 KCAL/MOL
REMARK 923 INTER-LIGAND FREE ENERGY PREDICTED BY IDOCK:   -5.95 KCAL/MOL
REMARK 924 INTRA-LIGAND FREE ENERGY PREDICTED BY IDOCK:    0.40 KCAL/MOL
REMARK 927      BINDING AFFINITY PREDICTED BY RF-SCORE:    0.00 PKD
ROOT
HETATM    1  C   UNL     1      -9.319   1.572  68.916  1.00  0.00    -0.144 C  
HETATM    2  O   UNL     1      -9.426   1.696  70.333  1.00  0.00    -0.100 OA 
ENDROOT
BRANCH   2   3
HETATM    3  C   UNL     1      -9.759   2.943  70.796  1.00  0.00    -0.051 A  
HETATM    4  C   UNL     1     -10.311   3.085  72.074  1.00  0.00     0.066 A  
HETATM    5  C   UNL     1     -10.580   4.376  72.544  1.00  0.00    -0.203 A  
HETATM    6  C   UNL     1      -9.810   5.372  70.474  1.00  0.00    -0.203 A  
HETATM    7  C   UNL     1     -10.302   5.522  71.763  1.00  0.00    -0.272 A  
HETATM    8  C   UNL     1      -9.571   4.092  70.004  1.00  0.00    -0.274 A  
HETATM    9  C   UNL     1     -10.451   6.847  72.172  1.00  0.00    -0.206 A  
HETATM   10  N   UNL     1     -10.933   7.169  73.447  1.00  0.00    -0.555 NA 
HETATM   11  N   UNL     1     -10.150   7.892  71.391  1.00  0.00    -0.175 NA 
HETATM   12  H1  UNL     1     -11.043   8.138  73.747  1.00  0.00     0.000 HD 
HETATM   13  C   UNL     1      -9.679   7.649  70.158  1.00  0.00    -0.179 A  
HETATM   14  H2  UNL     1     -10.349   6.692  74.134  1.00  0.00     0.000 HD 
HETATM   15  N   UNL     1      -9.523   6.409  69.681  1.00  0.00    -0.147 NA 
BRANCH   4  16
HETATM   16  O   UNL     1     -10.630   2.125  72.993  1.00  0.00    -0.136 OA 
HETATM   17  C   UNL     1     -10.604   2.449  74.374  1.00  0.00    -0.138 C  
ENDBRANCH   4  16
BRANCH  13  18
HETATM   18  N   UNL     1      -9.235   8.699  69.393  1.00  0.00    -0.149 NA 
HETATM   19  C   UNL     1      -8.169   9.357  67.294  1.00  0.00    -0.117 C  
HETATM   20  C   UNL     1      -8.009   8.567  68.606  1.00  0.00    -0.116 C  
HETATM   21  N   UNL     1      -8.586  10.746  67.540  1.00  0.00    -0.125 N  
HETATM   22  C   UNL     1      -7.882  11.781  66.943  1.00  0.00    -0.141 C  
HETATM   23  C   UNL     1      -9.790  10.870  68.381  1.00  0.00    -0.177 C  
HETATM   24  C   UNL     1      -9.648  10.072  69.698  1.00  0.00    -0.226 C  
HETATM   25  O   UNL     1      -6.903  11.547  66.227  1.00  0.00    -0.014 OA 
BRANCH  22  26
HETATM   26  C   UNL     1      -8.369  13.223  67.149  1.00  0.00    -0.135 C  
HETATM   27  C   UNL     1      -7.276  14.043  67.833  1.00  0.00    -0.159 C  
HETATM   28  O   UNL     1      -7.650  15.426  67.916  1.00  0.00    -0.120 OA 
HETATM   29  C   UNL     1      -8.943  15.567  68.345  1.00  0.00    -0.189 A  
HETATM   30  C   UNL     1      -9.328  16.838  68.767  1.00  0.00    -0.254 A  
HETATM   31  C   UNL     1     -10.629  17.054  69.223  1.00  0.00    -0.276 A  
HETATM   32  C   UNL     1     -11.543  16.000  69.252  1.00  0.00    -0.331 A  
HETATM   33  C   UNL     1     -11.160  14.728  68.826  1.00  0.00    -0.277 A  
HETATM   34  C   UNL     1      -9.863  14.513  68.362  1.00  0.00    -0.227 A  
HETATM   35  O   UNL     1      -9.554  13.242  67.954  1.00  0.00    -0.203 OA 
ENDBRANCH  22  26
ENDBRANCH  13  18
ENDBRANCH   2   3
TORSDOF 4
ENDMDL
MODEL      102
REMARK 921   NORMALIZED FREE ENERGY PREDICTED BY IDOCK:   -4.00 KCAL/MOL
REMARK 922        TOTAL FREE ENERGY PREDICTED BY IDOCK:   -5.47 KCAL/MOL
REMARK 923 INTER-LIGAND FREE ENERGY PREDICTED BY IDOCK:   -5.39 KCAL/MOL
REMARK 924 INTRA-LIGAND FREE ENERGY PREDICTED BY IDOCK:   -0.08 KCAL/MOL
REMARK 927      BINDING AFFINITY PREDICTED BY RF-SCORE:    0.00 PKD
ROOT
HETATM    1  C   UNL     1     -11.208  13.933  68.698  1.00  0.00    -0.270 C  
HETATM    2  O   UNL     1     -11.972  13.160  67.773  1.00  0.00    -0.350 OA 
ENDROOT
BRANCH   2   3
HETATM    3  C   UNL     1     -11.253  12.314  66.970  1.00  0.00    -0.310 A  
HETATM    4  C   UNL     1     -10.625  12.811  65.823  1.00  0.00    -0.273 A  
HETATM    5  C   UNL     1      -9.844  11.936  65.058  1.00  0.00    -0.234 A  
HETATM    6  C   UNL     1     -10.350  10.079  66.529  1.00  0.00    -0.198 A  
HETATM    7  C   UNL     1      -9.676  10.580  65.424  1.00  0.00    -0.315 A  
HETATM    8  C   UNL     1     -11.142  10.941  67.266  1.00  0.00    -0.350 A  
HETATM    9  C   UNL     1      -8.854   9.655  64.782  1.00  0.00    -0.207 A  
HETATM   10  N   UNL     1      -8.104  10.004  63.652  1.00  0.00    -0.151 NA 
HETATM   11  N   UNL     1      -8.722   8.386  65.190  1.00  0.00    -0.131 NA 
HETATM   12  H1  UNL     1      -7.502   9.327  63.182  1.00  0.00     0.000 HD 
HETATM   13  C   UNL     1      -9.412   7.992  66.271  1.00  0.00    -0.172 A  
HETATM   14  H2  UNL     1      -7.535  10.817  63.890  1.00  0.00     0.000 HD 
HETATM   15  N   UNL     1     -10.237   8.810  66.934  1.00  0.00    -0.275 NA 
BRANCH   4  16
HETATM   16  O   UNL     1     -10.632  14.078  65.309  1.00  0.00    -0.321 OA 
HETATM   17  C   UNL     1     -11.710  14.487  64.482  1.00  0.00    -0.410 C  
ENDBRANCH   4  16
BRANCH  13  18
HETATM   18  N   UNL     1      -9.187   6.739  66.787  1.00  0.00    -0.145 NA 
HETATM   19  C   UNL     1      -8.383   4.479  66.320  1.00  0.00    -0.110 C  
HETATM   20  C   UNL     1      -9.428   5.553  65.966  1.00  0.00    -0.130 C  
HETATM   21  N   UNL     1      -8.337   4.218  67.767  1.00  0.00    -0.097 N  
HETATM   22  C   UNL     1      -8.412   2.909  68.222  1.00  0.00    -0.081 C  
HETATM   23  C   UNL     1      -8.152   5.427  68.589  1.00  0.00    -0.091 C  
HETATM   24  C   UNL     1      -9.188   6.519  68.236  1.00  0.00    -0.116 C  
HETATM   25  O   UNL     1      -8.534   1.971  67.428  1.00  0.00    -0.073 OA 
BRANCH  22  26
HETATM   26  C   UNL     1      -8.292   2.642  69.730  1.00  0.00    -0.045 C  
HETATM   27  C   UNL     1      -9.456   3.304  70.465  1.00  0.00    -0.172 C  
HETATM   28  O   UNL     1      -9.446   2.958  71.858  1.00  0.00    -0.111 OA 
HETATM   29  C   UNL     1      -8.187   3.065  72.388  1.00  0.00    -0.067 A  
HETATM   30  C   UNL     1      -8.091   3.064  73.778  1.00  0.00    -0.072 A  
HETATM   31  C   UNL     1      -6.841   3.177  74.387  1.00  0.00    -0.040 A  
HETATM   32  C   UNL     1      -5.690   3.284  73.606  1.00  0.00     0.000 A  
HETATM   33  C   UNL     1      -5.785   3.279  72.214  1.00  0.00    -0.008 A  
HETATM   34  C   UNL     1      -7.033   3.159  71.604  1.00  0.00    -0.031 A  
HETATM   35  O   UNL     1      -7.054   3.156  70.234  1.00  0.00    -0.034 OA 
ENDBRANCH  22  26
ENDBRANCH  13  18
ENDBRANCH   2   3
TORSDOF 4
ENDMDL
MODEL      103
REMARK 921   NORMALIZED FREE ENERGY PREDICTED BY IDOCK:   -3.98 KCAL/MOL
REMARK 922        TOTAL FREE ENERGY PREDICTED BY IDOCK:   -5.44 KCAL/MOL
REMARK 923 INTER-LIGAND FREE ENERGY PREDICTED BY IDOCK:   -5.79 KCAL/MOL
REMARK 924 INTRA-LIGAND FREE ENERGY PREDICTED BY IDOCK:    0.35 KCAL/MOL
REMARK 927      BINDING AFFINITY PREDICTED BY RF-SCORE:    0.00 PKD
ROOT
HETATM    1  C   UNL     1     -10.829  15.088  65.898  1.00  0.00    -0.337 C  
HETATM    2  O   UNL     1     -11.388  13.777  65.838  1.00  0.00    -0.302 OA 
ENDROOT
BRANCH   2   3
HETATM    3  C   UNL     1     -11.361  13.066  67.010  1.00  0.00    -0.301 A  
HETATM    4  C   UNL     1     -11.868  13.639  68.182  1.00  0.00    -0.372 A  
HETATM    5  C   UNL     1     -11.886  12.865  69.348  1.00  0.00    -0.371 A  
HETATM    6  C   UNL     1     -10.855  10.991  68.211  1.00  0.00    -0.215 A  
HETATM    7  C   UNL     1     -11.412  11.532  69.361  1.00  0.00    -0.376 A  
HETATM    8  C   UNL     1     -10.815  11.769  67.067  1.00  0.00    -0.306 A  
HETATM    9  C   UNL     1     -11.466  10.655  70.444  1.00  0.00    -0.334 A  
HETATM   10  N   UNL     1     -12.003  11.047  71.677  1.00  0.00     0.151 NA 
HETATM   11  N   UNL     1     -11.018   9.395  70.387  1.00  0.00    -0.249 NA 
HETATM   12  H1  UNL     1     -12.043  10.405  72.469  1.00  0.00     0.000 HD 
HETATM   13  C   UNL     1     -10.496   8.958  69.230  1.00  0.00    -0.224 A  
HETATM   14  H2  UNL     1     -12.945  11.401  71.512  1.00  0.00     0.000 HD 
HETATM   15  N   UNL     1     -10.390   9.739  68.150  1.00  0.00    -0.191 NA 
BRANCH   4  16
HETATM   16  O   UNL     1     -12.393  14.885  68.382  1.00  0.00    -0.090 OA 
HETATM   17  C   UNL     1     -12.021  15.619  69.537  1.00  0.00    -0.345 C  
ENDBRANCH   4  16
BRANCH  13  18
HETATM   18  N   UNL     1     -10.158   7.632  69.108  1.00  0.00    -0.189 NA 
HETATM   19  C   UNL     1     -10.695   5.343  69.776  1.00  0.00    -0.210 C  
HETATM   20  C   UNL     1     -10.262   6.739  70.262  1.00  0.00    -0.195 C  
HETATM   21  N   UNL     1      -9.826   4.846  68.698  1.00  0.00    -0.162 N  
HETATM   22  C   UNL     1      -9.280   3.575  68.801  1.00  0.00    -0.163 C  
HETATM   23  C   UNL     1      -9.682   5.778  67.566  1.00  0.00    -0.119 C  
HETATM   24  C   UNL     1      -9.258   7.187  68.040  1.00  0.00    -0.130 C  
HETATM   25  O   UNL     1      -9.502   2.870  69.790  1.00  0.00    -0.149 OA 
BRANCH  22  26
HETATM   26  C   UNL     1      -8.432   3.038  67.638  1.00  0.00    -0.087 C  
HETATM   27  C   UNL     1      -6.991   3.527  67.782  1.00  0.00    -0.051 C  
HETATM   28  O   UNL     1      -6.146   2.931  66.787  1.00  0.00    -0.023 OA 
HETATM   29  C   UNL     1      -6.733   2.968  65.549  1.00  0.00    -0.040 A  
HETATM   30  C   UNL     1      -5.905   2.715  64.457  1.00  0.00    -0.014 A  
HETATM   31  C   UNL     1      -6.433   2.743  63.166  1.00  0.00    -0.022 A  
HETATM   32  C   UNL     1      -7.787   3.018  62.970  1.00  0.00    -0.068 A  
HETATM   33  C   UNL     1      -8.617   3.267  64.064  1.00  0.00    -0.089 A  
HETATM   34  C   UNL     1      -8.092   3.232  65.354  1.00  0.00    -0.090 A  
HETATM   35  O   UNL     1      -8.963   3.480  66.383  1.00  0.00    -0.129 OA 
ENDBRANCH  22  26
ENDBRANCH  13  18
ENDBRANCH   2   3
TORSDOF 4
ENDMDL
MODEL      104
REMARK 921   NORMALIZED FREE ENERGY PREDICTED BY IDOCK:   -3.76 KCAL/MOL
REMARK 922        TOTAL FREE ENERGY PREDICTED BY IDOCK:   -5.17 KCAL/MOL
REMARK 923 INTER-LIGAND FREE ENERGY PREDICTED BY IDOCK:   -5.19 KCAL/MOL
REMARK 924 INTRA-LIGAND FREE ENERGY PREDICTED BY IDOCK:    0.02 KCAL/MOL
REMARK 927      BINDING AFFINITY PREDICTED BY RF-SCORE:    0.00 PKD
ROOT
HETATM    1  C   UNL     1      -9.760   2.078  71.038  1.00  0.00    -0.090 C  
HETATM    2  O   UNL     1     -10.048   2.787  72.242  1.00  0.00    -0.162 OA 
ENDROOT
BRANCH   2   3
HETATM    3  C   UNL     1      -9.222   3.846  72.519  1.00  0.00    -0.114 A  
HETATM    4  C   UNL     1      -8.348   3.777  73.610  1.00  0.00    -0.087 A  
HETATM    5  C   UNL     1      -7.471   4.846  73.829  1.00  0.00    -0.090 A  
HETATM    6  C   UNL     1      -8.360   6.063  71.933  1.00  0.00    -0.115 A  
HETATM    7  C   UNL     1      -7.450   5.975  72.976  1.00  0.00    -0.094 A  
HETATM    8  C   UNL     1      -9.243   5.016  71.736  1.00  0.00    -0.171 A  
HETATM    9  C   UNL     1      -6.561   7.046  73.057  1.00  0.00    -0.065 A  
HETATM   10  N   UNL     1      -5.578   7.106  74.054  1.00  0.00    -0.050 NA 
HETATM   11  N   UNL     1      -6.579   8.078  72.205  1.00  0.00    -0.063 NA 
HETATM   12  H1  UNL     1      -4.926   7.889  74.113  1.00  0.00     0.000 HD 
HETATM   13  C   UNL     1      -7.495   8.076  71.225  1.00  0.00    -0.072 A  
HETATM   14  H2  UNL     1      -5.030   6.246  74.008  1.00  0.00     0.000 HD 
HETATM   15  N   UNL     1      -8.397   7.098  71.087  1.00  0.00    -0.113 NA 
BRANCH   4  16
HETATM   16  O   UNL     1      -8.186   2.781  74.532  1.00  0.00    -0.066 OA 
HETATM   17  C   UNL     1      -7.179   1.803  74.330  1.00  0.00    -0.028 C  
ENDBRANCH   4  16
BRANCH  13  18
HETATM   18  N   UNL     1      -7.444   9.052  70.260  1.00  0.00    -0.072 NA 
HETATM   19  C   UNL     1      -6.240   9.899  68.310  1.00  0.00    -0.050 C  
HETATM   20  C   UNL     1      -6.153   9.574  69.811  1.00  0.00    -0.039 C  
HETATM   21  N   UNL     1      -7.386  10.770  68.004  1.00  0.00    -0.087 N  
HETATM   22  C   UNL     1      -7.184  11.917  67.251  1.00  0.00    -0.147 C  
HETATM   23  C   UNL     1      -8.674  10.264  68.511  1.00  0.00    -0.130 C  
HETATM   24  C   UNL     1      -8.599   9.922  70.017  1.00  0.00    -0.167 C  
HETATM   25  O   UNL     1      -6.055  12.219  66.853  1.00  0.00    -0.221 OA 
BRANCH  22  26
HETATM   26  C   UNL     1      -8.398  12.781  66.879  1.00  0.00    -0.058 C  
HETATM   27  C   UNL     1      -9.220  13.081  68.131  1.00  0.00    -0.212 C  
HETATM   28  O   UNL     1     -10.284  13.999  67.837  1.00  0.00    -0.232 OA 
HETATM   29  C   UNL     1     -10.941  13.647  66.687  1.00  0.00    -0.292 A  
HETATM   30  C   UNL     1     -12.173  14.257  66.458  1.00  0.00    -0.419 A  
HETATM   31  C   UNL     1     -12.901  13.942  65.311  1.00  0.00    -0.437 A  
HETATM   32  C   UNL     1     -12.394  13.023  64.392  1.00  0.00    -0.442 A  
HETATM   33  C   UNL     1     -11.158  12.415  64.618  1.00  0.00    -0.348 A  
HETATM   34  C   UNL     1     -10.426  12.735  65.760  1.00  0.00    -0.276 A  
HETATM   35  O   UNL     1      -9.218  12.106  65.918  1.00  0.00    -0.182 OA 
ENDBRANCH  22  26
ENDBRANCH  13  18
ENDBRANCH   2   3
TORSDOF 4
ENDMDL
MODEL      105
REMARK 921   NORMALIZED FREE ENERGY PREDICTED BY IDOCK:   -3.59 KCAL/MOL
REMARK 922        TOTAL FREE ENERGY PREDICTED BY IDOCK:   -4.95 KCAL/MOL
REMARK 923 INTER-LIGAND FREE ENERGY PREDICTED BY IDOCK:   -4.28 KCAL/MOL
REMARK 924 INTRA-LIGAND FREE ENERGY PREDICTED BY IDOCK:   -0.68 KCAL/MOL
REMARK 927      BINDING AFFINITY PREDICTED BY RF-SCORE:    0.00 PKD
ROOT
HETATM    1  C   UNL     1      -9.544  17.779  67.830  1.00  0.00    -0.272 C  
HETATM    2  O   UNL     1      -9.528  17.309  66.483  1.00  0.00    -0.251 OA 
ENDROOT
BRANCH   2   3
HETATM    3  C   UNL     1      -9.806  15.977  66.316  1.00  0.00    -0.308 A  
HETATM    4  C   UNL     1     -10.593  15.561  65.236  1.00  0.00    -0.424 A  
HETATM    5  C   UNL     1     -10.805  14.189  65.056  1.00  0.00    -0.408 A  
HETATM    6  C   UNL     1      -9.513  13.652  67.033  1.00  0.00    -0.252 A  
HETATM    7  C   UNL     1     -10.242  13.231  65.930  1.00  0.00    -0.295 A  
HETATM    8  C   UNL     1      -9.328  15.011  67.222  1.00  0.00    -0.209 A  
HETATM    9  C   UNL     1     -10.322  11.846  65.786  1.00  0.00    -0.248 A  
HETATM   10  N   UNL     1     -11.019  11.260  64.723  1.00  0.00    -0.243 NA 
HETATM   11  N   UNL     1      -9.748  10.988  66.639  1.00  0.00    -0.191 NA 
HETATM   12  H1  UNL     1     -11.078  10.247  64.618  1.00  0.00     0.000 HD 
HETATM   13  C   UNL     1      -9.061  11.489  67.678  1.00  0.00    -0.168 A  
HETATM   14  H2  UNL     1     -10.649  11.645  63.854  1.00  0.00     0.000 HD 
HETATM   15  N   UNL     1      -8.950  12.803  67.899  1.00  0.00    -0.178 NA 
BRANCH   4  16
HETATM   16  O   UNL     1     -11.203  16.309  64.268  1.00  0.00    -0.770 OA 
HETATM   17  C   UNL     1     -12.512  15.964  63.845  1.00  0.00     0.849 C  
ENDBRANCH   4  16
BRANCH  13  18
HETATM   18  N   UNL     1      -8.351  10.633  68.484  1.00  0.00    -0.123 NA 
HETATM   19  C   UNL     1      -6.910  10.443  70.450  1.00  0.00    -0.065 C  
HETATM   20  C   UNL     1      -7.065  11.050  69.043  1.00  0.00    -0.106 C  
HETATM   21  N   UNL     1      -7.128   8.988  70.444  1.00  0.00    -0.056 N  
HETATM   22  C   UNL     1      -6.189   8.161  71.042  1.00  0.00    -0.034 C  
HETATM   23  C   UNL     1      -8.401   8.575  69.827  1.00  0.00    -0.124 C  
HETATM   24  C   UNL     1      -8.574   9.186  68.417  1.00  0.00    -0.129 C  
HETATM   25  O   UNL     1      -5.171   8.631  71.559  1.00  0.00    -0.032 OA 
BRANCH  22  26
HETATM   26  C   UNL     1      -6.460   6.650  71.092  1.00  0.00    -0.049 C  
HETATM   27  C   UNL     1      -5.794   6.047  72.328  1.00  0.00    -0.036 C  
HETATM   28  O   UNL     1      -6.144   4.662  72.474  1.00  0.00    -0.019 OA 
HETATM   29  C   UNL     1      -6.042   3.995  71.282  1.00  0.00    -0.014 A  
HETATM   30  C   UNL     1      -6.046   2.603  71.341  1.00  0.00    -0.014 A  
HETATM   31  C   UNL     1      -5.939   1.858  70.167  1.00  0.00    -0.022 A  
HETATM   32  C   UNL     1      -5.835   2.506  68.935  1.00  0.00    -0.023 A  
HETATM   33  C   UNL     1      -5.836   3.900  68.875  1.00  0.00    -0.022 A  
HETATM   34  C   UNL     1      -5.951   4.645  70.047  1.00  0.00    -0.017 A  
HETATM   35  O   UNL     1      -5.951   6.010  69.915  1.00  0.00    -0.023 OA 
ENDBRANCH  22  26
ENDBRANCH  13  18
ENDBRANCH   2   3
TORSDOF 4
ENDMDL
MODEL      106
REMARK 921   NORMALIZED FREE ENERGY PREDICTED BY IDOCK:   -3.57 KCAL/MOL
REMARK 922        TOTAL FREE ENERGY PREDICTED BY IDOCK:   -4.93 KCAL/MOL
REMARK 923 INTER-LIGAND FREE ENERGY PREDICTED BY IDOCK:   -4.82 KCAL/MOL
REMARK 924 INTRA-LIGAND FREE ENERGY PREDICTED BY IDOCK:   -0.11 KCAL/MOL
REMARK 927      BINDING AFFINITY PREDICTED BY RF-SCORE:    0.00 PKD
ROOT
HETATM    1  C   UNL     1     -12.084  15.562  63.891  1.00  0.00     0.230 C  
HETATM    2  O   UNL     1     -10.998  15.823  64.780  1.00  0.00    -0.448 OA 
ENDROOT
BRANCH   2   3
HETATM    3  C   UNL     1     -10.812  14.900  65.775  1.00  0.00    -0.339 A  
HETATM    4  C   UNL     1     -11.156  15.220  67.093  1.00  0.00    -0.323 A  
HETATM    5  C   UNL     1     -11.015  14.234  68.077  1.00  0.00    -0.261 A  
HETATM    6  C   UNL     1     -10.145  12.646  66.468  1.00  0.00    -0.248 A  
HETATM    7  C   UNL     1     -10.542  12.937  67.765  1.00  0.00    -0.231 A  
HETATM    8  C   UNL     1     -10.262  13.632  65.504  1.00  0.00    -0.316 A  
HETATM    9  C   UNL     1     -10.449  11.865  68.651  1.00  0.00    -0.212 A  
HETATM   10  N   UNL     1     -10.814  11.996  69.998  1.00  0.00    -0.090 NA 
HETATM   11  N   UNL     1     -10.010  10.653  68.290  1.00  0.00    -0.154 NA 
HETATM   12  H1  UNL     1     -10.745  11.211  70.647  1.00  0.00     0.000 HD 
HETATM   13  C   UNL     1      -9.650  10.464  67.011  1.00  0.00    -0.166 A  
HETATM   14  H2  UNL     1     -11.770  12.348  70.031  1.00  0.00     0.000 HD 
HETATM   15  N   UNL     1      -9.692  11.443  66.101  1.00  0.00    -0.212 NA 
BRANCH   4  16
HETATM   16  O   UNL     1     -11.651  16.388  67.602  1.00  0.00     0.035 OA 
HETATM   17  C   UNL     1     -10.762  17.321  68.194  1.00  0.00    -0.363 C  
ENDBRANCH   4  16
BRANCH  13  18
HETATM   18  N   UNL     1      -9.330   9.197  66.587  1.00  0.00    -0.165 NA 
HETATM   19  C   UNL     1      -8.249   7.866  64.845  1.00  0.00    -0.124 C  
HETATM   20  C   UNL     1      -9.374   8.867  65.162  1.00  0.00     0.058 C  
HETATM   21  N   UNL     1      -8.288   6.699  65.741  1.00  0.00    -0.138 N  
HETATM   22  C   UNL     1      -8.253   5.425  65.195  1.00  0.00    -0.138 C  
HETATM   23  C   UNL     1      -8.300   7.044  67.174  1.00  0.00    -0.121 C  
HETATM   24  C   UNL     1      -9.420   8.058  67.505  1.00  0.00    -0.146 C  
HETATM   25  O   UNL     1      -8.210   5.263  63.972  1.00  0.00    -0.122 OA 
BRANCH  22  26
HETATM   26  C   UNL     1      -8.223   4.215  66.141  1.00  0.00    -0.105 C  
HETATM   27  C   UNL     1      -9.510   4.171  66.964  1.00  0.00    -0.192 C  
HETATM   28  O   UNL     1      -9.570   2.977  67.758  1.00  0.00    -0.196 OA 
HETATM   29  C   UNL     1      -8.378   2.739  68.389  1.00  0.00    -0.065 A  
HETATM   30  C   UNL     1      -8.392   1.805  69.423  1.00  0.00    -0.069 A  
HETATM   31  C   UNL     1      -7.216   1.517  70.115  1.00  0.00    -0.033 A  
HETATM   32  C   UNL     1      -6.026   2.160  69.769  1.00  0.00    -0.023 A  
HETATM   33  C   UNL     1      -6.010   3.091  68.730  1.00  0.00    -0.024 A  
HETATM   34  C   UNL     1      -7.183   3.374  68.033  1.00  0.00    -0.051 A  
HETATM   35  O   UNL     1      -7.096   4.295  67.022  1.00  0.00    -0.065 OA 
ENDBRANCH  22  26
ENDBRANCH  13  18
ENDBRANCH   2   3
TORSDOF 4
ENDMDL
MODEL      107
REMARK 921   NORMALIZED FREE ENERGY PREDICTED BY IDOCK:   -3.45 KCAL/MOL
REMARK 922        TOTAL FREE ENERGY PREDICTED BY IDOCK:   -4.78 KCAL/MOL
REMARK 923 INTER-LIGAND FREE ENERGY PREDICTED BY IDOCK:   -4.30 KCAL/MOL
REMARK 924 INTRA-LIGAND FREE ENERGY PREDICTED BY IDOCK:   -0.48 KCAL/MOL
REMARK 927      BINDING AFFINITY PREDICTED BY RF-SCORE:    0.00 PKD
ROOT
HETATM    1  C   UNL     1     -10.899   4.255  64.992  1.00  0.00    -0.071 C  
HETATM    2  O   UNL     1      -9.564   4.737  64.847  1.00  0.00    -0.120 OA 
ENDROOT
BRANCH   2   3
HETATM    3  C   UNL     1      -8.904   5.015  66.016  1.00  0.00    -0.130 A  
HETATM    4  C   UNL     1      -8.335   3.974  66.757  1.00  0.00    -0.101 A  
HETATM    5  C   UNL     1      -7.611   4.296  67.912  1.00  0.00    -0.069 A  
HETATM    6  C   UNL     1      -8.061   6.659  67.627  1.00  0.00    -0.119 A  
HETATM    7  C   UNL     1      -7.444   5.636  68.333  1.00  0.00    -0.077 A  
HETATM    8  C   UNL     1      -8.798   6.333  66.501  1.00  0.00    -0.140 A  
HETATM    9  C   UNL     1      -6.673   6.064  69.413  1.00  0.00    -0.060 A  
HETATM   10  N   UNL     1      -5.983   5.155  70.225  1.00  0.00    -0.017 NA 
HETATM   11  N   UNL     1      -6.538   7.353  69.749  1.00  0.00    -0.039 NA 
HETATM   12  H1  UNL     1      -5.419   5.469  71.015  1.00  0.00     0.000 HD 
HETATM   13  C   UNL     1      -7.172   8.273  69.006  1.00  0.00    -0.073 A  
HETATM   14  H2  UNL     1      -5.390   4.584  69.623  1.00  0.00     0.000 HD 
HETATM   15  N   UNL     1      -7.945   7.947  67.965  1.00  0.00    -0.126 NA 
BRANCH   4  16
HETATM   16  O   UNL     1      -8.352   2.628  66.518  1.00  0.00    -0.084 OA 
HETATM   17  C   UNL     1      -7.498   1.778  67.267  1.00  0.00    -0.059 C  
ENDBRANCH   4  16
BRANCH  13  18
HETATM   18  N   UNL     1      -6.937   9.605  69.248  1.00  0.00    -0.053 NA 
HETATM   19  C   UNL     1      -5.481  11.229  70.350  1.00  0.00    -0.121 C  
HETATM   20  C   UNL     1      -6.433  10.036  70.552  1.00  0.00    -0.121 C  
HETATM   21  N   UNL     1      -6.105  12.299  69.555  1.00  0.00    -0.107 N  
HETATM   22  C   UNL     1      -6.074  13.601  70.030  1.00  0.00    -0.137 C  
HETATM   23  C   UNL     1      -6.661  11.843  68.268  1.00  0.00    -0.063 C  
HETATM   24  C   UNL     1      -7.612  10.637  68.455  1.00  0.00    -0.097 C  
HETATM   25  O   UNL     1      -5.546  13.865  71.114  1.00  0.00    -0.176 OA 
BRANCH  22  26
HETATM   26  C   UNL     1      -6.666  14.720  69.160  1.00  0.00    -0.123 C  
HETATM   27  C   UNL     1      -6.427  16.074  69.827  1.00  0.00    -0.164 C  
HETATM   28  O   UNL     1      -6.849  17.147  68.973  1.00  0.00    -0.210 OA 
HETATM   29  C   UNL     1      -8.078  16.893  68.424  1.00  0.00    -0.237 A  
HETATM   30  C   UNL     1      -8.737  17.971  67.837  1.00  0.00    -0.258 A  
HETATM   31  C   UNL     1      -9.996  17.787  67.265  1.00  0.00    -0.324 A  
HETATM   32  C   UNL     1     -10.591  16.525  67.275  1.00  0.00    -0.285 A  
HETATM   33  C   UNL     1      -9.930  15.444  67.859  1.00  0.00    -0.221 A  
HETATM   34  C   UNL     1      -8.669  15.625  68.424  1.00  0.00    -0.178 A  
HETATM   35  O   UNL     1      -8.073  14.520  68.976  1.00  0.00    -0.143 OA 
ENDBRANCH  22  26
ENDBRANCH  13  18
ENDBRANCH   2   3
TORSDOF 4
ENDMDL
MODEL      108
REMARK 921   NORMALIZED FREE ENERGY PREDICTED BY IDOCK:   -3.38 KCAL/MOL
REMARK 922        TOTAL FREE ENERGY PREDICTED BY IDOCK:   -4.69 KCAL/MOL
REMARK 923 INTER-LIGAND FREE ENERGY PREDICTED BY IDOCK:   -5.08 KCAL/MOL
REMARK 924 INTRA-LIGAND FREE ENERGY PREDICTED BY IDOCK:    0.39 KCAL/MOL
REMARK 927      BINDING AFFINITY PREDICTED BY RF-SCORE:    0.00 PKD
ROOT
HETATM    1  C   UNL     1     -13.832   7.822  71.504  1.00  0.00    -0.358 C  
HETATM    2  O   UNL     1     -13.031   6.678  71.795  1.00  0.00    -0.319 OA 
ENDROOT
BRANCH   2   3
HETATM    3  C   UNL     1     -11.685   6.827  71.586  1.00  0.00    -0.314 A  
HETATM    4  C   UNL     1     -10.832   5.729  71.743  1.00  0.00    -0.252 A  
HETATM    5  C   UNL     1      -9.471   5.897  71.458  1.00  0.00    -0.171 A  
HETATM    6  C   UNL     1      -9.793   8.236  70.921  1.00  0.00    -0.182 A  
HETATM    7  C   UNL     1      -8.953   7.137  71.017  1.00  0.00    -0.150 A  
HETATM    8  C   UNL     1     -11.133   8.072  71.228  1.00  0.00    -0.279 A  
HETATM    9  C   UNL     1      -7.637   7.381  70.627  1.00  0.00    -0.086 A  
HETATM   10  N   UNL     1      -6.664   6.374  70.662  1.00  0.00    -0.056 NA 
HETATM   11  N   UNL     1      -7.211   8.576  70.197  1.00  0.00    -0.049 NA 
HETATM   12  H1  UNL     1      -5.701   6.553  70.376  1.00  0.00     0.000 HD 
HETATM   13  C   UNL     1      -8.097   9.582  70.137  1.00  0.00    -0.174 A  
HETATM   14  H2  UNL     1      -7.011   5.583  70.118  1.00  0.00     0.000 HD 
HETATM   15  N   UNL     1      -9.374   9.437  70.509  1.00  0.00    -0.255 NA 
BRANCH   4  16
HETATM   16  O   UNL     1     -11.124   4.451  72.128  1.00  0.00     0.138 OA 
HETATM   17  C   UNL     1     -10.406   3.867  73.203  1.00  0.00    -0.168 C  
ENDBRANCH   4  16
BRANCH  13  18
HETATM   18  N   UNL     1      -7.718  10.774  69.571  1.00  0.00    -0.113 NA 
HETATM   19  C   UNL     1      -5.835  12.163  68.864  1.00  0.00    -0.061 C  
HETATM   20  C   UNL     1      -6.523  11.467  70.053  1.00  0.00    -0.067 C  
HETATM   21  N   UNL     1      -6.771  13.014  68.113  1.00  0.00    -0.089 N  
HETATM   22  C   UNL     1      -6.417  14.326  67.833  1.00  0.00    -0.165 C  
HETATM   23  C   UNL     1      -7.997  12.321  67.682  1.00  0.00    -0.161 C  
HETATM   24  C   UNL     1      -8.694  11.609  68.864  1.00  0.00     0.087 C  
HETATM   25  O   UNL     1      -5.339  14.786  68.223  1.00  0.00    -0.098 OA 
BRANCH  22  26
HETATM   26  C   UNL     1      -7.370  15.185  66.989  1.00  0.00     0.020 C  
HETATM   27  C   UNL     1      -7.931  16.322  67.841  1.00  0.00    -0.145 C  
HETATM   28  O   UNL     1      -8.718  17.220  67.043  1.00  0.00    -0.218 OA 
HETATM   29  C   UNL     1      -9.569  16.535  66.216  1.00  0.00    -0.306 A  
HETATM   30  C   UNL     1     -10.596  17.270  65.627  1.00  0.00    -0.173 A  
HETATM   31  C   UNL     1     -11.504  16.637  64.779  1.00  0.00     0.166 A  
HETATM   32  C   UNL     1     -11.382  15.272  64.518  1.00  0.00    -0.307 A  
HETATM   33  C   UNL     1     -10.352  14.536  65.105  1.00  0.00    -0.438 A  
HETATM   34  C   UNL     1      -9.439  15.169  65.945  1.00  0.00    -0.299 A  
HETATM   35  O   UNL     1      -8.448  14.389  66.484  1.00  0.00    -0.039 OA 
ENDBRANCH  22  26
ENDBRANCH  13  18
ENDBRANCH   2   3
TORSDOF 4
ENDMDL
MODEL      109
REMARK 921   NORMALIZED FREE ENERGY PREDICTED BY IDOCK:   -3.35 KCAL/MOL
REMARK 922        TOTAL FREE ENERGY PREDICTED BY IDOCK:   -4.66 KCAL/MOL
REMARK 923 INTER-LIGAND FREE ENERGY PREDICTED BY IDOCK:   -4.26 KCAL/MOL
REMARK 924 INTRA-LIGAND FREE ENERGY PREDICTED BY IDOCK:   -0.40 KCAL/MOL
REMARK 927      BINDING AFFINITY PREDICTED BY RF-SCORE:    0.00 PKD
ROOT
HETATM    1  C   UNL     1     -11.746  16.050  65.877  1.00  0.00     0.782 C  
HETATM    2  O   UNL     1     -10.866  15.114  65.256  1.00  0.00    -0.347 OA 
ENDROOT
BRANCH   2   3
HETATM    3  C   UNL     1      -9.716  14.832  65.948  1.00  0.00    -0.323 A  
HETATM    4  C   UNL     1      -8.841  15.867  66.293  1.00  0.00    -0.351 A  
HETATM    5  C   UNL     1      -7.709  15.557  67.055  1.00  0.00    -0.246 A  
HETATM    6  C   UNL     1      -8.280  13.203  67.083  1.00  0.00    -0.120 A  
HETATM    7  C   UNL     1      -7.441  14.235  67.480  1.00  0.00    -0.201 A  
HETATM    8  C   UNL     1      -9.384  13.511  66.308  1.00  0.00    -0.143 A  
HETATM    9  C   UNL     1      -6.393  13.838  68.310  1.00  0.00    -0.108 A  
HETATM   10  N   UNL     1      -5.459  14.761  68.800  1.00  0.00    -0.085 NA 
HETATM   11  N   UNL     1      -6.203  12.570  68.694  1.00  0.00    -0.065 NA 
HETATM   12  H1  UNL     1      -4.692  14.471  69.407  1.00  0.00     0.000 HD 
HETATM   13  C   UNL     1      -7.068  11.640  68.261  1.00  0.00    -0.078 A  
HETATM   14  H2  UNL     1      -5.971  15.505  69.274  1.00  0.00     0.000 HD 
HETATM   15  N   UNL     1      -8.089  11.931  67.449  1.00  0.00    -0.156 NA 
BRANCH   4  16
HETATM   16  O   UNL     1      -8.923  17.203  66.012  1.00  0.00    -0.481 OA 
HETATM   17  C   UNL     1      -8.231  18.130  66.833  1.00  0.00    -0.243 C  
ENDBRANCH   4  16
BRANCH  13  18
HETATM   18  N   UNL     1      -6.975  10.360  68.752  1.00  0.00    -0.065 NA 
HETATM   19  C   UNL     1      -5.730   8.258  68.682  1.00  0.00    -0.037 C  
HETATM   20  C   UNL     1      -6.568   9.264  67.872  1.00  0.00    -0.063 C  
HETATM   21  N   UNL     1      -6.424   7.829  69.906  1.00  0.00    -0.034 N  
HETATM   22  C   UNL     1      -6.540   6.474  70.179  1.00  0.00    -0.045 C  
HETATM   23  C   UNL     1      -6.881   8.942  70.758  1.00  0.00    -0.067 C  
HETATM   24  C   UNL     1      -7.715   9.967  69.955  1.00  0.00    -0.171 C  
HETATM   25  O   UNL     1      -6.084   5.632  69.400  1.00  0.00    -0.022 OA 
BRANCH  22  26
HETATM   26  C   UNL     1      -7.204   6.039  71.494  1.00  0.00    -0.083 C  
HETATM   27  C   UNL     1      -6.557   4.749  71.997  1.00  0.00    -0.038 C  
HETATM   28  O   UNL     1      -7.064   4.392  73.292  1.00  0.00    -0.068 OA 
HETATM   29  C   UNL     1      -8.428   4.506  73.340  1.00  0.00    -0.102 A  
HETATM   30  C   UNL     1      -9.069   3.899  74.419  1.00  0.00    -0.103 A  
HETATM   31  C   UNL     1     -10.458   3.968  74.529  1.00  0.00    -0.266 A  
HETATM   32  C   UNL     1     -11.203   4.648  73.565  1.00  0.00    -0.400 A  
HETATM   33  C   UNL     1     -10.561   5.260  72.487  1.00  0.00    -0.276 A  
HETATM   34  C   UNL     1      -9.173   5.198  72.380  1.00  0.00    -0.133 A  
HETATM   35  O   UNL     1      -8.608   5.825  71.300  1.00  0.00    -0.126 OA 
ENDBRANCH  22  26
ENDBRANCH  13  18
ENDBRANCH   2   3
TORSDOF 4
ENDMDL
MODEL      110
REMARK 921   NORMALIZED FREE ENERGY PREDICTED BY IDOCK:   -3.30 KCAL/MOL
REMARK 922        TOTAL FREE ENERGY PREDICTED BY IDOCK:   -4.60 KCAL/MOL
REMARK 923 INTER-LIGAND FREE ENERGY PREDICTED BY IDOCK:   -3.94 KCAL/MOL
REMARK 924 INTRA-LIGAND FREE ENERGY PREDICTED BY IDOCK:   -0.66 KCAL/MOL
REMARK 927      BINDING AFFINITY PREDICTED BY RF-SCORE:    0.00 PKD
ROOT
HETATM    1  C   UNL     1     -12.476  16.175  71.643  1.00  0.00    -0.216 C  
HETATM    2  O   UNL     1     -11.115  16.384  71.268  1.00  0.00    -0.121 OA 
ENDROOT
BRANCH   2   3
HETATM    3  C   UNL     1     -10.793  16.034  69.982  1.00  0.00    -0.353 A  
HETATM    4  C   UNL     1     -10.719  17.019  68.991  1.00  0.00    -0.271 A  
HETATM    5  C   UNL     1     -10.325  16.640  67.703  1.00  0.00    -0.305 A  
HETATM    6  C   UNL     1     -10.134  14.317  68.362  1.00  0.00    -0.243 A  
HETATM    7  C   UNL     1     -10.000  15.299  67.391  1.00  0.00    -0.223 A  
HETATM    8  C   UNL     1     -10.549  14.693  69.628  1.00  0.00    -0.125 A  
HETATM    9  C   UNL     1      -9.516  14.838  66.167  1.00  0.00    -0.292 A  
HETATM   10  N   UNL     1      -9.321  15.704  65.084  1.00  0.00    -0.111 NA 
HETATM   11  N   UNL     1      -9.206  13.555  65.940  1.00  0.00     0.088 NA 
HETATM   12  H1  UNL     1      -8.967  15.367  64.189  1.00  0.00     0.000 HD 
HETATM   13  C   UNL     1      -9.367  12.676  66.941  1.00  0.00    -0.228 A  
HETATM   14  H2  UNL     1      -8.716  16.465  65.394  1.00  0.00     0.000 HD 
HETATM   15  N   UNL     1      -9.842  13.032  68.139  1.00  0.00    -0.224 NA 
BRANCH   4  16
HETATM   16  O   UNL     1     -10.961  18.362  69.082  1.00  0.00     0.741 OA 
HETATM   17  C   UNL     1     -10.164  19.264  68.333  1.00  0.00    -0.411 C  
ENDBRANCH   4  16
BRANCH  13  18
HETATM   18  N   UNL     1      -8.927  11.386  66.775  1.00  0.00    -0.170 NA 
HETATM   19  C   UNL     1      -7.106   9.807  67.181  1.00  0.00    -0.086 C  
HETATM   20  C   UNL     1      -7.515  11.122  66.494  1.00  0.00    -0.131 C  
HETATM   21  N   UNL     1      -8.013   8.702  66.831  1.00  0.00    -0.095 N  
HETATM   22  C   UNL     1      -7.478   7.503  66.383  1.00  0.00    -0.084 C  
HETATM   23  C   UNL     1      -9.438   8.999  67.063  1.00  0.00    -0.163 C  
HETATM   24  C   UNL     1      -9.860  10.324  66.387  1.00  0.00    -0.217 C  
HETATM   25  O   UNL     1      -6.257   7.364  66.260  1.00  0.00    -0.039 OA 
BRANCH  22  26
HETATM   26  C   UNL     1      -8.428   6.333  66.086  1.00  0.00    -0.138 C  
HETATM   27  C   UNL     1      -8.088   5.150  66.991  1.00  0.00    -0.104 C  
HETATM   28  O   UNL     1      -9.046   4.092  66.832  1.00  0.00    -0.123 OA 
HETATM   29  C   UNL     1      -9.308   3.854  65.509  1.00  0.00    -0.160 A  
HETATM   30  C   UNL     1      -9.967   2.664  65.206  1.00  0.00     0.439 A  
HETATM   31  C   UNL     1     -10.261   2.352  63.879  1.00  0.00    -0.084 A  
HETATM   32  C   UNL     1      -9.901   3.232  62.857  1.00  0.00    -0.101 A  
HETATM   33  C   UNL     1      -9.246   4.427  63.161  1.00  0.00    -0.125 A  
HETATM   34  C   UNL     1      -8.959   4.743  64.487  1.00  0.00    -0.128 A  
HETATM   35  O   UNL     1      -8.319   5.933  64.715  1.00  0.00    -0.138 OA 
ENDBRANCH  22  26
ENDBRANCH  13  18
ENDBRANCH   2   3
TORSDOF 4
ENDMDL
MODEL      111
REMARK 921   NORMALIZED FREE ENERGY PREDICTED BY IDOCK:   -3.22 KCAL/MOL
REMARK 922        TOTAL FREE ENERGY PREDICTED BY IDOCK:   -4.50 KCAL/MOL
REMARK 923 INTER-LIGAND FREE ENERGY PREDICTED BY IDOCK:   -4.53 KCAL/MOL
REMARK 924 INTRA-LIGAND FREE ENERGY PREDICTED BY IDOCK:    0.02 KCAL/MOL
REMARK 927      BINDING AFFINITY PREDICTED BY RF-SCORE:    0.00 PKD
ROOT
HETATM    1  C   UNL     1     -12.184   6.762  70.205  1.00  0.00     0.052 C  
HETATM    2  O   UNL     1     -10.820   6.837  70.618  1.00  0.00    -0.230 OA 
ENDROOT
BRANCH   2   3
HETATM    3  C   UNL     1      -9.962   7.430  69.728  1.00  0.00    -0.188 A  
HETATM    4  C   UNL     1      -9.684   6.803  68.509  1.00  0.00    -0.133 A  
HETATM    5  C   UNL     1      -8.856   7.464  67.594  1.00  0.00    -0.127 A  
HETATM    6  C   UNL     1      -8.539   9.326  69.109  1.00  0.00    -0.134 A  
HETATM    7  C   UNL     1      -8.308   8.737  67.874  1.00  0.00    -0.118 A  
HETATM    8  C   UNL     1      -9.337   8.657  70.021  1.00  0.00    -0.165 A  
HETATM    9  C   UNL     1      -7.547   9.512  66.999  1.00  0.00    -0.091 A  
HETATM   10  N   UNL     1      -7.228   9.060  65.712  1.00  0.00    -0.088 NA 
HETATM   11  N   UNL     1      -7.073  10.722  67.318  1.00  0.00    -0.088 NA 
HETATM   12  H1  UNL     1      -6.671   9.627  65.072  1.00  0.00     0.000 HD 
HETATM   13  C   UNL     1      -7.349  11.212  68.537  1.00  0.00    -0.104 A  
HETATM   14  H2  UNL     1      -8.098   8.817  65.240  1.00  0.00     0.000 HD 
HETATM   15  N   UNL     1      -8.056  10.528  69.442  1.00  0.00    -0.151 NA 
BRANCH   4  16
HETATM   16  O   UNL     1     -10.124   5.600  68.030  1.00  0.00    -0.147 OA 
HETATM   17  C   UNL     1      -9.441   4.413  68.399  1.00  0.00    -0.154 C  
ENDBRANCH   4  16
BRANCH  13  18
HETATM   18  N   UNL     1      -6.991  12.504  68.835  1.00  0.00    -0.098 NA 
HETATM   19  C   UNL     1      -5.345  13.940  69.931  1.00  0.00    -0.097 C  
HETATM   20  C   UNL     1      -6.380  12.817  70.127  1.00  0.00     0.063 C  
HETATM   21  N   UNL     1      -5.923  15.101  69.235  1.00  0.00    -0.103 N  
HETATM   22  C   UNL     1      -5.757  16.367  69.777  1.00  0.00    -0.179 C  
HETATM   23  C   UNL     1      -6.587  14.766  67.962  1.00  0.00    -0.147 C  
HETATM   24  C   UNL     1      -7.622  13.631  68.142  1.00  0.00    -0.137 C  
HETATM   25  O   UNL     1      -5.149  16.524  70.840  1.00  0.00    -0.204 OA 
BRANCH  22  26
HETATM   26  C   UNL     1      -6.304  17.578  69.006  1.00  0.00    -0.218 C  
HETATM   27  C   UNL     1      -7.830  17.523  68.973  1.00  0.00    -0.118 C  
HETATM   28  O   UNL     1      -8.373  18.711  68.378  1.00  0.00    -0.315 OA 
HETATM   29  C   UNL     1      -7.702  19.045  67.232  1.00  0.00    -0.237 A  
HETATM   30  C   UNL     1      -8.314  19.978  66.397  1.00  0.00    -0.338 A  
HETATM   31  C   UNL     1      -7.691  20.360  65.209  1.00  0.00     0.294 A  
HETATM   32  C   UNL     1      -6.456  19.813  64.860  1.00  0.00    -0.292 A  
HETATM   33  C   UNL     1      -5.840  18.882  65.697  1.00  0.00    -0.217 A  
HETATM   34  C   UNL     1      -6.458  18.505  66.889  1.00  0.00    -0.183 A  
HETATM   35  O   UNL     1      -5.796  17.591  67.666  1.00  0.00    -0.133 OA 
ENDBRANCH  22  26
ENDBRANCH  13  18
ENDBRANCH   2   3
TORSDOF 4
ENDMDL
MODEL      112
REMARK 921   NORMALIZED FREE ENERGY PREDICTED BY IDOCK:   -3.19 KCAL/MOL
REMARK 922        TOTAL FREE ENERGY PREDICTED BY IDOCK:   -4.46 KCAL/MOL
REMARK 923 INTER-LIGAND FREE ENERGY PREDICTED BY IDOCK:   -4.87 KCAL/MOL
REMARK 924 INTRA-LIGAND FREE ENERGY PREDICTED BY IDOCK:    0.41 KCAL/MOL
REMARK 927      BINDING AFFINITY PREDICTED BY RF-SCORE:    0.00 PKD
ROOT
HETATM    1  C   UNL     1      -9.960  18.586  65.550  1.00  0.00     0.550 C  
HETATM    2  O   UNL     1      -8.916  17.877  66.215  1.00  0.00    -0.396 OA 
ENDROOT
BRANCH   2   3
HETATM    3  C   UNL     1      -9.297  16.731  66.864  1.00  0.00    -0.236 A  
HETATM    4  C   UNL     1     -10.145  16.811  67.974  1.00  0.00    -0.284 A  
HETATM    5  C   UNL     1     -10.569  15.619  68.575  1.00  0.00    -0.256 A  
HETATM    6  C   UNL     1      -9.274  14.286  67.022  1.00  0.00    -0.239 A  
HETATM    7  C   UNL     1     -10.163  14.356  68.085  1.00  0.00    -0.232 A  
HETATM    8  C   UNL     1      -8.838  15.467  66.447  1.00  0.00    -0.340 A  
HETATM    9  C   UNL     1     -10.597  13.118  68.557  1.00  0.00    -0.259 A  
HETATM   10  N   UNL     1     -11.498  13.017  69.624  1.00  0.00    -0.458 NA 
HETATM   11  N   UNL     1     -10.191  11.953  68.035  1.00  0.00    -0.187 NA 
HETATM   12  H1  UNL     1     -11.815  12.110  69.970  1.00  0.00     0.000 HD 
HETATM   13  C   UNL     1      -9.329  11.984  67.007  1.00  0.00    -0.191 A  
HETATM   14  H2  UNL     1     -12.323  13.570  69.392  1.00  0.00     0.000 HD 
HETATM   15  N   UNL     1      -8.851  13.128  66.505  1.00  0.00    -0.061 NA 
BRANCH   4  16
HETATM   16  O   UNL     1     -10.672  17.913  68.587  1.00  0.00    -0.229 OA 
HETATM   17  C   UNL     1      -9.812  18.977  68.963  1.00  0.00    -0.349 C  
ENDBRANCH   4  16
BRANCH  13  18
HETATM   18  N   UNL     1      -9.008  10.811  66.368  1.00  0.00    -0.162 NA 
HETATM   19  C   UNL     1      -7.729   9.787  64.555  1.00  0.00    -0.137 C  
HETATM   20  C   UNL     1      -8.841  10.789  64.915  1.00  0.00    -0.163 C  
HETATM   21  N   UNL     1      -7.966   8.467  65.161  1.00  0.00    -0.127 N  
HETATM   22  C   UNL     1      -7.907   7.335  64.361  1.00  0.00    -0.126 C  
HETATM   23  C   UNL     1      -8.190   8.507  66.617  1.00  0.00    -0.108 C  
HETATM   24  C   UNL     1      -9.297   9.518  66.994  1.00  0.00    -0.148 C  
HETATM   25  O   UNL     1      -7.677   7.427  63.152  1.00  0.00    -0.116 OA 
BRANCH  22  26
HETATM   26  C   UNL     1      -8.087   5.957  65.016  1.00  0.00    -0.132 C  
HETATM   27  C   UNL     1      -9.568   5.705  65.291  1.00  0.00     0.372 C  
HETATM   28  O   UNL     1      -9.780   4.371  65.777  1.00  0.00    -0.174 OA 
HETATM   29  C   UNL     1      -8.867   4.043  66.744  1.00  0.00    -0.122 A  
HETATM   30  C   UNL     1      -9.147   2.916  67.513  1.00  0.00    -0.215 A  
HETATM   31  C   UNL     1      -8.265   2.526  68.521  1.00  0.00    -0.073 A  
HETATM   32  C   UNL     1      -7.102   3.261  68.755  1.00  0.00    -0.049 A  
HETATM   33  C   UNL     1      -6.818   4.388  67.982  1.00  0.00    -0.055 A  
HETATM   34  C   UNL     1      -7.695   4.773  66.969  1.00  0.00    -0.091 A  
HETATM   35  O   UNL     1      -7.354   5.886  66.245  1.00  0.00    -0.078 OA 
ENDBRANCH  22  26
ENDBRANCH  13  18
ENDBRANCH   2   3
TORSDOF 4
ENDMDL
MODEL      113
REMARK 921   NORMALIZED FREE ENERGY PREDICTED BY IDOCK:   -3.14 KCAL/MOL
REMARK 922        TOTAL FREE ENERGY PREDICTED BY IDOCK:   -4.41 KCAL/MOL
REMARK 923 INTER-LIGAND FREE ENERGY PREDICTED BY IDOCK:   -4.78 KCAL/MOL
REMARK 924 INTRA-LIGAND FREE ENERGY PREDICTED BY IDOCK:    0.37 KCAL/MOL
REMARK 927      BINDING AFFINITY PREDICTED BY RF-SCORE:    0.00 PKD
ROOT
HETATM    1  C   UNL     1      -9.230   3.366  70.106  1.00  0.00    -0.155 C  
HETATM    2  O   UNL     1      -9.198   3.424  68.680  1.00  0.00    -0.140 OA 
ENDROOT
BRANCH   2   3
HETATM    3  C   UNL     1      -8.542   4.502  68.145  1.00  0.00    -0.101 A  
HETATM    4  C   UNL     1      -7.480   4.298  67.257  1.00  0.00    -0.077 A  
HETATM    5  C   UNL     1      -6.872   5.418  66.676  1.00  0.00    -0.063 A  
HETATM    6  C   UNL     1      -8.323   6.930  67.891  1.00  0.00    -0.121 A  
HETATM    7  C   UNL     1      -7.310   6.732  66.964  1.00  0.00    -0.082 A  
HETATM    8  C   UNL     1      -8.903   5.821  68.482  1.00  0.00    -0.110 A  
HETATM    9  C   UNL     1      -6.831   7.901  66.375  1.00  0.00    -0.062 A  
HETATM   10  N   UNL     1      -5.810   7.872  65.417  1.00  0.00    -0.037 NA 
HETATM   11  N   UNL     1      -7.302   9.118  66.676  1.00  0.00    -0.085 NA 
HETATM   12  H1  UNL     1      -5.459   8.728  64.985  1.00  0.00     0.000 HD 
HETATM   13  C   UNL     1      -8.285   9.211  67.585  1.00  0.00    -0.108 A  
HETATM   14  H2  UNL     1      -6.097   7.240  64.670  1.00  0.00     0.000 HD 
HETATM   15  N   UNL     1      -8.789   8.142  68.210  1.00  0.00    -0.133 NA 
BRANCH   4  16
HETATM   16  O   UNL     1      -6.922   3.127  66.825  1.00  0.00    -0.052 OA 
HETATM   17  C   UNL     1      -7.500   2.446  65.723  1.00  0.00    -0.068 C  
ENDBRANCH   4  16
BRANCH  13  18
HETATM   18  N   UNL     1      -8.877  10.431  67.807  1.00  0.00    -0.128 NA 
HETATM   19  C   UNL     1     -10.888  11.587  68.575  1.00  0.00    -0.215 C  
HETATM   20  C   UNL     1     -10.303  10.615  67.535  1.00  0.00    -0.214 C  
HETATM   21  N   UNL     1     -10.117  12.838  68.649  1.00  0.00    -0.175 N  
HETATM   22  C   UNL     1     -10.785  14.051  68.570  1.00  0.00    -0.256 C  
HETATM   23  C   UNL     1      -8.673  12.639  68.866  1.00  0.00     0.332 C  
HETATM   24  C   UNL     1      -8.073  11.656  67.834  1.00  0.00    -0.138 C  
HETATM   25  O   UNL     1     -12.010  14.088  68.420  1.00  0.00    -0.349 OA 
BRANCH  22  26
HETATM   26  C   UNL     1      -9.979  15.350  68.719  1.00  0.00    -0.208 C  
HETATM   27  C   UNL     1      -9.976  16.110  67.393  1.00  0.00    -0.247 C  
HETATM   28  O   UNL     1      -9.346  17.392  67.539  1.00  0.00    -0.231 OA 
HETATM   29  C   UNL     1      -8.175  17.294  68.244  1.00  0.00    -0.237 A  
HETATM   30  C   UNL     1      -7.317  18.390  68.188  1.00  0.00    -0.271 A  
HETATM   31  C   UNL     1      -6.104  18.358  68.876  1.00  0.00    -0.219 A  
HETATM   32  C   UNL     1      -5.754  17.232  69.623  1.00  0.00    -0.225 A  
HETATM   33  C   UNL     1      -6.615  16.136  69.683  1.00  0.00    -0.182 A  
HETATM   34  C   UNL     1      -7.831  16.170  69.002  1.00  0.00    -0.227 A  
HETATM   35  O   UNL     1      -8.631  15.062  69.108  1.00  0.00    -0.196 OA 
ENDBRANCH  22  26
ENDBRANCH  13  18
ENDBRANCH   2   3
TORSDOF 4
ENDMDL
MODEL      114
REMARK 921   NORMALIZED FREE ENERGY PREDICTED BY IDOCK:   -2.98 KCAL/MOL
REMARK 922        TOTAL FREE ENERGY PREDICTED BY IDOCK:   -4.21 KCAL/MOL
REMARK 923 INTER-LIGAND FREE ENERGY PREDICTED BY IDOCK:   -4.44 KCAL/MOL
REMARK 924 INTRA-LIGAND FREE ENERGY PREDICTED BY IDOCK:    0.23 KCAL/MOL
REMARK 927      BINDING AFFINITY PREDICTED BY RF-SCORE:    0.00 PKD
ROOT
HETATM    1  C   UNL     1      -9.901   4.040  69.488  1.00  0.00    -0.064 C  
HETATM    2  O   UNL     1      -8.644   4.564  69.063  1.00  0.00    -0.082 OA 
ENDROOT
BRANCH   2   3
HETATM    3  C   UNL     1      -8.138   5.585  69.824  1.00  0.00    -0.101 A  
HETATM    4  C   UNL     1      -7.516   5.299  71.045  1.00  0.00    -0.087 A  
HETATM    5  C   UNL     1      -6.951   6.356  71.769  1.00  0.00    -0.076 A  
HETATM    6  C   UNL     1      -7.665   7.972  70.112  1.00  0.00    -0.087 A  
HETATM    7  C   UNL     1      -6.994   7.687  71.292  1.00  0.00    -0.050 A  
HETATM    8  C   UNL     1      -8.244   6.927  69.413  1.00  0.00    -0.131 A  
HETATM    9  C   UNL     1      -6.389   8.791  71.893  1.00  0.00    -0.072 A  
HETATM   10  N   UNL     1      -5.671   8.670  73.089  1.00  0.00    -0.079 NA 
HETATM   11  N   UNL     1      -6.449  10.026  71.381  1.00  0.00    -0.311 NA 
HETATM   12  H1  UNL     1      -5.229   9.478  73.529  1.00  0.00     0.000 HD 
HETATM   13  C   UNL     1      -7.120  10.206  70.232  1.00  0.00    -0.138 A  
HETATM   14  H2  UNL     1      -4.956   7.955  72.956  1.00  0.00     0.000 HD 
HETATM   15  N   UNL     1      -7.743   9.205  69.601  1.00  0.00    -0.077 NA 
BRANCH   4  16
HETATM   16  O   UNL     1      -7.341   4.095  71.669  1.00  0.00    -0.055 OA 
HETATM   17  C   UNL     1      -7.975   3.861  72.916  1.00  0.00    -0.079 C  
ENDBRANCH   4  16
BRANCH  13  18
HETATM   18  N   UNL     1      -7.078  11.434  69.618  1.00  0.00    -0.032 NA 
HETATM   19  C   UNL     1      -5.698  13.383  69.098  1.00  0.00    -0.078 C  
HETATM   20  C   UNL     1      -6.316  12.529  70.220  1.00  0.00     0.149 C  
HETATM   21  N   UNL     1      -6.707  13.811  68.117  1.00  0.00    -0.107 N  
HETATM   22  C   UNL     1      -6.786  15.151  67.767  1.00  0.00    -0.165 C  
HETATM   23  C   UNL     1      -7.508  12.706  67.560  1.00  0.00    -0.155 C  
HETATM   24  C   UNL     1      -8.127  11.833  68.676  1.00  0.00    -0.104 C  
HETATM   25  O   UNL     1      -6.033  15.983  68.282  1.00  0.00    -0.097 OA 
BRANCH  22  26
HETATM   26  C   UNL     1      -7.796  15.576  66.690  1.00  0.00    -0.027 C  
HETATM   27  C   UNL     1      -8.409  16.925  67.063  1.00  0.00    -0.200 C  
HETATM   28  O   UNL     1      -9.254  17.412  66.009  1.00  0.00    -0.483 OA 
HETATM   29  C   UNL     1     -10.076  16.424  65.535  1.00  0.00    -0.208 A  
HETATM   30  C   UNL     1     -11.149  16.829  64.744  1.00  0.00    -0.025 A  
HETATM   31  C   UNL     1     -12.032  15.878  64.232  1.00  0.00     0.008 A  
HETATM   32  C   UNL     1     -11.838  14.524  64.507  1.00  0.00    -0.459 A  
HETATM   33  C   UNL     1     -10.761  14.117  65.296  1.00  0.00    -0.374 A  
HETATM   34  C   UNL     1      -9.874  15.066  65.801  1.00  0.00    -0.353 A  
HETATM   35  O   UNL     1      -8.835  14.598  66.563  1.00  0.00    -0.238 OA 
ENDBRANCH  22  26
ENDBRANCH  13  18
ENDBRANCH   2   3
TORSDOF 4
ENDMDL
MODEL      115
REMARK 921   NORMALIZED FREE ENERGY PREDICTED BY IDOCK:   -2.95 KCAL/MOL
REMARK 922        TOTAL FREE ENERGY PREDICTED BY IDOCK:   -4.17 KCAL/MOL
REMARK 923 INTER-LIGAND FREE ENERGY PREDICTED BY IDOCK:   -4.62 KCAL/MOL
REMARK 924 INTRA-LIGAND FREE ENERGY PREDICTED BY IDOCK:    0.45 KCAL/MOL
REMARK 927      BINDING AFFINITY PREDICTED BY RF-SCORE:    0.00 PKD
ROOT
HETATM    1  C   UNL     1      -5.781   6.354  63.496  1.00  0.00    -0.022 C  
HETATM    2  O   UNL     1      -6.359   5.467  64.454  1.00  0.00    -0.025 OA 
ENDROOT
BRANCH   2   3
HETATM    3  C   UNL     1      -7.124   6.060  65.425  1.00  0.00    -0.065 A  
HETATM    4  C   UNL     1      -8.036   5.291  66.156  1.00  0.00    -0.109 A  
HETATM    5  C   UNL     1      -8.755   5.911  67.185  1.00  0.00    -0.108 A  
HETATM    6  C   UNL     1      -7.712   8.049  66.730  1.00  0.00    -0.098 A  
HETATM    7  C   UNL     1      -8.574   7.278  67.497  1.00  0.00    -0.122 A  
HETATM    8  C   UNL     1      -7.023   7.438  65.696  1.00  0.00    -0.060 A  
HETATM    9  C   UNL     1      -9.175   7.963  68.553  1.00  0.00    -0.138 A  
HETATM   10  N   UNL     1     -10.069   7.327  69.423  1.00  0.00    -0.178 NA 
HETATM   11  N   UNL     1      -8.946   9.257  68.809  1.00  0.00    -0.132 NA 
HETATM   12  H1  UNL     1     -10.508   7.828  70.196  1.00  0.00     0.000 HD 
HETATM   13  C   UNL     1      -8.095   9.922  68.013  1.00  0.00    -0.108 A  
HETATM   14  H2  UNL     1      -9.603   6.505  69.807  1.00  0.00     0.000 HD 
HETATM   15  N   UNL     1      -7.490   9.346  66.968  1.00  0.00    -0.091 NA 
BRANCH   4  16
HETATM   16  O   UNL     1      -8.343   3.964  66.039  1.00  0.00    -0.107 OA 
HETATM   17  C   UNL     1      -9.704   3.562  66.040  1.00  0.00    -0.030 C  
ENDBRANCH   4  16
BRANCH  13  18
HETATM   18  N   UNL     1      -7.740  11.208  68.339  1.00  0.00    -0.117 NA 
HETATM   19  C   UNL     1      -6.118  12.621  69.500  1.00  0.00    -0.119 C  
HETATM   20  C   UNL     1      -7.162  11.500  69.651  1.00  0.00     0.160 C  
HETATM   21  N   UNL     1      -6.673  13.794  68.805  1.00  0.00    -0.097 N  
HETATM   22  C   UNL     1      -6.516  15.051  69.369  1.00  0.00    -0.135 C  
HETATM   23  C   UNL     1      -7.303  13.481  67.510  1.00  0.00    -0.164 C  
HETATM   24  C   UNL     1      -8.347  12.348  67.646  1.00  0.00    -0.169 C  
HETATM   25  O   UNL     1      -5.936  15.190  70.449  1.00  0.00    -0.143 OA 
BRANCH  22  26
HETATM   26  C   UNL     1      -7.037  16.276  68.602  1.00  0.00    -0.155 C  
HETATM   27  C   UNL     1      -6.865  16.055  67.100  1.00  0.00    -0.188 C  
HETATM   28  O   UNL     1      -7.466  17.123  66.353  1.00  0.00    -0.251 OA 
HETATM   29  C   UNL     1      -7.139  18.345  66.880  1.00  0.00    -0.200 A  
HETATM   30  C   UNL     1      -7.390  19.459  66.081  1.00  0.00    -0.288 A  
HETATM   31  C   UNL     1      -7.075  20.734  66.551  1.00  0.00    -0.243 A  
HETATM   32  C   UNL     1      -6.515  20.894  67.818  1.00  0.00    -0.400 A  
HETATM   33  C   UNL     1      -6.267  19.779  68.621  1.00  0.00    -0.296 A  
HETATM   34  C   UNL     1      -6.589  18.505  68.156  1.00  0.00    -0.221 A  
HETATM   35  O   UNL     1      -6.324  17.455  68.996  1.00  0.00    -0.196 OA 
ENDBRANCH  22  26
ENDBRANCH  13  18
ENDBRANCH   2   3
TORSDOF 4
ENDMDL
MODEL      116
REMARK 921   NORMALIZED FREE ENERGY PREDICTED BY IDOCK:   -2.93 KCAL/MOL
REMARK 922        TOTAL FREE ENERGY PREDICTED BY IDOCK:   -4.14 KCAL/MOL
REMARK 923 INTER-LIGAND FREE ENERGY PREDICTED BY IDOCK:   -3.50 KCAL/MOL
REMARK 924 INTRA-LIGAND FREE ENERGY PREDICTED BY IDOCK:   -0.64 KCAL/MOL
REMARK 927      BINDING AFFINITY PREDICTED BY RF-SCORE:    0.00 PKD
ROOT
HETATM    1  C   UNL     1     -11.855  15.519  67.411  1.00  0.00     0.188 C  
HETATM    2  O   UNL     1     -11.067  15.014  68.487  1.00  0.00    -0.250 OA 
ENDROOT
BRANCH   2   3
HETATM    3  C   UNL     1      -9.972  14.273  68.125  1.00  0.00    -0.230 A  
HETATM    4  C   UNL     1      -8.809  14.919  67.691  1.00  0.00    -0.181 A  
HETATM    5  C   UNL     1      -7.687  14.138  67.390  1.00  0.00    -0.189 A  
HETATM    6  C   UNL     1      -8.881  12.091  67.892  1.00  0.00    -0.174 A  
HETATM    7  C   UNL     1      -7.706  12.730  67.519  1.00  0.00    -0.168 A  
HETATM    8  C   UNL     1      -9.995  12.865  68.163  1.00  0.00    -0.234 A  
HETATM    9  C   UNL     1      -6.621  11.875  67.329  1.00  0.00    -0.141 A  
HETATM   10  N   UNL     1      -5.363  12.364  66.953  1.00  0.00    -0.361 NA 
HETATM   11  N   UNL     1      -6.698  10.548  67.487  1.00  0.00    -0.069 NA 
HETATM   12  H1  UNL     1      -4.568  11.739  66.814  1.00  0.00     0.000 HD 
HETATM   13  C   UNL     1      -7.877  10.020  67.851  1.00  0.00    -0.090 A  
HETATM   14  H2  UNL     1      -5.087  13.075  67.630  1.00  0.00     0.000 HD 
HETATM   15  N   UNL     1      -8.971  10.765  68.037  1.00  0.00    -0.136 NA 
BRANCH   4  16
HETATM   16  O   UNL     1      -8.569  16.254  67.523  1.00  0.00    -0.173 OA 
HETATM   17  C   UNL     1      -8.223  17.045  68.648  1.00  0.00    -0.261 C  
ENDBRANCH   4  16
BRANCH  13  18
HETATM   18  N   UNL     1      -7.945   8.681  68.152  1.00  0.00    -0.106 NA 
HETATM   19  C   UNL     1      -8.802   6.499  67.462  1.00  0.00    -0.112 C  
HETATM   20  C   UNL     1      -9.173   7.931  67.888  1.00  0.00    -0.134 C  
HETATM   21  N   UNL     1      -7.895   5.860  68.428  1.00  0.00    -0.104 N  
HETATM   22  C   UNL     1      -8.203   4.597  68.913  1.00  0.00    -0.081 C  
HETATM   23  C   UNL     1      -6.688   6.650  68.731  1.00  0.00    -0.057 C  
HETATM   24  C   UNL     1      -7.046   8.095  69.150  1.00  0.00    -0.061 C  
HETATM   25  O   UNL     1      -9.234   4.018  68.556  1.00  0.00    -0.127 OA 
BRANCH  22  26
HETATM   26  C   UNL     1      -7.214   3.909  69.866  1.00  0.00    -0.042 C  
HETATM   27  C   UNL     1      -7.358   2.392  69.752  1.00  0.00    -0.043 C  
HETATM   28  O   UNL     1      -6.354   1.723  70.530  1.00  0.00    -0.023 OA 
HETATM   29  C   UNL     1      -6.236   2.280  71.775  1.00  0.00    -0.014 A  
HETATM   30  C   UNL     1      -5.536   1.542  72.728  1.00  0.00     0.000 A  
HETATM   31  C   UNL     1      -5.382   2.045  74.020  1.00  0.00     0.000 A  
HETATM   32  C   UNL     1      -5.924   3.286  74.356  1.00  0.00    -0.011 A  
HETATM   33  C   UNL     1      -6.621   4.028  73.401  1.00  0.00    -0.042 A  
HETATM   34  C   UNL     1      -6.768   3.530  72.108  1.00  0.00    -0.019 A  
HETATM   35  O   UNL     1      -7.459   4.312  71.219  1.00  0.00    -0.056 OA 
ENDBRANCH  22  26
ENDBRANCH  13  18
ENDBRANCH   2   3
TORSDOF 4
ENDMDL
MODEL      117
REMARK 921   NORMALIZED FREE ENERGY PREDICTED BY IDOCK:   -2.85 KCAL/MOL
REMARK 922        TOTAL FREE ENERGY PREDICTED BY IDOCK:   -4.05 KCAL/MOL
REMARK 923 INTER-LIGAND FREE ENERGY PREDICTED BY IDOCK:   -4.33 KCAL/MOL
REMARK 924 INTRA-LIGAND FREE ENERGY PREDICTED BY IDOCK:    0.28 KCAL/MOL
REMARK 927      BINDING AFFINITY PREDICTED BY RF-SCORE:    0.00 PKD
ROOT
HETATM    1  C   UNL     1     -11.020   7.739  69.378  1.00  0.00    -0.035 C  
HETATM    2  O   UNL     1     -10.275   8.759  70.042  1.00  0.00    -0.188 OA 
ENDROOT
BRANCH   2   3
HETATM    3  C   UNL     1     -10.751  10.035  69.891  1.00  0.00    -0.286 A  
HETATM    4  C   UNL     1     -12.096  10.311  70.160  1.00  0.00    -0.202 A  
HETATM    5  C   UNL     1     -12.538  11.635  70.060  1.00  0.00    -0.048 A  
HETATM    6  C   UNL     1     -10.342  12.396  69.378  1.00  0.00     0.465 A  
HETATM    7  C   UNL     1     -11.660  12.685  69.702  1.00  0.00    -0.321 A  
HETATM    8  C   UNL     1      -9.916  11.081  69.453  1.00  0.00    -0.019 A  
HETATM    9  C   UNL     1     -11.980  14.041  69.660  1.00  0.00    -0.339 A  
HETATM   10  N   UNL     1     -13.269  14.498  69.962  1.00  0.00    -0.353 NA 
HETATM   11  N   UNL     1     -11.096  14.992  69.332  1.00  0.00    -0.264 NA 
HETATM   12  H1  UNL     1     -13.504  15.491  69.931  1.00  0.00     0.000 HD 
HETATM   13  C   UNL     1      -9.842  14.617  69.035  1.00  0.00    -0.177 A  
HETATM   14  H2  UNL     1     -13.519  14.145  70.886  1.00  0.00     0.000 HD 
HETATM   15  N   UNL     1      -9.456  13.337  69.034  1.00  0.00     0.261 NA 
BRANCH   4  16
HETATM   16  O   UNL     1     -13.097   9.461  70.542  1.00  0.00     0.108 OA 
HETATM   17  C   UNL     1     -13.337   9.247  71.924  1.00  0.00    -0.429 C  
ENDBRANCH   4  16
BRANCH  13  18
HETATM   18  N   UNL     1      -8.886  15.582  68.832  1.00  0.00    -0.199 NA 
HETATM   19  C   UNL     1      -6.652  16.368  69.436  1.00  0.00    -0.210 C  
HETATM   20  C   UNL     1      -8.068  16.052  69.950  1.00  0.00     0.538 C  
HETATM   21  N   UNL     1      -6.681  17.278  68.279  1.00  0.00    -0.172 N  
HETATM   22  C   UNL     1      -5.879  18.410  68.288  1.00  0.00    -0.178 C  
HETATM   23  C   UNL     1      -7.553  16.824  67.182  1.00  0.00    -0.188 C  
HETATM   24  C   UNL     1      -8.977  16.492  67.686  1.00  0.00    -0.197 C  
HETATM   25  O   UNL     1      -5.161  18.667  69.259  1.00  0.00    -0.190 OA 
BRANCH  22  26
HETATM   26  C   UNL     1      -5.865  19.315  67.048  1.00  0.00    -0.174 C  
HETATM   27  C   UNL     1      -7.226  19.989  66.884  1.00  0.00    -0.238 C  
HETATM   28  O   UNL     1      -7.200  20.944  65.813  1.00  0.00     0.024 OA 
HETATM   29  C   UNL     1      -6.583  20.431  64.703  1.00  0.00    -0.243 A  
HETATM   30  C   UNL     1      -6.765  21.124  63.509  1.00  0.00    -0.029 A  
HETATM   31  C   UNL     1      -6.172  20.655  62.337  1.00  0.00    -0.111 A  
HETATM   32  C   UNL     1      -5.394  19.497  62.362  1.00  0.00    -0.354 A  
HETATM   33  C   UNL     1      -5.207  18.804  63.559  1.00  0.00    -0.163 A  
HETATM   34  C   UNL     1      -5.793  19.277  64.732  1.00  0.00    -0.269 A  
HETATM   35  O   UNL     1      -5.565  18.552  65.873  1.00  0.00    -0.149 OA 
ENDBRANCH  22  26
ENDBRANCH  13  18
ENDBRANCH   2   3
TORSDOF 4
ENDMDL
MODEL      118
REMARK 921   NORMALIZED FREE ENERGY PREDICTED BY IDOCK:   -2.67 KCAL/MOL
REMARK 922        TOTAL FREE ENERGY PREDICTED BY IDOCK:   -3.83 KCAL/MOL
REMARK 923 INTER-LIGAND FREE ENERGY PREDICTED BY IDOCK:   -5.93 KCAL/MOL
REMARK 924 INTRA-LIGAND FREE ENERGY PREDICTED BY IDOCK:    2.10 KCAL/MOL
REMARK 927      BINDING AFFINITY PREDICTED BY RF-SCORE:    0.00 PKD
ROOT
HETATM    1  C   UNL     1     -12.001  16.478  73.015  1.00  0.00    -0.389 C  
HETATM    2  O   UNL     1     -12.065  16.163  71.625  1.00  0.00    -0.461 OA 
ENDROOT
BRANCH   2   3
HETATM    3  C   UNL     1     -12.187  14.832  71.323  1.00  0.00    -0.333 A  
HETATM    4  C   UNL     1     -13.084  14.036  72.044  1.00  0.00    -0.401 A  
HETATM    5  C   UNL     1     -13.234  12.695  71.670  1.00  0.00    -0.394 A  
HETATM    6  C   UNL     1     -11.579  12.920  69.916  1.00  0.00    -0.176 A  
HETATM    7  C   UNL     1     -12.510  12.141  70.588  1.00  0.00    -0.330 A  
HETATM    8  C   UNL     1     -11.414  14.237  70.307  1.00  0.00    -0.226 A  
HETATM    9  C   UNL     1     -12.652  10.849  70.085  1.00  0.00    -0.234 A  
HETATM   10  N   UNL     1     -13.554   9.938  70.650  1.00  0.00    -0.499 NA 
HETATM   11  N   UNL     1     -11.949  10.389  69.042  1.00  0.00    -0.156 NA 
HETATM   12  H1  UNL     1     -13.658   8.992  70.282  1.00  0.00     0.000 HD 
HETATM   13  C   UNL     1     -11.071  11.216  68.454  1.00  0.00    -0.247 A  
HETATM   14  H2  UNL     1     -14.476  10.374  70.660  1.00  0.00     0.000 HD 
HETATM   15  N   UNL     1     -10.861  12.464  68.884  1.00  0.00    -0.222 NA 
BRANCH   4  16
HETATM   16  O   UNL     1     -13.893  14.371  73.093  1.00  0.00    -0.468 OA 
HETATM   17  C   UNL     1     -14.259  15.729  73.283  1.00  0.00     0.698 C  
ENDBRANCH   4  16
BRANCH  13  18
HETATM   18  N   UNL     1     -10.442  10.813  67.301  1.00  0.00    -0.223 NA 
HETATM   19  C   UNL     1      -9.759  11.457  65.045  1.00  0.00    -0.250 C  
HETATM   20  C   UNL     1     -10.948  11.247  65.999  1.00  0.00    -0.174 C  
HETATM   21  N   UNL     1      -8.883  10.276  64.994  1.00  0.00    -0.176 N  
HETATM   22  C   UNL     1      -8.528   9.749  63.761  1.00  0.00    -0.184 C  
HETATM   23  C   UNL     1      -8.425   9.812  66.316  1.00  0.00    -0.123 C  
HETATM   24  C   UNL     1      -9.609   9.607  67.288  1.00  0.00    -0.164 C  
HETATM   25  O   UNL     1      -8.952  10.249  62.715  1.00  0.00    -0.200 OA 
BRANCH  22  26
HETATM   26  C   UNL     1      -7.557   8.559  63.717  1.00  0.00    -0.130 C  
HETATM   27  C   UNL     1      -6.563   8.746  62.572  1.00  0.00    -0.095 C  
HETATM   28  O   UNL     1      -5.561   7.719  62.591  1.00  0.00    -0.053 OA 
HETATM   29  C   UNL     1      -6.119   6.482  62.781  1.00  0.00    -0.034 A  
HETATM   30  C   UNL     1      -5.310   5.381  62.509  1.00  0.00    -0.013 A  
HETATM   31  C   UNL     1      -5.814   4.091  62.675  1.00  0.00    -0.013 A  
HETATM   32  C   UNL     1      -7.124   3.905  63.117  1.00  0.00    -0.045 A  
HETATM   33  C   UNL     1      -7.934   5.007  63.395  1.00  0.00    -0.094 A  
HETATM   34  C   UNL     1      -7.428   6.296  63.237  1.00  0.00    -0.071 A  
HETATM   35  O   UNL     1      -8.275   7.333  63.532  1.00  0.00    -0.051 OA 
ENDBRANCH  22  26
ENDBRANCH  13  18
ENDBRANCH   2   3
TORSDOF 4
ENDMDL
MODEL      119
REMARK 921   NORMALIZED FREE ENERGY PREDICTED BY IDOCK:   -2.25 KCAL/MOL
REMARK 922        TOTAL FREE ENERGY PREDICTED BY IDOCK:   -3.31 KCAL/MOL
REMARK 923 INTER-LIGAND FREE ENERGY PREDICTED BY IDOCK:   -2.91 KCAL/MOL
REMARK 924 INTRA-LIGAND FREE ENERGY PREDICTED BY IDOCK:   -0.40 KCAL/MOL
REMARK 927      BINDING AFFINITY PREDICTED BY RF-SCORE:    0.00 PKD
ROOT
HETATM    1  C   UNL     1     -10.842  16.934  70.413  1.00  0.00     0.330 C  
HETATM    2  O   UNL     1     -11.872  16.487  69.534  1.00  0.00     0.037 OA 
ENDROOT
BRANCH   2   3
HETATM    3  C   UNL     1     -11.485  15.586  68.576  1.00  0.00    -0.361 A  
HETATM    4  C   UNL     1     -11.082  16.042  67.316  1.00  0.00    -0.131 A  
HETATM    5  C   UNL     1     -10.630  15.103  66.381  1.00  0.00    -0.305 A  
HETATM    6  C   UNL     1     -11.028  13.271  67.915  1.00  0.00    -0.249 A  
HETATM    7  C   UNL     1     -10.571  13.723  66.685  1.00  0.00    -0.274 A  
HETATM    8  C   UNL     1     -11.499  14.200  68.826  1.00  0.00    -0.333 A  
HETATM    9  C   UNL     1     -10.057  12.724  65.859  1.00  0.00    -0.276 A  
HETATM   10  N   UNL     1      -9.553  13.016  64.585  1.00  0.00    -0.393 NA 
HETATM   11  N   UNL     1     -10.010  11.434  66.213  1.00  0.00    -0.217 NA 
HETATM   12  H1  UNL     1      -9.177  12.286  63.980  1.00  0.00     0.000 HD 
HETATM   13  C   UNL     1     -10.475  11.091  67.424  1.00  0.00    -0.218 A  
HETATM   14  H2  UNL     1      -8.838  13.737  64.688  1.00  0.00     0.000 HD 
HETATM   15  N   UNL     1     -10.999  11.983  68.271  1.00  0.00    -0.219 NA 
BRANCH   4  16
HETATM   16  O   UNL     1     -11.035  17.318  66.828  1.00  0.00    -0.044 OA 
HETATM   17  C   UNL     1      -9.965  17.699  65.979  1.00  0.00    -0.209 C  
ENDBRANCH   4  16
BRANCH  13  18
HETATM   18  N   UNL     1     -10.310   9.799  67.863  1.00  0.00    -0.198 NA 
HETATM   19  C   UNL     1     -11.278   7.557  67.942  1.00  0.00     0.376 C  
HETATM   20  C   UNL     1     -11.462   9.033  68.338  1.00  0.00     0.870 C  
HETATM   21  N   UNL     1      -9.976   7.031  68.381  1.00  0.00    -0.150 N  
HETATM   22  C   UNL     1      -9.930   5.839  69.088  1.00  0.00    -0.177 C  
HETATM   23  C   UNL     1      -8.825   7.842  67.945  1.00  0.00    -0.123 C  
HETATM   24  C   UNL     1      -9.001   9.330  68.326  1.00  0.00    -0.129 C  
HETATM   25  O   UNL     1     -10.967   5.231  69.367  1.00  0.00    -0.082 OA 
BRANCH  22  26
HETATM   26  C   UNL     1      -8.561   5.264  69.480  1.00  0.00    -0.097 C  
HETATM   27  C   UNL     1      -7.846   4.741  68.235  1.00  0.00    -0.081 C  
HETATM   28  O   UNL     1      -6.509   4.322  68.551  1.00  0.00    -0.035 OA 
HETATM   29  C   UNL     1      -6.481   3.565  69.692  1.00  0.00    -0.033 A  
HETATM   30  C   UNL     1      -5.316   2.840  69.934  1.00  0.00    -0.012 A  
HETATM   31  C   UNL     1      -5.220   2.042  71.074  1.00  0.00    -0.004 A  
HETATM   32  C   UNL     1      -6.286   1.973  71.971  1.00  0.00    -0.014 A  
HETATM   33  C   UNL     1      -7.452   2.701  71.731  1.00  0.00    -0.040 A  
HETATM   34  C   UNL     1      -7.546   3.506  70.597  1.00  0.00    -0.040 A  
HETATM   35  O   UNL     1      -8.716   4.198  70.425  1.00  0.00    -0.074 OA 
ENDBRANCH  22  26
ENDBRANCH  13  18
ENDBRANCH   2   3
TORSDOF 4
ENDMDL
MODEL      120
REMARK 921   NORMALIZED FREE ENERGY PREDICTED BY IDOCK:   -1.88 KCAL/MOL
REMARK 922        TOTAL FREE ENERGY PREDICTED BY IDOCK:   -2.85 KCAL/MOL
REMARK 923 INTER-LIGAND FREE ENERGY PREDICTED BY IDOCK:   -3.17 KCAL/MOL
REMARK 924 INTRA-LIGAND FREE ENERGY PREDICTED BY IDOCK:    0.32 KCAL/MOL
REMARK 927      BINDING AFFINITY PREDICTED BY RF-SCORE:    0.00 PKD
ROOT
HETATM    1  C   UNL     1     -11.726  16.662  66.640  1.00  0.00     1.371 C  
HETATM    2  O   UNL     1     -10.862  16.468  67.758  1.00  0.00    -0.341 OA 
ENDROOT
BRANCH   2   3
HETATM    3  C   UNL     1      -9.778  15.657  67.536  1.00  0.00    -0.222 A  
HETATM    4  C   UNL     1      -8.490  16.203  67.540  1.00  0.00    -0.162 A  
HETATM    5  C   UNL     1      -7.400  15.340  67.376  1.00  0.00    -0.241 A  
HETATM    6  C   UNL     1      -8.858  13.419  67.151  1.00  0.00    -0.222 A  
HETATM    7  C   UNL     1      -7.576  13.946  67.214  1.00  0.00    -0.079 A  
HETATM    8  C   UNL     1      -9.933  14.280  67.287  1.00  0.00    -0.252 A  
HETATM    9  C   UNL     1      -6.558  12.997  67.131  1.00  0.00     0.194 A  
HETATM   10  N   UNL     1      -5.208  13.366  67.182  1.00  0.00    -0.200 NA 
HETATM   11  N   UNL     1      -6.790  11.685  66.998  1.00  0.00    -0.141 NA 
HETATM   12  H1  UNL     1      -4.463  12.672  67.122  1.00  0.00     0.000 HD 
HETATM   13  C   UNL     1      -8.065  11.268  66.947  1.00  0.00    -0.155 A  
HETATM   14  H2  UNL     1      -5.063  13.908  68.034  1.00  0.00     0.000 HD 
HETATM   15  N   UNL     1      -9.100  12.113  67.002  1.00  0.00    -0.192 NA 
BRANCH   4  16
HETATM   16  O   UNL     1      -8.098  17.502  67.706  1.00  0.00    -0.213 OA 
HETATM   17  C   UNL     1      -8.796  18.532  67.024  1.00  0.00    -0.278 C  
ENDBRANCH   4  16
BRANCH  13  18
HETATM   18  N   UNL     1      -8.327   9.919  66.950  1.00  0.00    -0.124 NA 
HETATM   19  C   UNL     1      -8.512   7.897  65.589  1.00  0.00    -0.147 C  
HETATM   20  C   UNL     1      -9.063   9.313  65.839  1.00  0.00    -0.197 C  
HETATM   21  N   UNL     1      -8.496   7.092  66.820  1.00  0.00    -0.115 N  
HETATM   22  C   UNL     1      -9.058   5.824  66.807  1.00  0.00    -0.126 C  
HETATM   23  C   UNL     1      -7.802   7.736  67.950  1.00  0.00    -0.127 C  
HETATM   24  C   UNL     1      -8.338   9.164  68.206  1.00  0.00    -0.120 C  
HETATM   25  O   UNL     1      -9.585   5.377  65.784  1.00  0.00    -0.139 OA 
BRANCH  22  26
HETATM   26  C   UNL     1      -8.974   4.964  68.077  1.00  0.00    -0.110 C  
HETATM   27  C   UNL     1      -9.986   5.464  69.107  1.00  0.00    -0.197 C  
HETATM   28  O   UNL     1     -10.025   4.596  70.250  1.00  0.00    -0.226 OA 
HETATM   29  C   UNL     1      -8.763   4.273  70.672  1.00  0.00    -0.083 A  
HETATM   30  C   UNL     1      -8.653   3.704  71.940  1.00  0.00    -0.110 A  
HETATM   31  C   UNL     1      -7.397   3.356  72.438  1.00  0.00    -0.049 A  
HETATM   32  C   UNL     1      -6.255   3.571  71.666  1.00  0.00    -0.014 A  
HETATM   33  C   UNL     1      -6.365   4.135  70.394  1.00  0.00    -0.027 A  
HETATM   34  C   UNL     1      -7.619   4.477  69.893  1.00  0.00    -0.054 A  
HETATM   35  O   UNL     1      -7.656   5.022  68.636  1.00  0.00    -0.076 OA 
ENDBRANCH  22  26
ENDBRANCH  13  18
ENDBRANCH   2   3
TORSDOF 4
ENDMDL
MODEL      121
REMARK 921   NORMALIZED FREE ENERGY PREDICTED BY IDOCK:   -1.39 KCAL/MOL
REMARK 922        TOTAL FREE ENERGY PREDICTED BY IDOCK:   -2.24 KCAL/MOL
REMARK 923 INTER-LIGAND FREE ENERGY PREDICTED BY IDOCK:   -3.13 KCAL/MOL
REMARK 924 INTRA-LIGAND FREE ENERGY PREDICTED BY IDOCK:    0.89 KCAL/MOL
REMARK 927      BINDING AFFINITY PREDICTED BY RF-SCORE:    0.00 PKD
ROOT
HETATM    1  C   UNL     1     -10.030   2.392  70.311  1.00  0.00     0.418 C  
HETATM    2  O   UNL     1     -10.374   3.343  71.317  1.00  0.00     0.149 OA 
ENDROOT
BRANCH   2   3
HETATM    3  C   UNL     1      -9.356   4.160  71.734  1.00  0.00    -0.135 A  
HETATM    4  C   UNL     1      -8.564   3.782  72.824  1.00  0.00    -0.094 A  
HETATM    5  C   UNL     1      -7.491   4.606  73.185  1.00  0.00    -0.086 A  
HETATM    6  C   UNL     1      -8.020   6.192  71.433  1.00  0.00    -0.113 A  
HETATM    7  C   UNL     1      -7.195   5.792  72.474  1.00  0.00    -0.086 A  
HETATM    8  C   UNL     1      -9.095   5.388  71.096  1.00  0.00    -0.163 A  
HETATM    9  C   UNL     1      -6.103   6.630  72.699  1.00  0.00    -0.046 A  
HETATM   10  N   UNL     1      -5.174   6.364  73.713  1.00  0.00    -0.040 NA 
HETATM   11  N   UNL     1      -5.865   7.732  71.977  1.00  0.00    -0.036 NA 
HETATM   12  H1  UNL     1      -4.375   6.977  73.877  1.00  0.00     0.000 HD 
HETATM   13  C   UNL     1      -6.718   8.038  70.987  1.00  0.00    -0.041 A  
HETATM   14  H2  UNL     1      -4.819   5.418  73.574  1.00  0.00     0.000 HD 
HETATM   15  N   UNL     1      -7.799   7.299  70.716  1.00  0.00    -0.093 NA 
BRANCH   4  16
HETATM   16  O   UNL     1      -8.657   2.677  73.623  1.00  0.00    -0.070 OA 
HETATM   17  C   UNL     1      -7.790   1.578  73.393  1.00  0.00    -0.037 C  
ENDBRANCH   4  16
BRANCH  13  18
HETATM   18  N   UNL     1      -6.420   9.083  70.147  1.00  0.00    -0.041 NA 
HETATM   19  C   UNL     1      -6.339   9.845  67.826  1.00  0.00    -0.055 C  
HETATM   20  C   UNL     1      -5.802   8.825  68.846  1.00  0.00    -0.040 C  
HETATM   21  N   UNL     1      -6.190  11.228  68.306  1.00  0.00    -0.046 N  
HETATM   22  C   UNL     1      -5.598  12.172  67.480  1.00  0.00    -0.114 C  
HETATM   23  C   UNL     1      -6.766  11.464  69.642  1.00  0.00    -0.105 C  
HETATM   24  C   UNL     1      -6.243  10.439  70.675  1.00  0.00    -0.083 C  
HETATM   25  O   UNL     1      -5.182  11.859  66.361  1.00  0.00    -0.332 OA 
BRANCH  22  26
HETATM   26  C   UNL     1      -5.511  13.628  67.963  1.00  0.00    -0.116 C  
HETATM   27  C   UNL     1      -5.820  13.694  69.458  1.00  0.00    -0.102 C  
HETATM   28  O   UNL     1      -5.613  15.021  69.965  1.00  0.00    -0.110 OA 
HETATM   29  C   UNL     1      -6.166  15.962  69.136  1.00  0.00    -0.140 A  
HETATM   30  C   UNL     1      -6.313  17.246  69.657  1.00  0.00    -0.207 A  
HETATM   31  C   UNL     1      -6.875  18.253  68.873  1.00  0.00    -0.270 A  
HETATM   32  C   UNL     1      -7.283  17.977  67.567  1.00  0.00    -0.202 A  
HETATM   33  C   UNL     1      -7.132  16.692  67.043  1.00  0.00    -0.238 A  
HETATM   34  C   UNL     1      -6.563  15.687  67.824  1.00  0.00    -0.161 A  
HETATM   35  O   UNL     1      -6.439  14.451  67.246  1.00  0.00    -0.295 OA 
ENDBRANCH  22  26
ENDBRANCH  13  18
ENDBRANCH   2   3
TORSDOF 4
ENDMDL
MODEL      122
REMARK 921   NORMALIZED FREE ENERGY PREDICTED BY IDOCK:   -1.36 KCAL/MOL
REMARK 922        TOTAL FREE ENERGY PREDICTED BY IDOCK:   -2.21 KCAL/MOL
REMARK 923 INTER-LIGAND FREE ENERGY PREDICTED BY IDOCK:   -2.23 KCAL/MOL
REMARK 924 INTRA-LIGAND FREE ENERGY PREDICTED BY IDOCK:    0.02 KCAL/MOL
REMARK 927      BINDING AFFINITY PREDICTED BY RF-SCORE:    0.00 PKD
ROOT
HETATM    1  C   UNL     1     -11.003   4.422  62.517  1.00  0.00     0.269 C  
HETATM    2  O   UNL     1      -9.589   4.396  62.710  1.00  0.00    -0.146 OA 
ENDROOT
BRANCH   2   3
HETATM    3  C   UNL     1      -9.154   4.757  63.959  1.00  0.00    -0.045 A  
HETATM    4  C   UNL     1      -8.663   3.779  64.831  1.00  0.00    -0.115 A  
HETATM    5  C   UNL     1      -8.165   4.186  66.075  1.00  0.00    -0.105 A  
HETATM    6  C   UNL     1      -8.689   6.505  65.611  1.00  0.00    -0.091 A  
HETATM    7  C   UNL     1      -8.145   5.549  66.456  1.00  0.00    -0.105 A  
HETATM    8  C   UNL     1      -9.204   6.095  64.394  1.00  0.00     0.977 A  
HETATM    9  C   UNL     1      -7.594   6.062  67.630  1.00  0.00    -0.090 A  
HETATM   10  N   UNL     1      -7.003   5.227  68.586  1.00  0.00    -0.055 NA 
HETATM   11  N   UNL     1      -7.589   7.368  67.925  1.00  0.00    -0.111 NA 
HETATM   12  H1  UNL     1      -6.600   5.603  69.445  1.00  0.00     0.000 HD 
HETATM   13  C   UNL     1      -8.137   8.220  67.045  1.00  0.00    -0.104 A  
HETATM   14  H2  UNL     1      -6.286   4.672  68.119  1.00  0.00     0.000 HD 
HETATM   15  N   UNL     1      -8.703   7.810  65.905  1.00  0.00    -0.155 NA 
BRANCH   4  16
HETATM   16  O   UNL     1      -8.565   2.427  64.655  1.00  0.00    -0.088 OA 
HETATM   17  C   UNL     1      -7.832   1.655  65.592  1.00  0.00    -0.072 C  
ENDBRANCH   4  16
BRANCH  13  18
HETATM   18  N   UNL     1      -8.020   9.571  67.261  1.00  0.00    -0.106 NA 
HETATM   19  C   UNL     1      -6.492  11.406  67.783  1.00  0.00    -0.065 C  
HETATM   20  C   UNL     1      -7.091  10.075  68.273  1.00  0.00    -0.072 C  
HETATM   21  N   UNL     1      -7.538  12.363  67.388  1.00  0.00    -0.153 N  
HETATM   22  C   UNL     1      -7.503  13.653  67.898  1.00  0.00    -0.158 C  
HETATM   23  C   UNL     1      -8.503  11.827  66.412  1.00  0.00    -0.081 C  
HETATM   24  C   UNL     1      -9.105  10.483  66.886  1.00  0.00    -0.147 C  
HETATM   25  O   UNL     1      -6.619  13.995  68.688  1.00  0.00    -0.082 OA 
BRANCH  22  26
HETATM   26  C   UNL     1      -8.559  14.663  67.425  1.00  0.00    -0.199 C  
HETATM   27  C   UNL     1      -8.624  14.666  65.899  1.00  0.00     1.024 C  
HETATM   28  O   UNL     1      -9.695  15.500  65.433  1.00  0.00    -0.300 OA 
HETATM   29  C   UNL     1      -9.714  16.700  66.094  1.00  0.00    -0.303 A  
HETATM   30  C   UNL     1     -10.491  17.712  65.532  1.00  0.00    -0.048 A  
HETATM   31  C   UNL     1     -10.552  18.962  66.147  1.00  0.00    -0.476 A  
HETATM   32  C   UNL     1      -9.841  19.198  67.325  1.00  0.00    -0.408 A  
HETATM   33  C   UNL     1      -9.067  18.183  67.891  1.00  0.00    -0.270 A  
HETATM   34  C   UNL     1      -9.012  16.931  67.281  1.00  0.00    -0.203 A  
HETATM   35  O   UNL     1      -8.237  15.979  67.892  1.00  0.00    -0.146 OA 
ENDBRANCH  22  26
ENDBRANCH  13  18
ENDBRANCH   2   3
TORSDOF 4
ENDMDL
MODEL      123
REMARK 921   NORMALIZED FREE ENERGY PREDICTED BY IDOCK:   -1.23 KCAL/MOL
REMARK 922        TOTAL FREE ENERGY PREDICTED BY IDOCK:   -2.04 KCAL/MOL
REMARK 923 INTER-LIGAND FREE ENERGY PREDICTED BY IDOCK:   -2.33 KCAL/MOL
REMARK 924 INTRA-LIGAND FREE ENERGY PREDICTED BY IDOCK:    0.29 KCAL/MOL
REMARK 927      BINDING AFFINITY PREDICTED BY RF-SCORE:    0.00 PKD
ROOT
HETATM    1  C   UNL     1      -8.323  18.375  69.047  1.00  0.00    -0.054 C  
HETATM    2  O   UNL     1      -9.094  17.183  68.906  1.00  0.00    -0.260 OA 
ENDROOT
BRANCH   2   3
HETATM    3  C   UNL     1      -8.413  16.088  68.440  1.00  0.00    -0.180 A  
HETATM    4  C   UNL     1      -7.364  16.257  67.530  1.00  0.00    -0.151 A  
HETATM    5  C   UNL     1      -6.646  15.127  67.123  1.00  0.00     0.221 A  
HETATM    6  C   UNL     1      -8.034  13.667  68.468  1.00  0.00    -0.127 A  
HETATM    7  C   UNL     1      -6.954  13.836  67.613  1.00  0.00    -0.186 A  
HETATM    8  C   UNL     1      -8.758  14.784  68.847  1.00  0.00    -0.161 A  
HETATM    9  C   UNL     1      -6.248  12.666  67.338  1.00  0.00    -0.148 A  
HETATM   10  N   UNL     1      -5.130  12.668  66.494  1.00  0.00     0.005 NA 
HETATM   11  N   UNL     1      -6.579  11.474  67.850  1.00  0.00    -0.061 NA 
HETATM   12  H1  UNL     1      -4.613  11.812  66.292  1.00  0.00     0.000 HD 
HETATM   13  C   UNL     1      -7.639  11.408  68.670  1.00  0.00    -0.130 A  
HETATM   14  H2  UNL     1      -4.468  13.358  66.850  1.00  0.00     0.000 HD 
HETATM   15  N   UNL     1      -8.382  12.478  68.971  1.00  0.00     0.292 NA 
BRANCH   4  16
HETATM   16  O   UNL     1      -6.887  17.404  66.959  1.00  0.00    -0.157 OA 
HETATM   17  C   UNL     1      -5.654  17.372  66.258  1.00  0.00    -0.182 C  
ENDBRANCH   4  16
BRANCH  13  18
HETATM   18  N   UNL     1      -7.914  10.226  69.313  1.00  0.00    -0.136 NA 
HETATM   19  C   UNL     1      -8.299   9.147  71.472  1.00  0.00     0.129 C  
HETATM   20  C   UNL     1      -7.298   9.936  70.609  1.00  0.00     0.023 C  
HETATM   21  N   UNL     1      -8.816   7.964  70.767  1.00  0.00    -0.137 N  
HETATM   22  C   UNL     1      -8.784   6.730  71.399  1.00  0.00    -0.131 C  
HETATM   23  C   UNL     1      -9.382   8.259  69.438  1.00  0.00    -0.155 C  
HETATM   24  C   UNL     1      -8.391   9.061  68.563  1.00  0.00    -0.124 C  
HETATM   25  O   UNL     1      -8.311   6.615  72.534  1.00  0.00    -0.113 OA 
BRANCH  22  26
HETATM   26  C   UNL     1      -9.390   5.515  70.682  1.00  0.00    -0.158 C  
HETATM   27  C   UNL     1      -9.163   4.256  71.518  1.00  0.00    -0.133 C  
HETATM   28  O   UNL     1      -9.837   3.128  70.939  1.00  0.00    -0.148 OA 
HETATM   29  C   UNL     1      -9.629   3.066  69.586  1.00  0.00    -0.021 A  
HETATM   30  C   UNL     1      -9.957   1.866  68.957  1.00  0.00     0.402 A  
HETATM   31  C   UNL     1      -9.766   1.728  67.582  1.00  0.00     0.173 A  
HETATM   32  C   UNL     1      -9.253   2.791  66.838  1.00  0.00    -0.141 A  
HETATM   33  C   UNL     1      -8.929   3.995  67.466  1.00  0.00    -0.148 A  
HETATM   34  C   UNL     1      -9.127   4.136  68.839  1.00  0.00    -0.129 A  
HETATM   35  O   UNL     1      -8.793   5.345  69.391  1.00  0.00    -0.104 OA 
ENDBRANCH  22  26
ENDBRANCH  13  18
ENDBRANCH   2   3
TORSDOF 4
ENDMDL
MODEL      124
REMARK 921   NORMALIZED FREE ENERGY PREDICTED BY IDOCK:   -0.98 KCAL/MOL
REMARK 922        TOTAL FREE ENERGY PREDICTED BY IDOCK:   -1.73 KCAL/MOL
REMARK 923 INTER-LIGAND FREE ENERGY PREDICTED BY IDOCK:   -1.44 KCAL/MOL
REMARK 924 INTRA-LIGAND FREE ENERGY PREDICTED BY IDOCK:   -0.29 KCAL/MOL
REMARK 927      BINDING AFFINITY PREDICTED BY RF-SCORE:    0.00 PKD
ROOT
HETATM    1  C   UNL     1     -12.734  15.812  67.576  1.00  0.00     2.322 C  
HETATM    2  O   UNL     1     -12.370  14.951  68.654  1.00  0.00    -0.116 OA 
ENDROOT
BRANCH   2   3
HETATM    3  C   UNL     1     -11.131  14.371  68.557  1.00  0.00    -0.253 A  
HETATM    4  C   UNL     1      -9.983  15.161  68.674  1.00  0.00    -0.220 A  
HETATM    5  C   UNL     1      -8.733  14.530  68.637  1.00  0.00    -0.172 A  
HETATM    6  C   UNL     1      -9.755  12.358  68.314  1.00  0.00    -0.218 A  
HETATM    7  C   UNL     1      -8.615  13.128  68.490  1.00  0.00    -0.056 A  
HETATM    8  C   UNL     1     -10.987  12.989  68.325  1.00  0.00    -0.285 A  
HETATM    9  C   UNL     1      -7.427  12.399  68.528  1.00  0.00    -0.112 A  
HETATM   10  N   UNL     1      -6.188  13.029  68.702  1.00  0.00    -0.073 NA 
HETATM   11  N   UNL     1      -7.382  11.067  68.402  1.00  0.00    -0.090 NA 
HETATM   12  H1  UNL     1      -5.318  12.495  68.729  1.00  0.00     0.000 HD 
HETATM   13  C   UNL     1      -8.538  10.405  68.237  1.00  0.00    -0.128 A  
HETATM   14  H2  UNL     1      -6.238  13.592  69.551  1.00  0.00     0.000 HD 
HETATM   15  N   UNL     1      -9.719  11.029  68.172  1.00  0.00    -0.168 NA 
BRANCH   4  16
HETATM   16  O   UNL     1      -9.873  16.512  68.848  1.00  0.00    -0.239 OA 
HETATM   17  C   UNL     1      -9.212  17.289  67.861  1.00  0.00    -0.247 C  
ENDBRANCH   4  16
BRANCH  13  18
HETATM   18  N   UNL     1      -8.529   9.032  68.245  1.00  0.00    -0.128 NA 
HETATM   19  C   UNL     1      -9.243   7.017  69.429  1.00  0.00    -0.147 C  
HETATM   20  C   UNL     1      -8.406   8.306  69.510  1.00  0.00    -0.121 C  
HETATM   21  N   UNL     1      -8.909   6.222  68.237  1.00  0.00    -0.115 N  
HETATM   22  C   UNL     1      -8.622   4.872  68.382  1.00  0.00    -0.097 C  
HETATM   23  C   UNL     1      -8.980   6.977  66.974  1.00  0.00    -0.125 C  
HETATM   24  C   UNL     1      -8.152   8.281  67.044  1.00  0.00    -0.104 C  
HETATM   25  O   UNL     1      -8.627   4.342  69.497  1.00  0.00    -0.075 OA 
BRANCH  22  26
HETATM   26  C   UNL     1      -8.344   4.036  67.124  1.00  0.00    -0.099 C  
HETATM   27  C   UNL     1      -8.027   2.596  67.522  1.00  0.00    -0.068 C  
HETATM   28  O   UNL     1      -7.896   1.761  66.361  1.00  0.00    -0.068 OA 
HETATM   29  C   UNL     1      -7.127   2.362  65.400  1.00  0.00    -0.056 A  
HETATM   30  C   UNL     1      -6.664   1.547  64.369  1.00  0.00    -0.022 A  
HETATM   31  C   UNL     1      -5.869   2.091  63.359  1.00  0.00    -0.009 A  
HETATM   32  C   UNL     1      -5.543   3.447  63.379  1.00  0.00    -0.009 A  
HETATM   33  C   UNL     1      -6.011   4.265  64.409  1.00  0.00    -0.014 A  
HETATM   34  C   UNL     1      -6.811   3.725  65.414  1.00  0.00    -0.053 A  
HETATM   35  O   UNL     1      -7.240   4.584  66.392  1.00  0.00    -0.073 OA 
ENDBRANCH  22  26
ENDBRANCH  13  18
ENDBRANCH   2   3
TORSDOF 4
ENDMDL
MODEL      125
REMARK 921   NORMALIZED FREE ENERGY PREDICTED BY IDOCK:   -0.97 KCAL/MOL
REMARK 922        TOTAL FREE ENERGY PREDICTED BY IDOCK:   -1.73 KCAL/MOL
REMARK 923 INTER-LIGAND FREE ENERGY PREDICTED BY IDOCK:   -1.71 KCAL/MOL
REMARK 924 INTRA-LIGAND FREE ENERGY PREDICTED BY IDOCK:   -0.02 KCAL/MOL
REMARK 927      BINDING AFFINITY PREDICTED BY RF-SCORE:    0.00 PKD
ROOT
HETATM    1  C   UNL     1     -11.032   7.872  72.912  1.00  0.00    -0.388 C  
HETATM    2  O   UNL     1      -9.744   7.573  72.375  1.00  0.00    -0.150 OA 
ENDROOT
BRANCH   2   3
HETATM    3  C   UNL     1      -9.522   8.003  71.092  1.00  0.00    -0.153 A  
HETATM    4  C   UNL     1      -9.908   7.200  70.014  1.00  0.00    -0.178 A  
HETATM    5  C   UNL     1      -9.727   7.694  68.717  1.00  0.00    -0.153 A  
HETATM    6  C   UNL     1      -8.738   9.741  69.553  1.00  0.00    -0.185 A  
HETATM    7  C   UNL     1      -9.174   8.974  68.481  1.00  0.00    -0.136 A  
HETATM    8  C   UNL     1      -8.895   9.237  70.832  1.00  0.00    -0.252 A  
HETATM    9  C   UNL     1      -9.034   9.590  67.238  1.00  0.00    -0.131 A  
HETATM   10  N   UNL     1      -9.430   8.949  66.057  1.00  0.00    -0.255 NA 
HETATM   11  N   UNL     1      -8.520  10.816  67.082  1.00  0.00    -0.125 NA 
HETATM   12  H1  UNL     1      -9.328   9.399  65.146  1.00  0.00     0.000 HD 
HETATM   13  C   UNL     1      -8.126  11.483  68.178  1.00  0.00    -0.146 A  
HETATM   14  H2  UNL     1     -10.406   8.671  66.161  1.00  0.00     0.000 HD 
HETATM   15  N   UNL     1      -8.209  10.960  69.406  1.00  0.00    -0.036 NA 
BRANCH   4  16
HETATM   16  O   UNL     1     -10.479   5.957  70.017  1.00  0.00    -0.218 OA 
HETATM   17  C   UNL     1     -10.969   5.414  68.802  1.00  0.00     0.252 C  
ENDBRANCH   4  16
BRANCH  13  18
HETATM   18  N   UNL     1      -7.726  12.791  68.056  1.00  0.00    -0.124 NA 
HETATM   19  C   UNL     1      -6.002  14.303  67.209  1.00  0.00     0.538 C  
HETATM   20  C   UNL     1      -6.309  13.138  68.168  1.00  0.00    -0.106 C  
HETATM   21  N   UNL     1      -6.923  15.433  67.409  1.00  0.00    -0.194 N  
HETATM   22  C   UNL     1      -6.403  16.709  67.573  1.00  0.00    -0.162 C  
HETATM   23  C   UNL     1      -8.348  15.063  67.352  1.00  0.00    -0.190 C  
HETATM   24  C   UNL     1      -8.669  13.886  68.303  1.00  0.00    -0.183 C  
HETATM   25  O   UNL     1      -5.183  16.899  67.570  1.00  0.00    -0.113 OA 
BRANCH  22  26
HETATM   26  C   UNL     1      -7.374  17.891  67.711  1.00  0.00    -0.208 C  
HETATM   27  C   UNL     1      -7.928  17.940  69.135  1.00  0.00     0.054 C  
HETATM   28  O   UNL     1      -8.732  19.113  69.331  1.00  0.00    -0.052 OA 
HETATM   29  C   UNL     1      -9.593  19.307  68.284  1.00  0.00    -0.371 A  
HETATM   30  C   UNL     1     -10.633  20.212  68.488  1.00  0.00    -0.105 A  
HETATM   31  C   UNL     1     -11.552  20.455  67.468  1.00  0.00     2.009 A  
HETATM   32  C   UNL     1     -11.427  19.796  66.243  1.00  0.00     0.761 A  
HETATM   33  C   UNL     1     -10.383  18.893  66.037  1.00  0.00    -0.485 A  
HETATM   34  C   UNL     1      -9.460  18.656  67.053  1.00  0.00    -0.298 A  
HETATM   35  O   UNL     1      -8.457  17.762  66.782  1.00  0.00    -0.231 OA 
ENDBRANCH  22  26
ENDBRANCH  13  18
ENDBRANCH   2   3
TORSDOF 4
ENDMDL
MODEL      126
REMARK 921   NORMALIZED FREE ENERGY PREDICTED BY IDOCK:   -0.54 KCAL/MOL
REMARK 922        TOTAL FREE ENERGY PREDICTED BY IDOCK:   -1.20 KCAL/MOL
REMARK 923 INTER-LIGAND FREE ENERGY PREDICTED BY IDOCK:   -1.62 KCAL/MOL
REMARK 924 INTRA-LIGAND FREE ENERGY PREDICTED BY IDOCK:    0.42 KCAL/MOL
REMARK 927      BINDING AFFINITY PREDICTED BY RF-SCORE:    0.00 PKD
ROOT
HETATM    1  C   UNL     1      -7.201   8.530  64.707  1.00  0.00    -0.085 C  
HETATM    2  O   UNL     1      -8.034   7.699  65.514  1.00  0.00    -0.105 OA 
ENDROOT
BRANCH   2   3
HETATM    3  C   UNL     1      -9.054   8.338  66.170  1.00  0.00    -0.189 A  
HETATM    4  C   UNL     1     -10.015   7.589  66.858  1.00  0.00    -0.248 A  
HETATM    5  C   UNL     1     -11.006   8.273  67.572  1.00  0.00     0.088 A  
HETATM    6  C   UNL     1     -10.130  10.422  66.880  1.00  0.00    -0.219 A  
HETATM    7  C   UNL     1     -11.049   9.686  67.613  1.00  0.00    -0.061 A  
HETATM    8  C   UNL     1      -9.168   9.742  66.154  1.00  0.00    -0.221 A  
HETATM    9  C   UNL     1     -11.938  10.456  68.362  1.00  0.00     0.487 A  
HETATM   10  N   UNL     1     -12.927   9.864  69.159  1.00  0.00     1.042 NA 
HETATM   11  N   UNL     1     -11.916  11.795  68.375  1.00  0.00    -0.490 NA 
HETATM   12  H1  UNL     1     -13.578  10.428  69.707  1.00  0.00     0.000 HD 
HETATM   13  C   UNL     1     -10.988  12.421  67.634  1.00  0.00    -0.236 A  
HETATM   14  H2  UNL     1     -12.469   9.209  69.793  1.00  0.00     0.000 HD 
HETATM   15  N   UNL     1     -10.110  11.759  66.874  1.00  0.00    -0.205 NA 
BRANCH   4  16
HETATM   16  O   UNL     1     -10.141   6.233  66.971  1.00  0.00    -0.146 OA 
HETATM   17  C   UNL     1      -8.984   5.443  67.191  1.00  0.00    -0.112 C  
ENDBRANCH   4  16
BRANCH  13  18
HETATM   18  N   UNL     1     -10.857  13.784  67.739  1.00  0.00    -0.247 NA 
HETATM   19  C   UNL     1     -11.967  15.944  67.463  1.00  0.00     0.594 C  
HETATM   20  C   UNL     1     -11.496  14.660  66.757  1.00  0.00    -0.364 C  
HETATM   21  N   UNL     1     -10.881  16.578  68.227  1.00  0.00    -0.341 N  
HETATM   22  C   UNL     1     -10.625  17.929  68.048  1.00  0.00    -0.356 C  
HETATM   23  C   UNL     1     -10.206  15.671  69.173  1.00  0.00    -0.233 C  
HETATM   24  C   UNL     1      -9.737  14.372  68.479  1.00  0.00    -0.225 C  
HETATM   25  O   UNL     1     -11.285  18.595  67.245  1.00  0.00    -0.133 OA 
BRANCH  22  26
HETATM   26  C   UNL     1      -9.536  18.596  68.901  1.00  0.00    -0.260 C  
HETATM   27  C   UNL     1      -8.943  19.783  68.145  1.00  0.00    -0.305 C  
HETATM   28  O   UNL     1      -8.019  20.507  68.972  1.00  0.00     0.453 OA 
HETATM   29  C   UNL     1      -7.170  19.658  69.631  1.00  0.00    -0.101 A  
HETATM   30  C   UNL     1      -6.039  20.228  70.211  1.00  0.00    -0.363 A  
HETATM   31  C   UNL     1      -5.127  19.422  70.893  1.00  0.00    -0.237 A  
HETATM   32  C   UNL     1      -5.351  18.049  70.999  1.00  0.00    -0.198 A  
HETATM   33  C   UNL     1      -6.486  17.477  70.422  1.00  0.00     0.803 A  
HETATM   34  C   UNL     1      -7.401  18.283  69.748  1.00  0.00     0.558 A  
HETATM   35  O   UNL     1      -8.497  17.658  69.210  1.00  0.00     0.031 OA 
ENDBRANCH  22  26
ENDBRANCH  13  18
ENDBRANCH   2   3
TORSDOF 4
ENDMDL
MODEL      127
REMARK 921   NORMALIZED FREE ENERGY PREDICTED BY IDOCK:   -0.37 KCAL/MOL
REMARK 922        TOTAL FREE ENERGY PREDICTED BY IDOCK:   -0.99 KCAL/MOL
REMARK 923 INTER-LIGAND FREE ENERGY PREDICTED BY IDOCK:   -1.80 KCAL/MOL
REMARK 924 INTRA-LIGAND FREE ENERGY PREDICTED BY IDOCK:    0.81 KCAL/MOL
REMARK 927      BINDING AFFINITY PREDICTED BY RF-SCORE:    0.00 PKD
ROOT
HETATM    1  C   UNL     1      -9.778  15.031  64.207  1.00  0.00     2.853 C  
HETATM    2  O   UNL     1     -10.266  13.721  64.491  1.00  0.00    -0.414 OA 
ENDROOT
BRANCH   2   3
HETATM    3  C   UNL     1     -10.549  13.466  65.808  1.00  0.00    -0.282 A  
HETATM    4  C   UNL     1     -11.261  14.408  66.560  1.00  0.00    -0.340 A  
HETATM    5  C   UNL     1     -11.592  14.091  67.883  1.00  0.00    -0.377 A  
HETATM    6  C   UNL     1     -10.473  11.948  67.730  1.00  0.00    -0.202 A  
HETATM    7  C   UNL     1     -11.230  12.852  68.462  1.00  0.00    -0.310 A  
HETATM    8  C   UNL     1     -10.125  12.277  66.431  1.00  0.00    -0.245 A  
HETATM    9  C   UNL     1     -11.586  12.409  69.735  1.00  0.00    -0.232 A  
HETATM   10  N   UNL     1     -12.352  13.203  70.598  1.00  0.00    -0.356 NA 
HETATM   11  N   UNL     1     -11.228  11.213  70.220  1.00  0.00    -0.155 NA 
HETATM   12  H1  UNL     1     -12.612  12.879  71.530  1.00  0.00     0.000 HD 
HETATM   13  C   UNL     1     -10.496  10.404  69.438  1.00  0.00    -0.238 A  
HETATM   14  H2  UNL     1     -13.206  13.466  70.107  1.00  0.00     0.000 HD 
HETATM   15  N   UNL     1     -10.098  10.759  68.212  1.00  0.00    -0.165 NA 
BRANCH   4  16
HETATM   16  O   UNL     1     -11.726  15.639  66.192  1.00  0.00     0.174 OA 
HETATM   17  C   UNL     1     -11.088  16.802  66.695  1.00  0.00     0.287 C  
ENDBRANCH   4  16
BRANCH  13  18
HETATM   18  N   UNL     1     -10.236   9.123  69.860  1.00  0.00    -0.195 NA 
HETATM   19  C   UNL     1     -10.630   7.453  71.600  1.00  0.00    -0.205 C  
HETATM   20  C   UNL     1     -10.050   8.843  71.284  1.00  0.00    -0.295 C  
HETATM   21  N   UNL     1     -10.093   6.419  70.701  1.00  0.00    -0.185 N  
HETATM   22  C   UNL     1      -9.572   5.254  71.245  1.00  0.00    -0.159 C  
HETATM   23  C   UNL     1     -10.234   6.737  69.269  1.00  0.00    -0.181 C  
HETATM   24  C   UNL     1      -9.665   8.137  68.939  1.00  0.00    -0.156 C  
HETATM   25  O   UNL     1      -9.538   5.088  72.468  1.00  0.00    -0.144 OA 
BRANCH  22  26
HETATM   26  C   UNL     1      -9.078   4.152  70.296  1.00  0.00    -0.105 C  
HETATM   27  C   UNL     1      -7.572   4.295  70.078  1.00  0.00    -0.049 C  
HETATM   28  O   UNL     1      -7.060   3.199  69.306  1.00  0.00    -0.044 OA 
HETATM   29  C   UNL     1      -7.859   2.936  68.224  1.00  0.00    -0.055 A  
HETATM   30  C   UNL     1      -7.321   2.120  67.231  1.00  0.00    -0.056 A  
HETATM   31  C   UNL     1      -8.075   1.816  66.098  1.00  0.00    -0.080 A  
HETATM   32  C   UNL     1      -9.367   2.324  65.962  1.00  0.00     0.082 A  
HETATM   33  C   UNL     1      -9.909   3.138  66.958  1.00  0.00     0.358 A  
HETATM   34  C   UNL     1      -9.159   3.436  68.094  1.00  0.00    -0.157 A  
HETATM   35  O   UNL     1      -9.753   4.236  69.035  1.00  0.00    -0.174 OA 
ENDBRANCH  22  26
ENDBRANCH  13  18
ENDBRANCH   2   3
TORSDOF 4
ENDMDL
MODEL      128
REMARK 921   NORMALIZED FREE ENERGY PREDICTED BY IDOCK:   -0.34 KCAL/MOL
REMARK 922        TOTAL FREE ENERGY PREDICTED BY IDOCK:   -0.95 KCAL/MOL
REMARK 923 INTER-LIGAND FREE ENERGY PREDICTED BY IDOCK:   -1.32 KCAL/MOL
REMARK 924 INTRA-LIGAND FREE ENERGY PREDICTED BY IDOCK:    0.38 KCAL/MOL
REMARK 927      BINDING AFFINITY PREDICTED BY RF-SCORE:    0.00 PKD
ROOT
HETATM    1  C   UNL     1      -8.801  18.929  70.369  1.00  0.00     2.481 C  
HETATM    2  O   UNL     1      -9.668  17.811  70.558  1.00  0.00     2.042 OA 
ENDROOT
BRANCH   2   3
HETATM    3  C   UNL     1      -9.912  17.054  69.442  1.00  0.00    -0.090 A  
HETATM    4  C   UNL     1     -10.196  17.682  68.225  1.00  0.00    -0.374 A  
HETATM    5  C   UNL     1     -10.375  16.883  67.089  1.00  0.00    -0.304 A  
HETATM    6  C   UNL     1     -10.050  14.854  68.371  1.00  0.00    -0.225 A  
HETATM    7  C   UNL     1     -10.272  15.474  67.150  1.00  0.00    -0.260 A  
HETATM    8  C   UNL     1      -9.899  15.647  69.496  1.00  0.00    -0.289 A  
HETATM    9  C   UNL     1     -10.347  14.601  66.065  1.00  0.00    -0.305 A  
HETATM   10  N   UNL     1     -10.564  15.069  64.763  1.00  0.00    -0.567 NA 
HETATM   11  N   UNL     1     -10.221  13.273  66.185  1.00  0.00    -0.290 NA 
HETATM   12  H1  UNL     1     -10.620  14.430  63.969  1.00  0.00     0.000 HD 
HETATM   13  C   UNL     1     -10.006  12.764  67.408  1.00  0.00    -0.212 A  
HETATM   14  H2  UNL     1      -9.849  15.765  64.556  1.00  0.00     0.000 HD 
HETATM   15  N   UNL     1      -9.938  13.528  68.502  1.00  0.00    -0.228 NA 
BRANCH   4  16
HETATM   16  O   UNL     1     -10.313  19.014  67.942  1.00  0.00    -0.373 OA 
HETATM   17  C   UNL     1      -9.988  19.480  66.642  1.00  0.00    -0.407 C  
ENDBRANCH   4  16
BRANCH  13  18
HETATM   18  N   UNL     1      -9.736  11.423  67.535  1.00  0.00    -0.177 NA 
HETATM   19  C   UNL     1     -10.442   9.310  68.541  1.00  0.00    -0.206 C  
HETATM   20  C   UNL     1      -9.963  10.747  68.813  1.00  0.00    -0.193 C  
HETATM   21  N   UNL     1      -9.536   8.596  67.628  1.00  0.00    -0.139 N  
HETATM   22  C   UNL     1      -9.070   7.338  67.982  1.00  0.00    -0.133 C  
HETATM   23  C   UNL     1      -9.269   9.311  66.367  1.00  0.00    -0.180 C  
HETATM   24  C   UNL     1      -8.797  10.761  66.625  1.00  0.00    -0.145 C  
HETATM   25  O   UNL     1      -9.393   6.826  69.058  1.00  0.00    -0.136 OA 
BRANCH  22  26
HETATM   26  C   UNL     1      -8.182   6.572  66.991  1.00  0.00    -0.113 C  
HETATM   27  C   UNL     1      -6.791   7.204  66.949  1.00  0.00    -0.072 C  
HETATM   28  O   UNL     1      -5.900   6.427  66.135  1.00  0.00    -0.023 OA 
HETATM   29  C   UNL     1      -6.493   6.065  64.954  1.00  0.00    -0.038 A  
HETATM   30  C   UNL     1      -5.652   5.587  63.951  1.00  0.00    -0.014 A  
HETATM   31  C   UNL     1      -6.186   5.206  62.720  1.00  0.00    -0.021 A  
HETATM   32  C   UNL     1      -7.560   5.297  62.496  1.00  0.00    -0.061 A  
HETATM   33  C   UNL     1      -8.404   5.771  63.502  1.00  0.00    -0.017 A  
HETATM   34  C   UNL     1      -7.872   6.145  64.734  1.00  0.00    -0.109 A  
HETATM   35  O   UNL     1      -8.757   6.596  65.679  1.00  0.00    -0.147 OA 
ENDBRANCH  22  26
ENDBRANCH  13  18
ENDBRANCH   2   3
TORSDOF 4
ENDMDL
MODEL      129
REMARK 921   NORMALIZED FREE ENERGY PREDICTED BY IDOCK:    0.28 KCAL/MOL
REMARK 922        TOTAL FREE ENERGY PREDICTED BY IDOCK:   -0.19 KCAL/MOL
REMARK 923 INTER-LIGAND FREE ENERGY PREDICTED BY IDOCK:   -0.47 KCAL/MOL
REMARK 924 INTRA-LIGAND FREE ENERGY PREDICTED BY IDOCK:    0.28 KCAL/MOL
REMARK 927      BINDING AFFINITY PREDICTED BY RF-SCORE:    0.00 PKD
ROOT
HETATM    1  C   UNL     1      -7.592  18.662  68.732  1.00  0.00    -0.298 C  
HETATM    2  O   UNL     1      -8.467  17.536  68.680  1.00  0.00    -0.276 OA 
ENDROOT
BRANCH   2   3
HETATM    3  C   UNL     1      -7.890  16.353  68.295  1.00  0.00    -0.168 A  
HETATM    4  C   UNL     1      -7.269  16.259  67.045  1.00  0.00    -0.227 A  
HETATM    5  C   UNL     1      -6.632  15.059  66.707  1.00  0.00     1.283 A  
HETATM    6  C   UNL     1      -7.270  14.039  68.809  1.00  0.00    -0.113 A  
HETATM    7  C   UNL     1      -6.601  13.959  67.596  1.00  0.00    -0.178 A  
HETATM    8  C   UNL     1      -7.921  15.218  69.128  1.00  0.00    -0.214 A  
HETATM    9  C   UNL     1      -5.923  12.759  67.390  1.00  0.00    -0.107 A  
HETATM   10  N   UNL     1      -5.196  12.522  66.216  1.00  0.00     0.239 NA 
HETATM   11  N   UNL     1      -5.916  11.760  68.282  1.00  0.00    -0.049 NA 
HETATM   12  H1  UNL     1      -4.699  11.643  66.065  1.00  0.00     0.000 HD 
HETATM   13  C   UNL     1      -6.591  11.928  69.429  1.00  0.00    -0.108 A  
HETATM   14  H2  UNL     1      -4.528  13.284  66.101  1.00  0.00     0.000 HD 
HETATM   15  N   UNL     1      -7.282  13.041  69.699  1.00  0.00     0.362 NA 
BRANCH   4  16
HETATM   16  O   UNL     1      -7.158  17.197  66.057  1.00  0.00    -0.243 OA 
HETATM   17  C   UNL     1      -5.884  17.746  65.758  1.00  0.00    -0.142 C  
ENDBRANCH   4  16
BRANCH  13  18
HETATM   18  N   UNL     1      -6.484  10.977  70.414  1.00  0.00    -0.292 NA 
HETATM   19  C   UNL     1      -5.829  10.531  72.726  1.00  0.00     1.199 C  
HETATM   20  C   UNL     1      -5.352  11.005  71.341  1.00  0.00     0.013 C  
HETATM   21  N   UNL     1      -6.523   9.236  72.652  1.00  0.00     0.276 N  
HETATM   22  C   UNL     1      -6.142   8.214  73.508  1.00  0.00    -0.089 C  
HETATM   23  C   UNL     1      -7.625   9.201  71.673  1.00  0.00     0.181 C  
HETATM   24  C   UNL     1      -7.162   9.685  70.279  1.00  0.00    -0.135 C  
HETATM   25  O   UNL     1      -5.220   8.375  74.313  1.00  0.00    -0.067 OA 
BRANCH  22  26
HETATM   26  C   UNL     1      -6.919   6.889  73.471  1.00  0.00    -0.074 C  
HETATM   27  C   UNL     1      -6.948   6.348  72.042  1.00  0.00    -0.073 C  
HETATM   28  O   UNL     1      -7.550   5.045  72.000  1.00  0.00    -0.090 OA 
HETATM   29  C   UNL     1      -8.700   5.004  72.743  1.00  0.00    -0.119 A  
HETATM   30  C   UNL     1      -9.539   3.911  72.537  1.00  0.00    -0.188 A  
HETATM   31  C   UNL     1     -10.731   3.806  73.253  1.00  0.00    -0.287 A  
HETATM   32  C   UNL     1     -11.080   4.792  74.178  1.00  0.00     0.068 A  
HETATM   33  C   UNL     1     -10.238   5.884  74.388  1.00  0.00    -0.304 A  
HETATM   34  C   UNL     1      -9.043   5.986  73.678  1.00  0.00    -0.127 A  
HETATM   35  O   UNL     1      -8.260   7.081  73.937  1.00  0.00    -0.118 OA 
ENDBRANCH  22  26
ENDBRANCH  13  18
ENDBRANCH   2   3
TORSDOF 4
ENDMDL
MODEL      130
REMARK 921   NORMALIZED FREE ENERGY PREDICTED BY IDOCK:    0.34 KCAL/MOL
REMARK 922        TOTAL FREE ENERGY PREDICTED BY IDOCK:   -0.12 KCAL/MOL
REMARK 923 INTER-LIGAND FREE ENERGY PREDICTED BY IDOCK:   -0.13 KCAL/MOL
REMARK 924 INTRA-LIGAND FREE ENERGY PREDICTED BY IDOCK:    0.02 KCAL/MOL
REMARK 927      BINDING AFFINITY PREDICTED BY RF-SCORE:    0.00 PKD
ROOT
HETATM    1  C   UNL     1     -11.588  17.270  71.758  1.00  0.00     1.511 C  
HETATM    2  O   UNL     1     -12.103  16.212  70.950  1.00  0.00    -0.349 OA 
ENDROOT
BRANCH   2   3
HETATM    3  C   UNL     1     -11.538  16.087  69.707  1.00  0.00    -0.297 A  
HETATM    4  C   UNL     1     -11.120  17.229  69.015  1.00  0.00     0.259 A  
HETATM    5  C   UNL     1     -10.488  17.064  67.777  1.00  0.00    -0.349 A  
HETATM    6  C   UNL     1     -10.735  14.657  67.886  1.00  0.00    -0.250 A  
HETATM    7  C   UNL     1     -10.264  15.781  67.224  1.00  0.00    -0.268 A  
HETATM    8  C   UNL     1     -11.382  14.827  69.098  1.00  0.00    -0.302 A  
HETATM    9  C   UNL     1      -9.570  15.508  66.046  1.00  0.00    -0.345 A  
HETATM   10  N   UNL     1      -9.029  16.535  65.261  1.00  0.00     0.410 NA 
HETATM   11  N   UNL     1      -9.373  14.267  65.584  1.00  0.00     0.025 NA 
HETATM   12  H1  UNL     1      -8.522  16.335  64.399  1.00  0.00     0.000 HD 
HETATM   13  C   UNL     1      -9.865  13.240  66.294  1.00  0.00    -0.285 A  
HETATM   14  H2  UNL     1      -8.425  17.101  65.857  1.00  0.00     0.000 HD 
HETATM   15  N   UNL     1     -10.557  13.415  67.425  1.00  0.00    -0.250 NA 
BRANCH   4  16
HETATM   16  O   UNL     1     -11.214  18.544  69.375  1.00  0.00     1.781 OA 
HETATM   17  C   UNL     1     -10.819  19.547  68.453  1.00  0.00     0.304 C  
ENDBRANCH   4  16
BRANCH  13  18
HETATM   18  N   UNL     1      -9.557  11.956  65.914  1.00  0.00    -0.234 NA 
HETATM   19  C   UNL     1      -8.670  10.538  64.131  1.00  0.00    -0.172 C  
HETATM   20  C   UNL     1      -9.780  11.527  64.533  1.00  0.00    -0.207 C  
HETATM   21  N   UNL     1      -8.544   9.436  65.099  1.00  0.00    -0.156 N  
HETATM   22  C   UNL     1      -8.535   8.128  64.637  1.00  0.00    -0.024 C  
HETATM   23  C   UNL     1      -8.377   9.880  66.494  1.00  0.00    -0.125 C  
HETATM   24  C   UNL     1      -9.479  10.882  66.908  1.00  0.00    -0.176 C  
HETATM   25  O   UNL     1      -8.650   7.883  63.433  1.00  0.00     0.112 OA 
BRANCH  22  26
HETATM   26  C   UNL     1      -8.332   6.989  65.647  1.00  0.00    -0.136 C  
HETATM   27  C   UNL     1      -7.940   5.710  64.910  1.00  0.00    -0.117 C  
HETATM   28  O   UNL     1      -7.611   4.664  65.837  1.00  0.00    -0.087 OA 
HETATM   29  C   UNL     1      -8.535   4.585  66.845  1.00  0.00    -0.105 A  
HETATM   30  C   UNL     1      -8.513   3.431  67.626  1.00  0.00    -0.108 A  
HETATM   31  C   UNL     1      -9.430   3.279  68.666  1.00  0.00    -0.200 A  
HETATM   32  C   UNL     1     -10.363   4.283  68.928  1.00  0.00     0.504 A  
HETATM   33  C   UNL     1     -10.383   5.441  68.150  1.00  0.00    -0.210 A  
HETATM   34  C   UNL     1      -9.462   5.597  67.115  1.00  0.00    -0.117 A  
HETATM   35  O   UNL     1      -9.533   6.761  66.394  1.00  0.00    -0.168 OA 
ENDBRANCH  22  26
ENDBRANCH  13  18
ENDBRANCH   2   3
TORSDOF 4
ENDMDL
MODEL      131
REMARK 921   NORMALIZED FREE ENERGY PREDICTED BY IDOCK:    3.15 KCAL/MOL
REMARK 922        TOTAL FREE ENERGY PREDICTED BY IDOCK:    3.36 KCAL/MOL
REMARK 923 INTER-LIGAND FREE ENERGY PREDICTED BY IDOCK:    3.65 KCAL/MOL
REMARK 924 INTRA-LIGAND FREE ENERGY PREDICTED BY IDOCK:   -0.29 KCAL/MOL
REMARK 927      BINDING AFFINITY PREDICTED BY RF-SCORE:    0.00 PKD
ROOT
HETATM    1  C   UNL     1     -12.828  16.358  72.854  1.00  0.00    -0.084 C  
HETATM    2  O   UNL     1     -13.303  15.021  72.705  1.00  0.00    -0.382 OA 
ENDROOT
BRANCH   2   3
HETATM    3  C   UNL     1     -12.959  14.397  71.534  1.00  0.00    -0.336 A  
HETATM    4  C   UNL     1     -13.187  15.039  70.312  1.00  0.00     0.010 A  
HETATM    5  C   UNL     1     -12.765  14.404  69.137  1.00  0.00     0.416 A  
HETATM    6  C   UNL     1     -11.950  12.488  70.375  1.00  0.00    -0.251 A  
HETATM    7  C   UNL     1     -12.118  13.147  69.165  1.00  0.00    -0.261 A  
HETATM    8  C   UNL     1     -12.392  13.108  71.531  1.00  0.00    -0.049 A  
HETATM    9  C   UNL     1     -11.586  12.476  68.065  1.00  0.00    -0.342 A  
HETATM   10  N   UNL     1     -11.671  13.009  66.772  1.00  0.00    -0.364 NA 
HETATM   11  N   UNL     1     -10.965  11.293  68.159  1.00  0.00    -0.212 NA 
HETATM   12  H1  UNL     1     -11.281  12.518  65.966  1.00  0.00     0.000 HD 
HETATM   13  C   UNL     1     -10.848  10.733  69.372  1.00  0.00    -0.244 A  
HETATM   14  H2  UNL     1     -11.270  13.947  66.791  1.00  0.00     0.000 HD 
HETATM   15  N   UNL     1     -11.345  11.300  70.476  1.00  0.00    -0.009 NA 
BRANCH   4  16
HETATM   16  O   UNL     1     -13.764  16.253  70.063  1.00  0.00     1.563 OA 
HETATM   17  C   UNL     1     -13.276  17.049  68.995  1.00  0.00     6.260 C  
ENDBRANCH   4  16
BRANCH  13  18
HETATM   18  N   UNL     1     -10.096   9.592  69.512  1.00  0.00    -0.194 NA 
HETATM   19  C   UNL     1      -8.085   8.401  68.798  1.00  0.00    -0.121 C  
HETATM   20  C   UNL     1      -9.427   9.007  68.350  1.00  0.00    -0.146 C  
HETATM   21  N   UNL     1      -8.254   7.477  69.931  1.00  0.00    -0.129 N  
HETATM   22  C   UNL     1      -7.694   6.210  69.860  1.00  0.00    -0.100 C  
HETATM   23  C   UNL     1      -8.980   8.057  71.074  1.00  0.00    -0.144 C  
HETATM   24  C   UNL     1     -10.326   8.680  70.637  1.00  0.00    -0.202 C  
HETATM   25  O   UNL     1      -7.076   5.848  68.855  1.00  0.00    -0.069 OA 
BRANCH  22  26
HETATM   26  C   UNL     1      -7.817   5.278  71.076  1.00  0.00    -0.102 C  
HETATM   27  C   UNL     1      -6.774   4.165  70.980  1.00  0.00    -0.031 C  
HETATM   28  O   UNL     1      -6.775   3.359  72.168  1.00  0.00    -0.018 OA 
HETATM   29  C   UNL     1      -8.050   3.035  72.548  1.00  0.00    -0.063 A  
HETATM   30  C   UNL     1      -8.183   2.012  73.485  1.00  0.00    -0.050 A  
HETATM   31  C   UNL     1      -9.452   1.624  73.914  1.00  0.00    -0.079 A  
HETATM   32  C   UNL     1     -10.586   2.262  73.410  1.00  0.00    -0.241 A  
HETATM   33  C   UNL     1     -10.453   3.290  72.475  1.00  0.00    -0.135 A  
HETATM   34  C   UNL     1      -9.185   3.683  72.052  1.00  0.00    -0.114 A  
HETATM   35  O   UNL     1      -9.127   4.702  71.136  1.00  0.00    -0.125 OA 
ENDBRANCH  22  26
ENDBRANCH  13  18
ENDBRANCH   2   3
TORSDOF 4
ENDMDL
MODEL      132
REMARK 921   NORMALIZED FREE ENERGY PREDICTED BY IDOCK:    4.12 KCAL/MOL
REMARK 922        TOTAL FREE ENERGY PREDICTED BY IDOCK:    4.56 KCAL/MOL
REMARK 923 INTER-LIGAND FREE ENERGY PREDICTED BY IDOCK:    3.14 KCAL/MOL
REMARK 924 INTRA-LIGAND FREE ENERGY PREDICTED BY IDOCK:    1.42 KCAL/MOL
REMARK 927      BINDING AFFINITY PREDICTED BY RF-SCORE:    0.00 PKD
ROOT
HETATM    1  C   UNL     1     -11.041   2.753  62.845  1.00  0.00    -0.115 C  
HETATM    2  O   UNL     1     -10.903   4.140  62.541  1.00  0.00    -0.177 OA 
ENDROOT
BRANCH   2   3
HETATM    3  C   UNL     1      -9.899   4.796  63.206  1.00  0.00     0.377 A  
HETATM    4  C   UNL     1      -8.682   4.146  63.441  1.00  0.00    -0.112 A  
HETATM    5  C   UNL     1      -7.653   4.864  64.064  1.00  0.00    -0.066 A  
HETATM    6  C   UNL     1      -9.048   6.834  64.268  1.00  0.00     1.292 A  
HETATM    7  C   UNL     1      -7.819   6.214  64.449  1.00  0.00    -0.114 A  
HETATM    8  C   UNL     1     -10.070   6.112  63.676  1.00  0.00     4.084 A  
HETATM    9  C   UNL     1      -6.834   7.037  64.993  1.00  0.00    -0.051 A  
HETATM   10  N   UNL     1      -5.538   6.564  65.236  1.00  0.00    -0.025 NA 
HETATM   11  N   UNL     1      -7.048   8.318  65.320  1.00  0.00    -0.073 NA 
HETATM   12  H1  UNL     1      -4.816   7.165  65.635  1.00  0.00     0.000 HD 
HETATM   13  C   UNL     1      -8.269   8.831  65.107  1.00  0.00    -0.148 A  
HETATM   14  H2  UNL     1      -5.177   6.176  64.365  1.00  0.00     0.000 HD 
HETATM   15  N   UNL     1      -9.275   8.107  64.605  1.00  0.00     0.717 NA 
BRANCH   4  16
HETATM   16  O   UNL     1      -8.305   2.870  63.130  1.00  0.00    -0.083 OA 
HETATM   17  C   UNL     1      -7.149   2.318  63.740  1.00  0.00    -0.040 C  
ENDBRANCH   4  16
BRANCH  13  18
HETATM   18  N   UNL     1      -8.473  10.175  65.304  1.00  0.00    -0.151 NA 
HETATM   19  C   UNL     1     -10.137  11.946  65.565  1.00  0.00    -0.245 C  
HETATM   20  C   UNL     1      -9.580  10.856  64.632  1.00  0.00    -0.257 C  
HETATM   21  N   UNL     1      -9.077  12.844  66.051  1.00  0.00     0.062 N  
HETATM   22  C   UNL     1      -9.247  14.216  65.940  1.00  0.00     0.128 C  
HETATM   23  C   UNL     1      -7.939  12.144  66.675  1.00  0.00     0.058 C  
HETATM   24  C   UNL     1      -7.376  11.038  65.752  1.00  0.00     0.084 C  
HETATM   25  O   UNL     1     -10.266  14.685  65.425  1.00  0.00    -0.340 OA 
BRANCH  22  26
HETATM   26  C   UNL     1      -8.166  15.144  66.514  1.00  0.00     0.075 C  
HETATM   27  C   UNL     1      -7.252  14.355  67.450  1.00  0.00    -0.122 C  
HETATM   28  O   UNL     1      -6.153  15.164  67.894  1.00  0.00    -0.135 OA 
HETATM   29  C   UNL     1      -6.575  16.409  68.281  1.00  0.00    -0.132 A  
HETATM   30  C   UNL     1      -5.674  17.174  69.018  1.00  0.00    -0.156 A  
HETATM   31  C   UNL     1      -6.039  18.449  69.453  1.00  0.00    -0.263 A  
HETATM   32  C   UNL     1      -7.301  18.957  69.145  1.00  0.00    -0.264 A  
HETATM   33  C   UNL     1      -8.202  18.193  68.402  1.00  0.00    -0.314 A  
HETATM   34  C   UNL     1      -7.836  16.923  67.961  1.00  0.00    -0.179 A  
HETATM   35  O   UNL     1      -8.766  16.228  67.233  1.00  0.00    -0.175 OA 
ENDBRANCH  22  26
ENDBRANCH  13  18
ENDBRANCH   2   3
TORSDOF 4
ENDMDL
MODEL      133
REMARK 921   NORMALIZED FREE ENERGY PREDICTED BY IDOCK:    4.64 KCAL/MOL
REMARK 922        TOTAL FREE ENERGY PREDICTED BY IDOCK:    5.20 KCAL/MOL
REMARK 923 INTER-LIGAND FREE ENERGY PREDICTED BY IDOCK:    4.92 KCAL/MOL
REMARK 924 INTRA-LIGAND FREE ENERGY PREDICTED BY IDOCK:    0.28 KCAL/MOL
REMARK 927      BINDING AFFINITY PREDICTED BY RF-SCORE:    0.00 PKD
ROOT
HETATM    1  C   UNL     1      -7.736   6.597  73.387  1.00  0.00    -0.090 C  
HETATM    2  O   UNL     1      -7.669   5.608  72.360  1.00  0.00    -0.099 OA 
ENDROOT
BRANCH   2   3
HETATM    3  C   UNL     1      -7.354   6.072  71.109  1.00  0.00    -0.084 A  
HETATM    4  C   UNL     1      -7.139   5.165  70.066  1.00  0.00    -0.058 A  
HETATM    5  C   UNL     1      -6.884   5.670  68.786  1.00  0.00    -0.059 A  
HETATM    6  C   UNL     1      -7.000   7.955  69.582  1.00  0.00    -0.053 A  
HETATM    7  C   UNL     1      -6.845   7.061  68.532  1.00  0.00    -0.073 A  
HETATM    8  C   UNL     1      -7.226   7.450  70.851  1.00  0.00    -0.068 A  
HETATM    9  C   UNL     1      -6.686   7.661  67.283  1.00  0.00    -0.068 A  
HETATM   10  N   UNL     1      -6.521   6.897  66.121  1.00  0.00    -0.049 NA 
HETATM   11  N   UNL     1      -6.678   8.988  67.105  1.00  0.00    -0.065 NA 
HETATM   12  H1  UNL     1      -6.405   7.336  65.207  1.00  0.00     0.000 HD 
HETATM   13  C   UNL     1      -6.836   9.774  68.181  1.00  0.00    -0.069 A  
HETATM   14  H2  UNL     1      -7.304   6.246  66.059  1.00  0.00     0.000 HD 
HETATM   15  N   UNL     1      -6.977   9.281  69.416  1.00  0.00    -0.048 NA 
BRANCH   4  16
HETATM   16  O   UNL     1      -7.157   3.798  70.086  1.00  0.00    -0.040 OA 
HETATM   17  C   UNL     1      -6.985   3.082  68.874  1.00  0.00    -0.048 C  
ENDBRANCH   4  16
BRANCH  13  18
HETATM   18  N   UNL     1      -6.970  11.130  68.004  1.00  0.00    -0.067 NA 
HETATM   19  C   UNL     1      -5.793  13.249  67.692  1.00  0.00    -0.103 C  
HETATM   20  C   UNL     1      -6.017  12.048  68.629  1.00  0.00    -0.054 C  
HETATM   21  N   UNL     1      -7.064  13.872  67.288  1.00  0.00    -0.050 N  
HETATM   22  C   UNL     1      -7.217  15.244  67.422  1.00  0.00    -0.204 C  
HETATM   23  C   UNL     1      -8.038  12.928  66.713  1.00  0.00     0.154 C  
HETATM   24  C   UNL     1      -8.265  11.711  67.639  1.00  0.00    -0.141 C  
HETATM   25  O   UNL     1      -6.310  15.938  67.890  1.00  0.00    -0.114 OA 
BRANCH  22  26
HETATM   26  C   UNL     1      -8.520  15.894  66.933  1.00  0.00    -0.240 C  
HETATM   27  C   UNL     1      -9.422  16.202  68.126  1.00  0.00    -0.209 C  
HETATM   28  O   UNL     1     -10.587  16.932  67.713  1.00  0.00    -0.329 OA 
HETATM   29  C   UNL     1     -11.147  16.382  66.590  1.00  0.00     0.156 A  
HETATM   30  C   UNL     1     -12.440  16.792  66.270  1.00  0.00     4.286 A  
HETATM   31  C   UNL     1     -13.075  16.267  65.144  1.00  0.00     3.831 A  
HETATM   32  C   UNL     1     -12.416  15.338  64.339  1.00  0.00    -0.044 A  
HETATM   33  C   UNL     1     -11.119  14.931  64.656  1.00  0.00    -0.335 A  
HETATM   34  C   UNL     1     -10.481  15.460  65.776  1.00  0.00    -0.355 A  
HETATM   35  O   UNL     1      -9.207  15.021  66.027  1.00  0.00    -0.293 OA 
ENDBRANCH  22  26
ENDBRANCH  13  18
ENDBRANCH   2   3
TORSDOF 4
ENDMDL
MODEL      134
REMARK 921   NORMALIZED FREE ENERGY PREDICTED BY IDOCK:    6.17 KCAL/MOL
REMARK 922        TOTAL FREE ENERGY PREDICTED BY IDOCK:    7.08 KCAL/MOL
REMARK 923 INTER-LIGAND FREE ENERGY PREDICTED BY IDOCK:    6.05 KCAL/MOL
REMARK 924 INTRA-LIGAND FREE ENERGY PREDICTED BY IDOCK:    1.02 KCAL/MOL
REMARK 927      BINDING AFFINITY PREDICTED BY RF-SCORE:    0.00 PKD
ROOT
HETATM    1  C   UNL     1      -9.462  15.153  63.817  1.00  0.00     7.941 C  
HETATM    2  O   UNL     1      -9.794  13.776  63.987  1.00  0.00     0.317 OA 
ENDROOT
BRANCH   2   3
HETATM    3  C   UNL     1     -10.025  13.376  65.278  1.00  0.00    -0.174 A  
HETATM    4  C   UNL     1     -10.800  14.176  66.125  1.00  0.00    -0.296 A  
HETATM    5  C   UNL     1     -11.072  13.711  67.417  1.00  0.00    -0.299 A  
HETATM    6  C   UNL     1      -9.770  11.702  67.049  1.00  0.00    -0.186 A  
HETATM    7  C   UNL     1     -10.588  12.462  67.872  1.00  0.00    -0.231 A  
HETATM    8  C   UNL     1      -9.482  12.178  65.782  1.00  0.00    -0.156 A  
HETATM    9  C   UNL     1     -10.874  11.873  69.103  1.00  0.00    -0.147 A  
HETATM   10  N   UNL     1     -11.688  12.511  70.048  1.00  0.00    -0.514 NA 
HETATM   11  N   UNL     1     -10.400  10.675  69.469  1.00  0.00    -0.212 NA 
HETATM   12  H1  UNL     1     -11.897  12.081  70.949  1.00  0.00     0.000 HD 
HETATM   13  C   UNL     1      -9.617  10.012  68.605  1.00  0.00    -0.155 A  
HETATM   14  H2  UNL     1     -12.573  12.740  69.596  1.00  0.00     0.000 HD 
HETATM   15  N   UNL     1      -9.279  10.512  67.412  1.00  0.00    -0.142 NA 
BRANCH   4  16
HETATM   16  O   UNL     1     -11.381  15.389  65.881  1.00  0.00    -0.249 OA 
HETATM   17  C   UNL     1     -10.827  16.557  66.466  1.00  0.00    -0.046 C  
ENDBRANCH   4  16
BRANCH  13  18
HETATM   18  N   UNL     1      -9.234   8.726  68.901  1.00  0.00    -0.141 NA 
HETATM   19  C   UNL     1      -7.415   7.095  68.827  1.00  0.00    -0.102 C  
HETATM   20  C   UNL     1      -8.344   7.999  67.996  1.00  0.00    -0.126 C  
HETATM   21  N   UNL     1      -8.172   6.239  69.754  1.00  0.00    -0.123 N  
HETATM   22  C   UNL     1      -7.917   4.876  69.778  1.00  0.00    -0.070 C  
HETATM   23  C   UNL     1      -9.107   6.976  70.622  1.00  0.00    -0.158 C  
HETATM   24  C   UNL     1     -10.040   7.896  69.801  1.00  0.00    -0.199 C  
HETATM   25  O   UNL     1      -7.079   4.377  69.020  1.00  0.00    -0.050 OA 
BRANCH  22  26
HETATM   26  C   UNL     1      -8.661   4.002  70.798  1.00  0.00    -0.073 C  
HETATM   27  C   UNL     1      -9.170   2.733  70.116  1.00  0.00    -0.135 C  
HETATM   28  O   UNL     1      -9.750   1.834  71.073  1.00  0.00    -0.133 OA 
HETATM   29  C   UNL     1     -10.584   2.496  71.935  1.00  0.00     0.473 A  
HETATM   30  C   UNL     1     -11.444   1.712  72.701  1.00  0.00     0.176 A  
HETATM   31  C   UNL     1     -12.326   2.319  73.595  1.00  0.00     0.309 A  
HETATM   32  C   UNL     1     -12.343   3.708  73.726  1.00  0.00     1.152 A  
HETATM   33  C   UNL     1     -11.479   4.494  72.962  1.00  0.00    -0.205 A  
HETATM   34  C   UNL     1     -10.592   3.888  72.074  1.00  0.00     0.166 A  
HETATM   35  O   UNL     1      -9.768   4.718  71.360  1.00  0.00    -0.157 OA 
ENDBRANCH  22  26
ENDBRANCH  13  18
ENDBRANCH   2   3
TORSDOF 4
ENDMDL
MODEL      135
REMARK 921   NORMALIZED FREE ENERGY PREDICTED BY IDOCK:    6.33 KCAL/MOL
REMARK 922        TOTAL FREE ENERGY PREDICTED BY IDOCK:    7.28 KCAL/MOL
REMARK 923 INTER-LIGAND FREE ENERGY PREDICTED BY IDOCK:    7.10 KCAL/MOL
REMARK 924 INTRA-LIGAND FREE ENERGY PREDICTED BY IDOCK:    0.18 KCAL/MOL
REMARK 927      BINDING AFFINITY PREDICTED BY RF-SCORE:    0.00 PKD
ROOT
HETATM    1  C   UNL     1      -8.691   4.804  73.539  1.00  0.00    -0.104 C  
HETATM    2  O   UNL     1      -9.952   5.450  73.370  1.00  0.00    -0.163 OA 
ENDROOT
BRANCH   2   3
HETATM    3  C   UNL     1     -10.227   5.889  72.101  1.00  0.00    -0.195 A  
HETATM    4  C   UNL     1     -11.189   5.227  71.330  1.00  0.00     0.202 A  
HETATM    5  C   UNL     1     -11.496   5.738  70.063  1.00  0.00     0.181 A  
HETATM    6  C   UNL     1      -9.867   7.515  70.303  1.00  0.00    -0.183 A  
HETATM    7  C   UNL     1     -10.862   6.898  69.559  1.00  0.00    -0.287 A  
HETATM    8  C   UNL     1      -9.549   6.990  71.543  1.00  0.00    -0.159 A  
HETATM    9  C   UNL     1     -11.158   7.533  68.353  1.00  0.00     0.242 A  
HETATM   10  N   UNL     1     -12.142   7.038  67.488  1.00  0.00     1.163 NA 
HETATM   11  N   UNL     1     -10.535   8.644  67.939  1.00  0.00    -0.227 NA 
HETATM   12  H1  UNL     1     -12.358   7.502  66.605  1.00  0.00     0.000 HD 
HETATM   13  C   UNL     1      -9.585   9.170  68.727  1.00  0.00    -0.159 A  
HETATM   14  H2  UNL     1     -13.010   6.949  68.016  1.00  0.00     0.000 HD 
HETATM   15  N   UNL     1      -9.228   8.614  69.890  1.00  0.00    -0.152 NA 
BRANCH   4  16
HETATM   16  O   UNL     1     -11.932   4.120  71.632  1.00  0.00     2.829 OA 
HETATM   17  C   UNL     1     -12.560   4.028  72.901  1.00  0.00     1.337 C  
ENDBRANCH   4  16
BRANCH  13  18
HETATM   18  N   UNL     1      -9.031  10.381  68.390  1.00  0.00    -0.132 NA 
HETATM   19  C   UNL     1      -8.425  11.881  66.559  1.00  0.00    -0.097 C  
HETATM   20  C   UNL     1      -8.197  10.498  67.194  1.00  0.00    -0.123 C  
HETATM   21  N   UNL     1      -8.245  12.968  67.535  1.00  0.00    -0.170 N  
HETATM   22  C   UNL     1      -7.417  14.034  67.216  1.00  0.00    -0.029 C  
HETATM   23  C   UNL     1      -9.047  12.810  68.761  1.00  0.00     0.177 C  
HETATM   24  C   UNL     1      -8.836  11.420  69.404  1.00  0.00     0.545 C  
HETATM   25  O   UNL     1      -6.821  14.069  66.136  1.00  0.00     2.822 OA 
BRANCH  22  26
HETATM   26  C   UNL     1      -7.291  15.196  68.213  1.00  0.00    -0.113 C  
HETATM   27  C   UNL     1      -8.675  15.767  68.517  1.00  0.00    -0.184 C  
HETATM   28  O   UNL     1      -8.602  16.764  69.548  1.00  0.00     0.076 OA 
HETATM   29  C   UNL     1      -7.566  17.633  69.328  1.00  0.00     0.057 A  
HETATM   30  C   UNL     1      -7.574  18.815  70.064  1.00  0.00     0.966 A  
HETATM   31  C   UNL     1      -6.554  19.750  69.887  1.00  0.00    -0.325 A  
HETATM   32  C   UNL     1      -5.526  19.498  68.978  1.00  0.00    -0.217 A  
HETATM   33  C   UNL     1      -5.515  18.312  68.243  1.00  0.00    -0.166 A  
HETATM   34  C   UNL     1      -6.530  17.374  68.425  1.00  0.00    -0.177 A  
HETATM   35  O   UNL     1      -6.455  16.229  67.676  1.00  0.00    -0.130 OA 
ENDBRANCH  22  26
ENDBRANCH  13  18
ENDBRANCH   2   3
TORSDOF 4
ENDMDL
MODEL      136
REMARK 921   NORMALIZED FREE ENERGY PREDICTED BY IDOCK:    9.47 KCAL/MOL
REMARK 922        TOTAL FREE ENERGY PREDICTED BY IDOCK:   11.16 KCAL/MOL
REMARK 923 INTER-LIGAND FREE ENERGY PREDICTED BY IDOCK:   10.96 KCAL/MOL
REMARK 924 INTRA-LIGAND FREE ENERGY PREDICTED BY IDOCK:    0.20 KCAL/MOL
REMARK 927      BINDING AFFINITY PREDICTED BY RF-SCORE:    0.00 PKD
ROOT
HETATM    1  C   UNL     1      -6.551   5.333  73.437  1.00  0.00    -0.072 C  
HETATM    2  O   UNL     1      -5.975   5.015  72.171  1.00  0.00    -0.022 OA 
ENDROOT
BRANCH   2   3
HETATM    3  C   UNL     1      -6.394   5.786  71.118  1.00  0.00    -0.039 A  
HETATM    4  C   UNL     1      -6.863   5.173  69.951  1.00  0.00    -0.052 A  
HETATM    5  C   UNL     1      -7.344   5.987  68.919  1.00  0.00    -0.085 A  
HETATM    6  C   UNL     1      -6.846   8.000  70.170  1.00  0.00    -0.041 A  
HETATM    7  C   UNL     1      -7.368   7.397  69.035  1.00  0.00    -0.091 A  
HETATM    8  C   UNL     1      -6.348   7.193  71.178  1.00  0.00    -0.037 A  
HETATM    9  C   UNL     1      -7.905   8.286  68.105  1.00  0.00    -0.118 A  
HETATM   10  N   UNL     1      -8.474   7.835  66.907  1.00  0.00    -0.123 NA 
HETATM   11  N   UNL     1      -7.916   9.613  68.283  1.00  0.00    -0.096 NA 
HETATM   12  H1  UNL     1      -8.866   8.486  66.225  1.00  0.00     0.000 HD 
HETATM   13  C   UNL     1      -7.389  10.106  69.414  1.00  0.00    -0.106 A  
HETATM   14  H2  UNL     1      -9.194   7.151  67.138  1.00  0.00     0.000 HD 
HETATM   15  N   UNL     1      -6.839   9.325  70.350  1.00  0.00    -0.064 NA 
BRANCH   4  16
HETATM   16  O   UNL     1      -6.952   3.844  69.644  1.00  0.00    -0.041 OA 
HETATM   17  C   UNL     1      -6.154   3.317  68.597  1.00  0.00    -0.028 C  
ENDBRANCH   4  16
BRANCH  13  18
HETATM   18  N   UNL     1      -7.514  11.448  69.680  1.00  0.00     0.129 NA 
HETATM   19  C   UNL     1      -6.462  13.410  70.688  1.00  0.00     0.450 C  
HETATM   20  C   UNL     1      -7.013  11.995  70.941  1.00  0.00     3.042 C  
HETATM   21  N   UNL     1      -7.445  14.264  70.002  1.00  0.00     0.323 N  
HETATM   22  C   UNL     1      -7.730  15.519  70.520  1.00  0.00     1.259 C  
HETATM   23  C   UNL     1      -7.986  13.679  68.763  1.00  0.00    -0.022 C  
HETATM   24  C   UNL     1      -8.533  12.252  69.000  1.00  0.00     0.398 C  
HETATM   25  O   UNL     1      -7.183  15.914  71.554  1.00  0.00     3.140 OA 
BRANCH  22  26
HETATM   26  C   UNL     1      -8.704  16.430  69.758  1.00  0.00     0.626 C  
HETATM   27  C   UNL     1      -8.405  16.367  68.261  1.00  0.00    -0.189 C  
HETATM   28  O   UNL     1      -9.385  17.102  67.511  1.00  0.00    -0.235 OA 
HETATM   29  C   UNL     1      -9.635  18.322  68.081  1.00  0.00    -0.304 A  
HETATM   30  C   UNL     1     -10.318  19.251  67.298  1.00  0.00    -0.538 A  
HETATM   31  C   UNL     1     -10.601  20.516  67.811  1.00  0.00     0.049 A  
HETATM   32  C   UNL     1     -10.207  20.850  69.108  1.00  0.00     0.698 A  
HETATM   33  C   UNL     1      -9.527  19.918  69.894  1.00  0.00     0.527 A  
HETATM   34  C   UNL     1      -9.251  18.651  69.385  1.00  0.00     0.286 A  
HETATM   35  O   UNL     1      -8.585  17.784  70.213  1.00  0.00     2.335 OA 
ENDBRANCH  22  26
ENDBRANCH  13  18
ENDBRANCH   2   3
TORSDOF 4
ENDMDL
MODEL      137
REMARK 921   NORMALIZED FREE ENERGY PREDICTED BY IDOCK:   10.38 KCAL/MOL
REMARK 922        TOTAL FREE ENERGY PREDICTED BY IDOCK:   12.28 KCAL/MOL
REMARK 923 INTER-LIGAND FREE ENERGY PREDICTED BY IDOCK:   11.63 KCAL/MOL
REMARK 924 INTRA-LIGAND FREE ENERGY PREDICTED BY IDOCK:    0.65 KCAL/MOL
REMARK 927      BINDING AFFINITY PREDICTED BY RF-SCORE:    0.00 PKD
ROOT
HETATM    1  C   UNL     1     -10.798   4.256  69.087  1.00  0.00     2.304 C  
HETATM    2  O   UNL     1     -11.708   5.192  69.662  1.00  0.00     2.240 OA 
ENDROOT
BRANCH   2   3
HETATM    3  C   UNL     1     -11.136   6.216  70.372  1.00  0.00    -0.352 A  
HETATM    4  C   UNL     1     -11.069   6.140  71.768  1.00  0.00    -0.274 A  
HETATM    5  C   UNL     1     -10.421   7.169  72.461  1.00  0.00    -0.254 A  
HETATM    6  C   UNL     1      -9.960   8.365  70.406  1.00  0.00    -0.185 A  
HETATM    7  C   UNL     1      -9.837   8.266  71.784  1.00  0.00    -0.284 A  
HETATM    8  C   UNL     1     -10.624   7.358  69.727  1.00  0.00    -0.245 A  
HETATM    9  C   UNL     1      -9.099   9.292  72.373  1.00  0.00     1.219 A  
HETATM   10  N   UNL     1      -8.881   9.335  73.756  1.00  0.00     1.490 NA 
HETATM   11  N   UNL     1      -8.553  10.294  71.674  1.00  0.00     2.992 NA 
HETATM   12  H1  UNL     1      -8.340  10.086  74.187  1.00  0.00     0.000 HD 
HETATM   13  C   UNL     1      -8.723  10.306  70.343  1.00  0.00     0.712 A  
HETATM   14  H2  UNL     1      -8.464   8.447  74.036  1.00  0.00     0.000 HD 
HETATM   15  N   UNL     1      -9.432   9.371  69.701  1.00  0.00    -0.177 NA 
BRANCH   4  16
HETATM   16  O   UNL     1     -11.537   5.168  72.608  1.00  0.00    -0.208 OA 
HETATM   17  C   UNL     1     -10.793   4.834  73.768  1.00  0.00    -0.310 C  
ENDBRANCH   4  16
BRANCH  13  18
HETATM   18  N   UNL     1      -8.058  11.245  69.592  1.00  0.00     0.403 NA 
HETATM   19  C   UNL     1      -7.027  11.739  67.432  1.00  0.00    -0.121 C  
HETATM   20  C   UNL     1      -6.994  10.833  68.676  1.00  0.00    -0.070 C  
HETATM   21  N   UNL     1      -6.999  13.165  67.794  1.00  0.00    -0.129 N  
HETATM   22  C   UNL     1      -6.077  14.001  67.183  1.00  0.00     0.805 C  
HETATM   23  C   UNL     1      -8.040  13.558  68.761  1.00  0.00     0.024 C  
HETATM   24  C   UNL     1      -8.026  12.649  70.012  1.00  0.00     2.630 C  
HETATM   25  O   UNL     1      -5.272  13.558  66.358  1.00  0.00     1.698 OA 
BRANCH  22  26
HETATM   26  C   UNL     1      -6.103  15.501  67.515  1.00  0.00    -0.089 C  
HETATM   27  C   UNL     1      -6.690  15.709  68.910  1.00  0.00    -0.123 C  
HETATM   28  O   UNL     1      -6.601  17.088  69.302  1.00  0.00    -0.215 OA 
HETATM   29  C   UNL     1      -7.001  17.919  68.289  1.00  0.00    -0.222 A  
HETATM   30  C   UNL     1      -7.262  19.244  68.634  1.00  0.00    -0.367 A  
HETATM   31  C   UNL     1      -7.679  20.146  67.655  1.00  0.00    -0.331 A  
HETATM   32  C   UNL     1      -7.830  19.724  66.333  1.00  0.00    -0.328 A  
HETATM   33  C   UNL     1      -7.564  18.398  65.987  1.00  0.00    -0.231 A  
HETATM   34  C   UNL     1      -7.139  17.498  66.963  1.00  0.00    -0.178 A  
HETATM   35  O   UNL     1      -6.890  16.214  66.554  1.00  0.00    -0.198 OA 
ENDBRANCH  22  26
ENDBRANCH  13  18
ENDBRANCH   2   3
TORSDOF 4
ENDMDL
MODEL      138
REMARK 921   NORMALIZED FREE ENERGY PREDICTED BY IDOCK:   12.23 KCAL/MOL
REMARK 922        TOTAL FREE ENERGY PREDICTED BY IDOCK:   14.56 KCAL/MOL
REMARK 923 INTER-LIGAND FREE ENERGY PREDICTED BY IDOCK:   14.39 KCAL/MOL
REMARK 924 INTRA-LIGAND FREE ENERGY PREDICTED BY IDOCK:    0.17 KCAL/MOL
REMARK 927      BINDING AFFINITY PREDICTED BY RF-SCORE:    0.00 PKD
ROOT
HETATM    1  C   UNL     1      -5.634  17.242  73.408  1.00  0.00     5.544 C  
HETATM    2  O   UNL     1      -6.025  17.950  72.233  1.00  0.00     1.190 OA 
ENDROOT
BRANCH   2   3
HETATM    3  C   UNL     1      -6.716  17.218  71.302  1.00  0.00     3.617 A  
HETATM    4  C   UNL     1      -7.514  17.872  70.357  1.00  0.00     2.578 A  
HETATM    5  C   UNL     1      -8.155  17.102  69.379  1.00  0.00     0.294 A  
HETATM    6  C   UNL     1      -7.264  15.048  70.304  1.00  0.00     0.239 A  
HETATM    7  C   UNL     1      -8.008  15.696  69.328  1.00  0.00    -0.237 A  
HETATM    8  C   UNL     1      -6.653  15.811  71.284  1.00  0.00     1.733 A  
HETATM    9  C   UNL     1      -8.531  14.853  68.348  1.00  0.00    -0.153 A  
HETATM   10  N   UNL     1      -9.303  15.352  67.291  1.00  0.00    -0.207 NA 
HETATM   11  N   UNL     1      -8.339  13.528  68.344  1.00  0.00    -0.156 NA 
HETATM   12  H1  UNL     1      -9.686  14.736  66.574  1.00  0.00     0.000 HD 
HETATM   13  C   UNL     1      -7.603  12.990  69.329  1.00  0.00     0.384 A  
HETATM   14  H2  UNL     1      -8.763  16.080  66.823  1.00  0.00     0.000 HD 
HETATM   15  N   UNL     1      -7.080  13.724  70.317  1.00  0.00     0.545 NA 
BRANCH   4  16
HETATM   16  O   UNL     1      -7.769  19.207  70.210  1.00  0.00     0.840 OA 
HETATM   17  C   UNL     1      -6.835  20.021  69.520  1.00  0.00    -0.228 C  
ENDBRANCH   4  16
BRANCH  13  18
HETATM   18  N   UNL     1      -7.279  11.657  69.269  1.00  0.00    -0.068 NA 
HETATM   19  C   UNL     1      -5.466  10.029  69.073  1.00  0.00    -0.035 C  
HETATM   20  C   UNL     1      -6.195  11.204  68.396  1.00  0.00    -0.045 C  
HETATM   21  N   UNL     1      -6.401   8.969  69.481  1.00  0.00    -0.043 N  
HETATM   22  C   UNL     1      -6.138   7.656  69.118  1.00  0.00    -0.034 C  
HETATM   23  C   UNL     1      -7.521   9.445  70.313  1.00  0.00    -0.128 C  
HETATM   24  C   UNL     1      -8.256  10.633  69.650  1.00  0.00     0.064 C  
HETATM   25  O   UNL     1      -5.142   7.376  68.443  1.00  0.00    -0.022 OA 
BRANCH  22  26
HETATM   26  C   UNL     1      -7.082   6.549  69.608  1.00  0.00    -0.072 C  
HETATM   27  C   UNL     1      -8.533   6.981  69.406  1.00  0.00    -0.133 C  
HETATM   28  O   UNL     1      -9.436   5.912  69.729  1.00  0.00    -0.145 OA 
HETATM   29  C   UNL     1      -9.088   5.307  70.908  1.00  0.00    -0.138 A  
HETATM   30  C   UNL     1     -10.044   4.477  71.491  1.00  0.00    -0.239 A  
HETATM   31  C   UNL     1      -9.761   3.833  72.695  1.00  0.00    -0.200 A  
HETATM   32  C   UNL     1      -8.523   4.015  73.312  1.00  0.00    -0.089 A  
HETATM   33  C   UNL     1      -7.563   4.842  72.726  1.00  0.00    -0.092 A  
HETATM   34  C   UNL     1      -7.842   5.480  71.518  1.00  0.00    -0.111 A  
HETATM   35  O   UNL     1      -6.854   6.274  70.996  1.00  0.00    -0.062 OA 
ENDBRANCH  22  26
ENDBRANCH  13  18
ENDBRANCH   2   3
TORSDOF 4
ENDMDL
MODEL      139
REMARK 921   NORMALIZED FREE ENERGY PREDICTED BY IDOCK:   12.51 KCAL/MOL
REMARK 922        TOTAL FREE ENERGY PREDICTED BY IDOCK:   14.91 KCAL/MOL
REMARK 923 INTER-LIGAND FREE ENERGY PREDICTED BY IDOCK:   14.87 KCAL/MOL
REMARK 924 INTRA-LIGAND FREE ENERGY PREDICTED BY IDOCK:    0.04 KCAL/MOL
REMARK 927      BINDING AFFINITY PREDICTED BY RF-SCORE:    0.00 PKD
ROOT
HETATM    1  C   UNL     1     -12.835  16.820  65.957  1.00  0.00     6.082 C  
HETATM    2  O   UNL     1     -11.741  15.926  65.757  1.00  0.00     0.328 OA 
ENDROOT
BRANCH   2   3
HETATM    3  C   UNL     1     -10.875  15.802  66.812  1.00  0.00    -0.254 A  
HETATM    4  C   UNL     1     -10.619  16.905  67.634  1.00  0.00    -0.325 A  
HETATM    5  C   UNL     1      -9.782  16.730  68.742  1.00  0.00    -0.261 A  
HETATM    6  C   UNL     1      -9.413  14.400  68.191  1.00  0.00    -0.204 A  
HETATM    7  C   UNL     1      -9.203  15.475  69.044  1.00  0.00    -0.238 A  
HETATM    8  C   UNL     1     -10.220  14.585  67.083  1.00  0.00    -0.260 A  
HETATM    9  C   UNL     1      -8.430  15.179  70.166  1.00  0.00     0.602 A  
HETATM   10  N   UNL     1      -8.130  16.154  71.125  1.00  0.00     4.298 NA 
HETATM   11  N   UNL     1      -7.926  13.962  70.406  1.00  0.00     1.995 NA 
HETATM   12  H1  UNL     1      -7.564  15.937  71.946  1.00  0.00     0.000 HD 
HETATM   13  C   UNL     1      -8.183  12.983  69.525  1.00  0.00     1.290 A  
HETATM   14  H2  UNL     1      -9.008  16.559  71.448  1.00  0.00     0.000 HD 
HETATM   15  N   UNL     1      -8.900  13.186  68.415  1.00  0.00    -0.156 NA 
BRANCH   4  16
HETATM   16  O   UNL     1     -11.090  18.185  67.541  1.00  0.00    -0.221 OA 
HETATM   17  C   UNL     1     -10.248  19.265  67.913  1.00  0.00    -0.411 C  
ENDBRANCH   4  16
BRANCH  13  18
HETATM   18  N   UNL     1      -7.795  11.699  69.820  1.00  0.00     0.746 NA 
HETATM   19  C   UNL     1      -5.900  10.195  70.171  1.00  0.00    -0.059 C  
HETATM   20  C   UNL     1      -6.616  11.122  69.172  1.00  0.00    -0.085 C  
HETATM   21  N   UNL     1      -6.819   9.205  70.754  1.00  0.00    -0.077 N  
HETATM   22  C   UNL     1      -6.465   7.864  70.745  1.00  0.00    -0.037 C  
HETATM   23  C   UNL     1      -8.031   9.792  71.353  1.00  0.00     1.173 C  
HETATM   24  C   UNL     1      -8.755  10.735  70.364  1.00  0.00     1.907 C  
HETATM   25  O   UNL     1      -5.400   7.496  70.240  1.00  0.00    -0.023 OA 
BRANCH  22  26
HETATM   26  C   UNL     1      -7.399   6.848  71.418  1.00  0.00    -0.081 C  
HETATM   27  C   UNL     1      -7.009   6.682  72.886  1.00  0.00    -0.076 C  
HETATM   28  O   UNL     1      -7.948   5.842  73.574  1.00  0.00    -0.108 OA 
HETATM   29  C   UNL     1      -8.243   4.722  72.842  1.00  0.00    -0.101 A  
HETATM   30  C   UNL     1      -8.885   3.685  73.515  1.00  0.00    -0.092 A  
HETATM   31  C   UNL     1      -9.210   2.512  72.834  1.00  0.00    -0.111 A  
HETATM   32  C   UNL     1      -8.898   2.380  71.480  1.00  0.00    -0.121 A  
HETATM   33  C   UNL     1      -8.259   3.420  70.804  1.00  0.00    -0.074 A  
HETATM   34  C   UNL     1      -7.941   4.596  71.482  1.00  0.00    -0.100 A  
HETATM   35  O   UNL     1      -7.320   5.579  70.757  1.00  0.00    -0.077 OA 
ENDBRANCH  22  26
ENDBRANCH  13  18
ENDBRANCH   2   3
TORSDOF 4
ENDMDL
MODEL      140
REMARK 921   NORMALIZED FREE ENERGY PREDICTED BY IDOCK:   13.29 KCAL/MOL
REMARK 922        TOTAL FREE ENERGY PREDICTED BY IDOCK:   15.87 KCAL/MOL
REMARK 923 INTER-LIGAND FREE ENERGY PREDICTED BY IDOCK:   16.06 KCAL/MOL
REMARK 924 INTRA-LIGAND FREE ENERGY PREDICTED BY IDOCK:   -0.20 KCAL/MOL
REMARK 927      BINDING AFFINITY PREDICTED BY RF-SCORE:    0.00 PKD
ROOT
HETATM    1  C   UNL     1      -6.977   2.727  67.238  1.00  0.00    -0.045 C  
HETATM    2  O   UNL     1      -8.010   2.921  66.273  1.00  0.00    -0.080 OA 
ENDROOT
BRANCH   2   3
HETATM    3  C   UNL     1      -8.295   4.225  65.963  1.00  0.00    -0.109 A  
HETATM    4  C   UNL     1      -8.234   4.652  64.632  1.00  0.00    -0.113 A  
HETATM    5  C   UNL     1      -8.595   5.973  64.339  1.00  0.00     0.140 A  
HETATM    6  C   UNL     1      -9.017   6.456  66.674  1.00  0.00    -0.140 A  
HETATM    7  C   UNL     1      -9.017   6.868  65.349  1.00  0.00     0.173 A  
HETATM    8  C   UNL     1      -8.636   5.157  66.962  1.00  0.00    -0.105 A  
HETATM    9  C   UNL     1      -9.477   8.169  65.149  1.00  0.00     0.838 A  
HETATM   10  N   UNL     1      -9.541   8.734  63.869  1.00  0.00     0.594 NA 
HETATM   11  N   UNL     1      -9.883   8.963  66.148  1.00  0.00    -0.277 NA 
HETATM   12  H1  UNL     1      -9.878   9.686  63.723  1.00  0.00     0.000 HD 
HETATM   13  C   UNL     1      -9.850   8.477  67.399  1.00  0.00    -0.187 A  
HETATM   14  H2  UNL     1     -10.094   8.112  63.279  1.00  0.00     0.000 HD 
HETATM   15  N   UNL     1      -9.406   7.247  67.680  1.00  0.00    -0.128 NA 
BRANCH   4  16
HETATM   16  O   UNL     1      -7.883   3.953  63.511  1.00  0.00    -0.076 OA 
HETATM   17  C   UNL     1      -6.754   3.095  63.552  1.00  0.00    -0.035 C  
ENDBRANCH   4  16
BRANCH  13  18
HETATM   18  N   UNL     1     -10.390   9.220  68.420  1.00  0.00    -0.203 NA 
HETATM   19  C   UNL     1     -11.026   9.245  70.779  1.00  0.00    -0.284 C  
HETATM   20  C   UNL     1     -11.261   8.585  69.409  1.00  0.00     0.217 C  
HETATM   21  N   UNL     1     -11.151  10.710  70.710  1.00  0.00    -0.032 N  
HETATM   22  C   UNL     1     -11.968  11.363  71.621  1.00  0.00     0.814 C  
HETATM   23  C   UNL     1     -10.312  11.334  69.672  1.00  0.00     0.217 C  
HETATM   24  C   UNL     1     -10.530  10.674  68.291  1.00  0.00    -0.187 C  
HETATM   25  O   UNL     1     -12.599  10.729  72.471  1.00  0.00     0.364 OA 
BRANCH  22  26
HETATM   26  C   UNL     1     -12.037  12.897  71.584  1.00  0.00     0.804 C  
HETATM   27  C   UNL     1     -10.773  13.486  72.209  1.00  0.00     7.035 C  
HETATM   28  O   UNL     1     -10.749  14.914  72.066  1.00  0.00     0.429 OA 
HETATM   29  C   UNL     1     -11.960  15.467  72.387  1.00  0.00    -0.451 A  
HETATM   30  C   UNL     1     -11.984  16.845  72.594  1.00  0.00     0.180 A  
HETATM   31  C   UNL     1     -13.182  17.475  72.931  1.00  0.00     5.267 A  
HETATM   32  C   UNL     1     -14.354  16.729  73.055  1.00  0.00     1.976 A  
HETATM   33  C   UNL     1     -14.332  15.350  72.843  1.00  0.00     0.317 A  
HETATM   34  C   UNL     1     -13.137  14.720  72.499  1.00  0.00    -0.402 A  
HETATM   35  O   UNL     1     -13.187  13.365  72.300  1.00  0.00    -0.449 OA 
ENDBRANCH  22  26
ENDBRANCH  13  18
ENDBRANCH   2   3
TORSDOF 4
ENDMDL
MODEL      141
REMARK 921   NORMALIZED FREE ENERGY PREDICTED BY IDOCK:   13.92 KCAL/MOL
REMARK 922        TOTAL FREE ENERGY PREDICTED BY IDOCK:   16.65 KCAL/MOL
REMARK 923 INTER-LIGAND FREE ENERGY PREDICTED BY IDOCK:   16.27 KCAL/MOL
REMARK 924 INTRA-LIGAND FREE ENERGY PREDICTED BY IDOCK:    0.38 KCAL/MOL
REMARK 927      BINDING AFFINITY PREDICTED BY RF-SCORE:    0.00 PKD
ROOT
HETATM    1  C   UNL     1     -12.992  16.886  71.291  1.00  0.00     4.750 C  
HETATM    2  O   UNL     1     -11.648  17.002  71.754  1.00  0.00     0.087 OA 
ENDROOT
BRANCH   2   3
HETATM    3  C   UNL     1     -10.678  16.625  70.860  1.00  0.00     0.701 A  
HETATM    4  C   UNL     1      -9.997  17.600  70.123  1.00  0.00     1.231 A  
HETATM    5  C   UNL     1      -8.968  17.189  69.267  1.00  0.00     0.129 A  
HETATM    6  C   UNL     1      -9.327  14.860  69.829  1.00  0.00     0.185 A  
HETATM    7  C   UNL     1      -8.608  15.827  69.141  1.00  0.00    -0.256 A  
HETATM    8  C   UNL     1     -10.361  15.269  70.654  1.00  0.00     0.080 A  
HETATM    9  C   UNL     1      -7.547  15.327  68.386  1.00  0.00    -0.116 A  
HETATM   10  N   UNL     1      -6.721  16.174  67.636  1.00  0.00    -0.137 NA 
HETATM   11  N   UNL     1      -7.243  14.025  68.323  1.00  0.00    -0.101 NA 
HETATM   12  H1  UNL     1      -5.945  15.809  67.083  1.00  0.00     0.000 HD 
HETATM   13  C   UNL     1      -7.996  13.163  69.025  1.00  0.00     0.281 A  
HETATM   14  H2  UNL     1      -6.351  16.889  68.262  1.00  0.00     0.000 HD 
HETATM   15  N   UNL     1      -9.042  13.556  69.759  1.00  0.00     1.660 NA 
BRANCH   4  16
HETATM   16  O   UNL     1     -10.164  18.957  70.114  1.00  0.00     0.622 OA 
HETATM   17  C   UNL     1     -11.474  19.496  70.039  1.00  0.00     5.110 C  
ENDBRANCH   4  16
BRANCH  13  18
HETATM   18  N   UNL     1      -7.620  11.843  69.085  1.00  0.00     0.039 NA 
HETATM   19  C   UNL     1      -5.926  10.262  69.860  1.00  0.00    -0.056 C  
HETATM   20  C   UNL     1      -6.210  11.475  68.957  1.00  0.00    -0.060 C  
HETATM   21  N   UNL     1      -6.867   9.160  69.607  1.00  0.00    -0.052 N  
HETATM   22  C   UNL     1      -6.372   7.883  69.384  1.00  0.00    -0.035 C  
HETATM   23  C   UNL     1      -8.285   9.554  69.682  1.00  0.00    -0.141 C  
HETATM   24  C   UNL     1      -8.583  10.779  68.787  1.00  0.00    -0.156 C  
HETATM   25  O   UNL     1      -5.156   7.671  69.378  1.00  0.00    -0.015 OA 
BRANCH  22  26
HETATM   26  C   UNL     1      -7.365   6.728  69.190  1.00  0.00    -0.093 C  
HETATM   27  C   UNL     1      -6.657   5.544  68.533  1.00  0.00    -0.052 C  
HETATM   28  O   UNL     1      -7.524   4.402  68.463  1.00  0.00    -0.063 OA 
HETATM   29  C   UNL     1      -8.772   4.752  68.018  1.00  0.00    -0.103 A  
HETATM   30  C   UNL     1      -9.604   3.712  67.608  1.00  0.00    -0.193 A  
HETATM   31  C   UNL     1     -10.886   3.995  67.136  1.00  0.00     2.160 A  
HETATM   32  C   UNL     1     -11.335   5.315  67.080  1.00  0.00     1.393 A  
HETATM   33  C   UNL     1     -10.504   6.356  67.495  1.00  0.00    -0.290 A  
HETATM   34  C   UNL     1      -9.226   6.074  67.974  1.00  0.00    -0.115 A  
HETATM   35  O   UNL     1      -8.464   7.143  68.369  1.00  0.00    -0.124 OA 
ENDBRANCH  22  26
ENDBRANCH  13  18
ENDBRANCH   2   3
TORSDOF 4
ENDMDL
MODEL      142
REMARK 921   NORMALIZED FREE ENERGY PREDICTED BY IDOCK:   18.72 KCAL/MOL
REMARK 922        TOTAL FREE ENERGY PREDICTED BY IDOCK:   22.56 KCAL/MOL
REMARK 923 INTER-LIGAND FREE ENERGY PREDICTED BY IDOCK:   21.99 KCAL/MOL
REMARK 924 INTRA-LIGAND FREE ENERGY PREDICTED BY IDOCK:    0.57 KCAL/MOL
REMARK 927      BINDING AFFINITY PREDICTED BY RF-SCORE:    0.00 PKD
ROOT
HETATM    1  C   UNL     1      -9.129  19.069  73.681  1.00  0.00     6.412 C  
HETATM    2  O   UNL     1     -10.155  18.502  72.867  1.00  0.00     4.157 OA 
ENDROOT
BRANCH   2   3
HETATM    3  C   UNL     1      -9.989  18.649  71.514  1.00  0.00     4.434 A  
HETATM    4  C   UNL     1      -9.423  19.825  71.008  1.00  0.00     2.125 A  
HETATM    5  C   UNL     1      -9.206  19.919  69.628  1.00  0.00     0.445 A  
HETATM    6  C   UNL     1     -10.155  17.722  69.252  1.00  0.00    -0.135 A  
HETATM    7  C   UNL     1      -9.539  18.860  68.751  1.00  0.00    -0.433 A  
HETATM    8  C   UNL     1     -10.392  17.645  70.614  1.00  0.00     1.890 A  
HETATM    9  C   UNL     1      -9.284  18.822  67.381  1.00  0.00    -0.282 A  
HETATM   10  N   UNL     1      -8.665  19.892  66.722  1.00  0.00    -0.328 NA 
HETATM   11  N   UNL     1      -9.607  17.779  66.606  1.00  0.00    -0.296 NA 
HETATM   12  H1  UNL     1      -8.479  19.864  65.719  1.00  0.00     0.000 HD 
HETATM   13  C   UNL     1     -10.199  16.721  67.180  1.00  0.00    -0.295 A  
HETATM   14  H2  UNL     1      -7.785  20.088  67.199  1.00  0.00     0.000 HD 
HETATM   15  N   UNL     1     -10.495  16.683  68.483  1.00  0.00    -0.298 NA 
BRANCH   4  16
HETATM   16  O   UNL     1      -9.008  20.945  71.673  1.00  0.00     1.302 OA 
HETATM   17  C   UNL     1      -7.640  21.077  72.026  1.00  0.00     3.646 C  
ENDBRANCH   4  16
BRANCH  13  18
HETATM   18  N   UNL     1     -10.413  15.588  66.433  1.00  0.00    -0.298 NA 
HETATM   19  C   UNL     1     -11.897  14.467  64.847  1.00  0.00    -0.416 C  
HETATM   20  C   UNL     1     -11.770  15.070  66.258  1.00  0.00    -0.096 C  
HETATM   21  N   UNL     1     -10.832  13.489  64.573  1.00  0.00    -0.399 N  
HETATM   22  C   UNL     1     -11.173  12.237  64.083  1.00  0.00    -0.369 C  
HETATM   23  C   UNL     1      -9.471  14.003  64.808  1.00  0.00     1.058 C  
HETATM   24  C   UNL     1      -9.332  14.621  66.218  1.00  0.00    -0.262 C  
HETATM   25  O   UNL     1     -12.355  11.933  63.895  1.00  0.00    -0.417 OA 
BRANCH  22  26
HETATM   26  C   UNL     1     -10.051  11.248  63.734  1.00  0.00    -0.361 C  
HETATM   27  C   UNL     1     -10.611  10.111  62.881  1.00  0.00     1.761 C  
HETATM   28  O   UNL     1      -9.560   9.246  62.427  1.00  0.00     0.216 OA 
HETATM   29  C   UNL     1      -8.693   8.940  63.442  1.00  0.00    -0.022 A  
HETATM   30  C   UNL     1      -7.822   7.874  63.223  1.00  0.00    -0.141 A  
HETATM   31  C   UNL     1      -6.917   7.502  64.216  1.00  0.00    -0.060 A  
HETATM   32  C   UNL     1      -6.880   8.198  65.425  1.00  0.00    -0.062 A  
HETATM   33  C   UNL     1      -7.749   9.268  65.644  1.00  0.00    -0.095 A  
HETATM   34  C   UNL     1      -8.649   9.646  64.649  1.00  0.00    -0.183 A  
HETATM   35  O   UNL     1      -9.469  10.708  64.928  1.00  0.00    -0.204 OA 
ENDBRANCH  22  26
ENDBRANCH  13  18
ENDBRANCH   2   3
TORSDOF 4
ENDMDL
MODEL      143
REMARK 921   NORMALIZED FREE ENERGY PREDICTED BY IDOCK:   18.89 KCAL/MOL
REMARK 922        TOTAL FREE ENERGY PREDICTED BY IDOCK:   22.78 KCAL/MOL
REMARK 923 INTER-LIGAND FREE ENERGY PREDICTED BY IDOCK:   22.23 KCAL/MOL
REMARK 924 INTRA-LIGAND FREE ENERGY PREDICTED BY IDOCK:    0.55 KCAL/MOL
REMARK 927      BINDING AFFINITY PREDICTED BY RF-SCORE:    0.00 PKD
ROOT
HETATM    1  C   UNL     1      -7.925   5.184  73.472  1.00  0.00    -0.110 C  
HETATM    2  O   UNL     1      -8.502   4.328  72.488  1.00  0.00    -0.102 OA 
ENDROOT
BRANCH   2   3
HETATM    3  C   UNL     1      -9.558   4.853  71.790  1.00  0.00    -0.156 A  
HETATM    4  C   UNL     1     -10.713   4.087  71.597  1.00  0.00     0.514 A  
HETATM    5  C   UNL     1     -11.800   4.674  70.938  1.00  0.00     4.269 A  
HETATM    6  C   UNL     1     -10.583   6.744  70.615  1.00  0.00    -0.224 A  
HETATM    7  C   UNL     1     -11.752   6.010  70.474  1.00  0.00     0.017 A  
HETATM    8  C   UNL     1      -9.503   6.151  71.244  1.00  0.00    -0.177 A  
HETATM    9  C   UNL     1     -12.805   6.710  69.887  1.00  0.00     2.132 A  
HETATM   10  N   UNL     1     -14.054   6.112  69.677  1.00  0.00     7.519 NA 
HETATM   11  N   UNL     1     -12.704   7.984  69.486  1.00  0.00     2.722 NA 
HETATM   12  H1  UNL     1     -14.825   6.624  69.246  1.00  0.00     0.000 HD 
HETATM   13  C   UNL     1     -11.532   8.614  69.665  1.00  0.00     0.332 A  
HETATM   14  H2  UNL     1     -14.381   5.745  70.570  1.00  0.00     0.000 HD 
HETATM   15  N   UNL     1     -10.467   8.011  70.203  1.00  0.00    -0.220 NA 
BRANCH   4  16
HETATM   16  O   UNL     1     -10.977   2.803  71.983  1.00  0.00     0.549 OA 
HETATM   17  C   UNL     1     -10.339   2.278  73.136  1.00  0.00    -0.132 C  
ENDBRANCH   4  16
BRANCH  13  18
HETATM   18  N   UNL     1     -11.447   9.957  69.389  1.00  0.00    -0.095 NA 
HETATM   19  C   UNL     1     -12.696  12.030  69.052  1.00  0.00     1.092 C  
HETATM   20  C   UNL     1     -12.454  10.598  68.543  1.00  0.00     1.207 C  
HETATM   21  N   UNL     1     -11.439  12.785  69.179  1.00  0.00    -0.291 N  
HETATM   22  C   UNL     1     -11.344  14.044  68.605  1.00  0.00    -0.276 C  
HETATM   23  C   UNL     1     -10.411  12.104  69.986  1.00  0.00     1.708 C  
HETATM   24  C   UNL     1     -10.165  10.660  69.493  1.00  0.00    -0.158 C  
HETATM   25  O   UNL     1     -12.292  14.524  67.977  1.00  0.00    -0.172 OA 
BRANCH  22  26
HETATM   26  C   UNL     1     -10.053  14.852  68.803  1.00  0.00    -0.241 C  
HETATM   27  C   UNL     1      -9.661  14.845  70.280  1.00  0.00     0.560 C  
HETATM   28  O   UNL     1      -8.387  15.476  70.475  1.00  0.00     0.864 OA 
HETATM   29  C   UNL     1      -8.303  16.653  69.778  1.00  0.00     0.854 A  
HETATM   30  C   UNL     1      -7.260  17.511  70.122  1.00  0.00     1.451 A  
HETATM   31  C   UNL     1      -7.117  18.730  69.459  1.00  0.00    -0.040 A  
HETATM   32  C   UNL     1      -8.013  19.086  68.450  1.00  0.00    -0.375 A  
HETATM   33  C   UNL     1      -9.054  18.224  68.101  1.00  0.00    -0.310 A  
HETATM   34  C   UNL     1      -9.193  17.003  68.758  1.00  0.00    -0.252 A  
HETATM   35  O   UNL     1     -10.234  16.203  68.363  1.00  0.00    -0.228 OA 
ENDBRANCH  22  26
ENDBRANCH  13  18
ENDBRANCH   2   3
TORSDOF 4
ENDMDL
MODEL      144
REMARK 921   NORMALIZED FREE ENERGY PREDICTED BY IDOCK:   21.49 KCAL/MOL
REMARK 922        TOTAL FREE ENERGY PREDICTED BY IDOCK:   25.99 KCAL/MOL
REMARK 923 INTER-LIGAND FREE ENERGY PREDICTED BY IDOCK:   26.63 KCAL/MOL
REMARK 924 INTRA-LIGAND FREE ENERGY PREDICTED BY IDOCK:   -0.64 KCAL/MOL
REMARK 927      BINDING AFFINITY PREDICTED BY RF-SCORE:    0.00 PKD
ROOT
HETATM    1  C   UNL     1      -8.737  16.017  72.859  1.00  0.00    13.847 C  
HETATM    2  O   UNL     1      -8.289  16.764  71.729  1.00  0.00     8.942 OA 
ENDROOT
BRANCH   2   3
HETATM    3  C   UNL     1      -7.819  16.022  70.676  1.00  0.00     2.446 A  
HETATM    4  C   UNL     1      -7.030  16.631  69.694  1.00  0.00     0.009 A  
HETATM    5  C   UNL     1      -6.511  15.833  68.667  1.00  0.00    -0.111 A  
HETATM    6  C   UNL     1      -7.596  13.856  69.551  1.00  0.00     0.360 A  
HETATM    7  C   UNL     1      -6.763  14.443  68.608  1.00  0.00    -0.090 A  
HETATM    8  C   UNL     1      -8.127  14.653  70.549  1.00  0.00     1.552 A  
HETATM    9  C   UNL     1      -6.225  13.552  67.681  1.00  0.00    -0.130 A  
HETATM   10  N   UNL     1      -5.363  13.986  66.665  1.00  0.00     1.302 NA 
HETATM   11  N   UNL     1      -6.487  12.239  67.690  1.00  0.00    -0.104 NA 
HETATM   12  H1  UNL     1      -4.968  13.334  65.986  1.00  0.00     0.000 HD 
HETATM   13  C   UNL     1      -7.303  11.761  68.642  1.00  0.00    -0.115 A  
HETATM   14  H2  UNL     1      -4.590  14.489  67.102  1.00  0.00     0.000 HD 
HETATM   15  N   UNL     1      -7.876  12.549  69.558  1.00  0.00     0.750 NA 
BRANCH   4  16
HETATM   16  O   UNL     1      -6.646  17.937  69.576  1.00  0.00    -0.234 OA 
HETATM   17  C   UNL     1      -5.407  18.245  68.957  1.00  0.00    -0.193 C  
ENDBRANCH   4  16
BRANCH  13  18
HETATM   18  N   UNL     1      -7.475  10.403  68.755  1.00  0.00    -0.086 NA 
HETATM   19  C   UNL     1      -7.715   8.293  67.546  1.00  0.00    -0.099 C  
HETATM   20  C   UNL     1      -8.316   9.688  67.794  1.00  0.00    -0.121 C  
HETATM   21  N   UNL     1      -7.477   7.568  68.805  1.00  0.00    -0.095 N  
HETATM   22  C   UNL     1      -7.954   6.272  68.940  1.00  0.00    -0.109 C  
HETATM   23  C   UNL     1      -6.678   8.320  69.788  1.00  0.00    -0.040 C  
HETATM   24  C   UNL     1      -7.265   9.729  70.039  1.00  0.00    -0.130 C  
HETATM   25  O   UNL     1      -8.586   5.733  68.027  1.00  0.00    -0.106 OA 
BRANCH  22  26
HETATM   26  C   UNL     1      -7.640   5.500  70.230  1.00  0.00    -0.080 C  
HETATM   27  C   UNL     1      -6.843   4.240  69.897  1.00  0.00    -0.041 C  
HETATM   28  O   UNL     1      -6.419   3.570  71.094  1.00  0.00    -0.018 OA 
HETATM   29  C   UNL     1      -7.441   3.480  72.002  1.00  0.00    -0.056 A  
HETATM   30  C   UNL     1      -7.262   2.591  73.059  1.00  0.00    -0.039 A  
HETATM   31  C   UNL     1      -8.264   2.443  74.018  1.00  0.00    -0.059 A  
HETATM   32  C   UNL     1      -9.441   3.187  73.921  1.00  0.00    -0.116 A  
HETATM   33  C   UNL     1      -9.618   4.082  72.865  1.00  0.00    -0.169 A  
HETATM   34  C   UNL     1      -8.614   4.236  71.911  1.00  0.00    -0.107 A  
HETATM   35  O   UNL     1      -8.852   5.135  70.903  1.00  0.00    -0.129 OA 
ENDBRANCH  22  26
ENDBRANCH  13  18
ENDBRANCH   2   3
TORSDOF 4
ENDMDL
MODEL      145
REMARK 921   NORMALIZED FREE ENERGY PREDICTED BY IDOCK:   26.27 KCAL/MOL
REMARK 922        TOTAL FREE ENERGY PREDICTED BY IDOCK:   31.89 KCAL/MOL
REMARK 923 INTER-LIGAND FREE ENERGY PREDICTED BY IDOCK:   31.96 KCAL/MOL
REMARK 924 INTRA-LIGAND FREE ENERGY PREDICTED BY IDOCK:   -0.07 KCAL/MOL
REMARK 927      BINDING AFFINITY PREDICTED BY RF-SCORE:    0.00 PKD
ROOT
HETATM    1  C   UNL     1      -8.542  16.328  73.068  1.00  0.00    16.536 C  
HETATM    2  O   UNL     1      -8.018  17.134  72.014  1.00  0.00    10.534 OA 
ENDROOT
BRANCH   2   3
HETATM    3  C   UNL     1      -7.615  16.456  70.893  1.00  0.00     3.801 A  
HETATM    4  C   UNL     1      -6.647  17.018  70.052  1.00  0.00     0.304 A  
HETATM    5  C   UNL     1      -6.209  16.273  68.951  1.00  0.00    -0.138 A  
HETATM    6  C   UNL     1      -7.717  14.454  69.484  1.00  0.00     0.131 A  
HETATM    7  C   UNL     1      -6.715  14.980  68.681  1.00  0.00    -0.093 A  
HETATM    8  C   UNL     1      -8.166  15.205  70.556  1.00  0.00     1.314 A  
HETATM    9  C   UNL     1      -6.283  14.127  67.666  1.00  0.00    -0.085 A  
HETATM   10  N   UNL     1      -5.275  14.508  66.771  1.00  0.00     1.037 NA 
HETATM   11  N   UNL     1      -6.789  12.903  67.473  1.00  0.00    -0.154 NA 
HETATM   12  H1  UNL     1      -4.958  13.884  66.028  1.00  0.00     0.000 HD 
HETATM   13  C   UNL     1      -7.756  12.478  68.302  1.00  0.00    -0.141 A  
HETATM   14  H2  UNL     1      -4.459  14.786  67.316  1.00  0.00     0.000 HD 
HETATM   15  N   UNL     1      -8.240  13.239  69.289  1.00  0.00     0.533 NA 
BRANCH   4  16
HETATM   16  O   UNL     1      -6.013  18.225  70.143  1.00  0.00    -0.221 OA 
HETATM   17  C   UNL     1      -6.064  18.947  71.363  1.00  0.00     0.662 C  
ENDBRANCH   4  16
BRANCH  13  18
HETATM   18  N   UNL     1      -8.192  11.179  68.211  1.00  0.00    -0.127 NA 
HETATM   19  C   UNL     1      -9.993   9.614  68.739  1.00  0.00    -0.173 C  
HETATM   20  C   UNL     1      -8.939  10.577  69.315  1.00  0.00    -0.134 C  
HETATM   21  N   UNL     1      -9.397   8.644  67.807  1.00  0.00    -0.140 N  
HETATM   22  C   UNL     1      -9.665   7.293  67.973  1.00  0.00    -0.141 C  
HETATM   23  C   UNL     1      -8.599   9.258  66.732  1.00  0.00    -0.127 C  
HETATM   24  C   UNL     1      -7.542  10.237  67.295  1.00  0.00    -0.095 C  
HETATM   25  O   UNL     1     -10.381   6.901  68.899  1.00  0.00    -0.173 OA 
BRANCH  22  26
HETATM   26  C   UNL     1      -9.095   6.295  66.954  1.00  0.00    -0.128 C  
HETATM   27  C   UNL     1     -10.238   5.569  66.247  1.00  0.00    -0.153 C  
HETATM   28  O   UNL     1      -9.739   4.730  65.195  1.00  0.00    -0.141 OA 
HETATM   29  C   UNL     1      -8.655   4.002  65.610  1.00  0.00    -0.110 A  
HETATM   30  C   UNL     1      -8.273   2.932  64.803  1.00  0.00    -0.087 A  
HETATM   31  C   UNL     1      -7.182   2.143  65.168  1.00  0.00    -0.057 A  
HETATM   32  C   UNL     1      -6.472   2.428  66.335  1.00  0.00    -0.028 A  
HETATM   33  C   UNL     1      -6.852   3.503  67.141  1.00  0.00    -0.050 A  
HETATM   34  C   UNL     1      -7.937   4.297  66.773  1.00  0.00    -0.098 A  
HETATM   35  O   UNL     1      -8.252   5.338  67.607  1.00  0.00    -0.100 OA 
ENDBRANCH  22  26
ENDBRANCH  13  18
ENDBRANCH   2   3
TORSDOF 4
ENDMDL
MODEL      146
REMARK 921   NORMALIZED FREE ENERGY PREDICTED BY IDOCK:   26.27 KCAL/MOL
REMARK 922        TOTAL FREE ENERGY PREDICTED BY IDOCK:   31.89 KCAL/MOL
REMARK 923 INTER-LIGAND FREE ENERGY PREDICTED BY IDOCK:   31.35 KCAL/MOL
REMARK 924 INTRA-LIGAND FREE ENERGY PREDICTED BY IDOCK:    0.54 KCAL/MOL
REMARK 927      BINDING AFFINITY PREDICTED BY RF-SCORE:    0.00 PKD
ROOT
HETATM    1  C   UNL     1      -8.752  15.591  62.976  1.00  0.00    21.864 C  
HETATM    2  O   UNL     1      -8.837  14.182  63.186  1.00  0.00     9.146 OA 
ENDROOT
BRANCH   2   3
HETATM    3  C   UNL     1      -9.315  13.792  64.411  1.00  0.00     2.242 A  
HETATM    4  C   UNL     1     -10.460  14.402  64.935  1.00  0.00    -0.423 A  
HETATM    5  C   UNL     1     -10.962  13.938  66.157  1.00  0.00    -0.293 A  
HETATM    6  C   UNL     1      -9.174  12.315  66.361  1.00  0.00    -0.203 A  
HETATM    7  C   UNL     1     -10.343  12.875  66.857  1.00  0.00    -0.247 A  
HETATM    8  C   UNL     1      -8.668  12.796  65.166  1.00  0.00     1.724 A  
HETATM    9  C   UNL     1     -10.812  12.285  68.030  1.00  0.00    -0.220 A  
HETATM   10  N   UNL     1     -11.983  12.733  68.656  1.00  0.00    -0.288 NA 
HETATM   11  N   UNL     1     -10.191  11.266  68.635  1.00  0.00    -0.198 NA 
HETATM   12  H1  UNL     1     -12.326  12.302  69.515  1.00  0.00     0.000 HD 
HETATM   13  C   UNL     1      -9.066  10.789  68.081  1.00  0.00    -0.151 A  
HETATM   14  H2  UNL     1     -12.736  12.708  67.969  1.00  0.00     0.000 HD 
HETATM   15  N   UNL     1      -8.538  11.308  66.967  1.00  0.00    -0.143 NA 
BRANCH   4  16
HETATM   16  O   UNL     1     -11.219  15.414  64.417  1.00  0.00    -0.318 OA 
HETATM   17  C   UNL     1     -11.169  16.698  65.017  1.00  0.00    -0.027 C  
ENDBRANCH   4  16
BRANCH  13  18
HETATM   18  N   UNL     1      -8.489   9.658  68.606  1.00  0.00    -0.117 NA 
HETATM   19  C   UNL     1      -7.643   8.578  70.629  1.00  0.00    -0.076 C  
HETATM   20  C   UNL     1      -7.488   9.770  69.667  1.00  0.00    -0.113 C  
HETATM   21  N   UNL     1      -7.629   7.293  69.912  1.00  0.00    -0.092 N  
HETATM   22  C   UNL     1      -6.781   6.285  70.347  1.00  0.00    -0.053 C  
HETATM   23  C   UNL     1      -8.602   7.211  68.808  1.00  0.00    -0.125 C  
HETATM   24  C   UNL     1      -8.464   8.409  67.840  1.00  0.00    -0.131 C  
HETATM   25  O   UNL     1      -6.031   6.463  71.312  1.00  0.00    -0.030 OA 
BRANCH  22  26
HETATM   26  C   UNL     1      -6.825   4.924  69.637  1.00  0.00    -0.052 C  
HETATM   27  C   UNL     1      -5.539   4.150  69.925  1.00  0.00    -0.016 C  
HETATM   28  O   UNL     1      -5.610   2.821  69.387  1.00  0.00    -0.016 OA 
HETATM   29  C   UNL     1      -6.100   2.828  68.108  1.00  0.00    -0.025 A  
HETATM   30  C   UNL     1      -5.927   1.662  67.365  1.00  0.00    -0.020 A  
HETATM   31  C   UNL     1      -6.395   1.600  66.052  1.00  0.00    -0.023 A  
HETATM   32  C   UNL     1      -7.039   2.700  65.487  1.00  0.00    -0.057 A  
HETATM   33  C   UNL     1      -7.217   3.867  66.232  1.00  0.00    -0.064 A  
HETATM   34  C   UNL     1      -6.756   3.928  67.546  1.00  0.00    -0.047 A  
HETATM   35  O   UNL     1      -6.968   5.101  68.222  1.00  0.00    -0.058 OA 
ENDBRANCH  22  26
ENDBRANCH  13  18
ENDBRANCH   2   3
TORSDOF 4
ENDMDL
MODEL      147
REMARK 921   NORMALIZED FREE ENERGY PREDICTED BY IDOCK:   28.41 KCAL/MOL
REMARK 922        TOTAL FREE ENERGY PREDICTED BY IDOCK:   34.52 KCAL/MOL
REMARK 923 INTER-LIGAND FREE ENERGY PREDICTED BY IDOCK:   34.65 KCAL/MOL
REMARK 924 INTRA-LIGAND FREE ENERGY PREDICTED BY IDOCK:   -0.13 KCAL/MOL
REMARK 927      BINDING AFFINITY PREDICTED BY RF-SCORE:    0.00 PKD
ROOT
HETATM    1  C   UNL     1      -5.686  17.243  73.481  1.00  0.00     6.046 C  
HETATM    2  O   UNL     1      -6.276  18.019  72.439  1.00  0.00     1.908 OA 
ENDROOT
BRANCH   2   3
HETATM    3  C   UNL     1      -7.147  17.349  71.620  1.00  0.00     6.452 A  
HETATM    4  C   UNL     1      -8.352  17.953  71.245  1.00  0.00     8.670 A  
HETATM    5  C   UNL     1      -9.191  17.271  70.356  1.00  0.00     3.045 A  
HETATM    6  C   UNL     1      -7.677  15.383  70.256  1.00  0.00     0.623 A  
HETATM    7  C   UNL     1      -8.844  16.003  69.834  1.00  0.00     0.481 A  
HETATM    8  C   UNL     1      -6.863  16.050  71.156  1.00  0.00     2.378 A  
HETATM    9  C   UNL     1      -9.566  15.285  68.881  1.00  0.00    -0.220 A  
HETATM   10  N   UNL     1     -10.766  15.775  68.351  1.00  0.00    -0.269 NA 
HETATM   11  N   UNL     1      -9.173  14.094  68.410  1.00  0.00    -0.202 NA 
HETATM   12  H1  UNL     1     -11.294  15.249  67.654  1.00  0.00     0.000 HD 
HETATM   13  C   UNL     1      -8.028  13.573  68.877  1.00  0.00     0.087 A  
HETATM   14  H2  UNL     1     -10.586  16.705  67.973  1.00  0.00     0.000 HD 
HETATM   15  N   UNL     1      -7.285  14.187  69.804  1.00  0.00     0.087 NA 
BRANCH   4  16
HETATM   16  O   UNL     1      -8.863  19.169  71.606  1.00  0.00     4.874 OA 
HETATM   17  C   UNL     1      -9.836  19.787  70.779  1.00  0.00     1.580 C  
ENDBRANCH   4  16
BRANCH  13  18
HETATM   18  N   UNL     1      -7.536  12.423  68.309  1.00  0.00    -0.123 NA 
HETATM   19  C   UNL     1      -5.701  11.424  67.042  1.00  0.00    -0.106 C  
HETATM   20  C   UNL     1      -6.819  12.482  67.036  1.00  0.00     0.054 C  
HETATM   21  N   UNL     1      -6.214  10.089  67.390  1.00  0.00    -0.058 N  
HETATM   22  C   UNL     1      -5.900   9.010  66.577  1.00  0.00    -0.055 C  
HETATM   23  C   UNL     1      -6.984  10.052  68.645  1.00  0.00    -0.069 C  
HETATM   24  C   UNL     1      -8.105  11.118  68.657  1.00  0.00    -0.150 C  
HETATM   25  O   UNL     1      -5.214   9.163  65.562  1.00  0.00    -0.036 OA 
BRANCH  22  26
HETATM   26  C   UNL     1      -6.381   7.611  66.986  1.00  0.00    -0.054 C  
HETATM   27  C   UNL     1      -5.830   7.259  68.367  1.00  0.00    -0.023 C  
HETATM   28  O   UNL     1      -6.374   6.015  68.834  1.00  0.00    -0.037 OA 
HETATM   29  C   UNL     1      -6.346   5.060  67.852  1.00  0.00    -0.040 A  
HETATM   30  C   UNL     1      -6.546   3.741  68.255  1.00  0.00    -0.045 A  
HETATM   31  C   UNL     1      -6.524   2.716  67.310  1.00  0.00    -0.036 A  
HETATM   32  C   UNL     1      -6.307   3.010  65.964  1.00  0.00    -0.028 A  
HETATM   33  C   UNL     1      -6.111   4.331  65.559  1.00  0.00    -0.024 A  
HETATM   34  C   UNL     1      -6.141   5.358  66.501  1.00  0.00    -0.030 A  
HETATM   35  O   UNL     1      -5.946   6.632  66.035  1.00  0.00    -0.028 OA 
ENDBRANCH  22  26
ENDBRANCH  13  18
ENDBRANCH   2   3
TORSDOF 4
ENDMDL
MODEL      148
REMARK 921   NORMALIZED FREE ENERGY PREDICTED BY IDOCK:   29.92 KCAL/MOL
REMARK 922        TOTAL FREE ENERGY PREDICTED BY IDOCK:   36.38 KCAL/MOL
REMARK 923 INTER-LIGAND FREE ENERGY PREDICTED BY IDOCK:   36.26 KCAL/MOL
REMARK 924 INTRA-LIGAND FREE ENERGY PREDICTED BY IDOCK:    0.12 KCAL/MOL
REMARK 927      BINDING AFFINITY PREDICTED BY RF-SCORE:    0.00 PKD
ROOT
HETATM    1  C   UNL     1     -11.990   3.338  62.726  1.00  0.00     1.919 C  
HETATM    2  O   UNL     1     -12.068   4.729  62.418  1.00  0.00     1.227 OA 
ENDROOT
BRANCH   2   3
HETATM    3  C   UNL     1     -11.096   5.516  62.978  1.00  0.00     3.906 A  
HETATM    4  C   UNL     1      -9.830   4.980  63.234  1.00  0.00     0.694 A  
HETATM    5  C   UNL     1      -8.838   5.826  63.746  1.00  0.00     0.376 A  
HETATM    6  C   UNL     1     -10.365   7.706  63.801  1.00  0.00     8.955 A  
HETATM    7  C   UNL     1      -9.091   7.194  64.001  1.00  0.00     1.529 A  
HETATM    8  C   UNL     1     -11.348   6.859  63.320  1.00  0.00    16.113 A  
HETATM    9  C   UNL     1      -8.152   8.134  64.426  1.00  0.00    -0.138 A  
HETATM   10  N   UNL     1      -6.819   7.778  64.669  1.00  0.00    -0.054 NA 
HETATM   11  N   UNL     1      -8.449   9.423  64.630  1.00  0.00    -0.156 NA 
HETATM   12  H1  UNL     1      -6.132   8.465  64.980  1.00  0.00     0.000 HD 
HETATM   13  C   UNL     1      -9.709   9.827  64.409  1.00  0.00     0.021 A  
HETATM   14  H2  UNL     1      -6.455   7.329  63.828  1.00  0.00     0.000 HD 
HETATM   15  N   UNL     1     -10.674   8.988  64.018  1.00  0.00     5.844 NA 
BRANCH   4  16
HETATM   16  O   UNL     1      -9.370   3.707  63.039  1.00  0.00    -0.096 OA 
HETATM   17  C   UNL     1      -8.146   3.310  63.636  1.00  0.00    -0.085 C  
ENDBRANCH   4  16
BRANCH  13  18
HETATM   18  N   UNL     1     -10.004  11.167  64.479  1.00  0.00    -0.272 NA 
HETATM   19  C   UNL     1     -11.678  12.890  64.031  1.00  0.00    -0.434 C  
HETATM   20  C   UNL     1     -10.779  11.804  63.414  1.00  0.00    -0.402 C  
HETATM   21  N   UNL     1     -10.909  13.826  64.867  1.00  0.00    -0.367 N  
HETATM   22  C   UNL     1     -11.055  15.191  64.664  1.00  0.00    -0.324 C  
HETATM   23  C   UNL     1     -10.087  13.171  65.899  1.00  0.00    -0.290 C  
HETATM   24  C   UNL     1      -9.186  12.069  65.295  1.00  0.00     0.164 C  
HETATM   25  O   UNL     1     -11.804  15.622  63.783  1.00  0.00    -0.384 OA 
BRANCH  22  26
HETATM   26  C   UNL     1     -10.301  16.160  65.588  1.00  0.00    -0.382 C  
HETATM   27  C   UNL     1     -10.864  17.571  65.423  1.00  0.00     0.059 C  
HETATM   28  O   UNL     1     -10.272  18.472  66.372  1.00  0.00    -0.376 OA 
HETATM   29  C   UNL     1      -8.913  18.308  66.432  1.00  0.00    -0.243 A  
HETATM   30  C   UNL     1      -8.189  19.316  67.066  1.00  0.00    -0.287 A  
HETATM   31  C   UNL     1      -6.800  19.219  67.159  1.00  0.00    -0.206 A  
HETATM   32  C   UNL     1      -6.139  18.114  66.623  1.00  0.00    -0.196 A  
HETATM   33  C   UNL     1      -6.864  17.102  65.991  1.00  0.00    -0.041 A  
HETATM   34  C   UNL     1      -8.252  17.194  65.905  1.00  0.00     0.014 A  
HETATM   35  O   UNL     1      -8.903  16.163  65.277  1.00  0.00     0.177 OA 
ENDBRANCH  22  26
ENDBRANCH  13  18
ENDBRANCH   2   3
TORSDOF 4
ENDMDL
MODEL      149
REMARK 921   NORMALIZED FREE ENERGY PREDICTED BY IDOCK:   31.51 KCAL/MOL
REMARK 922        TOTAL FREE ENERGY PREDICTED BY IDOCK:   38.35 KCAL/MOL
REMARK 923 INTER-LIGAND FREE ENERGY PREDICTED BY IDOCK:   37.80 KCAL/MOL
REMARK 924 INTRA-LIGAND FREE ENERGY PREDICTED BY IDOCK:    0.55 KCAL/MOL
REMARK 927      BINDING AFFINITY PREDICTED BY RF-SCORE:    0.00 PKD
ROOT
HETATM    1  C   UNL     1      -7.918  17.115  73.735  1.00  0.00    16.531 C  
HETATM    2  O   UNL     1      -7.561  17.935  72.623  1.00  0.00     9.569 OA 
ENDROOT
BRANCH   2   3
HETATM    3  C   UNL     1      -7.206  17.264  71.481  1.00  0.00     6.532 A  
HETATM    4  C   UNL     1      -6.446  17.913  70.502  1.00  0.00     0.960 A  
HETATM    5  C   UNL     1      -6.045  17.183  69.377  1.00  0.00    -0.230 A  
HETATM    6  C   UNL     1      -7.189  15.198  70.164  1.00  0.00     0.108 A  
HETATM    7  C   UNL     1      -6.385  15.819  69.219  1.00  0.00    -0.147 A  
HETATM    8  C   UNL     1      -7.605  15.932  71.261  1.00  0.00     4.026 A  
HETATM    9  C   UNL     1      -5.962  14.985  68.184  1.00  0.00    -0.138 A  
HETATM   10  N   UNL     1      -5.142  15.459  67.152  1.00  0.00    -0.210 NA 
HETATM   11  N   UNL     1      -6.303  13.693  68.100  1.00  0.00    -0.107 NA 
HETATM   12  H1  UNL     1      -4.833  14.849  66.394  1.00  0.00     0.000 HD 
HETATM   13  C   UNL     1      -7.084  13.179  69.063  1.00  0.00    -0.030 A  
HETATM   14  H2  UNL     1      -4.314  15.877  67.575  1.00  0.00     0.000 HD 
HETATM   15  N   UNL     1      -7.547  13.912  70.080  1.00  0.00     0.930 NA 
BRANCH   4  16
HETATM   16  O   UNL     1      -5.991  19.202  70.469  1.00  0.00    -0.198 OA 
HETATM   17  C   UNL     1      -6.138  20.021  71.618  1.00  0.00    -0.195 C  
ENDBRANCH   4  16
BRANCH  13  18
HETATM   18  N   UNL     1      -7.331  11.828  69.072  1.00  0.00    -0.090 NA 
HETATM   19  C   UNL     1      -8.807  10.053  69.876  1.00  0.00    -0.147 C  
HETATM   20  C   UNL     1      -7.846  11.184  70.281  1.00  0.00     1.730 C  
HETATM   21  N   UNL     1      -8.188   9.129  68.912  1.00  0.00    -0.110 N  
HETATM   22  C   UNL     1      -8.233   7.764  69.157  1.00  0.00    -0.129 C  
HETATM   23  C   UNL     1      -7.622   9.793  67.724  1.00  0.00    -0.090 C  
HETATM   24  C   UNL     1      -6.662  10.940  68.117  1.00  0.00    -0.063 C  
HETATM   25  O   UNL     1      -8.768   7.324  70.178  1.00  0.00    -0.139 OA 
BRANCH  22  26
HETATM   26  C   UNL     1      -7.646   6.805  68.110  1.00  0.00    -0.107 C  
HETATM   27  C   UNL     1      -6.129   6.974  68.050  1.00  0.00    -0.034 C  
HETATM   28  O   UNL     1      -5.540   5.996  67.179  1.00  0.00    -0.011 OA 
HETATM   29  C   UNL     1      -6.237   5.890  66.005  1.00  0.00    -0.037 A  
HETATM   30  C   UNL     1      -5.604   5.221  64.960  1.00  0.00    -0.013 A  
HETATM   31  C   UNL     1      -6.252   5.081  63.732  1.00  0.00    -0.022 A  
HETATM   32  C   UNL     1      -7.533   5.606  63.554  1.00  0.00    -0.066 A  
HETATM   33  C   UNL     1      -8.169   6.273  64.602  1.00  0.00    -0.080 A  
HETATM   34  C   UNL     1      -7.525   6.406  65.831  1.00  0.00    -0.082 A  
HETATM   35  O   UNL     1      -8.208   7.067  66.819  1.00  0.00    -0.107 OA 
ENDBRANCH  22  26
ENDBRANCH  13  18
ENDBRANCH   2   3
TORSDOF 4
ENDMDL
MODEL      150
REMARK 921   NORMALIZED FREE ENERGY PREDICTED BY IDOCK:   32.69 KCAL/MOL
REMARK 922        TOTAL FREE ENERGY PREDICTED BY IDOCK:   39.81 KCAL/MOL
REMARK 923 INTER-LIGAND FREE ENERGY PREDICTED BY IDOCK:   38.34 KCAL/MOL
REMARK 924 INTRA-LIGAND FREE ENERGY PREDICTED BY IDOCK:    1.47 KCAL/MOL
REMARK 927      BINDING AFFINITY PREDICTED BY RF-SCORE:    0.00 PKD
ROOT
HETATM    1  C   UNL     1      -9.062   4.106  71.719  1.00  0.00    -0.122 C  
HETATM    2  O   UNL     1      -9.515   5.409  72.083  1.00  0.00    -0.142 OA 
ENDROOT
BRANCH   2   3
HETATM    3  C   UNL     1      -9.623   6.309  71.054  1.00  0.00    -0.175 A  
HETATM    4  C   UNL     1      -9.611   5.855  69.731  1.00  0.00    -0.153 A  
HETATM    5  C   UNL     1      -9.789   6.790  68.704  1.00  0.00    -0.142 A  
HETATM    6  C   UNL     1      -9.934   8.616  70.289  1.00  0.00    -0.186 A  
HETATM    7  C   UNL     1      -9.983   8.164  68.978  1.00  0.00    -0.191 A  
HETATM    8  C   UNL     1      -9.731   7.691  71.299  1.00  0.00    -0.176 A  
HETATM    9  C   UNL     1     -10.254   9.156  68.036  1.00  0.00    -0.211 A  
HETATM   10  N   UNL     1     -10.340   8.863  66.669  1.00  0.00    -0.257 NA 
HETATM   11  N   UNL     1     -10.449  10.440  68.361  1.00  0.00    -0.178 NA 
HETATM   12  H1  UNL     1     -10.538   9.588  65.980  1.00  0.00     0.000 HD 
HETATM   13  C   UNL     1     -10.384  10.784  69.657  1.00  0.00    -0.101 A  
HETATM   14  H2  UNL     1     -11.028   8.120  66.550  1.00  0.00     0.000 HD 
HETATM   15  N   UNL     1     -10.111   9.899  70.622  1.00  0.00    -0.176 NA 
BRANCH   4  16
HETATM   16  O   UNL     1      -9.467   4.583  69.250  1.00  0.00    -0.141 OA 
HETATM   17  C   UNL     1      -9.569   4.351  67.854  1.00  0.00    -0.152 C  
ENDBRANCH   4  16
BRANCH  13  18
HETATM   18  N   UNL     1     -10.715  12.064  70.027  1.00  0.00     0.677 NA 
HETATM   19  C   UNL     1     -12.159  13.448  71.431  1.00  0.00     0.225 C  
HETATM   20  C   UNL     1     -12.111  12.412  70.294  1.00  0.00    -0.297 C  
HETATM   21  N   UNL     1     -11.286  14.601  71.158  1.00  0.00    -0.144 N  
HETATM   22  C   UNL     1     -11.801  15.884  71.277  1.00  0.00    -0.449 C  
HETATM   23  C   UNL     1      -9.896  14.236  70.834  1.00  0.00     3.048 C  
HETATM   24  C   UNL     1      -9.833  13.188  69.699  1.00  0.00     1.427 C  
HETATM   25  O   UNL     1     -12.982  16.063  71.589  1.00  0.00    -0.418 OA 
BRANCH  22  26
HETATM   26  C   UNL     1     -10.864  17.080  71.057  1.00  0.00     1.085 C  
HETATM   27  C   UNL     1      -9.778  16.707  70.050  1.00  0.00     0.744 C  
HETATM   28  O   UNL     1      -8.969  17.847  69.723  1.00  0.00     0.784 OA 
HETATM   29  C   UNL     1      -8.611  18.543  70.848  1.00  0.00     5.404 A  
HETATM   30  C   UNL     1      -7.583  19.473  70.708  1.00  0.00     1.562 A  
HETATM   31  C   UNL     1      -7.162  20.212  71.813  1.00  0.00     1.146 A  
HETATM   32  C   UNL     1      -7.772  20.025  73.054  1.00  0.00     3.866 A  
HETATM   33  C   UNL     1      -8.806  19.097  73.193  1.00  0.00     6.551 A  
HETATM   34  C   UNL     1      -9.232  18.363  72.088  1.00  0.00    10.893 A  
HETATM   35  O   UNL     1     -10.255  17.473  72.293  1.00  0.00     4.737 OA 
ENDBRANCH  22  26
ENDBRANCH  13  18
ENDBRANCH   2   3
TORSDOF 4
ENDMDL
MODEL      151
REMARK 921   NORMALIZED FREE ENERGY PREDICTED BY IDOCK:   36.75 KCAL/MOL
REMARK 922        TOTAL FREE ENERGY PREDICTED BY IDOCK:   44.81 KCAL/MOL
REMARK 923 INTER-LIGAND FREE ENERGY PREDICTED BY IDOCK:   44.10 KCAL/MOL
REMARK 924 INTRA-LIGAND FREE ENERGY PREDICTED BY IDOCK:    0.72 KCAL/MOL
REMARK 927      BINDING AFFINITY PREDICTED BY RF-SCORE:    0.00 PKD
ROOT
HETATM    1  C   UNL     1     -12.663   7.772  66.152  1.00  0.00    13.232 C  
HETATM    2  O   UNL     1     -11.510   8.399  66.713  1.00  0.00     1.253 OA 
ENDROOT
BRANCH   2   3
HETATM    3  C   UNL     1     -11.757   9.467  67.535  1.00  0.00     2.134 A  
HETATM    4  C   UNL     1     -12.905   9.477  68.336  1.00  0.00     6.455 A  
HETATM    5  C   UNL     1     -13.096  10.551  69.214  1.00  0.00     1.594 A  
HETATM    6  C   UNL     1     -11.056  11.622  68.467  1.00  0.00    -0.235 A  
HETATM    7  C   UNL     1     -12.160  11.608  69.307  1.00  0.00    -0.323 A  
HETATM    8  C   UNL     1     -10.885  10.571  67.583  1.00  0.00    -0.355 A  
HETATM    9  C   UNL     1     -12.215  12.672  70.206  1.00  0.00    -0.271 A  
HETATM   10  N   UNL     1     -13.266  12.801  71.123  1.00  0.00    -0.062 NA 
HETATM   11  N   UNL     1     -11.285  13.634  70.259  1.00  0.00     0.158 NA 
HETATM   12  H1  UNL     1     -13.307  13.580  71.781  1.00  0.00     0.000 HD 
HETATM   13  C   UNL     1     -10.250  13.563  69.407  1.00  0.00     0.426 A  
HETATM   14  H2  UNL     1     -13.324  11.935  71.659  1.00  0.00     0.000 HD 
HETATM   15  N   UNL     1     -10.130  12.587  68.502  1.00  0.00    -0.211 NA 
BRANCH   4  16
HETATM   16  O   UNL     1     -13.911   8.555  68.422  1.00  0.00    13.918 OA 
HETATM   17  C   UNL     1     -14.050   7.786  69.606  1.00  0.00     6.191 C  
ENDBRANCH   4  16
BRANCH  13  18
HETATM   18  N   UNL     1      -9.217  14.459  69.536  1.00  0.00     0.310 NA 
HETATM   19  C   UNL     1      -6.975  14.837  70.433  1.00  0.00     0.200 C  
HETATM   20  C   UNL     1      -8.440  14.509  70.775  1.00  0.00     2.789 C  
HETATM   21  N   UNL     1      -6.865  16.042  69.596  1.00  0.00    -0.188 N  
HETATM   22  C   UNL     1      -5.987  17.049  69.971  1.00  0.00    -0.184 C  
HETATM   23  C   UNL     1      -7.696  16.005  68.380  1.00  0.00    -0.147 C  
HETATM   24  C   UNL     1      -9.169  15.667  68.707  1.00  0.00    -0.211 C  
HETATM   25  O   UNL     1      -5.315  16.949  71.002  1.00  0.00    -0.180 OA 
BRANCH  22  26
HETATM   26  C   UNL     1      -5.828  18.271  69.054  1.00  0.00    -0.212 C  
HETATM   27  C   UNL     1      -6.886  19.317  69.402  1.00  0.00    -0.281 C  
HETATM   28  O   UNL     1      -6.677  20.525  68.655  1.00  0.00    -0.263 OA 
HETATM   29  C   UNL     1      -6.427  20.256  67.335  1.00  0.00    -0.219 A  
HETATM   30  C   UNL     1      -6.518  21.328  66.450  1.00  0.00    -0.231 A  
HETATM   31  C   UNL     1      -6.283  21.127  65.089  1.00  0.00    -0.131 A  
HETATM   32  C   UNL     1      -5.953  19.856  64.617  1.00  0.00    -0.299 A  
HETATM   33  C   UNL     1      -5.857  18.783  65.504  1.00  0.00    -0.243 A  
HETATM   34  C   UNL     1      -6.083  18.985  66.865  1.00  0.00    -0.170 A  
HETATM   35  O   UNL     1      -5.967  17.889  67.680  1.00  0.00    -0.149 OA 
ENDBRANCH  22  26
ENDBRANCH  13  18
ENDBRANCH   2   3
TORSDOF 4
ENDMDL
MODEL      152
REMARK 921   NORMALIZED FREE ENERGY PREDICTED BY IDOCK:   40.66 KCAL/MOL
REMARK 922        TOTAL FREE ENERGY PREDICTED BY IDOCK:   49.64 KCAL/MOL
REMARK 923 INTER-LIGAND FREE ENERGY PREDICTED BY IDOCK:   49.86 KCAL/MOL
REMARK 924 INTRA-LIGAND FREE ENERGY PREDICTED BY IDOCK:   -0.21 KCAL/MOL
REMARK 927      BINDING AFFINITY PREDICTED BY RF-SCORE:    0.00 PKD
ROOT
HETATM    1  C   UNL     1      -5.717  17.244  73.507  1.00  0.00     6.046 C  
HETATM    2  O   UNL     1      -6.296  18.273  72.706  1.00  0.00     2.191 OA 
ENDROOT
BRANCH   2   3
HETATM    3  C   UNL     1      -7.457  17.939  72.059  1.00  0.00     9.322 A  
HETATM    4  C   UNL     1      -8.523  18.845  72.033  1.00  0.00     8.655 A  
HETATM    5  C   UNL     1      -9.671  18.502  71.308  1.00  0.00     4.764 A  
HETATM    6  C   UNL     1      -8.731  16.357  70.688  1.00  0.00     3.316 A  
HETATM    7  C   UNL     1      -9.768  17.276  70.609  1.00  0.00     3.035 A  
HETATM    8  C   UNL     1      -7.609  16.689  71.427  1.00  0.00     6.562 A  
HETATM    9  C   UNL     1     -10.827  16.882  69.792  1.00  0.00    -0.035 A  
HETATM   10  N   UNL     1     -11.949  17.698  69.604  1.00  0.00     2.809 NA 
HETATM   11  N   UNL     1     -10.851  15.713  69.138  1.00  0.00    -0.230 NA 
HETATM   12  H1  UNL     1     -12.724  17.410  69.006  1.00  0.00     0.000 HD 
HETATM   13  C   UNL     1      -9.801  14.888  69.274  1.00  0.00    -0.159 A  
HETATM   14  H2  UNL     1     -11.624  18.609  69.278  1.00  0.00     0.000 HD 
HETATM   15  N   UNL     1      -8.753  15.181  70.051  1.00  0.00     0.189 NA 
BRANCH   4  16
HETATM   16  O   UNL     1      -8.628  20.079  72.610  1.00  0.00     2.120 OA 
HETATM   17  C   UNL     1      -9.565  21.011  72.094  1.00  0.00     3.333 C  
ENDBRANCH   4  16
BRANCH  13  18
HETATM   18  N   UNL     1      -9.741  13.751  68.507  1.00  0.00    -0.219 NA 
HETATM   19  C   UNL     1     -10.743  12.512  66.653  1.00  0.00    -0.236 C  
HETATM   20  C   UNL     1     -10.974  13.104  68.056  1.00  0.00    -0.247 C  
HETATM   21  N   UNL     1      -9.553  11.648  66.613  1.00  0.00    -0.199 N  
HETATM   22  C   UNL     1      -9.659  10.375  66.072  1.00  0.00    -0.201 C  
HETATM   23  C   UNL     1      -8.329  12.290  67.123  1.00  0.00    -0.183 C  
HETATM   24  C   UNL     1      -8.549  12.898  68.528  1.00  0.00    -0.042 C  
HETATM   25  O   UNL     1     -10.740   9.959  65.644  1.00  0.00     0.090 OA 
BRANCH  22  26
HETATM   26  C   UNL     1      -8.396   9.507  65.971  1.00  0.00    -0.119 C  
HETATM   27  C   UNL     1      -7.362  10.202  65.087  1.00  0.00    -0.141 C  
HETATM   28  O   UNL     1      -6.121   9.479  65.085  1.00  0.00    -0.066 OA 
HETATM   29  C   UNL     1      -6.329   8.135  64.922  1.00  0.00    -0.049 A  
HETATM   30  C   UNL     1      -5.216   7.365  64.590  1.00  0.00    -0.029 A  
HETATM   31  C   UNL     1      -5.354   5.990  64.401  1.00  0.00    -0.017 A  
HETATM   32  C   UNL     1      -6.603   5.386  64.551  1.00  0.00    -0.042 A  
HETATM   33  C   UNL     1      -7.718   6.156  64.888  1.00  0.00    -0.101 A  
HETATM   34  C   UNL     1      -7.579   7.529  65.084  1.00  0.00    -0.096 A  
HETATM   35  O   UNL     1      -8.712   8.223  65.419  1.00  0.00    -0.164 OA 
ENDBRANCH  22  26
ENDBRANCH  13  18
ENDBRANCH   2   3
TORSDOF 4
ENDMDL
MODEL      153
REMARK 921   NORMALIZED FREE ENERGY PREDICTED BY IDOCK:   44.93 KCAL/MOL
REMARK 922        TOTAL FREE ENERGY PREDICTED BY IDOCK:   54.90 KCAL/MOL
REMARK 923 INTER-LIGAND FREE ENERGY PREDICTED BY IDOCK:   55.22 KCAL/MOL
REMARK 924 INTRA-LIGAND FREE ENERGY PREDICTED BY IDOCK:   -0.31 KCAL/MOL
REMARK 927      BINDING AFFINITY PREDICTED BY RF-SCORE:    0.00 PKD
ROOT
HETATM    1  C   UNL     1      -8.617  15.721  62.702  1.00  0.00    26.651 C  
HETATM    2  O   UNL     1      -8.777  14.311  62.853  1.00  0.00    12.005 OA 
ENDROOT
BRANCH   2   3
HETATM    3  C   UNL     1      -9.710  13.915  63.777  1.00  0.00     3.441 A  
HETATM    4  C   UNL     1     -11.046  14.303  63.624  1.00  0.00     1.170 A  
HETATM    5  C   UNL     1     -11.986  13.829  64.547  1.00  0.00    -0.458 A  
HETATM    6  C   UNL     1     -10.280  12.643  65.792  1.00  0.00    -0.272 A  
HETATM    7  C   UNL     1     -11.615  12.974  65.611  1.00  0.00    -0.391 A  
HETATM    8  C   UNL     1      -9.350  13.135  64.892  1.00  0.00     0.712 A  
HETATM    9  C   UNL     1     -12.485  12.382  66.526  1.00  0.00     0.716 A  
HETATM   10  N   UNL     1     -13.866  12.613  66.478  1.00  0.00     5.248 NA 
HETATM   11  N   UNL     1     -12.073  11.563  67.502  1.00  0.00    -0.484 NA 
HETATM   12  H1  UNL     1     -14.502  12.180  67.147  1.00  0.00     0.000 HD 
HETATM   13  C   UNL     1     -10.761  11.299  67.598  1.00  0.00    -0.226 A  
HETATM   14  H2  UNL     1     -14.191  12.380  65.539  1.00  0.00     0.000 HD 
HETATM   15  N   UNL     1      -9.858  11.839  66.773  1.00  0.00    -0.196 NA 
BRANCH   4  16
HETATM   16  O   UNL     1     -11.617  15.090  62.664  1.00  0.00     2.993 OA 
HETATM   17  C   UNL     1     -12.013  16.412  62.994  1.00  0.00     5.926 C  
ENDBRANCH   4  16
BRANCH  13  18
HETATM   18  N   UNL     1     -10.333  10.357  68.502  1.00  0.00    -0.167 NA 
HETATM   19  C   UNL     1     -10.381   9.632  70.835  1.00  0.00    -0.264 C  
HETATM   20  C   UNL     1      -9.976  10.756  69.864  1.00  0.00     0.300 C  
HETATM   21  N   UNL     1      -9.837   8.329  70.421  1.00  0.00    -0.185 N  
HETATM   22  C   UNL     1      -9.149   7.557  71.345  1.00  0.00    -0.137 C  
HETATM   23  C   UNL     1     -10.153   7.963  69.029  1.00  0.00    -0.200 C  
HETATM   24  C   UNL     1      -9.762   9.088  68.042  1.00  0.00    -0.155 C  
HETATM   25  O   UNL     1      -8.976   7.960  72.499  1.00  0.00    -0.140 OA 
BRANCH  22  26
HETATM   26  C   UNL     1      -8.647   6.169  70.922  1.00  0.00    -0.132 C  
HETATM   27  C   UNL     1      -9.672   5.107  71.317  1.00  0.00    -0.169 C  
HETATM   28  O   UNL     1      -9.293   3.817  70.813  1.00  0.00    -0.119 OA 
HETATM   29  C   UNL     1      -7.965   3.565  71.039  1.00  0.00    -0.058 A  
HETATM   30  C   UNL     1      -7.544   2.246  70.889  1.00  0.00    -0.032 A  
HETATM   31  C   UNL     1      -6.207   1.915  71.109  1.00  0.00    -0.018 A  
HETATM   32  C   UNL     1      -5.293   2.904  71.474  1.00  0.00    -0.004 A  
HETATM   33  C   UNL     1      -5.713   4.227  71.620  1.00  0.00    -0.012 A  
HETATM   34  C   UNL     1      -7.047   4.560  71.393  1.00  0.00    -0.043 A  
HETATM   35  O   UNL     1      -7.391   5.877  71.548  1.00  0.00    -0.084 OA 
ENDBRANCH  22  26
ENDBRANCH  13  18
ENDBRANCH   2   3
TORSDOF 4
ENDMDL
MODEL      154
REMARK 921   NORMALIZED FREE ENERGY PREDICTED BY IDOCK:   46.84 KCAL/MOL
REMARK 922        TOTAL FREE ENERGY PREDICTED BY IDOCK:   57.26 KCAL/MOL
REMARK 923 INTER-LIGAND FREE ENERGY PREDICTED BY IDOCK:   57.42 KCAL/MOL
REMARK 924 INTRA-LIGAND FREE ENERGY PREDICTED BY IDOCK:   -0.16 KCAL/MOL
REMARK 927      BINDING AFFINITY PREDICTED BY RF-SCORE:    0.00 PKD
ROOT
HETATM    1  C   UNL     1      -5.738   6.648  62.486  1.00  0.00    -0.028 C  
HETATM    2  O   UNL     1      -6.269   5.739  63.449  1.00  0.00    -0.024 OA 
ENDROOT
BRANCH   2   3
HETATM    3  C   UNL     1      -7.220   6.254  64.290  1.00  0.00    -0.064 A  
HETATM    4  C   UNL     1      -8.472   5.636  64.386  1.00  0.00    -0.052 A  
HETATM    5  C   UNL     1      -9.399   6.147  65.302  1.00  0.00     0.407 A  
HETATM    6  C   UNL     1      -7.876   7.903  65.981  1.00  0.00    -0.095 A  
HETATM    7  C   UNL     1      -9.096   7.257  66.123  1.00  0.00    -0.160 A  
HETATM    8  C   UNL     1      -6.972   7.410  65.055  1.00  0.00    -0.051 A  
HETATM    9  C   UNL     1      -9.914   7.785  67.122  1.00  0.00    -0.230 A  
HETATM   10  N   UNL     1     -11.177   7.244  67.394  1.00  0.00    -0.553 NA 
HETATM   11  N   UNL     1      -9.560   8.829  67.882  1.00  0.00    -0.142 NA 
HETATM   12  H1  UNL     1     -11.776   7.629  68.125  1.00  0.00     0.000 HD 
HETATM   13  C   UNL     1      -8.358   9.388  67.672  1.00  0.00    -0.119 A  
HETATM   14  H2  UNL     1     -11.059   6.247  67.578  1.00  0.00     0.000 HD 
HETATM   15  N   UNL     1      -7.521   8.956  66.724  1.00  0.00    -0.082 NA 
BRANCH   4  16
HETATM   16  O   UNL     1      -8.956   4.548  63.714  1.00  0.00    -0.142 OA 
HETATM   17  C   UNL     1      -8.057   3.541  63.280  1.00  0.00    -0.080 C  
ENDBRANCH   4  16
BRANCH  13  18
HETATM   18  N   UNL     1      -7.919  10.368  68.529  1.00  0.00    -0.108 NA 
HETATM   19  C   UNL     1      -6.190  11.023  70.127  1.00  0.00    -0.146 C  
HETATM   20  C   UNL     1      -7.298  10.005  69.803  1.00  0.00    -0.141 C  
HETATM   21  N   UNL     1      -6.685  12.407  70.065  1.00  0.00     0.198 N  
HETATM   22  C   UNL     1      -6.440  13.263  71.129  1.00  0.00     1.302 C  
HETATM   23  C   UNL     1      -7.360  12.746  68.800  1.00  0.00    -0.067 C  
HETATM   24  C   UNL     1      -8.469  11.725  68.455  1.00  0.00    -0.125 C  
HETATM   25  O   UNL     1      -5.831  12.869  72.128  1.00  0.00    -0.022 OA 
BRANCH  22  26
HETATM   26  C   UNL     1      -6.900  14.724  71.025  1.00  0.00     0.765 C  
HETATM   27  C   UNL     1      -5.740  15.656  71.372  1.00  0.00     0.412 C  
HETATM   28  O   UNL     1      -6.101  17.028  71.151  1.00  0.00     0.808 OA 
HETATM   29  C   UNL     1      -7.342  17.304  71.662  1.00  0.00     7.680 A  
HETATM   30  C   UNL     1      -7.678  18.650  71.796  1.00  0.00     7.178 A  
HETATM   31  C   UNL     1      -8.923  19.005  72.315  1.00  0.00     7.746 A  
HETATM   32  C   UNL     1      -9.831  18.016  72.695  1.00  0.00     8.536 A  
HETATM   33  C   UNL     1      -9.496  16.668  72.556  1.00  0.00    10.887 A  
HETATM   34  C   UNL     1      -8.256  16.312  72.030  1.00  0.00    10.480 A  
HETATM   35  O   UNL     1      -7.994  14.971  71.916  1.00  0.00     3.457 OA 
ENDBRANCH  22  26
ENDBRANCH  13  18
ENDBRANCH   2   3
TORSDOF 4
ENDMDL
MODEL      155
REMARK 921   NORMALIZED FREE ENERGY PREDICTED BY IDOCK:   47.54 KCAL/MOL
REMARK 922        TOTAL FREE ENERGY PREDICTED BY IDOCK:   58.13 KCAL/MOL
REMARK 923 INTER-LIGAND FREE ENERGY PREDICTED BY IDOCK:   56.92 KCAL/MOL
REMARK 924 INTRA-LIGAND FREE ENERGY PREDICTED BY IDOCK:    1.20 KCAL/MOL
REMARK 927      BINDING AFFINITY PREDICTED BY RF-SCORE:    0.00 PKD
ROOT
HETATM    1  C   UNL     1      -8.365   4.113  67.248  1.00  0.00    -0.099 C  
HETATM    2  O   UNL     1      -7.503   5.201  66.917  1.00  0.00    -0.085 OA 
ENDROOT
BRANCH   2   3
HETATM    3  C   UNL     1      -8.107   6.274  66.314  1.00  0.00    -0.114 A  
HETATM    4  C   UNL     1      -8.387   6.234  64.944  1.00  0.00    -0.076 A  
HETATM    5  C   UNL     1      -9.062   7.318  64.370  1.00  0.00     1.255 A  
HETATM    6  C   UNL     1      -9.131   8.493  66.487  1.00  0.00    -0.176 A  
HETATM    7  C   UNL     1      -9.465   8.433  65.142  1.00  0.00     0.549 A  
HETATM    8  C   UNL     1      -8.440   7.431  67.044  1.00  0.00    -0.118 A  
HETATM    9  C   UNL     1     -10.215   9.516  64.685  1.00  0.00     1.203 A  
HETATM   10  N   UNL     1     -10.634   9.605  63.351  1.00  0.00     1.718 NA 
HETATM   11  N   UNL     1     -10.583  10.535  65.471  1.00  0.00    -0.135 NA 
HETATM   12  H1  UNL     1     -11.183  10.397  63.016  1.00  0.00     0.000 HD 
HETATM   13  C   UNL     1     -10.215  10.506  66.762  1.00  0.00    -0.234 A  
HETATM   14  H2  UNL     1     -11.146   8.752  63.125  1.00  0.00     0.000 HD 
HETATM   15  N   UNL     1      -9.481   9.514  67.277  1.00  0.00    -0.134 NA 
BRANCH   4  16
HETATM   16  O   UNL     1      -8.114   5.255  64.030  1.00  0.00    -0.109 OA 
HETATM   17  C   UNL     1      -8.642   3.953  64.227  1.00  0.00    -0.104 C  
ENDBRANCH   4  16
BRANCH  13  18
HETATM   18  N   UNL     1     -10.697  11.467  67.616  1.00  0.00    -0.204 NA 
HETATM   19  C   UNL     1     -12.212  11.936  69.476  1.00  0.00    -0.136 C  
HETATM   20  C   UNL     1     -12.104  11.452  68.019  1.00  0.00     0.097 C  
HETATM   21  N   UNL     1     -11.536  13.228  69.674  1.00  0.00    -0.281 N  
HETATM   22  C   UNL     1     -12.219  14.260  70.302  1.00  0.00    -0.342 C  
HETATM   23  C   UNL     1     -10.137  13.250  69.213  1.00  0.00     0.433 C  
HETATM   24  C   UNL     1     -10.012  12.755  67.753  1.00  0.00    -0.219 C  
HETATM   25  O   UNL     1     -13.386  14.109  70.676  1.00  0.00    -0.200 OA 
BRANCH  22  26
HETATM   26  C   UNL     1     -11.482  15.581  70.566  1.00  0.00    -0.347 C  
HETATM   27  C   UNL     1     -10.442  15.820  69.472  1.00  0.00    -0.270 C  
HETATM   28  O   UNL     1      -9.832  17.111  69.618  1.00  0.00     0.035 OA 
HETATM   29  C   UNL     1      -9.484  17.353  70.920  1.00  0.00     4.794 A  
HETATM   30  C   UNL     1      -8.613  18.417  71.148  1.00  0.00     7.048 A  
HETATM   31  C   UNL     1      -8.209  18.717  72.449  1.00  0.00    10.551 A  
HETATM   32  C   UNL     1      -8.682  17.957  73.520  1.00  0.00    13.958 A  
HETATM   33  C   UNL     1      -9.558  16.895  73.293  1.00  0.00    12.765 A  
HETATM   34  C   UNL     1      -9.968  16.599  71.995  1.00  0.00     6.013 A  
HETATM   35  O   UNL     1     -10.833  15.547  71.843  1.00  0.00    -0.114 OA 
ENDBRANCH  22  26
ENDBRANCH  13  18
ENDBRANCH   2   3
TORSDOF 4
ENDMDL
MODEL      156
REMARK 921   NORMALIZED FREE ENERGY PREDICTED BY IDOCK:   50.77 KCAL/MOL
REMARK 922        TOTAL FREE ENERGY PREDICTED BY IDOCK:   62.11 KCAL/MOL
REMARK 923 INTER-LIGAND FREE ENERGY PREDICTED BY IDOCK:   62.47 KCAL/MOL
REMARK 924 INTRA-LIGAND FREE ENERGY PREDICTED BY IDOCK:   -0.36 KCAL/MOL
REMARK 927      BINDING AFFINITY PREDICTED BY RF-SCORE:    0.00 PKD
ROOT
HETATM    1  C   UNL     1      -8.607  15.733  62.675  1.00  0.00    26.651 C  
HETATM    2  O   UNL     1      -8.782  14.323  62.798  1.00  0.00    12.769 OA 
ENDROOT
BRANCH   2   3
HETATM    3  C   UNL     1      -9.762  13.921  63.668  1.00  0.00     4.045 A  
HETATM    4  C   UNL     1     -11.090  14.303  63.444  1.00  0.00     1.962 A  
HETATM    5  C   UNL     1     -12.077  13.823  64.313  1.00  0.00    -0.481 A  
HETATM    6  C   UNL     1     -10.436  12.641  65.646  1.00  0.00    -0.275 A  
HETATM    7  C   UNL     1     -11.761  12.967  65.394  1.00  0.00    -0.401 A  
HETATM    8  C   UNL     1      -9.461  13.139  64.800  1.00  0.00     0.524 A  
HETATM    9  C   UNL     1     -12.677  12.369  66.259  1.00  0.00     1.335 A  
HETATM   10  N   UNL     1     -14.054  12.594  66.135  1.00  0.00     5.276 NA 
HETATM   11  N   UNL     1     -12.316  11.549  67.254  1.00  0.00     0.351 NA 
HETATM   12  H1  UNL     1     -14.724  12.157  66.768  1.00  0.00     0.000 HD 
HETATM   13  C   UNL     1     -11.010  11.290  67.421  1.00  0.00    -0.282 A  
HETATM   14  H2  UNL     1     -14.326  12.362  65.180  1.00  0.00     0.000 HD 
HETATM   15  N   UNL     1     -10.065  11.836  66.647  1.00  0.00    -0.201 NA 
BRANCH   4  16
HETATM   16  O   UNL     1     -11.611  15.091  62.456  1.00  0.00     3.407 OA 
HETATM   17  C   UNL     1     -12.026  16.411  62.766  1.00  0.00     7.821 C  
ENDBRANCH   4  16
BRANCH  13  18
HETATM   18  N   UNL     1     -10.627  10.348  68.344  1.00  0.00    -0.194 NA 
HETATM   19  C   UNL     1      -9.001   9.759  70.071  1.00  0.00    -0.222 C  
HETATM   20  C   UNL     1      -9.207  10.087  68.581  1.00  0.00    -0.152 C  
HETATM   21  N   UNL     1      -9.901   8.686  70.524  1.00  0.00    -0.173 N  
HETATM   22  C   UNL     1      -9.372   7.604  71.212  1.00  0.00    -0.149 C  
HETATM   23  C   UNL     1     -11.324   8.933  70.229  1.00  0.00    -0.159 C  
HETATM   24  C   UNL     1     -11.544   9.274  68.737  1.00  0.00     0.767 C  
HETATM   25  O   UNL     1      -8.159   7.526  71.428  1.00  0.00    -0.094 OA 
BRANCH  22  26
HETATM   26  C   UNL     1     -10.328   6.525  71.741  1.00  0.00    -0.205 C  
HETATM   27  C   UNL     1     -10.692   6.826  73.194  1.00  0.00    -0.296 C  
HETATM   28  O   UNL     1     -11.689   5.911  73.672  1.00  0.00     0.537 OA 
HETATM   29  C   UNL     1     -11.389   4.621  73.323  1.00  0.00    -0.304 A  
HETATM   30  C   UNL     1     -12.093   3.614  73.982  1.00  0.00     1.291 A  
HETATM   31  C   UNL     1     -11.834   2.277  73.682  1.00  0.00    -0.100 A  
HETATM   32  C   UNL     1     -10.877   1.948  72.721  1.00  0.00    -0.189 A  
HETATM   33  C   UNL     1     -10.176   2.955  72.058  1.00  0.00    -0.110 A  
HETATM   34  C   UNL     1     -10.439   4.292  72.351  1.00  0.00    -0.126 A  
HETATM   35  O   UNL     1      -9.718   5.231  71.659  1.00  0.00    -0.152 OA 
ENDBRANCH  22  26
ENDBRANCH  13  18
ENDBRANCH   2   3
TORSDOF 4
ENDMDL
MODEL      157
REMARK 921   NORMALIZED FREE ENERGY PREDICTED BY IDOCK:   56.33 KCAL/MOL
REMARK 922        TOTAL FREE ENERGY PREDICTED BY IDOCK:   68.97 KCAL/MOL
REMARK 923 INTER-LIGAND FREE ENERGY PREDICTED BY IDOCK:   69.46 KCAL/MOL
REMARK 924 INTRA-LIGAND FREE ENERGY PREDICTED BY IDOCK:   -0.49 KCAL/MOL
REMARK 927      BINDING AFFINITY PREDICTED BY RF-SCORE:    0.00 PKD
ROOT
HETATM    1  C   UNL     1      -6.981   2.730  67.245  1.00  0.00    -0.045 C  
HETATM    2  O   UNL     1      -8.103   2.944  66.390  1.00  0.00    -0.080 OA 
ENDROOT
BRANCH   2   3
HETATM    3  C   UNL     1      -8.416   4.256  66.140  1.00  0.00    -0.112 A  
HETATM    4  C   UNL     1      -9.182   4.585  65.016  1.00  0.00    -0.157 A  
HETATM    5  C   UNL     1      -9.541   5.924  64.824  1.00  0.00     1.028 A  
HETATM    6  C   UNL     1      -8.342   6.610  66.814  1.00  0.00    -0.115 A  
HETATM    7  C   UNL     1      -9.152   6.934  65.735  1.00  0.00     0.023 A  
HETATM    8  C   UNL     1      -7.968   5.289  66.985  1.00  0.00    -0.101 A  
HETATM    9  C   UNL     1      -9.529   8.276  65.679  1.00  0.00     0.146 A  
HETATM   10  N   UNL     1     -10.348   8.763  64.652  1.00  0.00     2.165 NA 
HETATM   11  N   UNL     1      -9.143   9.182  66.585  1.00  0.00    -0.142 NA 
HETATM   12  H1  UNL     1     -10.624   9.745  64.611  1.00  0.00     0.000 HD 
HETATM   13  C   UNL     1      -8.360   8.776  67.597  1.00  0.00    -0.114 A  
HETATM   14  H2  UNL     1     -11.197   8.198  64.632  1.00  0.00     0.000 HD 
HETATM   15  N   UNL     1      -7.939   7.512  67.715  1.00  0.00    -0.116 NA 
BRANCH   4  16
HETATM   16  O   UNL     1      -9.681   3.772  64.037  1.00  0.00    -0.147 OA 
HETATM   17  C   UNL     1     -10.347   4.350  62.926  1.00  0.00     0.111 C  
ENDBRANCH   4  16
BRANCH  13  18
HETATM   18  N   UNL     1      -8.067   9.655  68.610  1.00  0.00    -0.099 NA 
HETATM   19  C   UNL     1      -7.030   9.928  70.807  1.00  0.00     0.004 C  
HETATM   20  C   UNL     1      -8.134   9.216  70.004  1.00  0.00    -0.128 C  
HETATM   21  N   UNL     1      -7.077  11.387  70.625  1.00  0.00     1.474 N  
HETATM   22  C   UNL     1      -7.071  12.209  71.743  1.00  0.00     7.161 C  
HETATM   23  C   UNL     1      -7.066  11.817  69.216  1.00  0.00    -0.032 C  
HETATM   24  C   UNL     1      -8.164  11.101  68.395  1.00  0.00    -0.144 C  
HETATM   25  O   UNL     1      -7.045  11.728  72.880  1.00  0.00     7.889 OA 
BRANCH  22  26
HETATM   26  C   UNL     1      -7.050  13.731  71.542  1.00  0.00     3.387 C  
HETATM   27  C   UNL     1      -5.643  14.180  71.150  1.00  0.00    -0.209 C  
HETATM   28  O   UNL     1      -5.624  15.578  70.823  1.00  0.00    -0.135 OA 
HETATM   29  C   UNL     1      -6.315  16.315  71.748  1.00  0.00     2.732 A  
HETATM   30  C   UNL     1      -6.114  17.693  71.727  1.00  0.00     2.142 A  
HETATM   31  C   UNL     1      -6.780  18.506  72.645  1.00  0.00     4.476 A  
HETATM   32  C   UNL     1      -7.650  17.939  73.577  1.00  0.00    11.607 A  
HETATM   33  C   UNL     1      -7.856  16.559  73.595  1.00  0.00    16.579 A  
HETATM   34  C   UNL     1      -7.197  15.748  72.674  1.00  0.00     7.427 A  
HETATM   35  O   UNL     1      -7.448  14.402  72.744  1.00  0.00     2.986 OA 
ENDBRANCH  22  26
ENDBRANCH  13  18
ENDBRANCH   2   3
TORSDOF 4
ENDMDL
