MODEL        1
REMARK 921   NORMALIZED FREE ENERGY PREDICTED BY IDOCK:   -8.03 KCAL/MOL
REMARK 922        TOTAL FREE ENERGY PREDICTED BY IDOCK:   -8.94 KCAL/MOL
REMARK 923 INTER-LIGAND FREE ENERGY PREDICTED BY IDOCK:   -8.50 KCAL/MOL
REMARK 924 INTRA-LIGAND FREE ENERGY PREDICTED BY IDOCK:   -0.44 KCAL/MOL
REMARK 927      BINDING AFFINITY PREDICTED BY RF-SCORE:    0.00 PKD
ROOT
HETATM    1  C   UNL     1     -11.483  11.766  66.867  1.00  0.00    -0.364 C  
HETATM    2  C   UNL     1     -11.361  12.646  68.112  1.00  0.00    -0.334 C  
HETATM    3  C   UNL     1     -10.295  10.705  66.928  1.00  0.00    -0.288 C  
HETATM    4  C   UNL     1     -10.127   9.748  65.743  1.00  0.00    -0.308 C  
HETATM    5  C   UNL     1     -10.425  13.768  67.704  1.00  0.00    -0.242 C  
HETATM    6  C   UNL     1     -10.484   9.781  68.119  1.00  0.00    -0.258 C  
HETATM    7  C   UNL     1     -10.323  13.802  66.156  1.00  0.00    -0.301 C  
HETATM    8  C   UNL     1      -9.573   9.512  69.072  1.00  0.00    -0.166 C  
HETATM    9  C   UNL     1     -10.381  15.253  65.647  1.00  0.00    -0.389 C  
HETATM   10  C   UNL     1      -9.858   8.497  70.161  1.00  0.00    -0.184 C  
HETATM   11  C   UNL     1      -9.958  16.382  66.266  1.00  0.00    -0.341 C  
HETATM   12  C   UNL     1     -11.109  15.387  64.335  1.00  0.00    -0.149 C  
HETATM   13  C   UNL     1      -8.971   7.221  70.103  1.00  0.00    -0.148 C  
HETATM   14  C   UNL     1      -9.855   9.179  71.532  1.00  0.00    -0.335 C  
HETATM   15  C   UNL     1      -8.965   6.591  68.702  1.00  0.00    -0.126 C  
HETATM   16  C   UNL     1     -12.518  14.797  64.385  1.00  0.00    -0.274 C  
HETATM   17  C   UNL     1     -11.373  12.073  64.353  1.00  0.00    -0.411 C  
HETATM   18  C   UNL     1      -7.526   7.403  70.577  1.00  0.00    -0.082 C  
HETATM   19  C   UNL     1     -12.741  13.745  65.514  1.00  0.00    -0.530 C  
HETATM   20  C   UNL     1     -11.484  12.832  65.689  1.00  0.00    -0.379 C  
ENDROOT
BRANCH  11  21
HETATM   21  C   UNL     1      -9.188  16.499  67.493  1.00  0.00    -0.203 C  
HETATM   22  C   UNL     1      -7.894  17.616  69.326  1.00  0.00     0.133 C  
HETATM   23  C   UNL     1      -8.774  17.641  68.082  1.00  0.00    -0.265 C  
HETATM   24  C   UNL     1      -6.592  18.376  69.085  1.00  0.00    -0.268 C  
HETATM   25  O   UNL     1      -5.758  17.685  68.150  1.00  0.00    -0.150 OA 
HETATM   26  C   UNL     1      -6.853  19.802  68.587  1.00  0.00    -0.357 C  
HETATM   27  H   UNL     1      -4.947  18.158  68.000  1.00  0.00     0.000 HD 
HETATM   28  C   UNL     1      -7.785  19.825  67.370  1.00  0.00    -0.272 C  
HETATM   29  O   UNL     1      -8.107  21.186  67.073  1.00  0.00    -0.613 OA 
HETATM   30  C   UNL     1      -9.050  19.008  67.625  1.00  0.00    -0.327 C  
HETATM   31  H   UNL     1      -8.685  21.200  66.319  1.00  0.00     0.000 HD 
HETATM   32  C   UNL     1     -10.303  19.476  67.500  1.00  0.00    -0.567 C  
ENDBRANCH  11  21
TORSDOF 1
ENDMDL
MODEL        2
REMARK 921   NORMALIZED FREE ENERGY PREDICTED BY IDOCK:   -7.63 KCAL/MOL
REMARK 922        TOTAL FREE ENERGY PREDICTED BY IDOCK:   -8.51 KCAL/MOL
REMARK 923 INTER-LIGAND FREE ENERGY PREDICTED BY IDOCK:   -7.69 KCAL/MOL
REMARK 924 INTRA-LIGAND FREE ENERGY PREDICTED BY IDOCK:   -0.82 KCAL/MOL
REMARK 927      BINDING AFFINITY PREDICTED BY RF-SCORE:    0.00 PKD
ROOT
HETATM    1  C   UNL     1     -12.411  11.823  69.620  1.00  0.00    -0.142 C  
HETATM    2  C   UNL     1     -11.675  10.975  68.581  1.00  0.00    -0.367 C  
HETATM    3  C   UNL     1     -11.567  13.162  69.808  1.00  0.00    -0.291 C  
HETATM    4  C   UNL     1     -12.038  14.162  70.871  1.00  0.00    -0.416 C  
HETATM    5  C   UNL     1     -10.680  10.157  69.383  1.00  0.00    -0.266 C  
HETATM    6  C   UNL     1     -11.576  13.969  68.521  1.00  0.00    -0.357 C  
HETATM    7  C   UNL     1     -11.086  10.194  70.880  1.00  0.00    -0.326 C  
HETATM    8  C   UNL     1     -10.498  14.447  67.873  1.00  0.00    -0.239 C  
HETATM    9  C   UNL     1     -10.951   8.795  71.507  1.00  0.00    -0.377 C  
HETATM   10  C   UNL     1     -10.650  15.317  66.641  1.00  0.00    -0.304 C  
HETATM   11  C   UNL     1     -10.085   7.805  71.180  1.00  0.00    -0.206 C  
HETATM   12  C   UNL     1     -12.012   8.507  72.536  1.00  0.00    -0.401 C  
HETATM   13  C   UNL     1     -10.172  16.785  66.825  1.00  0.00    -0.304 C  
HETATM   14  C   UNL     1     -10.030  14.624  65.424  1.00  0.00    -0.365 C  
HETATM   15  C   UNL     1     -10.780  17.432  68.079  1.00  0.00    -0.359 C  
HETATM   16  C   UNL     1     -13.426   8.695  71.986  1.00  0.00    -0.439 C  
HETATM   17  C   UNL     1     -13.060  11.627  72.062  1.00  0.00    -0.433 C  
HETATM   18  C   UNL     1      -8.654  16.985  66.845  1.00  0.00    -0.250 C  
HETATM   19  C   UNL     1     -13.517   9.617  70.732  1.00  0.00    -0.037 C  
HETATM   20  C   UNL     1     -12.537  10.829  70.852  1.00  0.00    -0.498 C  
ENDROOT
BRANCH  11  21
HETATM   21  C   UNL     1      -8.951   7.866  70.273  1.00  0.00    -0.151 C  
HETATM   22  C   UNL     1      -7.472   7.217  68.357  1.00  0.00    -0.106 C  
HETATM   23  C   UNL     1      -8.754   7.108  69.174  1.00  0.00    -0.133 C  
HETATM   24  C   UNL     1      -6.771   5.863  68.265  1.00  0.00    -0.057 C  
HETATM   25  O   UNL     1      -6.248   5.467  69.537  1.00  0.00    -0.026 OA 
HETATM   26  C   UNL     1      -7.708   4.775  67.731  1.00  0.00    -0.083 C  
HETATM   27  H   UNL     1      -5.812   4.624  69.480  1.00  0.00     0.000 HD 
HETATM   28  C   UNL     1      -9.021   4.709  68.520  1.00  0.00    -0.110 C  
HETATM   29  O   UNL     1      -9.899   3.792  67.862  1.00  0.00    -0.109 OA 
HETATM   30  C   UNL     1      -9.666   6.088  68.642  1.00  0.00    -0.149 C  
HETATM   31  H   UNL     1     -10.712   3.751  68.351  1.00  0.00     0.000 HD 
HETATM   32  C   UNL     1     -10.920   6.384  68.266  1.00  0.00    -0.396 C  
ENDBRANCH  11  21
TORSDOF 1
ENDMDL
MODEL        3
REMARK 921   NORMALIZED FREE ENERGY PREDICTED BY IDOCK:   -7.40 KCAL/MOL
REMARK 922        TOTAL FREE ENERGY PREDICTED BY IDOCK:   -8.28 KCAL/MOL
REMARK 923 INTER-LIGAND FREE ENERGY PREDICTED BY IDOCK:   -7.46 KCAL/MOL
REMARK 924 INTRA-LIGAND FREE ENERGY PREDICTED BY IDOCK:   -0.81 KCAL/MOL
REMARK 927      BINDING AFFINITY PREDICTED BY RF-SCORE:    0.00 PKD
ROOT
HETATM    1  C   UNL     1     -10.567  11.494  67.093  1.00  0.00    -0.273 C  
HETATM    2  C   UNL     1      -9.973  12.444  68.133  1.00  0.00    -0.215 C  
HETATM    3  C   UNL     1      -9.408  10.486  66.667  1.00  0.00    -0.186 C  
HETATM    4  C   UNL     1      -9.710   9.473  65.558  1.00  0.00    -0.344 C  
HETATM    5  C   UNL     1      -9.374  13.579  67.324  1.00  0.00    -0.233 C  
HETATM    6  C   UNL     1      -9.009   9.622  67.852  1.00  0.00    -0.120 C  
HETATM    7  C   UNL     1      -9.952  13.533  65.885  1.00  0.00    -0.295 C  
HETATM    8  C   UNL     1      -7.761   9.442  68.323  1.00  0.00    -0.083 C  
HETATM    9  C   UNL     1     -10.311  14.950  65.405  1.00  0.00    -0.413 C  
HETATM   10  C   UNL     1      -7.488   8.478  69.460  1.00  0.00    -0.080 C  
HETATM   11  C   UNL     1      -9.730  16.127  65.743  1.00  0.00    -0.325 C  
HETATM   12  C   UNL     1     -11.540  14.982  64.535  1.00  0.00    -0.346 C  
HETATM   13  C   UNL     1      -6.637   7.238  69.064  1.00  0.00    -0.037 C  
HETATM   14  C   UNL     1      -6.934   9.233  70.671  1.00  0.00    -0.101 C  
HETATM   15  C   UNL     1      -7.198   6.533  67.819  1.00  0.00    -0.090 C  
HETATM   16  C   UNL     1     -12.751  14.340  65.209  1.00  0.00    -0.358 C  
HETATM   17  C   UNL     1     -11.571  11.666  64.772  1.00  0.00    -0.170 C  
HETATM   18  C   UNL     1      -5.144   7.503  68.859  1.00  0.00    -0.018 C  
HETATM   19  C   UNL     1     -12.402  13.343  66.357  1.00  0.00    -0.381 C  
HETATM   20  C   UNL     1     -11.140  12.492  65.998  1.00  0.00    -0.329 C  
ENDROOT
BRANCH  11  21
HETATM   21  C   UNL     1      -8.515  16.342  66.510  1.00  0.00    -0.338 C  
HETATM   22  C   UNL     1      -7.035  17.274  68.305  1.00  0.00    -0.186 C  
HETATM   23  C   UNL     1      -8.393  17.058  67.648  1.00  0.00    -0.196 C  
HETATM   24  C   UNL     1      -6.733  18.765  68.447  1.00  0.00    -0.248 C  
HETATM   25  O   UNL     1      -6.515  19.370  67.169  1.00  0.00    -0.191 OA 
HETATM   26  C   UNL     1      -7.858  19.503  69.181  1.00  0.00    -0.241 C  
HETATM   27  H   UNL     1      -6.327  20.298  67.257  1.00  0.00     0.000 HD 
HETATM   28  C   UNL     1      -9.230  19.235  68.552  1.00  0.00    -0.382 C  
HETATM   29  O   UNL     1     -10.233  19.819  69.386  1.00  0.00    -0.641 OA 
HETATM   30  C   UNL     1      -9.475  17.738  68.371  1.00  0.00    -0.297 C  
HETATM   31  H   UNL     1     -11.083  19.653  68.996  1.00  0.00     0.000 HD 
HETATM   32  C   UNL     1     -10.535  17.071  68.854  1.00  0.00    -0.347 C  
ENDBRANCH  11  21
TORSDOF 1
ENDMDL
MODEL        4
REMARK 921   NORMALIZED FREE ENERGY PREDICTED BY IDOCK:   -7.35 KCAL/MOL
REMARK 922        TOTAL FREE ENERGY PREDICTED BY IDOCK:   -8.22 KCAL/MOL
REMARK 923 INTER-LIGAND FREE ENERGY PREDICTED BY IDOCK:   -7.27 KCAL/MOL
REMARK 924 INTRA-LIGAND FREE ENERGY PREDICTED BY IDOCK:   -0.95 KCAL/MOL
REMARK 927      BINDING AFFINITY PREDICTED BY RF-SCORE:    0.00 PKD
ROOT
HETATM    1  C   UNL     1     -11.520  11.666  66.767  1.00  0.00    -0.299 C  
HETATM    2  C   UNL     1     -11.647  12.497  68.044  1.00  0.00    -0.395 C  
HETATM    3  C   UNL     1     -10.250  10.722  66.951  1.00  0.00    -0.274 C  
HETATM    4  C   UNL     1      -9.836   9.838  65.769  1.00  0.00    -0.360 C  
HETATM    5  C   UNL     1     -10.784  13.720  67.799  1.00  0.00    -0.254 C  
HETATM    6  C   UNL     1     -10.497   9.731  68.077  1.00  0.00    -0.271 C  
HETATM    7  C   UNL     1     -10.488  13.833  66.280  1.00  0.00    -0.291 C  
HETATM    8  C   UNL     1      -9.693   9.508  69.132  1.00  0.00    -0.178 C  
HETATM    9  C   UNL     1     -10.626  15.293  65.814  1.00  0.00    -0.359 C  
HETATM   10  C   UNL     1     -10.013   8.424  70.142  1.00  0.00    -0.190 C  
HETATM   11  C   UNL     1     -10.401  16.428  66.519  1.00  0.00    -0.306 C  
HETATM   12  C   UNL     1     -11.189  15.415  64.422  1.00  0.00    -0.215 C  
HETATM   13  C   UNL     1      -9.002   7.242  70.162  1.00  0.00    -0.148 C  
HETATM   14  C   UNL     1     -10.254   9.041  71.522  1.00  0.00    -0.414 C  
HETATM   15  C   UNL     1      -8.752   6.679  68.754  1.00  0.00    -0.128 C  
HETATM   16  C   UNL     1     -12.526  14.692  64.267  1.00  0.00    -0.267 C  
HETATM   17  C   UNL     1     -11.119  12.093  64.301  1.00  0.00    -0.403 C  
HETATM   18  C   UNL     1      -7.656   7.540  70.828  1.00  0.00    -0.081 C  
HETATM   19  C   UNL     1     -12.786  13.575  65.323  1.00  0.00    -0.481 C  
HETATM   20  C   UNL     1     -11.476  12.778  65.633  1.00  0.00    -0.379 C  
ENDROOT
BRANCH  11  21
HETATM   21  C   UNL     1      -9.810  16.564  67.840  1.00  0.00    -0.240 C  
HETATM   22  C   UNL     1      -8.009  16.812  69.564  1.00  0.00     0.320 C  
HETATM   23  C   UNL     1      -8.508  16.777  68.125  1.00  0.00    -0.213 C  
HETATM   24  C   UNL     1      -6.914  15.770  69.784  1.00  0.00    -0.097 C  
HETATM   25  O   UNL     1      -7.445  14.443  69.715  1.00  0.00    -0.372 OA 
HETATM   26  C   UNL     1      -5.775  15.923  68.771  1.00  0.00    -0.104 C  
HETATM   27  H   UNL     1      -6.764  13.795  69.852  1.00  0.00     0.000 HD 
HETATM   28  C   UNL     1      -6.288  15.946  67.327  1.00  0.00    -0.113 C  
HETATM   29  O   UNL     1      -5.193  16.255  66.461  1.00  0.00    -0.232 OA 
HETATM   30  C   UNL     1      -7.421  16.957  67.155  1.00  0.00    -0.208 C  
HETATM   31  H   UNL     1      -5.512  16.269  65.566  1.00  0.00     0.000 HD 
HETATM   32  C   UNL     1      -7.430  17.951  66.253  1.00  0.00    -0.321 C  
ENDBRANCH  11  21
TORSDOF 1
ENDMDL
MODEL        5
REMARK 921   NORMALIZED FREE ENERGY PREDICTED BY IDOCK:   -7.23 KCAL/MOL
REMARK 922        TOTAL FREE ENERGY PREDICTED BY IDOCK:   -8.10 KCAL/MOL
REMARK 923 INTER-LIGAND FREE ENERGY PREDICTED BY IDOCK:   -7.01 KCAL/MOL
REMARK 924 INTRA-LIGAND FREE ENERGY PREDICTED BY IDOCK:   -1.08 KCAL/MOL
REMARK 927      BINDING AFFINITY PREDICTED BY RF-SCORE:    0.00 PKD
ROOT
HETATM    1  C   UNL     1     -12.397  11.983  69.522  1.00  0.00    -0.056 C  
HETATM    2  C   UNL     1     -11.968  11.094  68.354  1.00  0.00    -0.211 C  
HETATM    3  C   UNL     1     -11.403  13.229  69.548  1.00  0.00    -0.236 C  
HETATM    4  C   UNL     1     -11.553  14.241  70.689  1.00  0.00    -0.209 C  
HETATM    5  C   UNL     1     -10.922  10.164  68.937  1.00  0.00    -0.261 C  
HETATM    6  C   UNL     1     -11.584  14.065  68.292  1.00  0.00    -0.364 C  
HETATM    7  C   UNL     1     -11.020  10.201  70.485  1.00  0.00    -0.380 C  
HETATM    8  C   UNL     1     -10.612  14.453  67.447  1.00  0.00    -0.270 C  
HETATM    9  C   UNL     1     -10.905   8.780  71.065  1.00  0.00    -0.321 C  
HETATM   10  C   UNL     1     -10.915  15.364  66.275  1.00  0.00    -0.278 C  
HETATM   11  C   UNL     1     -10.223   7.720  70.567  1.00  0.00    -0.201 C  
HETATM   12  C   UNL     1     -11.767   8.570  72.281  1.00  0.00    -0.443 C  
HETATM   13  C   UNL     1     -10.266  16.775  66.370  1.00  0.00    -0.329 C  
HETATM   14  C   UNL     1     -10.618  14.646  64.955  1.00  0.00    -0.461 C  
HETATM   15  C   UNL     1     -10.548  17.445  67.723  1.00  0.00    -0.371 C  
HETATM   16  C   UNL     1     -13.235   8.908  72.024  1.00  0.00    -0.459 C  
HETATM   17  C   UNL     1     -12.570  11.787  72.043  1.00  0.00     0.105 C  
HETATM   18  C   UNL     1      -8.762  16.826  66.089  1.00  0.00    -0.299 C  
HETATM   19  C   UNL     1     -13.478   9.866  70.818  1.00  0.00    -0.094 C  
HETATM   20  C   UNL     1     -12.377  10.974  70.749  1.00  0.00    -0.496 C  
ENDROOT
BRANCH  11  21
HETATM   21  C   UNL     1      -9.289   7.694  69.454  1.00  0.00    -0.152 C  
HETATM   22  C   UNL     1      -7.241   8.262  68.126  1.00  0.00    -0.094 C  
HETATM   23  C   UNL     1      -8.085   8.301  69.395  1.00  0.00    -0.115 C  
HETATM   24  C   UNL     1      -6.926   9.676  67.642  1.00  0.00    -0.087 C  
HETATM   25  O   UNL     1      -8.105  10.331  67.163  1.00  0.00    -0.119 OA 
HETATM   26  C   UNL     1      -6.280  10.521  68.744  1.00  0.00    -0.046 C  
HETATM   27  H   UNL     1      -7.909  11.211  66.861  1.00  0.00     0.000 HD 
HETATM   28  C   UNL     1      -7.103  10.509  70.037  1.00  0.00    -0.127 C  
HETATM   29  O   UNL     1      -6.355  11.177  71.056  1.00  0.00    -0.432 OA 
HETATM   30  C   UNL     1      -7.449   9.083  70.462  1.00  0.00    -0.099 C  
HETATM   31  H   UNL     1      -6.866  11.170  71.858  1.00  0.00     0.000 HD 
HETATM   32  C   UNL     1      -7.170   8.552  71.663  1.00  0.00    -0.110 C  
ENDBRANCH  11  21
TORSDOF 1
ENDMDL
MODEL        6
REMARK 921   NORMALIZED FREE ENERGY PREDICTED BY IDOCK:   -7.13 KCAL/MOL
REMARK 922        TOTAL FREE ENERGY PREDICTED BY IDOCK:   -7.99 KCAL/MOL
REMARK 923 INTER-LIGAND FREE ENERGY PREDICTED BY IDOCK:   -6.90 KCAL/MOL
REMARK 924 INTRA-LIGAND FREE ENERGY PREDICTED BY IDOCK:   -1.09 KCAL/MOL
REMARK 927      BINDING AFFINITY PREDICTED BY RF-SCORE:    0.00 PKD
ROOT
HETATM    1  C   UNL     1      -9.599   9.436  66.998  1.00  0.00    -0.209 C  
HETATM    2  C   UNL     1     -10.996   9.780  67.517  1.00  0.00    -0.205 C  
HETATM    3  C   UNL     1      -8.602   9.545  68.238  1.00  0.00    -0.120 C  
HETATM    4  C   UNL     1      -7.107   9.336  67.975  1.00  0.00    -0.078 C  
HETATM    5  C   UNL     1     -11.099  11.288  67.383  1.00  0.00    -0.358 C  
HETATM    6  C   UNL     1      -8.942   8.486  69.273  1.00  0.00    -0.146 C  
HETATM    7  C   UNL     1      -9.980  11.787  66.430  1.00  0.00    -0.237 C  
HETATM    8  C   UNL     1      -9.163   8.696  70.584  1.00  0.00    -0.206 C  
HETATM    9  C   UNL     1     -10.534  12.844  65.459  1.00  0.00    -0.305 C  
HETATM   10  C   UNL     1      -9.405   7.536  71.529  1.00  0.00    -0.154 C  
HETATM   11  C   UNL     1     -11.541  13.729  65.661  1.00  0.00    -0.339 C  
HETATM   12  C   UNL     1      -9.913  12.768  64.090  1.00  0.00    -0.152 C  
HETATM   13  C   UNL     1      -8.287   7.324  72.589  1.00  0.00    -0.125 C  
HETATM   14  C   UNL     1     -10.807   7.633  72.136  1.00  0.00    -0.293 C  
HETATM   15  C   UNL     1      -6.891   7.276  71.947  1.00  0.00    -0.059 C  
HETATM   16  C   UNL     1     -10.036  11.377  63.468  1.00  0.00    -0.437 C  
HETATM   17  C   UNL     1      -7.955  10.375  65.312  1.00  0.00    -0.143 C  
HETATM   18  C   UNL     1      -8.274   8.331  73.742  1.00  0.00    -0.264 C  
HETATM   19  C   UNL     1     -10.263  10.226  64.495  1.00  0.00    -0.161 C  
HETATM   20  C   UNL     1      -9.417  10.452  65.791  1.00  0.00    -0.247 C  
ENDROOT
BRANCH  11  21
HETATM   21  C   UNL     1     -12.244  14.024  66.899  1.00  0.00    -0.415 C  
HETATM   22  C   UNL     1     -12.619  14.979  69.185  1.00  0.00     0.165 C  
HETATM   23  C   UNL     1     -11.817  14.825  67.898  1.00  0.00    -0.327 C  
HETATM   24  C   UNL     1     -11.775  14.596  70.399  1.00  0.00    -0.295 C  
HETATM   25  O   UNL     1     -11.505  13.191  70.415  1.00  0.00    -0.508 OA 
HETATM   26  C   UNL     1     -10.456  15.375  70.440  1.00  0.00    -0.209 C  
HETATM   27  H   UNL     1     -10.980  12.952  71.170  1.00  0.00     0.000 HD 
HETATM   28  C   UNL     1      -9.681  15.264  69.122  1.00  0.00    -0.243 C  
HETATM   29  O   UNL     1      -8.556  16.144  69.184  1.00  0.00    -0.244 OA 
HETATM   30  C   UNL     1     -10.570  15.598  67.925  1.00  0.00    -0.278 C  
HETATM   31  H   UNL     1      -8.076  16.076  68.367  1.00  0.00     0.000 HD 
HETATM   32  C   UNL     1     -10.292  16.532  67.001  1.00  0.00    -0.301 C  
ENDBRANCH  11  21
TORSDOF 1
ENDMDL
MODEL        7
REMARK 921   NORMALIZED FREE ENERGY PREDICTED BY IDOCK:   -7.06 KCAL/MOL
REMARK 922        TOTAL FREE ENERGY PREDICTED BY IDOCK:   -7.92 KCAL/MOL
REMARK 923 INTER-LIGAND FREE ENERGY PREDICTED BY IDOCK:   -7.03 KCAL/MOL
REMARK 924 INTRA-LIGAND FREE ENERGY PREDICTED BY IDOCK:   -0.88 KCAL/MOL
REMARK 927      BINDING AFFINITY PREDICTED BY RF-SCORE:    0.00 PKD
ROOT
HETATM    1  C   UNL     1      -8.686   6.776  67.607  1.00  0.00    -0.119 C  
HETATM    2  C   UNL     1      -8.662   7.844  66.513  1.00  0.00    -0.162 C  
HETATM    3  C   UNL     1      -9.581   5.574  67.064  1.00  0.00    -0.144 C  
HETATM    4  C   UNL     1      -9.848   4.396  68.008  1.00  0.00    -0.135 C  
HETATM    5  C   UNL     1      -9.877   8.710  66.790  1.00  0.00    -0.322 C  
HETATM    6  C   UNL     1      -8.913   4.931  65.860  1.00  0.00    -0.134 C  
HETATM    7  C   UNL     1     -10.374   8.436  68.234  1.00  0.00    -0.244 C  
HETATM    8  C   UNL     1      -9.480   4.708  64.660  1.00  0.00    -0.054 C  
HETATM    9  C   UNL     1     -10.740   9.756  68.935  1.00  0.00    -0.241 C  
HETATM   10  C   UNL     1      -8.729   3.974  63.567  1.00  0.00    -0.107 C  
HETATM   11  C   UNL     1     -11.210  10.902  68.383  1.00  0.00    -0.347 C  
HETATM   12  C   UNL     1     -10.412   9.752  70.405  1.00  0.00    -0.358 C  
HETATM   13  C   UNL     1      -9.326   2.588  63.193  1.00  0.00    -0.091 C  
HETATM   14  C   UNL     1      -8.521   4.893  62.360  1.00  0.00    -0.105 C  
HETATM   15  C   UNL     1      -9.561   1.712  64.433  1.00  0.00    -0.098 C  
HETATM   16  C   UNL     1      -8.948   9.409  70.676  1.00  0.00    -0.285 C  
HETATM   17  C   UNL     1      -9.491   6.583  70.003  1.00  0.00    -0.163 C  
HETATM   18  C   UNL     1     -10.609   2.629  62.358  1.00  0.00    -0.139 C  
HETATM   19  C   UNL     1      -8.238   8.636  69.523  1.00  0.00    -0.115 C  
HETATM   20  C   UNL     1      -9.199   7.588  68.873  1.00  0.00    -0.142 C  
ENDROOT
BRANCH  11  21
HETATM   21  C   UNL     1     -11.651  11.126  67.017  1.00  0.00     0.036 C  
HETATM   22  C   UNL     1     -11.703  12.156  64.733  1.00  0.00    -0.390 C  
HETATM   23  C   UNL     1     -11.083  11.949  66.110  1.00  0.00    -0.374 C  
HETATM   24  C   UNL     1     -12.004  13.634  64.490  1.00  0.00    -0.418 C  
HETATM   25  O   UNL     1     -13.065  14.088  65.335  1.00  0.00    -0.763 OA 
HETATM   26  C   UNL     1     -10.763  14.507  64.706  1.00  0.00    -0.414 C  
HETATM   27  H   UNL     1     -13.253  15.008  65.184  1.00  0.00     0.000 HD 
HETATM   28  C   UNL     1     -10.110  14.253  66.069  1.00  0.00    -0.318 C  
HETATM   29  O   UNL     1      -8.879  14.977  66.123  1.00  0.00    -0.466 OA 
HETATM   30  C   UNL     1      -9.876  12.761  66.304  1.00  0.00    -0.269 C  
HETATM   31  H   UNL     1      -8.474  14.819  66.968  1.00  0.00     0.000 HD 
HETATM   32  C   UNL     1      -8.690  12.210  66.608  1.00  0.00    -0.153 C  
ENDBRANCH  11  21
TORSDOF 1
ENDMDL
MODEL        8
REMARK 921   NORMALIZED FREE ENERGY PREDICTED BY IDOCK:   -6.97 KCAL/MOL
REMARK 922        TOTAL FREE ENERGY PREDICTED BY IDOCK:   -7.82 KCAL/MOL
REMARK 923 INTER-LIGAND FREE ENERGY PREDICTED BY IDOCK:   -7.21 KCAL/MOL
REMARK 924 INTRA-LIGAND FREE ENERGY PREDICTED BY IDOCK:   -0.61 KCAL/MOL
REMARK 927      BINDING AFFINITY PREDICTED BY RF-SCORE:    0.00 PKD
ROOT
HETATM    1  C   UNL     1      -9.178  15.509  65.890  1.00  0.00    -0.305 C  
HETATM    2  C   UNL     1      -8.509  14.424  66.735  1.00  0.00    -0.076 C  
HETATM    3  C   UNL     1      -9.315  16.800  66.815  1.00  0.00    -0.263 C  
HETATM    4  C   UNL     1     -10.042  18.020  66.239  1.00  0.00    -0.363 C  
HETATM    5  C   UNL     1      -9.653  13.718  67.438  1.00  0.00    -0.229 C  
HETATM    6  C   UNL     1      -7.938  17.332  67.174  1.00  0.00    -0.229 C  
HETATM    7  C   UNL     1     -10.983  14.079  66.724  1.00  0.00    -0.298 C  
HETATM    8  C   UNL     1      -7.484  17.599  68.412  1.00  0.00    -0.253 C  
HETATM    9  C   UNL     1     -11.864  12.828  66.566  1.00  0.00    -0.471 C  
HETATM   10  C   UNL     1      -6.116  18.214  68.626  1.00  0.00    -0.197 C  
HETATM   11  C   UNL     1     -11.931  11.737  67.369  1.00  0.00    -0.050 C  
HETATM   12  C   UNL     1     -12.652  12.821  65.283  1.00  0.00    -0.460 C  
HETATM   13  C   UNL     1      -6.140  19.655  69.212  1.00  0.00    -0.318 C  
HETATM   14  C   UNL     1      -5.221  17.253  69.415  1.00  0.00    -0.162 C  
HETATM   15  C   UNL     1      -7.081  20.577  68.421  1.00  0.00    -0.118 C  
HETATM   16  C   UNL     1     -11.763  12.990  64.051  1.00  0.00    -0.497 C  
HETATM   17  C   UNL     1     -11.396  15.846  64.711  1.00  0.00    -0.314 C  
HETATM   18  C   UNL     1      -6.477  19.753  70.702  1.00  0.00    -0.073 C  
HETATM   19  C   UNL     1     -10.378  13.647  64.335  1.00  0.00    -0.242 C  
HETATM   20  C   UNL     1     -10.504  14.791  65.393  1.00  0.00    -0.401 C  
ENDROOT
BRANCH  11  21
HETATM   21  C   UNL     1     -11.318  11.541  68.671  1.00  0.00    -0.330 C  
HETATM   22  C   UNL     1     -10.223  10.313  70.561  1.00  0.00     0.127 C  
HETATM   23  C   UNL     1     -10.754  10.406  69.136  1.00  0.00    -0.266 C  
HETATM   24  C   UNL     1     -10.899   9.172  71.319  1.00  0.00    -0.332 C  
HETATM   25  O   UNL     1     -12.279   9.463  71.563  1.00  0.00    -0.322 OA 
HETATM   26  C   UNL     1     -10.778   7.843  70.566  1.00  0.00    -0.233 C  
HETATM   27  H   UNL     1     -12.699   8.753  72.035  1.00  0.00     0.000 HD 
HETATM   28  C   UNL     1     -11.260   7.957  69.115  1.00  0.00     0.330 C  
HETATM   29  O   UNL     1     -10.962   6.731  68.442  1.00  0.00    -0.377 OA 
HETATM   30  C   UNL     1     -10.608   9.142  68.405  1.00  0.00    -0.217 C  
HETATM   31  H   UNL     1     -11.261   6.802  67.543  1.00  0.00     0.000 HD 
HETATM   32  C   UNL     1      -9.921   9.062  67.254  1.00  0.00    -0.275 C  
ENDBRANCH  11  21
TORSDOF 1
ENDMDL
MODEL        9
REMARK 921   NORMALIZED FREE ENERGY PREDICTED BY IDOCK:   -6.95 KCAL/MOL
REMARK 922        TOTAL FREE ENERGY PREDICTED BY IDOCK:   -7.80 KCAL/MOL
REMARK 923 INTER-LIGAND FREE ENERGY PREDICTED BY IDOCK:   -7.22 KCAL/MOL
REMARK 924 INTRA-LIGAND FREE ENERGY PREDICTED BY IDOCK:   -0.58 KCAL/MOL
REMARK 927      BINDING AFFINITY PREDICTED BY RF-SCORE:    0.00 PKD
ROOT
HETATM    1  C   UNL     1     -12.465  11.661  69.475  1.00  0.00    -0.017 C  
HETATM    2  C   UNL     1     -11.748  10.757  68.472  1.00  0.00    -0.259 C  
HETATM    3  C   UNL     1     -11.619  13.009  69.572  1.00  0.00    -0.342 C  
HETATM    4  C   UNL     1     -12.070  14.066  70.586  1.00  0.00    -0.424 C  
HETATM    5  C   UNL     1     -10.737   9.985  69.298  1.00  0.00    -0.249 C  
HETATM    6  C   UNL     1     -11.653  13.742  68.242  1.00  0.00    -0.373 C  
HETATM    7  C   UNL     1     -11.115  10.105  70.798  1.00  0.00    -0.372 C  
HETATM    8  C   UNL     1     -10.587  14.183  67.548  1.00  0.00    -0.257 C  
HETATM    9  C   UNL     1     -10.966   8.743  71.500  1.00  0.00    -0.377 C  
HETATM   10  C   UNL     1     -10.764  14.983  66.273  1.00  0.00    -0.322 C  
HETATM   11  C   UNL     1     -10.105   7.737  71.213  1.00  0.00    -0.203 C  
HETATM   12  C   UNL     1     -12.007   8.513  72.564  1.00  0.00    -0.401 C  
HETATM   13  C   UNL     1     -10.284  16.459  66.366  1.00  0.00    -0.325 C  
HETATM   14  C   UNL     1     -10.166  14.223  65.085  1.00  0.00    -0.414 C  
HETATM   15  C   UNL     1     -10.869  17.175  67.593  1.00  0.00    -0.241 C  
HETATM   16  C   UNL     1     -13.431   8.671  72.032  1.00  0.00    -0.439 C  
HETATM   17  C   UNL     1     -13.067  11.602  71.936  1.00  0.00    -0.490 C  
HETATM   18  C   UNL     1      -8.766  16.660  66.345  1.00  0.00    -0.345 C  
HETATM   19  C   UNL     1     -13.547   9.521  70.730  1.00  0.00     0.068 C  
HETATM   20  C   UNL     1     -12.566  10.738  70.763  1.00  0.00    -0.476 C  
ENDROOT
BRANCH  11  21
HETATM   21  C   UNL     1      -8.989   7.746  70.283  1.00  0.00    -0.148 C  
HETATM   22  C   UNL     1      -7.328   6.843  68.639  1.00  0.00    -0.094 C  
HETATM   23  C   UNL     1      -8.572   6.721  69.509  1.00  0.00    -0.133 C  
HETATM   24  C   UNL     1      -6.313   5.756  68.989  1.00  0.00    -0.040 C  
HETATM   25  O   UNL     1      -5.755   5.972  70.289  1.00  0.00    -0.013 OA 
HETATM   26  C   UNL     1      -6.935   4.358  68.921  1.00  0.00    -0.051 C  
HETATM   27  H   UNL     1      -5.124   5.297  70.507  1.00  0.00     0.000 HD 
HETATM   28  C   UNL     1      -8.219   4.257  69.752  1.00  0.00    -0.062 C  
HETATM   29  O   UNL     1      -8.820   2.984  69.506  1.00  0.00    -0.069 OA 
HETATM   30  C   UNL     1      -9.187   5.391  69.419  1.00  0.00    -0.150 C  
HETATM   31  H   UNL     1      -9.616   2.922  70.021  1.00  0.00     0.000 HD 
HETATM   32  C   UNL     1     -10.461   5.222  69.030  1.00  0.00    -0.206 C  
ENDBRANCH  11  21
TORSDOF 1
ENDMDL
MODEL       10
REMARK 921   NORMALIZED FREE ENERGY PREDICTED BY IDOCK:   -6.79 KCAL/MOL
REMARK 922        TOTAL FREE ENERGY PREDICTED BY IDOCK:   -7.63 KCAL/MOL
REMARK 923 INTER-LIGAND FREE ENERGY PREDICTED BY IDOCK:   -7.17 KCAL/MOL
REMARK 924 INTRA-LIGAND FREE ENERGY PREDICTED BY IDOCK:   -0.46 KCAL/MOL
REMARK 927      BINDING AFFINITY PREDICTED BY RF-SCORE:    0.00 PKD
ROOT
HETATM    1  C   UNL     1     -10.624  10.856  65.513  1.00  0.00    -0.240 C  
HETATM    2  C   UNL     1     -10.415  11.181  66.992  1.00  0.00    -0.277 C  
HETATM    3  C   UNL     1      -9.295  10.139  65.002  1.00  0.00    -0.299 C  
HETATM    4  C   UNL     1      -9.198   9.783  63.515  1.00  0.00    -0.227 C  
HETATM    5  C   UNL     1      -9.754  12.547  67.000  1.00  0.00    -0.213 C  
HETATM    6  C   UNL     1      -9.119   8.805  65.708  1.00  0.00    -0.267 C  
HETATM    7  C   UNL     1      -9.941  13.206  65.608  1.00  0.00    -0.237 C  
HETATM    8  C   UNL     1      -8.020   8.388  66.362  1.00  0.00    -0.099 C  
HETATM    9  C   UNL     1     -10.315  14.691  65.762  1.00  0.00    -0.349 C  
HETATM   10  C   UNL     1      -7.943   6.993  66.948  1.00  0.00    -0.115 C  
HETATM   11  C   UNL     1      -9.966  15.549  66.752  1.00  0.00    -0.257 C  
HETATM   12  C   UNL     1     -11.280  15.167  64.709  1.00  0.00    -0.396 C  
HETATM   13  C   UNL     1      -6.894   6.065  66.271  1.00  0.00    -0.061 C  
HETATM   14  C   UNL     1      -7.796   7.066  68.471  1.00  0.00    -0.122 C  
HETATM   15  C   UNL     1      -7.044   6.052  64.742  1.00  0.00    -0.060 C  
HETATM   16  C   UNL     1     -12.548  14.316  64.650  1.00  0.00    -0.277 C  
HETATM   17  C   UNL     1     -11.020  12.138  63.362  1.00  0.00    -0.480 C  
HETATM   18  C   UNL     1      -5.433   6.354  66.628  1.00  0.00    -0.013 C  
HETATM   19  C   UNL     1     -12.397  12.885  65.250  1.00  0.00    -0.544 C  
HETATM   20  C   UNL     1     -11.003  12.270  64.897  1.00  0.00    -0.344 C  
ENDROOT
BRANCH  11  21
HETATM   21  C   UNL     1      -9.014  15.339  67.829  1.00  0.00    -0.177 C  
HETATM   22  C   UNL     1      -7.391  15.935  69.644  1.00  0.00    -0.082 C  
HETATM   23  C   UNL     1      -8.445  16.289  68.602  1.00  0.00    -0.221 C  
HETATM   24  C   UNL     1      -6.095  16.701  69.386  1.00  0.00    -0.200 C  
HETATM   25  O   UNL     1      -5.456  16.244  68.190  1.00  0.00    -0.093 OA 
HETATM   26  C   UNL     1      -6.338  18.211  69.296  1.00  0.00    -0.257 C  
HETATM   27  H   UNL     1      -4.650  16.720  68.029  1.00  0.00     0.000 HD 
HETATM   28  C   UNL     1      -7.440  18.558  68.288  1.00  0.00    -0.281 C  
HETATM   29  O   UNL     1      -7.717  19.957  68.384  1.00  0.00    -0.311 OA 
HETATM   30  C   UNL     1      -8.701  17.733  68.539  1.00  0.00    -0.284 C  
HETATM   31  H   UNL     1      -8.400  20.172  67.760  1.00  0.00     0.000 HD 
HETATM   32  C   UNL     1      -9.926  18.247  68.735  1.00  0.00    -0.391 C  
ENDBRANCH  11  21
TORSDOF 1
ENDMDL
MODEL       11
REMARK 921   NORMALIZED FREE ENERGY PREDICTED BY IDOCK:   -6.70 KCAL/MOL
REMARK 922        TOTAL FREE ENERGY PREDICTED BY IDOCK:   -7.54 KCAL/MOL
REMARK 923 INTER-LIGAND FREE ENERGY PREDICTED BY IDOCK:   -6.92 KCAL/MOL
REMARK 924 INTRA-LIGAND FREE ENERGY PREDICTED BY IDOCK:   -0.62 KCAL/MOL
REMARK 927      BINDING AFFINITY PREDICTED BY RF-SCORE:    0.00 PKD
ROOT
HETATM    1  C   UNL     1      -9.141   7.554  68.376  1.00  0.00    -0.133 C  
HETATM    2  C   UNL     1      -8.553   8.705  67.559  1.00  0.00    -0.135 C  
HETATM    3  C   UNL     1      -9.640   6.454  67.336  1.00  0.00    -0.133 C  
HETATM    4  C   UNL     1     -10.361   5.219  67.891  1.00  0.00    -0.189 C  
HETATM    5  C   UNL     1      -9.732   9.613  67.264  1.00  0.00    -0.213 C  
HETATM    6  C   UNL     1      -8.455   5.875  66.582  1.00  0.00    -0.111 C  
HETATM    7  C   UNL     1     -10.899   9.251  68.219  1.00  0.00    -0.132 C  
HETATM    8  C   UNL     1      -8.329   5.783  65.246  1.00  0.00    -0.146 C  
HETATM    9  C   UNL     1     -11.563  10.528  68.764  1.00  0.00    -0.252 C  
HETATM   10  C   UNL     1      -7.129   5.100  64.620  1.00  0.00    -0.054 C  
HETATM   11  C   UNL     1     -11.677  11.739  68.167  1.00  0.00    -0.377 C  
HETATM   12  C   UNL     1     -12.033  10.384  70.187  1.00  0.00    -0.357 C  
HETATM   13  C   UNL     1      -7.461   3.785  63.858  1.00  0.00    -0.062 C  
HETATM   14  C   UNL     1      -6.326   6.101  63.785  1.00  0.00    -0.029 C  
HETATM   15  C   UNL     1      -8.304   2.825  64.712  1.00  0.00    -0.088 C  
HETATM   16  C   UNL     1     -10.917   9.937  71.130  1.00  0.00    -0.298 C  
HETATM   17  C   UNL     1     -11.059   7.211  69.996  1.00  0.00    -0.288 C  
HETATM   18  C   UNL     1      -8.135   3.967  62.495  1.00  0.00    -0.074 C  
HETATM   19  C   UNL     1      -9.723   9.222  70.427  1.00  0.00    -0.293 C  
HETATM   20  C   UNL     1     -10.223   8.287  69.278  1.00  0.00    -0.207 C  
ENDROOT
BRANCH  11  21
HETATM   21  C   UNL     1     -11.354  12.100  66.797  1.00  0.00    -0.398 C  
HETATM   22  C   UNL     1     -10.551  13.523  64.897  1.00  0.00    -0.409 C  
HETATM   23  C   UNL     1     -10.752  13.234  66.379  1.00  0.00    -0.291 C  
HETATM   24  C   UNL     1     -11.209  14.847  64.509  1.00  0.00    -0.264 C  
HETATM   25  O   UNL     1     -12.635  14.752  64.576  1.00  0.00    -0.574 OA 
HETATM   26  C   UNL     1     -10.727  15.999  65.397  1.00  0.00    -0.399 C  
HETATM   27  H   UNL     1     -13.044  15.575  64.335  1.00  0.00     0.000 HD 
HETATM   28  C   UNL     1     -10.877  15.679  66.888  1.00  0.00    -0.282 C  
HETATM   29  O   UNL     1     -10.258  16.726  67.640  1.00  0.00    -0.271 OA 
HETATM   30  C   UNL     1     -10.260  14.324  67.230  1.00  0.00    -0.252 C  
HETATM   31  H   UNL     1     -10.351  16.527  68.565  1.00  0.00     0.000 HD 
HETATM   32  C   UNL     1      -9.325  14.123  68.173  1.00  0.00    -0.206 C  
ENDBRANCH  11  21
TORSDOF 1
ENDMDL
MODEL       12
REMARK 921   NORMALIZED FREE ENERGY PREDICTED BY IDOCK:   -6.69 KCAL/MOL
REMARK 922        TOTAL FREE ENERGY PREDICTED BY IDOCK:   -7.53 KCAL/MOL
REMARK 923 INTER-LIGAND FREE ENERGY PREDICTED BY IDOCK:   -6.79 KCAL/MOL
REMARK 924 INTRA-LIGAND FREE ENERGY PREDICTED BY IDOCK:   -0.74 KCAL/MOL
REMARK 927      BINDING AFFINITY PREDICTED BY RF-SCORE:    0.00 PKD
ROOT
HETATM    1  C   UNL     1     -11.276   9.768  68.349  1.00  0.00    -0.076 C  
HETATM    2  C   UNL     1     -10.638  10.595  67.232  1.00  0.00    -0.313 C  
HETATM    3  C   UNL     1     -11.147  10.620  69.690  1.00  0.00    -0.342 C  
HETATM    4  C   UNL     1     -11.632   9.979  70.995  1.00  0.00    -0.476 C  
HETATM    5  C   UNL     1      -9.170  10.213  67.256  1.00  0.00    -0.154 C  
HETATM    6  C   UNL     1     -11.973  11.891  69.580  1.00  0.00    -0.355 C  
HETATM    7  C   UNL     1      -9.003   8.900  68.066  1.00  0.00    -0.140 C  
HETATM    8  C   UNL     1     -11.539  13.144  69.806  1.00  0.00    -0.291 C  
HETATM    9  C   UNL     1      -8.025   7.949  67.353  1.00  0.00    -0.122 C  
HETATM   10  C   UNL     1     -12.492  14.322  69.749  1.00  0.00    -0.264 C  
HETATM   11  C   UNL     1      -6.970   8.264  66.563  1.00  0.00    -0.068 C  
HETATM   12  C   UNL     1      -8.403   6.499  67.500  1.00  0.00    -0.121 C  
HETATM   13  C   UNL     1     -12.724  15.031  71.114  1.00  0.00    -0.431 C  
HETATM   14  C   UNL     1     -12.082  15.280  68.628  1.00  0.00    -0.160 C  
HETATM   15  C   UNL     1     -13.091  14.033  72.223  1.00  0.00    -0.516 C  
HETATM   16  C   UNL     1      -9.831   6.216  67.038  1.00  0.00    -0.180 C  
HETATM   17  C   UNL     1     -10.874   7.531  69.471  1.00  0.00    -0.184 C  
HETATM   18  C   UNL     1     -11.573  15.917  71.598  1.00  0.00    -0.541 C  
HETATM   19  C   UNL     1     -10.766   7.464  67.021  1.00  0.00    -0.389 C  
HETATM   20  C   UNL     1     -10.491   8.390  68.251  1.00  0.00    -0.214 C  
ENDROOT
BRANCH  11  21
HETATM   21  C   UNL     1      -6.386   9.572  66.322  1.00  0.00    -0.069 C  
HETATM   22  C   UNL     1      -5.396  11.810  66.864  1.00  0.00    -0.115 C  
HETATM   23  C   UNL     1      -5.904  10.426  67.250  1.00  0.00    -0.052 C  
HETATM   24  C   UNL     1      -6.156  12.897  67.622  1.00  0.00    -0.154 C  
HETATM   25  O   UNL     1      -7.516  12.976  67.182  1.00  0.00    -0.339 OA 
HETATM   26  C   UNL     1      -6.116  12.665  69.136  1.00  0.00    -0.092 C  
HETATM   27  H   UNL     1      -7.988  13.653  67.653  1.00  0.00     0.000 HD 
HETATM   28  C   UNL     1      -6.573  11.252  69.514  1.00  0.00    -0.129 C  
HETATM   29  O   UNL     1      -6.351  11.064  70.914  1.00  0.00    -0.423 OA 
HETATM   30  C   UNL     1      -5.835  10.192  68.698  1.00  0.00    -0.041 C  
HETATM   31  H   UNL     1      -6.634  10.188  71.148  1.00  0.00     0.000 HD 
HETATM   32  C   UNL     1      -5.143   9.168  69.220  1.00  0.00    -0.036 C  
ENDBRANCH  11  21
TORSDOF 1
ENDMDL
MODEL       13
REMARK 921   NORMALIZED FREE ENERGY PREDICTED BY IDOCK:   -6.66 KCAL/MOL
REMARK 922        TOTAL FREE ENERGY PREDICTED BY IDOCK:   -7.50 KCAL/MOL
REMARK 923 INTER-LIGAND FREE ENERGY PREDICTED BY IDOCK:   -6.97 KCAL/MOL
REMARK 924 INTRA-LIGAND FREE ENERGY PREDICTED BY IDOCK:   -0.52 KCAL/MOL
REMARK 927      BINDING AFFINITY PREDICTED BY RF-SCORE:    0.00 PKD
ROOT
HETATM    1  C   UNL     1      -8.451   6.549  68.940  1.00  0.00    -0.122 C  
HETATM    2  C   UNL     1      -8.034   7.659  67.973  1.00  0.00    -0.122 C  
HETATM    3  C   UNL     1      -8.986   5.337  68.054  1.00  0.00    -0.113 C  
HETATM    4  C   UNL     1      -9.557   4.115  68.782  1.00  0.00    -0.210 C  
HETATM    5  C   UNL     1      -9.297   8.468  67.744  1.00  0.00    -0.153 C  
HETATM    6  C   UNL     1      -7.853   4.765  67.217  1.00  0.00    -0.094 C  
HETATM    7  C   UNL     1     -10.326   8.122  68.852  1.00  0.00    -0.225 C  
HETATM    8  C   UNL     1      -7.868   4.567  65.886  1.00  0.00    -0.095 C  
HETATM    9  C   UNL     1     -11.011   9.400  69.367  1.00  0.00    -0.165 C  
HETATM   10  C   UNL     1      -6.701   3.903  65.183  1.00  0.00    -0.048 C  
HETATM   11  C   UNL     1     -11.270  10.548  68.694  1.00  0.00    -0.328 C  
HETATM   12  C   UNL     1     -11.313   9.352  70.842  1.00  0.00    -0.386 C  
HETATM   13  C   UNL     1      -7.025   2.511  64.569  1.00  0.00    -0.048 C  
HETATM   14  C   UNL     1      -6.063   4.874  64.186  1.00  0.00    -0.022 C  
HETATM   15  C   UNL     1      -7.704   1.581  65.587  1.00  0.00    -0.067 C  
HETATM   16  C   UNL     1     -10.073   9.052  71.683  1.00  0.00    -0.405 C  
HETATM   17  C   UNL     1     -10.154   6.236  70.791  1.00  0.00    -0.229 C  
HETATM   18  C   UNL     1      -7.854   2.537  63.283  1.00  0.00    -0.064 C  
HETATM   19  C   UNL     1      -8.917   8.350  70.907  1.00  0.00    -0.188 C  
HETATM   20  C   UNL     1      -9.476   7.293  69.899  1.00  0.00    -0.157 C  
ENDROOT
BRANCH  11  21
HETATM   21  C   UNL     1     -11.124  10.808  67.272  1.00  0.00    -0.339 C  
HETATM   22  C   UNL     1     -10.846  12.147  65.172  1.00  0.00    -0.343 C  
HETATM   23  C   UNL     1     -10.892  12.003  66.688  1.00  0.00    -0.311 C  
HETATM   24  C   UNL     1     -11.873  13.173  64.694  1.00  0.00    -0.370 C  
HETATM   25  O   UNL     1     -13.207  12.690  64.880  1.00  0.00    -0.819 OA 
HETATM   26  C   UNL     1     -11.706  14.517  65.411  1.00  0.00    -0.354 C  
HETATM   27  H   UNL     1     -13.846  13.328  64.582  1.00  0.00     0.000 HD 
HETATM   28  C   UNL     1     -11.693  14.359  66.935  1.00  0.00    -0.402 C  
HETATM   29  O   UNL     1     -11.371  15.623  67.519  1.00  0.00    -0.300 OA 
HETATM   30  C   UNL     1     -10.699  13.286  67.375  1.00  0.00    -0.266 C  
HETATM   31  H   UNL     1     -11.363  15.525  68.464  1.00  0.00     0.000 HD 
HETATM   32  C   UNL     1      -9.706  13.477  68.258  1.00  0.00    -0.224 C  
ENDBRANCH  11  21
TORSDOF 1
ENDMDL
MODEL       14
REMARK 921   NORMALIZED FREE ENERGY PREDICTED BY IDOCK:   -6.55 KCAL/MOL
REMARK 922        TOTAL FREE ENERGY PREDICTED BY IDOCK:   -7.38 KCAL/MOL
REMARK 923 INTER-LIGAND FREE ENERGY PREDICTED BY IDOCK:   -6.90 KCAL/MOL
REMARK 924 INTRA-LIGAND FREE ENERGY PREDICTED BY IDOCK:   -0.49 KCAL/MOL
REMARK 927      BINDING AFFINITY PREDICTED BY RF-SCORE:    0.00 PKD
ROOT
HETATM    1  C   UNL     1      -8.574   6.733  68.901  1.00  0.00    -0.130 C  
HETATM    2  C   UNL     1      -7.771   7.806  68.166  1.00  0.00    -0.119 C  
HETATM    3  C   UNL     1      -9.024   5.660  67.811  1.00  0.00    -0.107 C  
HETATM    4  C   UNL     1      -9.930   4.511  68.269  1.00  0.00    -0.098 C  
HETATM    5  C   UNL     1      -8.805   8.813  67.698  1.00  0.00    -0.138 C  
HETATM    6  C   UNL     1      -7.805   4.958  67.238  1.00  0.00    -0.095 C  
HETATM    7  C   UNL     1     -10.124   8.581  68.481  1.00  0.00    -0.214 C  
HETATM    8  C   UNL     1      -7.502   4.825  65.934  1.00  0.00    -0.078 C  
HETATM    9  C   UNL     1     -10.734   9.926  68.915  1.00  0.00    -0.244 C  
HETATM   10  C   UNL     1      -6.297   4.020  65.491  1.00  0.00    -0.032 C  
HETATM   11  C   UNL     1     -10.647  11.129  68.297  1.00  0.00    -0.221 C  
HETATM   12  C   UNL     1     -11.411   9.858  70.259  1.00  0.00    -0.357 C  
HETATM   13  C   UNL     1      -6.642   2.725  64.701  1.00  0.00    -0.035 C  
HETATM   14  C   UNL     1      -5.293   4.923  64.769  1.00  0.00    -0.013 C  
HETATM   15  C   UNL     1      -7.683   1.867  65.435  1.00  0.00    -0.072 C  
HETATM   16  C   UNL     1     -10.486   9.330  71.354  1.00  0.00    -0.408 C  
HETATM   17  C   UNL     1     -10.725   6.605  70.236  1.00  0.00    -0.294 C  
HETATM   18  C   UNL     1      -7.097   2.939  63.255  1.00  0.00    -0.044 C  
HETATM   19  C   UNL     1      -9.277   8.493  70.834  1.00  0.00    -0.213 C  
HETATM   20  C   UNL     1      -9.698   7.583  69.634  1.00  0.00    -0.167 C  
ENDROOT
BRANCH  11  21
HETATM   21  C   UNL     1     -10.103  11.428  66.984  1.00  0.00    -0.237 C  
HETATM   22  C   UNL     1      -9.923  12.528  64.739  1.00  0.00    -0.177 C  
HETATM   23  C   UNL     1     -10.532  12.380  66.128  1.00  0.00    -0.274 C  
HETATM   24  C   UNL     1     -10.997  12.404  63.660  1.00  0.00    -0.470 C  
HETATM   25  O   UNL     1     -11.504  11.067  63.591  1.00  0.00    -0.403 OA 
HETATM   26  C   UNL     1     -12.152  13.382  63.895  1.00  0.00    -0.514 C  
HETATM   27  H   UNL     1     -12.172  10.990  62.919  1.00  0.00     0.000 HD 
HETATM   28  C   UNL     1     -12.723  13.269  65.313  1.00  0.00    -0.412 C  
HETATM   29  O   UNL     1     -13.675  14.319  65.502  1.00  0.00    -0.543 OA 
HETATM   30  C   UNL     1     -11.617  13.340  66.364  1.00  0.00    -0.387 C  
HETATM   31  H   UNL     1     -14.029  14.249  66.382  1.00  0.00     0.000 HD 
HETATM   32  C   UNL     1     -11.584  14.212  67.385  1.00  0.00    -0.399 C  
ENDBRANCH  11  21
TORSDOF 1
ENDMDL
MODEL       15
REMARK 921   NORMALIZED FREE ENERGY PREDICTED BY IDOCK:   -6.55 KCAL/MOL
REMARK 922        TOTAL FREE ENERGY PREDICTED BY IDOCK:   -7.38 KCAL/MOL
REMARK 923 INTER-LIGAND FREE ENERGY PREDICTED BY IDOCK:   -6.77 KCAL/MOL
REMARK 924 INTRA-LIGAND FREE ENERGY PREDICTED BY IDOCK:   -0.61 KCAL/MOL
REMARK 927      BINDING AFFINITY PREDICTED BY RF-SCORE:    0.00 PKD
ROOT
HETATM    1  C   UNL     1      -8.789   6.790  67.585  1.00  0.00    -0.117 C  
HETATM    2  C   UNL     1     -10.102   7.574  67.608  1.00  0.00    -0.243 C  
HETATM    3  C   UNL     1      -8.226   6.783  69.076  1.00  0.00    -0.117 C  
HETATM    4  C   UNL     1      -6.859   6.135  69.323  1.00  0.00    -0.062 C  
HETATM    5  C   UNL     1      -9.695   9.019  67.390  1.00  0.00    -0.217 C  
HETATM    6  C   UNL     1      -9.166   6.009  69.984  1.00  0.00    -0.160 C  
HETATM    7  C   UNL     1      -8.246   9.057  66.835  1.00  0.00    -0.116 C  
HETATM    8  C   UNL     1      -9.693   6.444  71.143  1.00  0.00    -0.191 C  
HETATM    9  C   UNL     1      -8.134  10.087  65.697  1.00  0.00    -0.138 C  
HETATM   10  C   UNL     1     -10.549   5.535  72.001  1.00  0.00    -0.284 C  
HETATM   11  C   UNL     1      -8.835  11.234  65.527  1.00  0.00    -0.094 C  
HETATM   12  C   UNL     1      -7.187   9.658  64.608  1.00  0.00    -0.123 C  
HETATM   13  C   UNL     1      -9.920   5.164  73.375  1.00  0.00    -0.185 C  
HETATM   14  C   UNL     1     -11.969   6.096  72.115  1.00  0.00    -0.314 C  
HETATM   15  C   UNL     1      -8.481   4.647  73.224  1.00  0.00    -0.103 C  
HETATM   16  C   UNL     1      -7.537   8.286  64.034  1.00  0.00    -0.128 C  
HETATM   17  C   UNL     1      -6.513   7.002  66.491  1.00  0.00    -0.051 C  
HETATM   18  C   UNL     1      -9.945   6.273  74.430  1.00  0.00    -0.346 C  
HETATM   19  C   UNL     1      -8.401   7.391  64.974  1.00  0.00    -0.057 C  
HETATM   20  C   UNL     1      -7.954   7.545  66.465  1.00  0.00    -0.107 C  
ENDROOT
BRANCH  11  21
HETATM   21  C   UNL     1      -9.750  11.875  66.456  1.00  0.00    -0.226 C  
HETATM   22  C   UNL     1     -11.741  13.190  67.221  1.00  0.00    -0.425 C  
HETATM   23  C   UNL     1     -10.919  12.478  66.154  1.00  0.00    -0.318 C  
HETATM   24  C   UNL     1     -11.973  14.652  66.842  1.00  0.00    -0.272 C  
HETATM   25  O   UNL     1     -10.753  15.397  66.899  1.00  0.00    -0.306 OA 
HETATM   26  C   UNL     1     -12.593  14.783  65.447  1.00  0.00     0.004 C  
HETATM   27  H   UNL     1     -10.897  16.307  66.663  1.00  0.00     0.000 HD 
HETATM   28  C   UNL     1     -11.794  14.017  64.387  1.00  0.00    -0.431 C  
HETATM   29  O   UNL     1     -12.522  14.053  63.157  1.00  0.00    -1.137 OA 
HETATM   30  C   UNL     1     -11.531  12.577  64.823  1.00  0.00    -0.369 C  
HETATM   31  H   UNL     1     -12.027  13.577  62.500  1.00  0.00     0.000 HD 
HETATM   32  C   UNL     1     -11.858  11.488  64.109  1.00  0.00    -0.134 C  
ENDBRANCH  11  21
TORSDOF 1
ENDMDL
MODEL       16
REMARK 921   NORMALIZED FREE ENERGY PREDICTED BY IDOCK:   -6.45 KCAL/MOL
REMARK 922        TOTAL FREE ENERGY PREDICTED BY IDOCK:   -7.27 KCAL/MOL
REMARK 923 INTER-LIGAND FREE ENERGY PREDICTED BY IDOCK:   -6.23 KCAL/MOL
REMARK 924 INTRA-LIGAND FREE ENERGY PREDICTED BY IDOCK:   -1.04 KCAL/MOL
REMARK 927      BINDING AFFINITY PREDICTED BY RF-SCORE:    0.00 PKD
ROOT
HETATM    1  C   UNL     1     -11.521   9.194  69.441  1.00  0.00     0.304 C  
HETATM    2  C   UNL     1     -10.599   8.414  68.503  1.00  0.00    -0.149 C  
HETATM    3  C   UNL     1     -11.242  10.743  69.186  1.00  0.00    -0.323 C  
HETATM    4  C   UNL     1     -11.976  11.758  70.069  1.00  0.00    -0.421 C  
HETATM    5  C   UNL     1      -9.308   8.243  69.282  1.00  0.00    -0.155 C  
HETATM    6  C   UNL     1     -11.657  11.120  67.774  1.00  0.00    -0.303 C  
HETATM    7  C   UNL     1      -9.582   8.532  70.781  1.00  0.00    -0.217 C  
HETATM    8  C   UNL     1     -10.897  11.755  66.863  1.00  0.00    -0.312 C  
HETATM    9  C   UNL     1      -8.874   7.491  71.666  1.00  0.00    -0.128 C  
HETATM   10  C   UNL     1     -11.464  12.154  65.515  1.00  0.00    -0.394 C  
HETATM   11  C   UNL     1      -7.723   6.819  71.421  1.00  0.00    -0.093 C  
HETATM   12  C   UNL     1      -9.662   7.134  72.899  1.00  0.00    -0.200 C  
HETATM   13  C   UNL     1     -11.572  13.690  65.290  1.00  0.00    -0.334 C  
HETATM   14  C   UNL     1     -10.722  11.426  64.392  1.00  0.00    -0.405 C  
HETATM   15  C   UNL     1     -12.283  14.391  66.457  1.00  0.00    -0.358 C  
HETATM   16  C   UNL     1     -11.077   6.661  72.572  1.00  0.00    -0.296 C  
HETATM   17  C   UNL     1     -11.856   9.441  71.941  1.00  0.00    -0.402 C  
HETATM   18  C   UNL     1     -10.249  14.406  65.006  1.00  0.00    -0.406 C  
HETATM   19  C   UNL     1     -11.610   7.122  71.181  1.00  0.00    -0.336 C  
HETATM   20  C   UNL     1     -11.162   8.586  70.864  1.00  0.00    -0.304 C  
ENDROOT
BRANCH  11  21
HETATM   21  C   UNL     1      -6.771   7.029  70.343  1.00  0.00    -0.053 C  
HETATM   22  C   UNL     1      -5.133   8.257  68.897  1.00  0.00    -0.028 C  
HETATM   23  C   UNL     1      -6.031   8.137  70.122  1.00  0.00    -0.025 C  
HETATM   24  C   UNL     1      -5.506   9.485  68.069  1.00  0.00    -0.040 C  
HETATM   25  O   UNL     1      -6.786   9.318  67.450  1.00  0.00    -0.075 OA 
HETATM   26  C   UNL     1      -5.506  10.761  68.916  1.00  0.00    -0.040 C  
HETATM   27  H   UNL     1      -7.018  10.082  66.934  1.00  0.00     0.000 HD 
HETATM   28  C   UNL     1      -6.365  10.615  70.178  1.00  0.00    -0.139 C  
HETATM   29  O   UNL     1      -6.181  11.778  70.988  1.00  0.00    -0.476 OA 
HETATM   30  C   UNL     1      -6.005   9.348  70.951  1.00  0.00    -0.064 C  
HETATM   31  H   UNL     1      -6.713  11.687  71.770  1.00  0.00     0.000 HD 
HETATM   32  C   UNL     1      -5.648   9.315  72.245  1.00  0.00    -0.055 C  
ENDBRANCH  11  21
TORSDOF 1
ENDMDL
MODEL       17
REMARK 921   NORMALIZED FREE ENERGY PREDICTED BY IDOCK:   -6.39 KCAL/MOL
REMARK 922        TOTAL FREE ENERGY PREDICTED BY IDOCK:   -7.21 KCAL/MOL
REMARK 923 INTER-LIGAND FREE ENERGY PREDICTED BY IDOCK:   -6.36 KCAL/MOL
REMARK 924 INTRA-LIGAND FREE ENERGY PREDICTED BY IDOCK:   -0.85 KCAL/MOL
REMARK 927      BINDING AFFINITY PREDICTED BY RF-SCORE:    0.00 PKD
ROOT
HETATM    1  C   UNL     1      -9.378  12.844  68.088  1.00  0.00    -0.214 C  
HETATM    2  C   UNL     1      -8.115  13.684  67.893  1.00  0.00    -0.164 C  
HETATM    3  C   UNL     1      -9.550  11.953  66.777  1.00  0.00    -0.214 C  
HETATM    4  C   UNL     1     -10.801  11.073  66.668  1.00  0.00    -0.284 C  
HETATM    5  C   UNL     1      -8.589  14.938  67.183  1.00  0.00    -0.248 C  
HETATM    6  C   UNL     1      -8.400  10.968  66.662  1.00  0.00    -0.155 C  
HETATM    7  C   UNL     1     -10.131  15.044  67.323  1.00  0.00    -0.235 C  
HETATM    8  C   UNL     1      -7.607  10.790  65.589  1.00  0.00    -0.044 C  
HETATM    9  C   UNL     1     -10.542  16.492  67.645  1.00  0.00    -0.321 C  
HETATM   10  C   UNL     1      -6.548   9.706  65.573  1.00  0.00    -0.080 C  
HETATM   11  C   UNL     1      -9.926  17.644  67.282  1.00  0.00    -0.322 C  
HETATM   12  C   UNL     1     -11.724  16.574  68.575  1.00  0.00     0.128 C  
HETATM   13  C   UNL     1      -6.808   8.566  64.546  1.00  0.00    -0.069 C  
HETATM   14  C   UNL     1      -5.155  10.329  65.449  1.00  0.00    -0.073 C  
HETATM   15  C   UNL     1      -8.229   7.996  64.671  1.00  0.00    -0.109 C  
HETATM   16  C   UNL     1     -11.504  15.796  69.871  1.00  0.00    -0.347 C  
HETATM   17  C   UNL     1     -11.859  13.257  68.401  1.00  0.00    -0.395 C  
HETATM   18  C   UNL     1      -6.539   8.926  63.083  1.00  0.00    -0.090 C  
HETATM   19  C   UNL     1     -10.417  14.682  69.782  1.00  0.00    -0.018 C  
HETATM   20  C   UNL     1     -10.480  13.943  68.405  1.00  0.00    -0.250 C  
ENDROOT
BRANCH  11  21
HETATM   21  C   UNL     1      -8.820  17.819  66.357  1.00  0.00    -0.256 C  
HETATM   22  C   UNL     1      -6.557  18.532  65.550  1.00  0.00    -0.299 C  
HETATM   23  C   UNL     1      -7.600  18.323  66.641  1.00  0.00    -0.259 C  
HETATM   24  C   UNL     1      -6.111  19.992  65.499  1.00  0.00    -0.199 C  
HETATM   25  O   UNL     1      -7.167  20.836  65.029  1.00  0.00    -0.516 OA 
HETATM   26  C   UNL     1      -5.627  20.484  66.866  1.00  0.00    -0.206 C  
HETATM   27  H   UNL     1      -6.889  21.745  64.997  1.00  0.00     0.000 HD 
HETATM   28  C   UNL     1      -6.657  20.219  67.971  1.00  0.00    -0.292 C  
HETATM   29  O   UNL     1      -6.067  20.553  69.230  1.00  0.00    -0.341 OA 
HETATM   30  C   UNL     1      -7.124  18.764  67.957  1.00  0.00    -0.255 C  
HETATM   31  H   UNL     1      -6.705  20.388  69.914  1.00  0.00     0.000 HD 
HETATM   32  C   UNL     1      -7.072  17.933  69.010  1.00  0.00    -0.229 C  
ENDBRANCH  11  21
TORSDOF 1
ENDMDL
MODEL       18
REMARK 921   NORMALIZED FREE ENERGY PREDICTED BY IDOCK:   -6.39 KCAL/MOL
REMARK 922        TOTAL FREE ENERGY PREDICTED BY IDOCK:   -7.21 KCAL/MOL
REMARK 923 INTER-LIGAND FREE ENERGY PREDICTED BY IDOCK:   -6.16 KCAL/MOL
REMARK 924 INTRA-LIGAND FREE ENERGY PREDICTED BY IDOCK:   -1.05 KCAL/MOL
REMARK 927      BINDING AFFINITY PREDICTED BY RF-SCORE:    0.00 PKD
ROOT
HETATM    1  C   UNL     1      -8.270  11.164  66.056  1.00  0.00    -0.094 C  
HETATM    2  C   UNL     1      -7.325  10.935  67.236  1.00  0.00    -0.103 C  
HETATM    3  C   UNL     1      -9.505  12.009  66.606  1.00  0.00    -0.222 C  
HETATM    4  C   UNL     1     -10.658  12.304  65.640  1.00  0.00    -0.295 C  
HETATM    5  C   UNL     1      -7.823   9.660  67.890  1.00  0.00    -0.087 C  
HETATM    6  C   UNL     1      -9.038  13.386  67.046  1.00  0.00    -0.245 C  
HETATM    7  C   UNL     1      -8.761   8.919  66.902  1.00  0.00    -0.128 C  
HETATM    8  C   UNL     1      -9.269  13.961  68.241  1.00  0.00    -0.207 C  
HETATM    9  C   UNL     1      -8.463   7.409  66.908  1.00  0.00    -0.123 C  
HETATM   10  C   UNL     1      -8.822  15.382  68.522  1.00  0.00    -0.183 C  
HETATM   11  C   UNL     1      -8.000   6.646  67.928  1.00  0.00    -0.113 C  
HETATM   12  C   UNL     1      -8.622   6.773  65.553  1.00  0.00    -0.095 C  
HETATM   13  C   UNL     1      -9.985  16.394  68.729  1.00  0.00    -0.246 C  
HETATM   14  C   UNL     1      -7.793  15.398  69.656  1.00  0.00    -0.149 C  
HETATM   15  C   UNL     1     -11.019  16.318  67.595  1.00  0.00    -0.245 C  
HETATM   16  C   UNL     1      -7.780   7.463  64.480  1.00  0.00    -0.126 C  
HETATM   17  C   UNL     1      -9.660   9.744  64.482  1.00  0.00    -0.201 C  
HETATM   18  C   UNL     1     -10.708  16.298  70.075  1.00  0.00    -0.290 C  
HETATM   19  C   UNL     1      -7.371   8.929  64.821  1.00  0.00    -0.097 C  
HETATM   20  C   UNL     1      -8.538   9.687  65.535  1.00  0.00    -0.162 C  
ENDROOT
BRANCH  11  21
HETATM   21  C   UNL     1      -7.827   7.017  69.322  1.00  0.00    -0.114 C  
HETATM   22  C   UNL     1      -8.475   7.512  71.692  1.00  0.00    -0.119 C  
HETATM   23  C   UNL     1      -8.775   7.013  70.284  1.00  0.00    -0.144 C  
HETATM   24  C   UNL     1      -9.424   8.645  72.079  1.00  0.00    -0.300 C  
HETATM   25  O   UNL     1      -9.158   9.823  71.312  1.00  0.00    -0.261 OA 
HETATM   26  C   UNL     1     -10.891   8.238  71.907  1.00  0.00    -0.350 C  
HETATM   27  H   UNL     1      -9.748  10.529  71.553  1.00  0.00     0.000 HD 
HETATM   28  C   UNL     1     -11.174   7.683  70.506  1.00  0.00    -0.261 C  
HETATM   29  O   UNL     1     -12.511   7.178  70.481  1.00  0.00    -0.605 OA 
HETATM   30  C   UNL     1     -10.172   6.593  70.129  1.00  0.00    -0.215 C  
HETATM   31  H   UNL     1     -12.686   6.833  69.613  1.00  0.00     0.000 HD 
HETATM   32  C   UNL     1     -10.502   5.351  69.739  1.00  0.00    -0.378 C  
ENDBRANCH  11  21
TORSDOF 1
ENDMDL
MODEL       19
REMARK 921   NORMALIZED FREE ENERGY PREDICTED BY IDOCK:   -6.38 KCAL/MOL
REMARK 922        TOTAL FREE ENERGY PREDICTED BY IDOCK:   -7.20 KCAL/MOL
REMARK 923 INTER-LIGAND FREE ENERGY PREDICTED BY IDOCK:   -6.08 KCAL/MOL
REMARK 924 INTRA-LIGAND FREE ENERGY PREDICTED BY IDOCK:   -1.12 KCAL/MOL
REMARK 927      BINDING AFFINITY PREDICTED BY RF-SCORE:    0.00 PKD
ROOT
HETATM    1  C   UNL     1      -7.340   9.553  66.431  1.00  0.00    -0.093 C  
HETATM    2  C   UNL     1      -7.219  10.235  67.795  1.00  0.00    -0.086 C  
HETATM    3  C   UNL     1      -8.825   9.808  65.913  1.00  0.00    -0.175 C  
HETATM    4  C   UNL     1      -9.247   9.148  64.595  1.00  0.00    -0.029 C  
HETATM    5  C   UNL     1      -7.677   9.189  68.794  1.00  0.00    -0.087 C  
HETATM    6  C   UNL     1      -9.042  11.291  65.664  1.00  0.00    -0.203 C  
HETATM    7  C   UNL     1      -7.669   7.798  68.107  1.00  0.00    -0.119 C  
HETATM    8  C   UNL     1     -10.045  12.042  66.155  1.00  0.00    -0.252 C  
HETATM    9  C   UNL     1      -7.076   6.737  69.051  1.00  0.00    -0.089 C  
HETATM   10  C   UNL     1     -10.198  13.496  65.755  1.00  0.00    -0.305 C  
HETATM   11  C   UNL     1      -7.113   6.699  70.406  1.00  0.00    -0.068 C  
HETATM   12  C   UNL     1      -6.272   5.690  68.327  1.00  0.00    -0.030 C  
HETATM   13  C   UNL     1     -11.471  13.805  64.917  1.00  0.00    -0.351 C  
HETATM   14  C   UNL     1     -10.043  14.400  66.981  1.00  0.00    -0.256 C  
HETATM   15  C   UNL     1     -11.615  12.850  63.722  1.00  0.00    -0.538 C  
HETATM   16  C   UNL     1      -5.164   6.295  67.466  1.00  0.00    -0.005 C  
HETATM   17  C   UNL     1      -7.187   7.197  65.509  1.00  0.00    -0.070 C  
HETATM   18  C   UNL     1     -12.785  13.827  65.702  1.00  0.00    -0.523 C  
HETATM   19  C   UNL     1      -5.391   7.786  67.072  1.00  0.00    -0.031 C  
HETATM   20  C   UNL     1      -6.896   8.061  66.750  1.00  0.00    -0.072 C  
ENDROOT
BRANCH  11  21
HETATM   21  C   UNL     1      -7.865   7.554  71.309  1.00  0.00    -0.094 C  
HETATM   22  C   UNL     1      -9.871   8.564  72.420  1.00  0.00    -0.358 C  
HETATM   23  C   UNL     1      -9.201   7.549  71.502  1.00  0.00    -0.149 C  
HETATM   24  C   UNL     1     -10.930   9.363  71.663  1.00  0.00    -0.312 C  
HETATM   25  O   UNL     1     -10.329  10.229  70.696  1.00  0.00    -0.380 OA 
HETATM   26  C   UNL     1     -11.945   8.446  70.973  1.00  0.00    -0.255 C  
HETATM   27  H   UNL     1     -10.988  10.727  70.225  1.00  0.00     0.000 HD 
HETATM   28  C   UNL     1     -11.263   7.390  70.096  1.00  0.00    -0.218 C  
HETATM   29  O   UNL     1     -12.261   6.480  69.625  1.00  0.00    -0.424 OA 
HETATM   30  C   UNL     1     -10.171   6.650  70.866  1.00  0.00    -0.219 C  
HETATM   31  H   UNL     1     -11.838   5.825  69.081  1.00  0.00     0.000 HD 
HETATM   32  C   UNL     1     -10.103   5.316  71.009  1.00  0.00    -0.289 C  
ENDBRANCH  11  21
TORSDOF 1
ENDMDL
MODEL       20
REMARK 921   NORMALIZED FREE ENERGY PREDICTED BY IDOCK:   -6.38 KCAL/MOL
REMARK 922        TOTAL FREE ENERGY PREDICTED BY IDOCK:   -7.19 KCAL/MOL
REMARK 923 INTER-LIGAND FREE ENERGY PREDICTED BY IDOCK:   -6.59 KCAL/MOL
REMARK 924 INTRA-LIGAND FREE ENERGY PREDICTED BY IDOCK:   -0.60 KCAL/MOL
REMARK 927      BINDING AFFINITY PREDICTED BY RF-SCORE:    0.00 PKD
ROOT
HETATM    1  C   UNL     1      -9.843  11.761  67.388  1.00  0.00    -0.189 C  
HETATM    2  C   UNL     1      -8.588  12.100  68.192  1.00  0.00    -0.177 C  
HETATM    3  C   UNL     1      -9.383  11.549  65.876  1.00  0.00    -0.242 C  
HETATM    4  C   UNL     1     -10.470  11.283  64.828  1.00  0.00    -0.384 C  
HETATM    5  C   UNL     1      -8.457  13.608  68.089  1.00  0.00    -0.175 C  
HETATM    6  C   UNL     1      -8.474  10.336  65.774  1.00  0.00    -0.161 C  
HETATM    7  C   UNL     1      -9.807  14.199  67.604  1.00  0.00    -0.229 C  
HETATM    8  C   UNL     1      -7.255  10.299  65.205  1.00  0.00    -0.134 C  
HETATM    9  C   UNL     1     -10.158  15.466  68.405  1.00  0.00    -0.215 C  
HETATM   10  C   UNL     1      -6.487   8.998  65.089  1.00  0.00    -0.071 C  
HETATM   11  C   UNL     1      -9.316  16.366  68.969  1.00  0.00    -0.248 C  
HETATM   12  C   UNL     1     -11.636  15.613  68.654  1.00  0.00    -0.391 C  
HETATM   13  C   UNL     1      -6.281   8.498  63.631  1.00  0.00    -0.073 C  
HETATM   14  C   UNL     1      -5.186   9.079  65.893  1.00  0.00    -0.036 C  
HETATM   15  C   UNL     1      -7.601   8.473  62.843  1.00  0.00    -0.113 C  
HETATM   16  C   UNL     1     -12.240  14.385  69.334  1.00  0.00    -0.305 C  
HETATM   17  C   UNL     1     -12.035  12.886  66.795  1.00  0.00    -0.418 C  
HETATM   18  C   UNL     1      -5.228   9.255  62.818  1.00  0.00    -0.072 C  
HETATM   19  C   UNL     1     -11.412  13.075  69.160  1.00  0.00    -0.353 C  
HETATM   20  C   UNL     1     -10.808  12.978  67.721  1.00  0.00    -0.257 C  
ENDROOT
BRANCH  11  21
HETATM   21  C   UNL     1      -7.874  16.465  68.820  1.00  0.00    -0.220 C  
HETATM   22  C   UNL     1      -5.663  17.497  68.248  1.00  0.00    -0.151 C  
HETATM   23  C   UNL     1      -7.173  17.557  68.449  1.00  0.00    -0.226 C  
HETATM   24  C   UNL     1      -5.287  17.935  66.834  1.00  0.00    -0.142 C  
HETATM   25  O   UNL     1      -5.727  16.978  65.865  1.00  0.00    -0.152 OA 
HETATM   26  C   UNL     1      -5.863  19.313  66.496  1.00  0.00    -0.174 C  
HETATM   27  H   UNL     1      -5.493  17.250  64.985  1.00  0.00     0.000 HD 
HETATM   28  C   UNL     1      -7.372  19.386  66.755  1.00  0.00    -0.220 C  
HETATM   29  O   UNL     1      -7.798  20.739  66.575  1.00  0.00    -0.527 OA 
HETATM   30  C   UNL     1      -7.720  18.887  68.157  1.00  0.00    -0.316 C  
HETATM   31  H   UNL     1      -8.733  20.784  66.736  1.00  0.00     0.000 HD 
HETATM   32  C   UNL     1      -8.410  19.588  69.071  1.00  0.00    -0.222 C  
ENDBRANCH  11  21
TORSDOF 1
ENDMDL
MODEL       21
REMARK 921   NORMALIZED FREE ENERGY PREDICTED BY IDOCK:   -6.36 KCAL/MOL
REMARK 922        TOTAL FREE ENERGY PREDICTED BY IDOCK:   -7.18 KCAL/MOL
REMARK 923 INTER-LIGAND FREE ENERGY PREDICTED BY IDOCK:   -6.06 KCAL/MOL
REMARK 924 INTRA-LIGAND FREE ENERGY PREDICTED BY IDOCK:   -1.12 KCAL/MOL
REMARK 927      BINDING AFFINITY PREDICTED BY RF-SCORE:    0.00 PKD
ROOT
HETATM    1  C   UNL     1     -12.083  13.600  69.155  1.00  0.00    -0.361 C  
HETATM    2  C   UNL     1     -11.575  12.979  67.853  1.00  0.00    -0.385 C  
HETATM    3  C   UNL     1     -11.138  14.843  69.477  1.00  0.00    -0.301 C  
HETATM    4  C   UNL     1     -11.372  15.599  70.789  1.00  0.00    -0.400 C  
HETATM    5  C   UNL     1     -10.519  11.979  68.287  1.00  0.00    -0.218 C  
HETATM    6  C   UNL     1     -11.299  15.910  68.408  1.00  0.00    -0.361 C  
HETATM    7  C   UNL     1     -10.682  11.700  69.805  1.00  0.00     0.237 C  
HETATM    8  C   UNL     1     -10.308  16.488  67.704  1.00  0.00    -0.291 C  
HETATM    9  C   UNL     1     -10.537  10.195  70.092  1.00  0.00    -0.337 C  
HETATM   10  C   UNL     1     -10.597  17.608  66.725  1.00  0.00    -0.224 C  
HETATM   11  C   UNL     1      -9.797   9.277  69.425  1.00  0.00    -0.177 C  
HETATM   12  C   UNL     1     -11.439   9.719  71.200  1.00  0.00    -0.472 C  
HETATM   13  C   UNL     1     -10.005  18.988  67.132  1.00  0.00    -0.403 C  
HETATM   14  C   UNL     1     -10.221  17.181  65.304  1.00  0.00     0.211 C  
HETATM   15  C   UNL     1     -10.367  19.363  68.577  1.00  0.00    -0.413 C  
HETATM   16  C   UNL     1     -12.907  10.061  70.947  1.00  0.00    -0.408 C  
HETATM   17  C   UNL     1     -12.351  12.895  71.574  1.00  0.00     0.017 C  
HETATM   18  C   UNL     1      -8.494  19.138  66.939  1.00  0.00    -0.309 C  
HETATM   19  C   UNL     1     -13.136  11.235  69.948  1.00  0.00     0.520 C  
HETATM   20  C   UNL     1     -12.075  12.366  70.154  1.00  0.00    -0.366 C  
ENDROOT
BRANCH  11  21
HETATM   21  C   UNL     1      -8.818   9.503  68.374  1.00  0.00    -0.124 C  
HETATM   22  C   UNL     1      -6.690  10.293  67.313  1.00  0.00    -0.073 C  
HETATM   23  C   UNL     1      -7.585  10.032  68.519  1.00  0.00    -0.087 C  
HETATM   24  C   UNL     1      -6.287  11.765  67.247  1.00  0.00    -0.132 C  
HETATM   25  O   UNL     1      -7.412  12.593  66.934  1.00  0.00    -0.376 OA 
HETATM   26  C   UNL     1      -5.649  12.237  68.557  1.00  0.00    -0.054 C  
HETATM   27  H   UNL     1      -7.161  13.509  66.892  1.00  0.00     0.000 HD 
HETATM   28  C   UNL     1      -6.527  11.919  69.773  1.00  0.00    -0.077 C  
HETATM   29  O   UNL     1      -5.793  12.238  70.957  1.00  0.00    -0.459 OA 
HETATM   30  C   UNL     1      -6.959  10.454  69.777  1.00  0.00    -0.138 C  
HETATM   31  H   UNL     1      -6.337  12.041  71.711  1.00  0.00     0.000 HD 
HETATM   32  C   UNL     1      -6.757   9.599  70.793  1.00  0.00    -0.096 C  
ENDBRANCH  11  21
TORSDOF 1
ENDMDL
MODEL       22
REMARK 921   NORMALIZED FREE ENERGY PREDICTED BY IDOCK:   -6.36 KCAL/MOL
REMARK 922        TOTAL FREE ENERGY PREDICTED BY IDOCK:   -7.18 KCAL/MOL
REMARK 923 INTER-LIGAND FREE ENERGY PREDICTED BY IDOCK:   -6.29 KCAL/MOL
REMARK 924 INTRA-LIGAND FREE ENERGY PREDICTED BY IDOCK:   -0.89 KCAL/MOL
REMARK 927      BINDING AFFINITY PREDICTED BY RF-SCORE:    0.00 PKD
ROOT
HETATM    1  C   UNL     1      -8.585  10.991  66.428  1.00  0.00    -0.165 C  
HETATM    2  C   UNL     1      -8.371  10.831  67.934  1.00  0.00    -0.117 C  
HETATM    3  C   UNL     1      -9.616  12.190  66.229  1.00  0.00    -0.246 C  
HETATM    4  C   UNL     1     -10.080  12.507  64.803  1.00  0.00    -0.251 C  
HETATM    5  C   UNL     1      -9.464   9.880  68.383  1.00  0.00    -0.142 C  
HETATM    6  C   UNL     1      -8.997  13.493  66.709  1.00  0.00    -0.188 C  
HETATM    7  C   UNL     1     -10.050   9.161  67.139  1.00  0.00    -0.301 C  
HETATM    8  C   UNL     1      -9.542  14.359  67.582  1.00  0.00    -0.214 C  
HETATM    9  C   UNL     1     -10.257   7.665  67.431  1.00  0.00    -0.320 C  
HETATM   10  C   UNL     1      -8.857  15.671  67.909  1.00  0.00    -0.171 C  
HETATM   11  C   UNL     1     -10.542   7.069  68.615  1.00  0.00    -0.238 C  
HETATM   12  C   UNL     1      -9.990   6.790  66.235  1.00  0.00     0.032 C  
HETATM   13  C   UNL     1      -9.626  16.936  67.431  1.00  0.00    -0.241 C  
HETATM   14  C   UNL     1      -8.477  15.715  69.392  1.00  0.00    -0.244 C  
HETATM   15  C   UNL     1     -10.029  16.837  65.952  1.00  0.00    -0.299 C  
HETATM   16  C   UNL     1      -8.600   7.016  65.643  1.00  0.00    -0.121 C  
HETATM   17  C   UNL     1      -9.502   9.596  64.520  1.00  0.00    -0.182 C  
HETATM   18  C   UNL     1     -10.857  17.310  68.262  1.00  0.00    -0.287 C  
HETATM   19  C   UNL     1      -7.959   8.392  65.999  1.00  0.00    -0.101 C  
HETATM   20  C   UNL     1      -9.030   9.532  65.985  1.00  0.00    -0.198 C  
ENDROOT
BRANCH  11  21
HETATM   21  C   UNL     1     -10.894   7.698  69.876  1.00  0.00    -0.241 C  
HETATM   22  C   UNL     1     -10.698   8.319  72.296  1.00  0.00    -0.399 C  
HETATM   23  C   UNL     1     -10.167   7.689  71.014  1.00  0.00    -0.200 C  
HETATM   24  C   UNL     1     -10.740   7.293  73.427  1.00  0.00    -0.369 C  
HETATM   25  O   UNL     1     -11.738   6.297  73.182  1.00  0.00    -0.442 OA 
HETATM   26  C   UNL     1      -9.379   6.620  73.631  1.00  0.00    -0.173 C  
HETATM   27  H   UNL     1     -11.764   5.659  73.886  1.00  0.00     0.000 HD 
HETATM   28  C   UNL     1      -8.822   6.039  72.326  1.00  0.00    -0.138 C  
HETATM   29  O   UNL     1      -7.490   5.580  72.567  1.00  0.00    -0.093 OA 
HETATM   30  C   UNL     1      -8.849   7.073  71.202  1.00  0.00    -0.141 C  
HETATM   31  H   UNL     1      -7.145   5.220  71.758  1.00  0.00     0.000 HD 
HETATM   32  C   UNL     1      -7.782   7.440  70.474  1.00  0.00    -0.096 C  
ENDBRANCH  11  21
TORSDOF 1
ENDMDL
MODEL       23
REMARK 921   NORMALIZED FREE ENERGY PREDICTED BY IDOCK:   -6.34 KCAL/MOL
REMARK 922        TOTAL FREE ENERGY PREDICTED BY IDOCK:   -7.15 KCAL/MOL
REMARK 923 INTER-LIGAND FREE ENERGY PREDICTED BY IDOCK:   -6.42 KCAL/MOL
REMARK 924 INTRA-LIGAND FREE ENERGY PREDICTED BY IDOCK:   -0.73 KCAL/MOL
REMARK 927      BINDING AFFINITY PREDICTED BY RF-SCORE:    0.00 PKD
ROOT
HETATM    1  C   UNL     1      -8.818   7.372  67.114  1.00  0.00    -0.126 C  
HETATM    2  C   UNL     1     -10.289   7.787  67.145  1.00  0.00    -0.389 C  
HETATM    3  C   UNL     1      -8.243   7.590  68.585  1.00  0.00    -0.129 C  
HETATM    4  C   UNL     1      -6.749   7.333  68.816  1.00  0.00    -0.067 C  
HETATM    5  C   UNL     1     -10.279   9.275  66.849  1.00  0.00    -0.327 C  
HETATM    6  C   UNL     1      -8.929   6.645  69.558  1.00  0.00    -0.138 C  
HETATM    7  C   UNL     1      -8.902   9.660  66.246  1.00  0.00    -0.172 C  
HETATM    8  C   UNL     1      -9.529   6.988  70.712  1.00  0.00    -0.161 C  
HETATM    9  C   UNL     1      -9.086  10.622  65.060  1.00  0.00    -0.229 C  
HETATM   10  C   UNL     1     -10.099   5.933  71.638  1.00  0.00    -0.233 C  
HETATM   11  C   UNL     1     -10.066  11.537  64.861  1.00  0.00    -0.314 C  
HETATM   12  C   UNL     1      -8.081  10.400  63.961  1.00  0.00    -0.092 C  
HETATM   13  C   UNL     1      -9.368   5.811  73.006  1.00  0.00    -0.143 C  
HETATM   14  C   UNL     1     -11.614   6.110  71.773  1.00  0.00    -0.333 C  
HETATM   15  C   UNL     1      -7.847   5.679  72.831  1.00  0.00    -0.098 C  
HETATM   16  C   UNL     1      -8.071   8.956  63.461  1.00  0.00    -0.168 C  
HETATM   17  C   UNL     1      -6.698   8.112  65.938  1.00  0.00    -0.049 C  
HETATM   18  C   UNL     1      -9.662   6.928  74.010  1.00  0.00    -0.326 C  
HETATM   19  C   UNL     1      -8.652   7.917  64.468  1.00  0.00     0.165 C  
HETATM   20  C   UNL     1      -8.232   8.259  65.935  1.00  0.00    -0.119 C  
ENDROOT
BRANCH  11  21
HETATM   21  C   UNL     1     -11.098  11.965  65.790  1.00  0.00    -0.367 C  
HETATM   22  C   UNL     1     -12.283  13.455  67.420  1.00  0.00    -0.262 C  
HETATM   23  C   UNL     1     -11.191  13.168  66.397  1.00  0.00    -0.328 C  
HETATM   24  C   UNL     1     -11.675  13.882  68.755  1.00  0.00    -0.357 C  
HETATM   25  O   UNL     1     -10.995  12.791  69.384  1.00  0.00    -0.432 OA 
HETATM   26  C   UNL     1     -10.712  15.061  68.587  1.00  0.00    -0.244 C  
HETATM   27  H   UNL     1     -10.617  13.056  70.214  1.00  0.00     0.000 HD 
HETATM   28  C   UNL     1      -9.651  14.790  67.515  1.00  0.00    -0.208 C  
HETATM   29  O   UNL     1      -8.902  15.990  67.305  1.00  0.00    -0.182 OA 
HETATM   30  C   UNL     1     -10.288  14.310  66.212  1.00  0.00    -0.297 C  
HETATM   31  H   UNL     1      -8.245  15.822  66.640  1.00  0.00     0.000 HD 
HETATM   32  C   UNL     1     -10.102  14.882  65.012  1.00  0.00    -0.300 C  
ENDBRANCH  11  21
TORSDOF 1
ENDMDL
MODEL       24
REMARK 921   NORMALIZED FREE ENERGY PREDICTED BY IDOCK:   -6.30 KCAL/MOL
REMARK 922        TOTAL FREE ENERGY PREDICTED BY IDOCK:   -7.11 KCAL/MOL
REMARK 923 INTER-LIGAND FREE ENERGY PREDICTED BY IDOCK:   -6.03 KCAL/MOL
REMARK 924 INTRA-LIGAND FREE ENERGY PREDICTED BY IDOCK:   -1.08 KCAL/MOL
REMARK 927      BINDING AFFINITY PREDICTED BY RF-SCORE:    0.00 PKD
ROOT
HETATM    1  C   UNL     1      -8.519   9.900  66.542  1.00  0.00    -0.127 C  
HETATM    2  C   UNL     1      -7.520   8.918  67.154  1.00  0.00    -0.084 C  
HETATM    3  C   UNL     1      -9.946   9.560  67.165  1.00  0.00    -0.261 C  
HETATM    4  C   UNL     1     -11.158  10.344  66.649  1.00  0.00     0.039 C  
HETATM    5  C   UNL     1      -7.556   7.707  66.241  1.00  0.00    -0.088 C  
HETATM    6  C   UNL     1      -9.942   9.838  68.658  1.00  0.00    -0.181 C  
HETATM    7  C   UNL     1      -8.229   8.106  64.901  1.00  0.00    -0.150 C  
HETATM    8  C   UNL     1     -10.315   8.984  69.629  1.00  0.00    -0.217 C  
HETATM    9  C   UNL     1      -7.455   7.507  63.713  1.00  0.00    -0.108 C  
HETATM   10  C   UNL     1     -10.348   9.418  71.080  1.00  0.00    -0.377 C  
HETATM   11  C   UNL     1      -6.741   6.355  63.667  1.00  0.00    -0.040 C  
HETATM   12  C   UNL     1      -7.434   8.410  62.509  1.00  0.00    -0.101 C  
HETATM   13  C   UNL     1     -11.771   9.466  71.707  1.00  0.00    -0.444 C  
HETATM   14  C   UNL     1      -9.350   8.597  71.901  1.00  0.00    -0.357 C  
HETATM   15  C   UNL     1     -12.754  10.261  70.834  1.00  0.00    -0.462 C  
HETATM   16  C   UNL     1      -6.893   9.803  62.832  1.00  0.00    -0.110 C  
HETATM   17  C   UNL     1      -9.412  10.451  64.234  1.00  0.00    -0.349 C  
HETATM   18  C   UNL     1     -12.387   8.105  72.044  1.00  0.00    -0.380 C  
HETATM   19  C   UNL     1      -6.975  10.197  64.338  1.00  0.00    -0.106 C  
HETATM   20  C   UNL     1      -8.305   9.685  64.983  1.00  0.00    -0.146 C  
ENDROOT
BRANCH  11  21
HETATM   21  C   UNL     1      -6.660   5.307  64.670  1.00  0.00    -0.043 C  
HETATM   22  C   UNL     1      -7.459   3.489  66.199  1.00  0.00    -0.077 C  
HETATM   23  C   UNL     1      -7.661   4.493  65.071  1.00  0.00    -0.077 C  
HETATM   24  C   UNL     1      -8.468   3.726  67.322  1.00  0.00    -0.100 C  
HETATM   25  O   UNL     1      -8.200   4.956  68.003  1.00  0.00    -0.096 OA 
HETATM   26  C   UNL     1      -9.907   3.730  66.798  1.00  0.00    -0.050 C  
HETATM   27  H   UNL     1      -8.828   5.103  68.702  1.00  0.00     0.000 HD 
HETATM   28  C   UNL     1     -10.091   4.699  65.625  1.00  0.00    -0.218 C  
HETATM   29  O   UNL     1     -11.406   4.522  65.092  1.00  0.00    -1.034 OA 
HETATM   30  C   UNL     1      -9.031   4.473  64.547  1.00  0.00    -0.152 C  
HETATM   31  H   UNL     1     -11.519   5.123  64.365  1.00  0.00     0.000 HD 
HETATM   32  C   UNL     1      -9.294   4.229  63.253  1.00  0.00    -0.132 C  
ENDBRANCH  11  21
TORSDOF 1
ENDMDL
MODEL       25
REMARK 921   NORMALIZED FREE ENERGY PREDICTED BY IDOCK:   -6.28 KCAL/MOL
REMARK 922        TOTAL FREE ENERGY PREDICTED BY IDOCK:   -7.09 KCAL/MOL
REMARK 923 INTER-LIGAND FREE ENERGY PREDICTED BY IDOCK:   -5.98 KCAL/MOL
REMARK 924 INTRA-LIGAND FREE ENERGY PREDICTED BY IDOCK:   -1.12 KCAL/MOL
REMARK 927      BINDING AFFINITY PREDICTED BY RF-SCORE:    0.00 PKD
ROOT
HETATM    1  C   UNL     1     -11.408   8.596  72.211  1.00  0.00    -0.411 C  
HETATM    2  C   UNL     1      -9.915   8.923  72.160  1.00  0.00    -0.274 C  
HETATM    3  C   UNL     1     -11.558   7.051  71.849  1.00  0.00    -0.320 C  
HETATM    4  C   UNL     1     -12.975   6.476  71.738  1.00  0.00    -0.068 C  
HETATM    5  C   UNL     1      -9.649   9.302  70.716  1.00  0.00    -0.341 C  
HETATM    6  C   UNL     1     -10.903   6.199  72.923  1.00  0.00    -0.290 C  
HETATM    7  C   UNL     1     -11.001   9.605  70.017  1.00  0.00    -0.297 C  
HETATM    8  C   UNL     1      -9.988   5.232  72.724  1.00  0.00    -0.189 C  
HETATM    9  C   UNL     1     -10.881  10.861  69.136  1.00  0.00    -0.280 C  
HETATM   10  C   UNL     1      -9.477   4.392  73.877  1.00  0.00    -0.128 C  
HETATM   11  C   UNL     1      -9.789  11.332  68.485  1.00  0.00    -0.198 C  
HETATM   12  C   UNL     1     -12.137  11.691  69.121  1.00  0.00    -0.315 C  
HETATM   13  C   UNL     1      -9.878   2.891  73.809  1.00  0.00    -0.148 C  
HETATM   14  C   UNL     1      -7.974   4.612  74.067  1.00  0.00    -0.101 C  
HETATM   15  C   UNL     1     -11.386   2.712  73.574  1.00  0.00    -0.285 C  
HETATM   16  C   UNL     1     -12.597  12.083  70.524  1.00  0.00    -0.192 C  
HETATM   17  C   UNL     1     -13.512   9.313  70.993  1.00  0.00    -0.120 C  
HETATM   18  C   UNL     1      -9.109   2.051  72.786  1.00  0.00    -0.097 C  
HETATM   19  C   UNL     1     -12.054  11.168  71.664  1.00  0.00     0.223 C  
HETATM   20  C   UNL     1     -12.031   9.669  71.219  1.00  0.00    -0.462 C  
ENDROOT
BRANCH  11  21
HETATM   21  C   UNL     1      -8.499  10.687  68.308  1.00  0.00    -0.127 C  
HETATM   22  C   UNL     1      -6.843   8.988  67.502  1.00  0.00    -0.077 C  
HETATM   23  C   UNL     1      -8.229   9.620  67.526  1.00  0.00    -0.114 C  
HETATM   24  C   UNL     1      -6.915   7.509  67.876  1.00  0.00    -0.076 C  
HETATM   25  O   UNL     1      -7.263   7.343  69.254  1.00  0.00    -0.076 OA 
HETATM   26  C   UNL     1      -7.914   6.750  66.996  1.00  0.00    -0.109 C  
HETATM   27  H   UNL     1      -7.308   6.422  69.487  1.00  0.00     0.000 HD 
HETATM   28  C   UNL     1      -9.292   7.423  66.978  1.00  0.00    -0.149 C  
HETATM   29  O   UNL     1     -10.109   6.755  66.015  1.00  0.00    -0.398 OA 
HETATM   30  C   UNL     1      -9.178   8.913  66.658  1.00  0.00    -0.215 C  
HETATM   31  H   UNL     1     -10.963   7.172  66.004  1.00  0.00     0.000 HD 
HETATM   32  C   UNL     1      -9.827   9.533  65.660  1.00  0.00    -0.343 C  
ENDBRANCH  11  21
TORSDOF 1
ENDMDL
MODEL       26
REMARK 921   NORMALIZED FREE ENERGY PREDICTED BY IDOCK:   -6.26 KCAL/MOL
REMARK 922        TOTAL FREE ENERGY PREDICTED BY IDOCK:   -7.07 KCAL/MOL
REMARK 923 INTER-LIGAND FREE ENERGY PREDICTED BY IDOCK:   -6.56 KCAL/MOL
REMARK 924 INTRA-LIGAND FREE ENERGY PREDICTED BY IDOCK:   -0.51 KCAL/MOL
REMARK 927      BINDING AFFINITY PREDICTED BY RF-SCORE:    0.00 PKD
ROOT
HETATM    1  C   UNL     1     -10.645  10.370  66.566  1.00  0.00    -0.220 C  
HETATM    2  C   UNL     1     -11.126  11.294  67.685  1.00  0.00    -0.336 C  
HETATM    3  C   UNL     1      -9.220   9.807  67.006  1.00  0.00    -0.166 C  
HETATM    4  C   UNL     1      -8.463   8.917  66.014  1.00  0.00    -0.138 C  
HETATM    5  C   UNL     1     -10.554  12.655  67.337  1.00  0.00    -0.240 C  
HETATM    6  C   UNL     1      -9.364   8.935  68.242  1.00  0.00    -0.149 C  
HETATM    7  C   UNL     1     -10.105  12.649  65.852  1.00  0.00    -0.276 C  
HETATM    8  C   UNL     1      -8.669   9.056  69.388  1.00  0.00    -0.142 C  
HETATM    9  C   UNL     1     -10.525  13.957  65.158  1.00  0.00    -0.409 C  
HETATM   10  C   UNL     1      -8.847   8.060  70.517  1.00  0.00    -0.137 C  
HETATM   11  C   UNL     1     -10.667  15.191  65.701  1.00  0.00    -0.374 C  
HETATM   12  C   UNL     1     -10.922  13.758  63.719  1.00  0.00     0.416 C  
HETATM   13  C   UNL     1      -7.595   7.184  70.808  1.00  0.00    -0.089 C  
HETATM   14  C   UNL     1      -9.399   8.763  71.760  1.00  0.00    -0.350 C  
HETATM   15  C   UNL     1      -7.044   6.531  69.530  1.00  0.00    -0.073 C  
HETATM   16  C   UNL     1     -12.019  12.707  63.555  1.00  0.00    -0.630 C  
HETATM   17  C   UNL     1     -10.051  10.573  64.110  1.00  0.00    -0.351 C  
HETATM   18  C   UNL     1      -6.453   7.893  71.541  1.00  0.00    -0.039 C  
HETATM   19  C   UNL     1     -12.136  11.701  64.740  1.00  0.00     0.106 C  
HETATM   20  C   UNL     1     -10.725  11.306  65.285  1.00  0.00    -0.302 C  
ENDROOT
BRANCH  11  21
HETATM   21  C   UNL     1     -10.296  15.634  67.034  1.00  0.00    -0.289 C  
HETATM   22  C   UNL     1      -9.330  17.126  68.800  1.00  0.00    -0.252 C  
HETATM   23  C   UNL     1      -9.752  16.824  67.368  1.00  0.00    -0.245 C  
HETATM   24  C   UNL     1      -7.849  17.497  68.863  1.00  0.00    -0.197 C  
HETATM   25  O   UNL     1      -7.023  16.366  68.570  1.00  0.00    -0.142 OA 
HETATM   26  C   UNL     1      -7.512  18.643  67.903  1.00  0.00    -0.254 C  
HETATM   27  H   UNL     1      -6.102  16.596  68.609  1.00  0.00     0.000 HD 
HETATM   28  C   UNL     1      -7.991  18.359  66.475  1.00  0.00    -0.271 C  
HETATM   29  O   UNL     1      -7.788  19.534  65.687  1.00  0.00    -0.426 OA 
HETATM   30  C   UNL     1      -9.459  17.936  66.456  1.00  0.00    -0.307 C  
HETATM   31  H   UNL     1      -8.085  19.358  64.802  1.00  0.00     0.000 HD 
HETATM   32  C   UNL     1     -10.418  18.530  65.728  1.00  0.00    -0.277 C  
ENDBRANCH  11  21
TORSDOF 1
ENDMDL
MODEL       27
REMARK 921   NORMALIZED FREE ENERGY PREDICTED BY IDOCK:   -6.17 KCAL/MOL
REMARK 922        TOTAL FREE ENERGY PREDICTED BY IDOCK:   -6.97 KCAL/MOL
REMARK 923 INTER-LIGAND FREE ENERGY PREDICTED BY IDOCK:   -5.85 KCAL/MOL
REMARK 924 INTRA-LIGAND FREE ENERGY PREDICTED BY IDOCK:   -1.12 KCAL/MOL
REMARK 927      BINDING AFFINITY PREDICTED BY RF-SCORE:    0.00 PKD
ROOT
HETATM    1  C   UNL     1      -7.025  14.921  68.991  1.00  0.00    -0.120 C  
HETATM    2  C   UNL     1      -8.488  14.746  69.403  1.00  0.00     0.016 C  
HETATM    3  C   UNL     1      -7.005  15.941  67.767  1.00  0.00    -0.170 C  
HETATM    4  C   UNL     1      -5.657  16.227  67.094  1.00  0.00    -0.064 C  
HETATM    5  C   UNL     1      -9.002  13.613  68.535  1.00  0.00    -0.102 C  
HETATM    6  C   UNL     1      -7.483  17.310  68.222  1.00  0.00    -0.224 C  
HETATM    7  C   UNL     1      -7.793  12.852  67.930  1.00  0.00    -0.151 C  
HETATM    8  C   UNL     1      -8.456  18.044  67.652  1.00  0.00    -0.239 C  
HETATM    9  C   UNL     1      -8.026  11.332  68.000  1.00  0.00    -0.119 C  
HETATM   10  C   UNL     1      -8.775  19.439  68.152  1.00  0.00    -0.370 C  
HETATM   11  C   UNL     1      -9.200  10.657  67.954  1.00  0.00    -0.150 C  
HETATM   12  C   UNL     1      -6.763  10.555  68.261  1.00  0.00    -0.060 C  
HETATM   13  C   UNL     1      -8.453  20.576  67.141  1.00  0.00    -0.357 C  
HETATM   14  C   UNL     1     -10.207  19.492  68.691  1.00  0.00    -0.481 C  
HETATM   15  C   UNL     1      -7.023  20.463  66.590  1.00  0.00    -0.306 C  
HETATM   16  C   UNL     1      -6.035  11.027  69.519  1.00  0.00    -0.064 C  
HETATM   17  C   UNL     1      -5.157  13.462  68.092  1.00  0.00    -0.103 C  
HETATM   18  C   UNL     1      -9.432  20.713  65.972  1.00  0.00     0.143 C  
HETATM   19  C   UNL     1      -6.392  12.477  69.969  1.00  0.00     0.006 C  
HETATM   20  C   UNL     1      -6.556  13.425  68.736  1.00  0.00    -0.102 C  
ENDROOT
BRANCH  11  21
HETATM   21  C   UNL     1     -10.524  11.175  67.656  1.00  0.00    -0.230 C  
HETATM   22  C   UNL     1     -12.391  12.130  66.283  1.00  0.00     0.522 C  
HETATM   23  C   UNL     1     -11.006  11.514  66.441  1.00  0.00    -0.336 C  
HETATM   24  C   UNL     1     -12.305  13.486  65.585  1.00  0.00    -0.476 C  
HETATM   25  O   UNL     1     -11.671  14.457  66.423  1.00  0.00    -0.368 OA 
HETATM   26  C   UNL     1     -11.556  13.389  64.251  1.00  0.00    -0.442 C  
HETATM   27  H   UNL     1     -11.617  15.301  65.989  1.00  0.00     0.000 HD 
HETATM   28  C   UNL     1     -10.188  12.716  64.406  1.00  0.00    -0.318 C  
HETATM   29  O   UNL     1      -9.631  12.516  63.105  1.00  0.00    -0.482 OA 
HETATM   30  C   UNL     1     -10.303  11.391  65.159  1.00  0.00    -0.344 C  
HETATM   31  H   UNL     1      -8.783  12.099  63.201  1.00  0.00     0.000 HD 
HETATM   32  C   UNL     1      -9.861  10.209  64.701  1.00  0.00    -0.361 C  
ENDBRANCH  11  21
TORSDOF 1
ENDMDL
MODEL       28
REMARK 921   NORMALIZED FREE ENERGY PREDICTED BY IDOCK:   -6.16 KCAL/MOL
REMARK 922        TOTAL FREE ENERGY PREDICTED BY IDOCK:   -6.96 KCAL/MOL
REMARK 923 INTER-LIGAND FREE ENERGY PREDICTED BY IDOCK:   -6.31 KCAL/MOL
REMARK 924 INTRA-LIGAND FREE ENERGY PREDICTED BY IDOCK:   -0.65 KCAL/MOL
REMARK 927      BINDING AFFINITY PREDICTED BY RF-SCORE:    0.00 PKD
ROOT
HETATM    1  C   UNL     1     -12.368  12.148  69.711  1.00  0.00    -0.091 C  
HETATM    2  C   UNL     1     -11.538  11.304  68.743  1.00  0.00    -0.383 C  
HETATM    3  C   UNL     1     -11.529  13.470  70.012  1.00  0.00    -0.141 C  
HETATM    4  C   UNL     1     -12.095  14.461  71.035  1.00  0.00    -0.417 C  
HETATM    5  C   UNL     1     -10.648  10.457  69.632  1.00  0.00    -0.289 C  
HETATM    6  C   UNL     1     -11.387  14.296  68.745  1.00  0.00    -0.303 C  
HETATM    7  C   UNL     1     -11.211  10.477  71.077  1.00  0.00     0.067 C  
HETATM    8  C   UNL     1     -10.239  14.766  68.224  1.00  0.00    -0.227 C  
HETATM    9  C   UNL     1     -11.166   9.067  71.691  1.00  0.00    -0.431 C  
HETATM   10  C   UNL     1     -10.244  15.657  66.999  1.00  0.00    -0.274 C  
HETATM   11  C   UNL     1     -10.284   8.068  71.442  1.00  0.00    -0.239 C  
HETATM   12  C   UNL     1     -12.335   8.781  72.595  1.00  0.00    -0.254 C  
HETATM   13  C   UNL     1      -9.767  17.114  67.258  1.00  0.00    -0.254 C  
HETATM   14  C   UNL     1      -9.508  14.973  65.843  1.00  0.00    -0.313 C  
HETATM   15  C   UNL     1     -10.496  17.752  68.451  1.00  0.00    -0.351 C  
HETATM   16  C   UNL     1     -13.679   9.002  71.901  1.00  0.00    -0.495 C  
HETATM   17  C   UNL     1     -13.278  11.925  72.066  1.00  0.00    -0.461 C  
HETATM   18  C   UNL     1      -8.257  17.288  67.444  1.00  0.00    -0.204 C  
HETATM   19  C   UNL     1     -13.621   9.944  70.661  1.00  0.00     0.135 C  
HETATM   20  C   UNL     1     -12.640  11.138  70.906  1.00  0.00    -0.483 C  
ENDROOT
BRANCH  11  21
HETATM   21  C   UNL     1      -9.059   8.123  70.663  1.00  0.00    -0.156 C  
HETATM   22  C   UNL     1      -6.598   8.050  70.196  1.00  0.00    -0.037 C  
HETATM   23  C   UNL     1      -7.809   7.869  71.103  1.00  0.00    -0.086 C  
HETATM   24  C   UNL     1      -5.602   9.032  70.809  1.00  0.00    -0.034 C  
HETATM   25  O   UNL     1      -6.132  10.362  70.821  1.00  0.00    -0.177 OA 
HETATM   26  C   UNL     1      -5.206   8.622  72.231  1.00  0.00    -0.044 C  
HETATM   27  H   UNL     1      -5.512  10.973  71.203  1.00  0.00     0.000 HD 
HETATM   28  C   UNL     1      -6.429   8.385  73.124  1.00  0.00    -0.099 C  
HETATM   29  O   UNL     1      -5.981   7.851  74.372  1.00  0.00    -0.082 OA 
HETATM   30  C   UNL     1      -7.430   7.444  72.456  1.00  0.00    -0.082 C  
HETATM   31  H   UNL     1      -6.740   7.704  74.926  1.00  0.00     0.000 HD 
HETATM   32  C   UNL     1      -7.899   6.311  73.002  1.00  0.00    -0.103 C  
ENDBRANCH  11  21
TORSDOF 1
ENDMDL
MODEL       29
REMARK 921   NORMALIZED FREE ENERGY PREDICTED BY IDOCK:   -6.13 KCAL/MOL
REMARK 922        TOTAL FREE ENERGY PREDICTED BY IDOCK:   -6.93 KCAL/MOL
REMARK 923 INTER-LIGAND FREE ENERGY PREDICTED BY IDOCK:   -6.49 KCAL/MOL
REMARK 924 INTRA-LIGAND FREE ENERGY PREDICTED BY IDOCK:   -0.45 KCAL/MOL
REMARK 927      BINDING AFFINITY PREDICTED BY RF-SCORE:    0.00 PKD
ROOT
HETATM    1  C   UNL     1      -8.537  11.523  66.220  1.00  0.00    -0.133 C  
HETATM    2  C   UNL     1      -7.911  11.353  67.605  1.00  0.00    -0.123 C  
HETATM    3  C   UNL     1      -9.638  12.669  66.344  1.00  0.00    -0.248 C  
HETATM    4  C   UNL     1     -10.489  12.981  65.109  1.00  0.00    -0.335 C  
HETATM    5  C   UNL     1      -8.794  10.338  68.308  1.00  0.00    -0.126 C  
HETATM    6  C   UNL     1      -8.973  13.995  66.674  1.00  0.00    -0.177 C  
HETATM    7  C   UNL     1      -9.663   9.608  67.251  1.00  0.00    -0.213 C  
HETATM    8  C   UNL     1      -9.298  14.819  67.687  1.00  0.00    -0.195 C  
HETATM    9  C   UNL     1      -9.712   8.098  67.546  1.00  0.00    -0.207 C  
HETATM   10  C   UNL     1      -8.612  16.160  67.852  1.00  0.00    -0.169 C  
HETATM   11  C   UNL     1      -9.634   7.471  68.745  1.00  0.00    -0.149 C  
HETATM   12  C   UNL     1      -9.742   7.256  66.298  1.00  0.00    -0.068 C  
HETATM   13  C   UNL     1      -9.541  17.390  67.638  1.00  0.00    -0.261 C  
HETATM   14  C   UNL     1      -7.843  16.202  69.175  1.00  0.00    -0.232 C  
HETATM   15  C   UNL     1     -10.328  17.290  66.322  1.00  0.00    -0.323 C  
HETATM   16  C   UNL     1      -8.579   7.564  65.356  1.00  0.00    -0.069 C  
HETATM   17  C   UNL     1      -9.874  10.109  64.596  1.00  0.00    -0.361 C  
HETATM   18  C   UNL     1     -10.514  17.685  68.783  1.00  0.00    -0.287 C  
HETATM   19  C   UNL     1      -7.931   8.967  65.563  1.00  0.00    -0.106 C  
HETATM   20  C   UNL     1      -9.017  10.049  65.874  1.00  0.00    -0.182 C  
ENDROOT
BRANCH  11  21
HETATM   21  C   UNL     1      -9.655   8.062  70.072  1.00  0.00    -0.171 C  
HETATM   22  C   UNL     1      -9.656   8.149  72.576  1.00  0.00    -0.347 C  
HETATM   23  C   UNL     1      -9.528   7.413  71.248  1.00  0.00    -0.159 C  
HETATM   24  C   UNL     1     -10.762   7.534  73.432  1.00  0.00    -0.332 C  
HETATM   25  O   UNL     1     -12.051   7.778  72.862  1.00  0.00    -0.597 OA 
HETATM   26  C   UNL     1     -10.559   6.027  73.621  1.00  0.00    -0.281 C  
HETATM   27  H   UNL     1     -12.739   7.395  73.394  1.00  0.00     0.000 HD 
HETATM   28  C   UNL     1     -10.371   5.299  72.285  1.00  0.00    -0.212 C  
HETATM   29  O   UNL     1     -10.026   3.939  72.555  1.00  0.00    -0.148 OA 
HETATM   30  C   UNL     1      -9.300   5.974  71.430  1.00  0.00    -0.159 C  
HETATM   31  H   UNL     1      -9.910   3.488  71.727  1.00  0.00     0.000 HD 
HETATM   32  C   UNL     1      -8.222   5.356  70.923  1.00  0.00    -0.117 C  
ENDBRANCH  11  21
TORSDOF 1
ENDMDL
MODEL       30
REMARK 921   NORMALIZED FREE ENERGY PREDICTED BY IDOCK:   -6.09 KCAL/MOL
REMARK 922        TOTAL FREE ENERGY PREDICTED BY IDOCK:   -6.89 KCAL/MOL
REMARK 923 INTER-LIGAND FREE ENERGY PREDICTED BY IDOCK:   -5.83 KCAL/MOL
REMARK 924 INTRA-LIGAND FREE ENERGY PREDICTED BY IDOCK:   -1.06 KCAL/MOL
REMARK 927      BINDING AFFINITY PREDICTED BY RF-SCORE:    0.00 PKD
ROOT
HETATM    1  C   UNL     1      -5.733  14.068  68.714  1.00  0.00    -0.085 C  
HETATM    2  C   UNL     1      -6.329  13.315  67.524  1.00  0.00    -0.130 C  
HETATM    3  C   UNL     1      -6.174  13.283  70.029  1.00  0.00    -0.079 C  
HETATM    4  C   UNL     1      -5.783  13.881  71.386  1.00  0.00    -0.220 C  
HETATM    5  C   UNL     1      -7.711  13.913  67.339  1.00  0.00    -0.165 C  
HETATM    6  C   UNL     1      -5.544  11.900  70.046  1.00  0.00    -0.124 C  
HETATM    7  C   UNL     1      -7.786  15.258  68.108  1.00  0.00    -0.120 C  
HETATM    8  C   UNL     1      -6.191  10.733  70.217  1.00  0.00    -0.146 C  
HETATM    9  C   UNL     1      -8.500  16.324  67.258  1.00  0.00    -0.199 C  
HETATM   10  C   UNL     1      -5.429   9.425  70.303  1.00  0.00    -0.031 C  
HETATM   11  C   UNL     1      -9.471  16.149  66.329  1.00  0.00    -0.347 C  
HETATM   12  C   UNL     1      -7.930  17.705  67.447  1.00  0.00    -0.217 C  
HETATM   13  C   UNL     1      -5.499   8.727  71.691  1.00  0.00    -0.044 C  
HETATM   14  C   UNL     1      -5.821   8.507  69.141  1.00  0.00    -0.039 C  
HETATM   15  C   UNL     1      -5.142   9.691  72.834  1.00  0.00    -0.052 C  
HETATM   16  C   UNL     1      -6.425  17.758  67.189  1.00  0.00    -0.191 C  
HETATM   17  C   UNL     1      -5.942  16.371  69.753  1.00  0.00    -0.201 C  
HETATM   18  C   UNL     1      -6.827   8.037  72.014  1.00  0.00    -0.072 C  
HETATM   19  C   UNL     1      -5.698  16.384  67.313  1.00  0.00    -0.167 C  
HETATM   20  C   UNL     1      -6.278  15.545  68.498  1.00  0.00    -0.098 C  
ENDROOT
BRANCH  11  21
HETATM   21  C   UNL     1     -10.209  14.937  66.017  1.00  0.00    -0.317 C  
HETATM   22  C   UNL     1     -11.696  12.958  66.405  1.00  0.00    -0.454 C  
HETATM   23  C   UNL     1     -11.053  14.271  66.834  1.00  0.00    -0.315 C  
HETATM   24  C   UNL     1     -11.360  11.842  67.393  1.00  0.00    -0.311 C  
HETATM   25  O   UNL     1      -9.972  11.497  67.328  1.00  0.00    -0.189 OA 
HETATM   26  C   UNL     1     -11.728  12.228  68.829  1.00  0.00    -0.390 C  
HETATM   27  H   UNL     1      -9.763  10.803  67.943  1.00  0.00     0.000 HD 
HETATM   28  C   UNL     1     -11.126  13.578  69.235  1.00  0.00    -0.179 C  
HETATM   29  O   UNL     1     -11.648  13.940  70.516  1.00  0.00    -0.496 OA 
HETATM   30  C   UNL     1     -11.432  14.657  68.198  1.00  0.00    -0.346 C  
HETATM   31  H   UNL     1     -11.275  14.777  70.768  1.00  0.00     0.000 HD 
HETATM   32  C   UNL     1     -12.031  15.829  68.464  1.00  0.00    -0.109 C  
ENDBRANCH  11  21
TORSDOF 1
ENDMDL
MODEL       31
REMARK 921   NORMALIZED FREE ENERGY PREDICTED BY IDOCK:   -6.08 KCAL/MOL
REMARK 922        TOTAL FREE ENERGY PREDICTED BY IDOCK:   -6.88 KCAL/MOL
REMARK 923 INTER-LIGAND FREE ENERGY PREDICTED BY IDOCK:   -6.32 KCAL/MOL
REMARK 924 INTRA-LIGAND FREE ENERGY PREDICTED BY IDOCK:   -0.56 KCAL/MOL
REMARK 927      BINDING AFFINITY PREDICTED BY RF-SCORE:    0.00 PKD
ROOT
HETATM    1  C   UNL     1      -6.937   9.268  69.152  1.00  0.00    -0.058 C  
HETATM    2  C   UNL     1      -8.081   9.172  68.141  1.00  0.00    -0.104 C  
HETATM    3  C   UNL     1      -7.559   8.967  70.588  1.00  0.00    -0.125 C  
HETATM    4  C   UNL     1      -6.638   9.088  71.808  1.00  0.00    -0.017 C  
HETATM    5  C   UNL     1      -8.680  10.565  68.100  1.00  0.00    -0.130 C  
HETATM    6  C   UNL     1      -8.059   7.534  70.650  1.00  0.00    -0.109 C  
HETATM    7  C   UNL     1      -7.678  11.564  68.736  1.00  0.00    -0.124 C  
HETATM    8  C   UNL     1      -9.287   7.133  71.028  1.00  0.00    -0.158 C  
HETATM    9  C   UNL     1      -7.600  12.852  67.897  1.00  0.00    -0.138 C  
HETATM   10  C   UNL     1      -9.630   5.661  71.131  1.00  0.00    -0.208 C  
HETATM   11  C   UNL     1      -8.568  13.425  67.141  1.00  0.00    -0.201 C  
HETATM   12  C   UNL     1      -6.218  13.449  67.863  1.00  0.00    -0.147 C  
HETATM   13  C   UNL     1      -9.917   5.165  72.577  1.00  0.00    -0.214 C  
HETATM   14  C   UNL     1     -10.737   5.304  70.135  1.00  0.00    -0.217 C  
HETATM   15  C   UNL     1      -8.806   5.579  73.555  1.00  0.00    -0.122 C  
HETATM   16  C   UNL     1      -5.162  12.453  67.386  1.00  0.00    -0.092 C  
HETATM   17  C   UNL     1      -5.326  11.042  69.977  1.00  0.00    -0.056 C  
HETATM   18  C   UNL     1     -11.273   5.576  73.156  1.00  0.00    -0.321 C  
HETATM   19  C   UNL     1      -5.567  10.955  67.538  1.00  0.00    -0.044 C  
HETATM   20  C   UNL     1      -6.348  10.716  68.871  1.00  0.00    -0.045 C  
ENDROOT
BRANCH  11  21
HETATM   21  C   UNL     1      -9.974  13.070  67.060  1.00  0.00    -0.242 C  
HETATM   22  C   UNL     1     -12.083  12.145  66.073  1.00  0.00    -0.101 C  
HETATM   23  C   UNL     1     -10.577  12.373  66.073  1.00  0.00    -0.286 C  
HETATM   24  C   UNL     1     -12.713  12.687  64.791  1.00  0.00    -0.379 C  
HETATM   25  O   UNL     1     -12.656  14.116  64.754  1.00  0.00    -0.608 OA 
HETATM   26  C   UNL     1     -12.038  12.112  63.542  1.00  0.00    -0.649 C  
HETATM   27  H   UNL     1     -13.048  14.453  63.957  1.00  0.00     0.000 HD 
HETATM   28  C   UNL     1     -10.516  12.292  63.575  1.00  0.00    -0.424 C  
HETATM   29  O   UNL     1      -9.953  11.589  62.465  1.00  0.00    -0.538 OA 
HETATM   30  C   UNL     1      -9.926  11.793  64.893  1.00  0.00    -0.280 C  
HETATM   31  H   UNL     1      -9.009  11.701  62.486  1.00  0.00     0.000 HD 
HETATM   32  C   UNL     1      -8.947  10.881  64.997  1.00  0.00    -0.184 C  
ENDBRANCH  11  21
TORSDOF 1
ENDMDL
MODEL       32
REMARK 921   NORMALIZED FREE ENERGY PREDICTED BY IDOCK:   -5.96 KCAL/MOL
REMARK 922        TOTAL FREE ENERGY PREDICTED BY IDOCK:   -6.75 KCAL/MOL
REMARK 923 INTER-LIGAND FREE ENERGY PREDICTED BY IDOCK:   -5.72 KCAL/MOL
REMARK 924 INTRA-LIGAND FREE ENERGY PREDICTED BY IDOCK:   -1.03 KCAL/MOL
REMARK 927      BINDING AFFINITY PREDICTED BY RF-SCORE:    0.00 PKD
ROOT
HETATM    1  C   UNL     1     -11.858   9.436  69.706  1.00  0.00     0.298 C  
HETATM    2  C   UNL     1     -10.863   9.869  68.628  1.00  0.00    -0.244 C  
HETATM    3  C   UNL     1     -11.856  10.573  70.823  1.00  0.00    -0.465 C  
HETATM    4  C   UNL     1     -12.708  10.347  72.077  1.00  0.00    -0.365 C  
HETATM    5  C   UNL     1      -9.526   9.321  69.091  1.00  0.00    -0.157 C  
HETATM    6  C   UNL     1     -12.396  11.871  70.246  1.00  0.00    -0.287 C  
HETATM    7  C   UNL     1      -9.773   8.242  70.179  1.00  0.00    -0.176 C  
HETATM    8  C   UNL     1     -11.798  13.075  70.297  1.00  0.00    -0.294 C  
HETATM    9  C   UNL     1      -8.858   7.027  69.946  1.00  0.00    -0.142 C  
HETATM   10  C   UNL     1     -12.488  14.312  69.759  1.00  0.00    -0.264 C  
HETATM   11  C   UNL     1      -7.623   6.996  69.389  1.00  0.00    -0.099 C  
HETATM   12  C   UNL     1      -9.515   5.720  70.304  1.00  0.00    -0.196 C  
HETATM   13  C   UNL     1     -12.864  15.364  70.842  1.00  0.00    -0.536 C  
HETATM   14  C   UNL     1     -11.688  14.900  68.593  1.00  0.00    -0.358 C  
HETATM   15  C   UNL     1     -13.627  14.730  72.015  1.00  0.00    -0.502 C  
HETATM   16  C   UNL     1     -10.844   5.515  69.579  1.00  0.00    -0.254 C  
HETATM   17  C   UNL     1     -12.110   7.519  71.344  1.00  0.00    -0.354 C  
HETATM   18  C   UNL     1     -11.697  16.189  71.390  1.00  0.00    -0.506 C  
HETATM   19  C   UNL     1     -11.513   6.828  69.068  1.00  0.00    -0.072 C  
HETATM   20  C   UNL     1     -11.334   7.990  70.100  1.00  0.00    -0.081 C  
ENDROOT
BRANCH  11  21
HETATM   21  C   UNL     1      -6.774   8.117  69.023  1.00  0.00    -0.048 C  
HETATM   22  C   UNL     1      -5.143   9.994  69.335  1.00  0.00    -0.035 C  
HETATM   23  C   UNL     1      -5.912   8.775  69.828  1.00  0.00    -0.028 C  
HETATM   24  C   UNL     1      -5.426  11.208  70.218  1.00  0.00    -0.102 C  
HETATM   25  O   UNL     1      -6.776  11.656  70.059  1.00  0.00    -0.331 OA 
HETATM   26  C   UNL     1      -5.154  10.908  71.696  1.00  0.00    -0.021 C  
HETATM   27  H   UNL     1      -6.952  12.412  70.609  1.00  0.00     0.000 HD 
HETATM   28  C   UNL     1      -5.884   9.647  72.172  1.00  0.00     0.164 C  
HETATM   29  O   UNL     1      -5.450   9.347  73.500  1.00  0.00    -0.201 OA 
HETATM   30  C   UNL     1      -5.626   8.468  71.234  1.00  0.00    -0.035 C  
HETATM   31  H   UNL     1      -5.903   8.565  73.795  1.00  0.00     0.000 HD 
HETATM   32  C   UNL     1      -5.139   7.277  71.617  1.00  0.00    -0.027 C  
ENDBRANCH  11  21
TORSDOF 1
ENDMDL
MODEL       33
REMARK 921   NORMALIZED FREE ENERGY PREDICTED BY IDOCK:   -5.92 KCAL/MOL
REMARK 922        TOTAL FREE ENERGY PREDICTED BY IDOCK:   -6.71 KCAL/MOL
REMARK 923 INTER-LIGAND FREE ENERGY PREDICTED BY IDOCK:   -5.72 KCAL/MOL
REMARK 924 INTRA-LIGAND FREE ENERGY PREDICTED BY IDOCK:   -1.00 KCAL/MOL
REMARK 927      BINDING AFFINITY PREDICTED BY RF-SCORE:    0.00 PKD
ROOT
HETATM    1  C   UNL     1      -8.323  10.001  67.234  1.00  0.00    -0.121 C  
HETATM    2  C   UNL     1      -7.456   8.971  67.960  1.00  0.00    -0.084 C  
HETATM    3  C   UNL     1      -9.837   9.689  67.620  1.00  0.00    -0.202 C  
HETATM    4  C   UNL     1     -10.934  10.526  66.950  1.00  0.00    -0.199 C  
HETATM    5  C   UNL     1      -7.385   7.788  67.013  1.00  0.00    -0.091 C  
HETATM    6  C   UNL     1     -10.055   9.924  69.105  1.00  0.00    -0.210 C  
HETATM    7  C   UNL     1      -7.831   8.246  65.599  1.00  0.00    -0.104 C  
HETATM    8  C   UNL     1     -10.596   9.055  69.978  1.00  0.00    -0.246 C  
HETATM    9  C   UNL     1      -6.901   7.656  64.525  1.00  0.00    -0.055 C  
HETATM   10  C   UNL     1     -10.841   9.449  71.421  1.00  0.00    -0.430 C  
HETATM   11  C   UNL     1      -6.219   6.485  64.551  1.00  0.00    -0.037 C  
HETATM   12  C   UNL     1      -6.670   8.593  63.368  1.00  0.00    -0.089 C  
HETATM   13  C   UNL     1     -12.341   9.524  71.823  1.00  0.00    -0.474 C  
HETATM   14  C   UNL     1     -10.003   8.574  72.357  1.00  0.00    -0.365 C  
HETATM   15  C   UNL     1     -13.157  10.374  70.837  1.00  0.00    -0.412 C  
HETATM   16  C   UNL     1      -6.148   9.957  63.815  1.00  0.00    -0.123 C  
HETATM   17  C   UNL     1      -8.835  10.645  64.836  1.00  0.00    -0.204 C  
HETATM   18  C   UNL     1     -13.038   8.175  72.018  1.00  0.00    -0.317 C  
HETATM   19  C   UNL     1      -6.450  10.311  65.303  1.00  0.00    -0.122 C  
HETATM   20  C   UNL     1      -7.877   9.824  65.720  1.00  0.00    -0.110 C  
ENDROOT
BRANCH  11  21
HETATM   21  C   UNL     1      -6.323   5.406  65.519  1.00  0.00    -0.035 C  
HETATM   22  C   UNL     1      -7.411   3.619  66.897  1.00  0.00    -0.079 C  
HETATM   23  C   UNL     1      -7.419   4.666  65.791  1.00  0.00    -0.081 C  
HETATM   24  C   UNL     1      -8.506   3.906  67.924  1.00  0.00    -0.094 C  
HETATM   25  O   UNL     1      -8.212   5.091  68.671  1.00  0.00    -0.085 OA 
HETATM   26  C   UNL     1      -9.881   4.042  67.261  1.00  0.00    -0.132 C  
HETATM   27  H   UNL     1      -8.893   5.270  69.309  1.00  0.00     0.000 HD 
HETATM   28  C   UNL     1      -9.868   5.054  66.110  1.00  0.00    -0.198 C  
HETATM   29  O   UNL     1     -11.133   5.000  65.446  1.00  0.00    -0.733 OA 
HETATM   30  C   UNL     1      -8.727   4.772  65.135  1.00  0.00    -0.144 C  
HETATM   31  H   UNL     1     -11.125   5.627  64.733  1.00  0.00     0.000 HD 
HETATM   32  C   UNL     1      -8.877   4.586  63.814  1.00  0.00    -0.140 C  
ENDBRANCH  11  21
TORSDOF 1
ENDMDL
MODEL       34
REMARK 921   NORMALIZED FREE ENERGY PREDICTED BY IDOCK:   -5.92 KCAL/MOL
REMARK 922        TOTAL FREE ENERGY PREDICTED BY IDOCK:   -6.71 KCAL/MOL
REMARK 923 INTER-LIGAND FREE ENERGY PREDICTED BY IDOCK:   -5.60 KCAL/MOL
REMARK 924 INTRA-LIGAND FREE ENERGY PREDICTED BY IDOCK:   -1.11 KCAL/MOL
REMARK 927      BINDING AFFINITY PREDICTED BY RF-SCORE:    0.00 PKD
ROOT
HETATM    1  C   UNL     1      -9.744   8.109  66.619  1.00  0.00    -0.318 C  
HETATM    2  C   UNL     1     -10.775   7.098  67.123  1.00  0.00    -0.422 C  
HETATM    3  C   UNL     1      -8.330   7.374  66.625  1.00  0.00    -0.124 C  
HETATM    4  C   UNL     1      -7.093   8.196  66.245  1.00  0.00    -0.073 C  
HETATM    5  C   UNL     1     -10.771   7.260  68.632  1.00  0.00    -0.172 C  
HETATM    6  C   UNL     1      -8.332   6.234  65.619  1.00  0.00    -0.147 C  
HETATM    7  C   UNL     1     -10.082   8.602  68.994  1.00  0.00    -0.207 C  
HETATM    8  C   UNL     1      -7.989   4.956  65.863  1.00  0.00    -0.107 C  
HETATM    9  C   UNL     1     -10.868   9.328  70.099  1.00  0.00    -0.275 C  
HETATM   10  C   UNL     1      -7.948   3.933  64.746  1.00  0.00    -0.089 C  
HETATM   11  C   UNL     1     -11.616   8.791  71.093  1.00  0.00    -0.344 C  
HETATM   12  C   UNL     1     -10.858  10.826  69.941  1.00  0.00    -0.264 C  
HETATM   13  C   UNL     1      -6.527   3.393  64.417  1.00  0.00    -0.034 C  
HETATM   14  C   UNL     1      -8.973   2.825  65.006  1.00  0.00    -0.134 C  
HETATM   15  C   UNL     1      -5.517   4.532  64.207  1.00  0.00    -0.013 C  
HETATM   16  C   UNL     1     -11.358  11.273  68.569  1.00  0.00    -0.341 C  
HETATM   17  C   UNL     1      -8.826  10.355  67.352  1.00  0.00    -0.133 C  
HETATM   18  C   UNL     1      -5.953   2.394  65.426  1.00  0.00    -0.019 C  
HETATM   19  C   UNL     1     -11.271  10.181  67.459  1.00  0.00    -0.123 C  
HETATM   20  C   UNL     1      -9.959   9.341  67.598  1.00  0.00    -0.245 C  
ENDROOT
BRANCH  11  21
HETATM   21  C   UNL     1     -11.732   7.394  71.477  1.00  0.00    -0.314 C  
HETATM   22  C   UNL     1     -11.011   5.156  72.345  1.00  0.00    -0.244 C  
HETATM   23  C   UNL     1     -10.786   6.639  72.077  1.00  0.00    -0.263 C  
HETATM   24  C   UNL     1      -9.922   4.314  71.682  1.00  0.00    -0.180 C  
HETATM   25  O   UNL     1     -10.040   4.352  70.256  1.00  0.00    -0.218 OA 
HETATM   26  C   UNL     1      -8.521   4.774  72.096  1.00  0.00    -0.119 C  
HETATM   27  H   UNL     1      -9.363   3.828  69.844  1.00  0.00     0.000 HD 
HETATM   28  C   UNL     1      -8.320   6.278  71.878  1.00  0.00    -0.117 C  
HETATM   29  O   UNL     1      -7.059   6.652  72.438  1.00  0.00    -0.071 OA 
HETATM   30  C   UNL     1      -9.455   7.086  72.504  1.00  0.00    -0.161 C  
HETATM   31  H   UNL     1      -6.934   7.584  72.303  1.00  0.00     0.000 HD 
HETATM   32  C   UNL     1      -9.290   8.077  73.394  1.00  0.00    -0.323 C  
ENDBRANCH  11  21
TORSDOF 1
ENDMDL
MODEL       35
REMARK 921   NORMALIZED FREE ENERGY PREDICTED BY IDOCK:   -5.92 KCAL/MOL
REMARK 922        TOTAL FREE ENERGY PREDICTED BY IDOCK:   -6.71 KCAL/MOL
REMARK 923 INTER-LIGAND FREE ENERGY PREDICTED BY IDOCK:   -5.85 KCAL/MOL
REMARK 924 INTRA-LIGAND FREE ENERGY PREDICTED BY IDOCK:   -0.86 KCAL/MOL
REMARK 927      BINDING AFFINITY PREDICTED BY RF-SCORE:    0.00 PKD
ROOT
HETATM    1  C   UNL     1     -12.082  13.173  69.277  1.00  0.00    -0.270 C  
HETATM    2  C   UNL     1     -11.356  12.482  68.122  1.00  0.00    -0.343 C  
HETATM    3  C   UNL     1     -11.214  14.448  69.676  1.00  0.00    -0.274 C  
HETATM    4  C   UNL     1     -11.673  15.279  70.880  1.00  0.00    -0.386 C  
HETATM    5  C   UNL     1     -10.383  11.529  68.791  1.00  0.00    -0.213 C  
HETATM    6  C   UNL     1     -11.197  15.446  68.530  1.00  0.00    -0.321 C  
HETATM    7  C   UNL     1     -10.800  11.340  70.273  1.00  0.00     0.455 C  
HETATM    8  C   UNL     1     -10.104  15.996  67.970  1.00  0.00    -0.240 C  
HETATM    9  C   UNL     1     -10.697   9.857  70.675  1.00  0.00    -0.372 C  
HETATM   10  C   UNL     1     -10.230  17.051  66.889  1.00  0.00    -0.305 C  
HETATM   11  C   UNL     1      -9.848   8.913  70.201  1.00  0.00    -0.199 C  
HETATM   12  C   UNL     1     -11.772   9.434  71.641  1.00  0.00    -0.468 C  
HETATM   13  C   UNL     1      -9.724  18.463  67.303  1.00  0.00    -0.304 C  
HETATM   14  C   UNL     1      -9.614  16.544  65.582  1.00  0.00    -0.063 C  
HETATM   15  C   UNL     1     -10.330  18.918  68.639  1.00  0.00    -0.267 C  
HETATM   16  C   UNL     1     -13.177   9.735  71.121  1.00  0.00    -0.404 C  
HETATM   17  C   UNL     1     -12.754  12.611  71.655  1.00  0.00    -0.292 C  
HETATM   18  C   UNL     1      -8.203  18.626  67.360  1.00  0.00    -0.267 C  
HETATM   19  C   UNL     1     -13.240  10.843  70.026  1.00  0.00     0.411 C  
HETATM   20  C   UNL     1     -12.237  12.001  70.338  1.00  0.00    -0.379 C  
ENDROOT
BRANCH  11  21
HETATM   21  C   UNL     1      -8.706   9.091  69.320  1.00  0.00    -0.138 C  
HETATM   22  C   UNL     1      -7.304   8.848  67.258  1.00  0.00    -0.080 C  
HETATM   23  C   UNL     1      -8.598   8.669  68.042  1.00  0.00    -0.137 C  
HETATM   24  C   UNL     1      -6.783   7.502  66.756  1.00  0.00    -0.062 C  
HETATM   25  O   UNL     1      -6.331   6.688  67.842  1.00  0.00    -0.043 OA 
HETATM   26  C   UNL     1      -7.849   6.747  65.955  1.00  0.00    -0.103 C  
HETATM   27  H   UNL     1      -6.007   5.850  67.530  1.00  0.00     0.000 HD 
HETATM   28  C   UNL     1      -9.168   6.621  66.726  1.00  0.00    -0.149 C  
HETATM   29  O   UNL     1     -10.150   6.056  65.854  1.00  0.00    -0.391 OA 
HETATM   30  C   UNL     1      -9.629   7.975  67.263  1.00  0.00    -0.210 C  
HETATM   31  H   UNL     1     -10.967   5.978  66.332  1.00  0.00     0.000 HD 
HETATM   32  C   UNL     1     -10.830   8.525  67.023  1.00  0.00    -0.030 C  
ENDBRANCH  11  21
TORSDOF 1
ENDMDL
MODEL       36
REMARK 921   NORMALIZED FREE ENERGY PREDICTED BY IDOCK:   -5.87 KCAL/MOL
REMARK 922        TOTAL FREE ENERGY PREDICTED BY IDOCK:   -6.65 KCAL/MOL
REMARK 923 INTER-LIGAND FREE ENERGY PREDICTED BY IDOCK:   -6.12 KCAL/MOL
REMARK 924 INTRA-LIGAND FREE ENERGY PREDICTED BY IDOCK:   -0.53 KCAL/MOL
REMARK 927      BINDING AFFINITY PREDICTED BY RF-SCORE:    0.00 PKD
ROOT
HETATM    1  C   UNL     1     -11.001   8.552  71.951  1.00  0.00    -0.394 C  
HETATM    2  C   UNL     1      -9.629   9.013  71.455  1.00  0.00    -0.340 C  
HETATM    3  C   UNL     1     -11.169   7.031  71.504  1.00  0.00    -0.279 C  
HETATM    4  C   UNL     1     -12.507   6.342  71.797  1.00  0.00    -0.199 C  
HETATM    5  C   UNL     1      -9.876   9.523  70.048  1.00  0.00    -0.269 C  
HETATM    6  C   UNL     1     -10.148   6.162  72.218  1.00  0.00    -0.201 C  
HETATM    7  C   UNL     1     -11.398   9.756  69.856  1.00  0.00    -0.238 C  
HETATM    8  C   UNL     1      -9.293   5.299  71.639  1.00  0.00    -0.178 C  
HETATM    9  C   UNL     1     -11.649  11.080  69.114  1.00  0.00    -0.389 C  
HETATM   10  C   UNL     1      -8.383   4.423  72.477  1.00  0.00    -0.109 C  
HETATM   11  C   UNL     1     -10.862  11.694  68.196  1.00  0.00    -0.260 C  
HETATM   12  C   UNL     1     -12.888  11.794  69.587  1.00  0.00     0.595 C  
HETATM   13  C   UNL     1      -8.694   2.902  72.391  1.00  0.00    -0.093 C  
HETATM   14  C   UNL     1      -6.916   4.761  72.194  1.00  0.00    -0.061 C  
HETATM   15  C   UNL     1     -10.181   2.607  72.637  1.00  0.00    -0.235 C  
HETATM   16  C   UNL     1     -12.883  12.036  71.095  1.00  0.00    -0.331 C  
HETATM   17  C   UNL     1     -13.427   9.168  71.553  1.00  0.00    -0.417 C  
HETATM   18  C   UNL     1      -8.254   2.213  71.096  1.00  0.00    -0.063 C  
HETATM   19  C   UNL     1     -11.943  11.089  71.902  1.00  0.00     0.945 C  
HETATM   20  C   UNL     1     -11.978   9.636  71.324  1.00  0.00    -0.462 C  
ENDROOT
BRANCH  11  21
HETATM   21  C   UNL     1      -9.666  11.182  67.551  1.00  0.00    -0.193 C  
HETATM   22  C   UNL     1      -8.086  10.638  65.683  1.00  0.00    -0.146 C  
HETATM   23  C   UNL     1      -9.336  11.302  66.247  1.00  0.00    -0.226 C  
HETATM   24  C   UNL     1      -8.443   9.697  64.534  1.00  0.00    -0.178 C  
HETATM   25  O   UNL     1      -9.165   8.556  65.009  1.00  0.00    -0.425 OA 
HETATM   26  C   UNL     1      -9.261  10.410  63.452  1.00  0.00    -0.311 C  
HETATM   27  H   UNL     1      -9.387   7.970  64.295  1.00  0.00     0.000 HD 
HETATM   28  C   UNL     1     -10.486  11.125  64.033  1.00  0.00    -0.383 C  
HETATM   29  O   UNL     1     -11.095  11.895  62.994  1.00  0.00    -0.669 OA 
HETATM   30  C   UNL     1     -10.101  12.013  65.216  1.00  0.00    -0.289 C  
HETATM   31  H   UNL     1     -11.854  12.338  63.355  1.00  0.00     0.000 HD 
HETATM   32  C   UNL     1     -10.376  13.323  65.311  1.00  0.00    -0.324 C  
ENDBRANCH  11  21
TORSDOF 1
ENDMDL
MODEL       37
REMARK 921   NORMALIZED FREE ENERGY PREDICTED BY IDOCK:   -5.84 KCAL/MOL
REMARK 922        TOTAL FREE ENERGY PREDICTED BY IDOCK:   -6.62 KCAL/MOL
REMARK 923 INTER-LIGAND FREE ENERGY PREDICTED BY IDOCK:   -5.58 KCAL/MOL
REMARK 924 INTRA-LIGAND FREE ENERGY PREDICTED BY IDOCK:   -1.04 KCAL/MOL
REMARK 927      BINDING AFFINITY PREDICTED BY RF-SCORE:    0.00 PKD
ROOT
HETATM    1  C   UNL     1      -8.538   6.100  67.831  1.00  0.00    -0.114 C  
HETATM    2  C   UNL     1      -7.594   6.507  68.962  1.00  0.00    -0.100 C  
HETATM    3  C   UNL     1      -9.739   7.149  67.827  1.00  0.00    -0.161 C  
HETATM    4  C   UNL     1     -10.887   6.920  66.838  1.00  0.00    -0.380 C  
HETATM    5  C   UNL     1      -8.131   5.797  70.190  1.00  0.00    -0.108 C  
HETATM    6  C   UNL     1      -9.220   8.532  67.469  1.00  0.00    -0.151 C  
HETATM    7  C   UNL     1      -9.102   4.673  69.739  1.00  0.00    -0.162 C  
HETATM    8  C   UNL     1      -9.423   9.664  68.168  1.00  0.00    -0.144 C  
HETATM    9  C   UNL     1      -8.857   3.392  70.556  1.00  0.00    -0.145 C  
HETATM   10  C   UNL     1      -8.924  10.999  67.652  1.00  0.00    -0.142 C  
HETATM   11  C   UNL     1      -8.414   3.278  71.832  1.00  0.00    -0.088 C  
HETATM   12  C   UNL     1      -9.047   2.135  69.749  1.00  0.00    -0.170 C  
HETATM   13  C   UNL     1     -10.049  12.003  67.270  1.00  0.00    -0.208 C  
HETATM   14  C   UNL     1      -7.887  11.584  68.615  1.00  0.00    -0.137 C  
HETATM   15  C   UNL     1     -11.093  11.367  66.340  1.00  0.00    -0.301 C  
HETATM   16  C   UNL     1      -8.190   2.117  68.484  1.00  0.00    -0.073 C  
HETATM   17  C   UNL     1      -9.987   4.106  67.241  1.00  0.00    -0.089 C  
HETATM   18  C   UNL     1     -10.766  12.666  68.449  1.00  0.00    -0.260 C  
HETATM   19  C   UNL     1      -7.727   3.522  67.994  1.00  0.00    -0.068 C  
HETATM   20  C   UNL     1      -8.861   4.584  68.177  1.00  0.00    -0.123 C  
ENDROOT
BRANCH  11  21
HETATM   21  C   UNL     1      -8.219   4.331  72.813  1.00  0.00    -0.094 C  
HETATM   22  C   UNL     1      -8.812   6.257  74.302  1.00  0.00    -0.147 C  
HETATM   23  C   UNL     1      -9.170   5.130  73.342  1.00  0.00    -0.130 C  
HETATM   24  C   UNL     1      -9.310   7.601  73.772  1.00  0.00    -0.267 C  
HETATM   25  O   UNL     1      -8.581   7.996  72.606  1.00  0.00    -0.144 OA 
HETATM   26  C   UNL     1     -10.808   7.563  73.454  1.00  0.00    -0.339 C  
HETATM   27  H   UNL     1      -8.890   8.832  72.276  1.00  0.00     0.000 HD 
HETATM   28  C   UNL     1     -11.172   6.391  72.534  1.00  0.00    -0.272 C  
HETATM   29  O   UNL     1     -12.596   6.330  72.421  1.00  0.00    -0.549 OA 
HETATM   30  C   UNL     1     -10.610   5.074  73.064  1.00  0.00    -0.278 C  
HETATM   31  H   UNL     1     -12.822   5.604  71.851  1.00  0.00     0.000 HD 
HETATM   32  C   UNL     1     -11.338   3.973  73.308  1.00  0.00    -0.237 C  
ENDBRANCH  11  21
TORSDOF 1
ENDMDL
MODEL       38
REMARK 921   NORMALIZED FREE ENERGY PREDICTED BY IDOCK:   -5.82 KCAL/MOL
REMARK 922        TOTAL FREE ENERGY PREDICTED BY IDOCK:   -6.60 KCAL/MOL
REMARK 923 INTER-LIGAND FREE ENERGY PREDICTED BY IDOCK:   -5.73 KCAL/MOL
REMARK 924 INTRA-LIGAND FREE ENERGY PREDICTED BY IDOCK:   -0.87 KCAL/MOL
REMARK 927      BINDING AFFINITY PREDICTED BY RF-SCORE:    0.00 PKD
ROOT
HETATM    1  C   UNL     1     -11.024   8.796  68.395  1.00  0.00     0.101 C  
HETATM    2  C   UNL     1     -10.854   8.171  67.010  1.00  0.00    -0.086 C  
HETATM    3  C   UNL     1     -10.498  10.298  68.295  1.00  0.00    -0.230 C  
HETATM    4  C   UNL     1     -10.471  11.134  69.579  1.00  0.00    -0.080 C  
HETATM    5  C   UNL     1      -9.445   7.609  67.008  1.00  0.00    -0.209 C  
HETATM    6  C   UNL     1     -11.387  11.098  67.358  1.00  0.00    -0.329 C  
HETATM    7  C   UNL     1      -8.935   7.520  68.471  1.00  0.00    -0.128 C  
HETATM    8  C   UNL     1     -10.978  11.836  66.309  1.00  0.00    -0.346 C  
HETATM    9  C   UNL     1      -8.202   6.187  68.705  1.00  0.00    -0.108 C  
HETATM   10  C   UNL     1     -11.962  12.662  65.506  1.00  0.00    -0.509 C  
HETATM   11  C   UNL     1      -7.499   5.445  67.815  1.00  0.00    -0.080 C  
HETATM   12  C   UNL     1      -8.420   5.631  70.087  1.00  0.00    -0.119 C  
HETATM   13  C   UNL     1     -11.758  14.200  65.620  1.00  0.00    -0.357 C  
HETATM   14  C   UNL     1     -12.015  12.162  64.059  1.00  0.00    -0.533 C  
HETATM   15  C   UNL     1     -11.665  14.658  67.084  1.00  0.00    -0.392 C  
HETATM   16  C   UNL     1      -9.901   5.477  70.429  1.00  0.00    -0.259 C  
HETATM   17  C   UNL     1     -10.132   8.407  70.735  1.00  0.00    -0.226 C  
HETATM   18  C   UNL     1     -10.566  14.765  64.843  1.00  0.00    -0.431 C  
HETATM   19  C   UNL     1     -10.859   6.368  69.582  1.00  0.00    -0.380 C  
HETATM   20  C   UNL     1     -10.238   7.782  69.332  1.00  0.00    -0.208 C  
ENDROOT
BRANCH  11  21
HETATM   21  C   UNL     1      -7.111   5.796  66.460  1.00  0.00    -0.069 C  
HETATM   22  C   UNL     1      -7.005   5.643  63.961  1.00  0.00    -0.050 C  
HETATM   23  C   UNL     1      -7.564   5.236  65.318  1.00  0.00    -0.082 C  
HETATM   24  C   UNL     1      -6.440   4.432  63.221  1.00  0.00    -0.026 C  
HETATM   25  O   UNL     1      -5.259   3.941  63.864  1.00  0.00    -0.008 OA 
HETATM   26  C   UNL     1      -7.472   3.305  63.110  1.00  0.00    -0.054 C  
HETATM   27  H   UNL     1      -4.907   3.188  63.404  1.00  0.00     0.000 HD 
HETATM   28  C   UNL     1      -8.074   2.939  64.471  1.00  0.00    -0.082 C  
HETATM   29  O   UNL     1      -9.136   2.005  64.259  1.00  0.00    -0.103 OA 
HETATM   30  C   UNL     1      -8.577   4.179  65.207  1.00  0.00    -0.119 C  
HETATM   31  H   UNL     1      -9.509   1.778  65.103  1.00  0.00     0.000 HD 
HETATM   32  C   UNL     1      -9.825   4.339  65.675  1.00  0.00    -0.223 C  
ENDBRANCH  11  21
TORSDOF 1
ENDMDL
MODEL       39
REMARK 921   NORMALIZED FREE ENERGY PREDICTED BY IDOCK:   -5.79 KCAL/MOL
REMARK 922        TOTAL FREE ENERGY PREDICTED BY IDOCK:   -6.57 KCAL/MOL
REMARK 923 INTER-LIGAND FREE ENERGY PREDICTED BY IDOCK:   -5.73 KCAL/MOL
REMARK 924 INTRA-LIGAND FREE ENERGY PREDICTED BY IDOCK:   -0.84 KCAL/MOL
REMARK 927      BINDING AFFINITY PREDICTED BY RF-SCORE:    0.00 PKD
ROOT
HETATM    1  C   UNL     1     -10.382   8.981  68.423  1.00  0.00    -0.242 C  
HETATM    2  C   UNL     1     -10.716   8.273  67.109  1.00  0.00    -0.240 C  
HETATM    3  C   UNL     1      -9.860  10.439  68.046  1.00  0.00    -0.170 C  
HETATM    4  C   UNL     1      -9.366  11.339  69.184  1.00  0.00     0.082 C  
HETATM    5  C   UNL     1      -9.415   7.624  66.677  1.00  0.00    -0.255 C  
HETATM    6  C   UNL     1     -10.978  11.243  67.405  1.00  0.00    -0.337 C  
HETATM    7  C   UNL     1      -8.446   7.581  67.888  1.00  0.00    -0.122 C  
HETATM    8  C   UNL     1     -10.917  11.896  66.231  1.00  0.00    -0.345 C  
HETATM    9  C   UNL     1      -7.733   6.219  67.958  1.00  0.00    -0.103 C  
HETATM   10  C   UNL     1     -12.080  12.739  65.745  1.00  0.00    -0.505 C  
HETATM   11  C   UNL     1      -7.403   5.387  66.939  1.00  0.00    -0.083 C  
HETATM   12  C   UNL     1      -7.494   5.752  69.369  1.00  0.00    -0.079 C  
HETATM   13  C   UNL     1     -11.785  14.265  65.675  1.00  0.00    -0.358 C  
HETATM   14  C   UNL     1     -12.639  12.167  64.440  1.00  0.00    -0.377 C  
HETATM   15  C   UNL     1     -11.185  14.793  66.987  1.00  0.00    -0.347 C  
HETATM   16  C   UNL     1      -8.778   5.710  70.197  1.00  0.00    -0.140 C  
HETATM   17  C   UNL     1      -8.769   8.661  70.352  1.00  0.00    -0.165 C  
HETATM   18  C   UNL     1     -10.904  14.711  64.505  1.00  0.00    -0.209 C  
HETATM   19  C   UNL     1      -9.928   6.614  69.657  1.00  0.00    -0.191 C  
HETATM   20  C   UNL     1      -9.370   7.970  69.113  1.00  0.00    -0.151 C  
ENDROOT
BRANCH  11  21
HETATM   21  C   UNL     1      -7.481   5.640  65.511  1.00  0.00    -0.074 C  
HETATM   22  C   UNL     1      -8.260   5.373  63.144  1.00  0.00    -0.105 C  
HETATM   23  C   UNL     1      -8.345   5.081  64.637  1.00  0.00    -0.141 C  
HETATM   24  C   UNL     1      -8.083   4.081  62.348  1.00  0.00    -0.067 C  
HETATM   25  O   UNL     1      -6.796   3.502  62.584  1.00  0.00    -0.029 OA 
HETATM   26  C   UNL     1      -9.176   3.059  62.678  1.00  0.00    -0.090 C  
HETATM   27  H   UNL     1      -6.686   2.699  62.089  1.00  0.00     0.000 HD 
HETATM   28  C   UNL     1      -9.298   2.813  64.186  1.00  0.00    -0.127 C  
HETATM   29  O   UNL     1     -10.438   1.982  64.419  1.00  0.00    -0.336 OA 
HETATM   30  C   UNL     1      -9.414   4.127  64.956  1.00  0.00    -0.173 C  
HETATM   31  H   UNL     1     -10.513   1.830  65.354  1.00  0.00     0.000 HD 
HETATM   32  C   UNL     1     -10.406   4.431  65.808  1.00  0.00    -0.246 C  
ENDBRANCH  11  21
TORSDOF 1
ENDMDL
MODEL       40
REMARK 921   NORMALIZED FREE ENERGY PREDICTED BY IDOCK:   -5.76 KCAL/MOL
REMARK 922        TOTAL FREE ENERGY PREDICTED BY IDOCK:   -6.54 KCAL/MOL
REMARK 923 INTER-LIGAND FREE ENERGY PREDICTED BY IDOCK:   -5.66 KCAL/MOL
REMARK 924 INTRA-LIGAND FREE ENERGY PREDICTED BY IDOCK:   -0.88 KCAL/MOL
REMARK 927      BINDING AFFINITY PREDICTED BY RF-SCORE:    0.00 PKD
ROOT
HETATM    1  C   UNL     1     -10.223  14.799  67.569  1.00  0.00    -0.233 C  
HETATM    2  C   UNL     1      -9.417  14.326  66.358  1.00  0.00    -0.297 C  
HETATM    3  C   UNL     1      -9.253  15.711  68.446  1.00  0.00    -0.191 C  
HETATM    4  C   UNL     1      -9.786  16.248  69.779  1.00  0.00     0.015 C  
HETATM    5  C   UNL     1      -8.739  13.049  66.818  1.00  0.00    -0.105 C  
HETATM    6  C   UNL     1      -8.877  16.963  67.673  1.00  0.00    -0.215 C  
HETATM    7  C   UNL     1      -9.439  12.542  68.106  1.00  0.00    -0.214 C  
HETATM    8  C   UNL     1      -7.630  17.417  67.449  1.00  0.00    -0.209 C  
HETATM    9  C   UNL     1      -9.640  11.017  68.044  1.00  0.00    -0.175 C  
HETATM   10  C   UNL     1      -7.395  18.734  66.737  1.00  0.00    -0.231 C  
HETATM   11  C   UNL     1      -8.877  10.092  67.413  1.00  0.00    -0.132 C  
HETATM   12  C   UNL     1     -10.923  10.567  68.691  1.00  0.00    -0.294 C  
HETATM   13  C   UNL     1      -6.760  19.843  67.624  1.00  0.00    -0.274 C  
HETATM   14  C   UNL     1      -6.641  18.499  65.425  1.00  0.00    -0.257 C  
HETATM   15  C   UNL     1      -7.517  20.020  68.949  1.00  0.00    -0.146 C  
HETATM   16  C   UNL     1     -12.149  11.276  68.117  1.00  0.00    -0.009 C  
HETATM   17  C   UNL     1     -11.388  13.743  69.557  1.00  0.00    -0.283 C  
HETATM   18  C   UNL     1      -5.267  19.674  67.918  1.00  0.00    -0.176 C  
HETATM   19  C   UNL     1     -11.843  12.635  67.416  1.00  0.00    -0.393 C  
HETATM   20  C   UNL     1     -10.745  13.434  68.192  1.00  0.00    -0.267 C  
ENDROOT
BRANCH  11  21
HETATM   21  C   UNL     1      -7.582  10.275  66.779  1.00  0.00    -0.107 C  
HETATM   22  C   UNL     1      -5.884  10.323  64.937  1.00  0.00    -0.135 C  
HETATM   23  C   UNL     1      -7.310  10.194  65.459  1.00  0.00    -0.143 C  
HETATM   24  C   UNL     1      -5.486   9.085  64.136  1.00  0.00    -0.060 C  
HETATM   25  O   UNL     1      -5.359   7.941  64.986  1.00  0.00    -0.029 OA 
HETATM   26  C   UNL     1      -6.490   8.787  63.018  1.00  0.00    -0.090 C  
HETATM   27  H   UNL     1      -5.111   7.171  64.488  1.00  0.00     0.000 HD 
HETATM   28  C   UNL     1      -7.929   8.716  63.540  1.00  0.00    -0.160 C  
HETATM   29  O   UNL     1      -8.811   8.601  62.421  1.00  0.00    -0.406 OA 
HETATM   30  C   UNL     1      -8.275   9.941  64.383  1.00  0.00    -0.164 C  
HETATM   31  H   UNL     1      -9.704   8.557  62.744  1.00  0.00     0.000 HD 
HETATM   32  C   UNL     1      -9.320  10.755  64.161  1.00  0.00    -0.286 C  
ENDBRANCH  11  21
TORSDOF 1
ENDMDL
MODEL       41
REMARK 921   NORMALIZED FREE ENERGY PREDICTED BY IDOCK:   -5.75 KCAL/MOL
REMARK 922        TOTAL FREE ENERGY PREDICTED BY IDOCK:   -6.53 KCAL/MOL
REMARK 923 INTER-LIGAND FREE ENERGY PREDICTED BY IDOCK:   -5.41 KCAL/MOL
REMARK 924 INTRA-LIGAND FREE ENERGY PREDICTED BY IDOCK:   -1.12 KCAL/MOL
REMARK 927      BINDING AFFINITY PREDICTED BY RF-SCORE:    0.00 PKD
ROOT
HETATM    1  C   UNL     1     -11.061   8.268  72.520  1.00  0.00    -0.439 C  
HETATM    2  C   UNL     1      -9.626   8.788  72.417  1.00  0.00    -0.197 C  
HETATM    3  C   UNL     1     -11.012   6.706  72.204  1.00  0.00    -0.277 C  
HETATM    4  C   UNL     1     -12.342   5.945  72.150  1.00  0.00     0.076 C  
HETATM    5  C   UNL     1      -9.451   9.156  70.955  1.00  0.00    -0.344 C  
HETATM    6  C   UNL     1     -10.221   5.982  73.280  1.00  0.00    -0.218 C  
HETATM    7  C   UNL     1     -10.848   9.255  70.288  1.00  0.00    -0.286 C  
HETATM    8  C   UNL     1      -9.191   5.140  73.081  1.00  0.00    -0.129 C  
HETATM    9  C   UNL     1     -10.920  10.488  69.371  1.00  0.00    -0.297 C  
HETATM   10  C   UNL     1      -8.543   4.411  74.241  1.00  0.00    -0.096 C  
HETATM   11  C   UNL     1      -9.918  11.080  68.675  1.00  0.00    -0.205 C  
HETATM   12  C   UNL     1     -12.276  11.143  69.370  1.00  0.00    -0.329 C  
HETATM   13  C   UNL     1      -8.742   2.868  74.225  1.00  0.00    -0.076 C  
HETATM   14  C   UNL     1      -7.078   4.834  74.381  1.00  0.00    -0.077 C  
HETATM   15  C   UNL     1     -10.217   2.483  74.039  1.00  0.00    -0.182 C  
HETATM   16  C   UNL     1     -12.748  11.513  70.775  1.00  0.00    -0.318 C  
HETATM   17  C   UNL     1     -13.272   8.661  71.345  1.00  0.00    -0.269 C  
HETATM   18  C   UNL     1      -7.893   2.107  73.203  1.00  0.00    -0.046 C  
HETATM   19  C   UNL     1     -12.059  10.713  71.923  1.00  0.00     0.303 C  
HETATM   20  C   UNL     1     -11.846   9.217  71.517  1.00  0.00    -0.444 C  
ENDROOT
BRANCH  11  21
HETATM   21  C   UNL     1      -8.558  10.607  68.479  1.00  0.00    -0.137 C  
HETATM   22  C   UNL     1      -6.704   9.164  67.606  1.00  0.00    -0.069 C  
HETATM   23  C   UNL     1      -8.158   9.619  67.650  1.00  0.00    -0.113 C  
HETATM   24  C   UNL     1      -6.594   7.671  67.910  1.00  0.00    -0.059 C  
HETATM   25  O   UNL     1      -6.922   7.399  69.276  1.00  0.00    -0.061 OA 
HETATM   26  C   UNL     1      -7.491   6.838  66.989  1.00  0.00    -0.087 C  
HETATM   27  H   UNL     1      -6.853   6.470  69.466  1.00  0.00     0.000 HD 
HETATM   28  C   UNL     1      -8.941   7.337  66.992  1.00  0.00    -0.130 C  
HETATM   29  O   UNL     1      -9.669   6.620  65.993  1.00  0.00    -0.397 OA 
HETATM   30  C   UNL     1      -9.011   8.843  66.743  1.00  0.00    -0.155 C  
HETATM   31  H   UNL     1     -10.567   6.929  65.995  1.00  0.00     0.000 HD 
HETATM   32  C   UNL     1      -9.730   9.425  65.770  1.00  0.00    -0.354 C  
ENDBRANCH  11  21
TORSDOF 1
ENDMDL
MODEL       42
REMARK 921   NORMALIZED FREE ENERGY PREDICTED BY IDOCK:   -5.74 KCAL/MOL
REMARK 922        TOTAL FREE ENERGY PREDICTED BY IDOCK:   -6.52 KCAL/MOL
REMARK 923 INTER-LIGAND FREE ENERGY PREDICTED BY IDOCK:   -5.50 KCAL/MOL
REMARK 924 INTRA-LIGAND FREE ENERGY PREDICTED BY IDOCK:   -1.01 KCAL/MOL
REMARK 927      BINDING AFFINITY PREDICTED BY RF-SCORE:    0.00 PKD
ROOT
HETATM    1  C   UNL     1      -9.567  10.196  68.397  1.00  0.00    -0.150 C  
HETATM    2  C   UNL     1     -10.391   9.582  67.264  1.00  0.00    -0.319 C  
HETATM    3  C   UNL     1      -9.065  11.621  67.887  1.00  0.00    -0.171 C  
HETATM    4  C   UNL     1      -8.132  12.421  68.802  1.00  0.00     0.074 C  
HETATM    5  C   UNL     1      -9.382   8.846  66.405  1.00  0.00    -0.262 C  
HETATM    6  C   UNL     1     -10.252  12.546  67.678  1.00  0.00    -0.220 C  
HETATM    7  C   UNL     1      -8.069   8.664  67.211  1.00  0.00    -0.101 C  
HETATM    8  C   UNL     1     -10.529  13.247  66.563  1.00  0.00    -0.282 C  
HETATM    9  C   UNL     1      -7.509   7.244  67.013  1.00  0.00    -0.105 C  
HETATM   10  C   UNL     1     -11.700  14.207  66.516  1.00  0.00    -0.414 C  
HETATM   11  C   UNL     1      -7.624   6.437  65.931  1.00  0.00    -0.084 C  
HETATM   12  C   UNL     1      -6.853   6.693  68.251  1.00  0.00    -0.074 C  
HETATM   13  C   UNL     1     -11.302  15.704  66.373  1.00  0.00     0.065 C  
HETATM   14  C   UNL     1     -12.720  13.748  65.470  1.00  0.00    -0.530 C  
HETATM   15  C   UNL     1     -10.246  16.117  67.410  1.00  0.00    -0.272 C  
HETATM   16  C   UNL     1      -7.780   6.721  69.466  1.00  0.00    -0.104 C  
HETATM   17  C   UNL     1      -7.436   9.650  69.655  1.00  0.00    -0.102 C  
HETATM   18  C   UNL     1     -10.829  16.129  64.981  1.00  0.00    -0.380 C  
HETATM   19  C   UNL     1      -8.952   7.744  69.365  1.00  0.00    -0.142 C  
HETATM   20  C   UNL     1      -8.483   9.072  68.685  1.00  0.00    -0.128 C  
ENDROOT
BRANCH  11  21
HETATM   21  C   UNL     1      -8.156   6.763  64.618  1.00  0.00    -0.086 C  
HETATM   22  C   UNL     1      -8.380   7.982  62.441  1.00  0.00    -0.122 C  
HETATM   23  C   UNL     1      -7.670   7.679  63.754  1.00  0.00    -0.126 C  
HETATM   24  C   UNL     1      -8.737   9.464  62.346  1.00  0.00    -0.231 C  
HETATM   25  O   UNL     1      -9.755   9.809  63.290  1.00  0.00    -0.511 OA 
HETATM   26  C   UNL     1      -7.510  10.357  62.563  1.00  0.00    -0.155 C  
HETATM   27  H   UNL     1      -9.978  10.731  63.232  1.00  0.00     0.000 HD 
HETATM   28  C   UNL     1      -6.766  10.009  63.857  1.00  0.00    -0.128 C  
HETATM   29  O   UNL     1      -5.554  10.766  63.900  1.00  0.00    -0.329 OA 
HETATM   30  C   UNL     1      -6.476   8.511  63.945  1.00  0.00    -0.072 C  
HETATM   31  H   UNL     1      -5.093  10.550  64.703  1.00  0.00     0.000 HD 
HETATM   32  C   UNL     1      -5.258   7.976  64.129  1.00  0.00    -0.040 C  
ENDBRANCH  11  21
TORSDOF 1
ENDMDL
MODEL       43
REMARK 921   NORMALIZED FREE ENERGY PREDICTED BY IDOCK:   -5.67 KCAL/MOL
REMARK 922        TOTAL FREE ENERGY PREDICTED BY IDOCK:   -6.45 KCAL/MOL
REMARK 923 INTER-LIGAND FREE ENERGY PREDICTED BY IDOCK:   -5.33 KCAL/MOL
REMARK 924 INTRA-LIGAND FREE ENERGY PREDICTED BY IDOCK:   -1.12 KCAL/MOL
REMARK 927      BINDING AFFINITY PREDICTED BY RF-SCORE:    0.00 PKD
ROOT
HETATM    1  C   UNL     1      -9.712   5.243  67.307  1.00  0.00    -0.163 C  
HETATM    2  C   UNL     1     -10.667   6.420  67.107  1.00  0.00    -0.433 C  
HETATM    3  C   UNL     1      -9.057   5.415  68.750  1.00  0.00    -0.135 C  
HETATM    4  C   UNL     1      -7.981   4.408  69.174  1.00  0.00    -0.068 C  
HETATM    5  C   UNL     1      -9.808   7.521  66.514  1.00  0.00    -0.226 C  
HETATM    6  C   UNL     1     -10.123   5.281  69.825  1.00  0.00    -0.334 C  
HETATM    7  C   UNL     1      -8.489   6.900  65.983  1.00  0.00    -0.140 C  
HETATM    8  C   UNL     1     -10.366   6.154  70.819  1.00  0.00    -0.266 C  
HETATM    9  C   UNL     1      -8.128   7.499  64.611  1.00  0.00    -0.101 C  
HETATM   10  C   UNL     1     -11.404   5.857  71.882  1.00  0.00    -0.307 C  
HETATM   11  C   UNL     1      -8.403   8.737  64.134  1.00  0.00    -0.155 C  
HETATM   12  C   UNL     1      -7.485   6.501  63.685  1.00  0.00    -0.082 C  
HETATM   13  C   UNL     1     -10.824   5.648  73.311  1.00  0.00    -0.321 C  
HETATM   14  C   UNL     1     -12.528   6.895  71.829  1.00  0.00    -0.397 C  
HETATM   15  C   UNL     1      -9.670   4.634  73.317  1.00  0.00    -0.154 C  
HETATM   16  C   UNL     1      -8.335   5.245  63.496  1.00  0.00    -0.118 C  
HETATM   17  C   UNL     1      -7.606   4.349  66.216  1.00  0.00    -0.086 C  
HETATM   18  C   UNL     1     -10.374   6.923  74.030  1.00  0.00    -0.355 C  
HETATM   19  C   UNL     1      -9.369   4.984  64.634  1.00  0.00     0.087 C  
HETATM   20  C   UNL     1      -8.768   5.342  66.033  1.00  0.00    -0.137 C  
ENDROOT
BRANCH  11  21
HETATM   21  C   UNL     1      -8.957   9.874  64.849  1.00  0.00    -0.246 C  
HETATM   22  C   UNL     1      -9.059  11.744  66.514  1.00  0.00    -0.203 C  
HETATM   23  C   UNL     1      -8.329  10.630  65.775  1.00  0.00    -0.162 C  
HETATM   24  C   UNL     1      -9.002  11.522  68.024  1.00  0.00    -0.170 C  
HETATM   25  O   UNL     1      -9.784  10.386  68.407  1.00  0.00    -0.150 OA 
HETATM   26  C   UNL     1      -7.562  11.346  68.516  1.00  0.00    -0.129 C  
HETATM   27  H   UNL     1      -9.748  10.248  69.347  1.00  0.00     0.000 HD 
HETATM   28  C   UNL     1      -6.813  10.263  67.730  1.00  0.00    -0.075 C  
HETATM   29  O   UNL     1      -5.442  10.276  68.135  1.00  0.00    -0.035 OA 
HETATM   30  C   UNL     1      -6.939  10.483  66.224  1.00  0.00    -0.128 C  
HETATM   31  H   UNL     1      -4.978   9.605  67.648  1.00  0.00     0.000 HD 
HETATM   32  C   UNL     1      -5.904  10.587  65.375  1.00  0.00    -0.134 C  
ENDBRANCH  11  21
TORSDOF 1
ENDMDL
MODEL       44
REMARK 921   NORMALIZED FREE ENERGY PREDICTED BY IDOCK:   -5.57 KCAL/MOL
REMARK 922        TOTAL FREE ENERGY PREDICTED BY IDOCK:   -6.34 KCAL/MOL
REMARK 923 INTER-LIGAND FREE ENERGY PREDICTED BY IDOCK:   -5.51 KCAL/MOL
REMARK 924 INTRA-LIGAND FREE ENERGY PREDICTED BY IDOCK:   -0.83 KCAL/MOL
REMARK 927      BINDING AFFINITY PREDICTED BY RF-SCORE:    0.00 PKD
ROOT
HETATM    1  C   UNL     1      -7.995   8.940  66.643  1.00  0.00    -0.103 C  
HETATM    2  C   UNL     1      -8.423   9.048  68.107  1.00  0.00    -0.129 C  
HETATM    3  C   UNL     1      -9.175   9.556  65.767  1.00  0.00    -0.267 C  
HETATM    4  C   UNL     1      -9.044   9.492  64.241  1.00  0.00    -0.220 C  
HETATM    5  C   UNL     1      -9.201   7.775  68.378  1.00  0.00    -0.137 C  
HETATM    6  C   UNL     1      -9.319  11.041  66.057  1.00  0.00    -0.225 C  
HETATM    7  C   UNL     1      -8.895   6.747  67.257  1.00  0.00    -0.118 C  
HETATM    8  C   UNL     1     -10.451  11.679  66.403  1.00  0.00    -0.283 C  
HETATM    9  C   UNL     1      -8.682   5.346  67.856  1.00  0.00    -0.106 C  
HETATM   10  C   UNL     1     -10.477  13.184  66.578  1.00  0.00    -0.283 C  
HETATM   11  C   UNL     1      -9.233   4.814  68.974  1.00  0.00    -0.174 C  
HETATM   12  C   UNL     1      -7.635   4.547  67.125  1.00  0.00    -0.086 C  
HETATM   13  C   UNL     1     -11.340  13.941  65.529  1.00  0.00    -0.310 C  
HETATM   14  C   UNL     1     -10.827  13.543  68.025  1.00  0.00    -0.266 C  
HETATM   15  C   UNL     1     -10.991  13.523  64.092  1.00  0.00    -0.274 C  
HETATM   16  C   UNL     1      -6.298   5.282  67.032  1.00  0.00    -0.040 C  
HETATM   17  C   UNL     1      -7.440   7.094  64.997  1.00  0.00    -0.093 C  
HETATM   18  C   UNL     1     -12.854  13.839  65.726  1.00  0.00    -0.430 C  
HETATM   19  C   UNL     1      -6.395   6.829  67.200  1.00  0.00    -0.041 C  
HETATM   20  C   UNL     1      -7.669   7.393  66.490  1.00  0.00    -0.093 C  
ENDROOT
BRANCH  11  21
HETATM   21  C   UNL     1     -10.295   5.363  69.801  1.00  0.00    -0.375 C  
HETATM   22  C   UNL     1     -11.387   6.331  71.837  1.00  0.00    -0.348 C  
HETATM   23  C   UNL     1     -10.170   5.866  71.047  1.00  0.00    -0.266 C  
HETATM   24  C   UNL     1     -11.490   5.583  73.165  1.00  0.00    -0.158 C  
HETATM   25  O   UNL     1     -11.814   4.205  72.956  1.00  0.00     0.049 OA 
HETATM   26  C   UNL     1     -10.195   5.690  73.977  1.00  0.00    -0.273 C  
HETATM   27  H   UNL     1     -11.878   3.740  73.782  1.00  0.00     0.000 HD 
HETATM   28  C   UNL     1      -8.967   5.276  73.159  1.00  0.00    -0.118 C  
HETATM   29  O   UNL     1      -7.794   5.560  73.926  1.00  0.00    -0.103 OA 
HETATM   30  C   UNL     1      -8.926   6.000  71.814  1.00  0.00    -0.138 C  
HETATM   31  H   UNL     1      -7.033   5.303  73.419  1.00  0.00     0.000 HD 
HETATM   32  C   UNL     1      -7.893   6.733  71.369  1.00  0.00    -0.098 C  
ENDBRANCH  11  21
TORSDOF 1
ENDMDL
MODEL       45
REMARK 921   NORMALIZED FREE ENERGY PREDICTED BY IDOCK:   -5.56 KCAL/MOL
REMARK 922        TOTAL FREE ENERGY PREDICTED BY IDOCK:   -6.33 KCAL/MOL
REMARK 923 INTER-LIGAND FREE ENERGY PREDICTED BY IDOCK:   -5.28 KCAL/MOL
REMARK 924 INTRA-LIGAND FREE ENERGY PREDICTED BY IDOCK:   -1.05 KCAL/MOL
REMARK 927      BINDING AFFINITY PREDICTED BY RF-SCORE:    0.00 PKD
ROOT
HETATM    1  C   UNL     1      -7.667  10.181  64.879  1.00  0.00    -0.143 C  
HETATM    2  C   UNL     1      -6.967  10.088  66.236  1.00  0.00    -0.104 C  
HETATM    3  C   UNL     1      -9.167  10.642  65.160  1.00  0.00    -0.241 C  
HETATM    4  C   UNL     1     -10.125  10.728  63.967  1.00  0.00    -0.410 C  
HETATM    5  C   UNL     1      -7.242   8.676  66.718  1.00  0.00    -0.078 C  
HETATM    6  C   UNL     1      -9.179  12.047  65.739  1.00  0.00    -0.064 C  
HETATM    7  C   UNL     1      -7.723   7.818  65.518  1.00  0.00    -0.100 C  
HETATM    8  C   UNL     1      -9.799  12.437  66.868  1.00  0.00    -0.219 C  
HETATM    9  C   UNL     1      -7.050   6.434  65.543  1.00  0.00    -0.065 C  
HETATM   10  C   UNL     1      -9.809  13.893  67.289  1.00  0.00    -0.244 C  
HETATM   11  C   UNL     1      -6.631   5.720  66.617  1.00  0.00    -0.056 C  
HETATM   12  C   UNL     1      -6.746   5.902  64.168  1.00  0.00    -0.041 C  
HETATM   13  C   UNL     1     -11.212  14.564  67.258  1.00  0.00    -0.341 C  
HETATM   14  C   UNL     1      -9.084  14.061  68.627  1.00  0.00    -0.107 C  
HETATM   15  C   UNL     1     -11.926  14.337  65.917  1.00  0.00    -0.400 C  
HETATM   16  C   UNL     1      -5.907   6.873  63.338  1.00  0.00    -0.036 C  
HETATM   17  C   UNL     1      -8.272   8.609  62.985  1.00  0.00    -0.179 C  
HETATM   18  C   UNL     1     -12.153  14.172  68.400  1.00  0.00    -0.308 C  
HETATM   19  C   UNL     1      -5.976   8.357  63.810  1.00  0.00    -0.071 C  
HETATM   20  C   UNL     1      -7.423   8.737  64.264  1.00  0.00    -0.108 C  
ENDROOT
BRANCH  11  21
HETATM   21  C   UNL     1      -6.860   5.997  68.025  1.00  0.00    -0.063 C  
HETATM   22  C   UNL     1      -8.155   6.408  70.130  1.00  0.00    -0.120 C  
HETATM   23  C   UNL     1      -8.050   6.017  68.662  1.00  0.00    -0.107 C  
HETATM   24  C   UNL     1      -9.103   7.593  70.310  1.00  0.00    -0.149 C  
HETATM   25  O   UNL     1      -8.545   8.787  69.751  1.00  0.00    -0.124 OA 
HETATM   26  C   UNL     1     -10.473   7.322  69.681  1.00  0.00    -0.239 C  
HETATM   27  H   UNL     1      -9.134   9.524  69.862  1.00  0.00     0.000 HD 
HETATM   28  C   UNL     1     -10.359   6.872  68.221  1.00  0.00    -0.193 C  
HETATM   29  O   UNL     1     -11.656   6.483  67.763  1.00  0.00    -0.646 OA 
HETATM   30  C   UNL     1      -9.361   5.725  68.069  1.00  0.00    -0.112 C  
HETATM   31  H   UNL     1     -11.585   6.204  66.858  1.00  0.00     0.000 HD 
HETATM   32  C   UNL     1      -9.636   4.539  67.503  1.00  0.00    -0.211 C  
ENDBRANCH  11  21
TORSDOF 1
ENDMDL
MODEL       46
REMARK 921   NORMALIZED FREE ENERGY PREDICTED BY IDOCK:   -5.53 KCAL/MOL
REMARK 922        TOTAL FREE ENERGY PREDICTED BY IDOCK:   -6.30 KCAL/MOL
REMARK 923 INTER-LIGAND FREE ENERGY PREDICTED BY IDOCK:   -5.18 KCAL/MOL
REMARK 924 INTRA-LIGAND FREE ENERGY PREDICTED BY IDOCK:   -1.12 KCAL/MOL
REMARK 927      BINDING AFFINITY PREDICTED BY RF-SCORE:    0.00 PKD
ROOT
HETATM    1  C   UNL     1     -10.123   7.417  68.298  1.00  0.00    -0.201 C  
HETATM    2  C   UNL     1     -11.026   6.204  68.520  1.00  0.00    -0.404 C  
HETATM    3  C   UNL     1      -8.782   6.881  67.622  1.00  0.00    -0.120 C  
HETATM    4  C   UNL     1      -7.654   7.888  67.370  1.00  0.00    -0.097 C  
HETATM    5  C   UNL     1     -10.630   5.669  69.883  1.00  0.00    -0.399 C  
HETATM    6  C   UNL     1      -9.084   6.321  66.242  1.00  0.00    -0.166 C  
HETATM    7  C   UNL     1      -9.822   6.758  70.637  1.00  0.00    -0.191 C  
HETATM    8  C   UNL     1      -8.737   5.104  65.783  1.00  0.00    -0.139 C  
HETATM    9  C   UNL     1     -10.271   6.840  72.107  1.00  0.00    -0.213 C  
HETATM   10  C   UNL     1      -9.022   4.700  64.351  1.00  0.00    -0.142 C  
HETATM   11  C   UNL     1     -10.759   5.850  72.895  1.00  0.00    -0.281 C  
HETATM   12  C   UNL     1     -10.246   8.243  72.653  1.00  0.00    -0.368 C  
HETATM   13  C   UNL     1      -7.754   4.490  63.475  1.00  0.00    -0.074 C  
HETATM   14  C   UNL     1      -9.987   3.512  64.318  1.00  0.00    -0.191 C  
HETATM   15  C   UNL     1      -6.790   5.683  63.568  1.00  0.00    -0.040 C  
HETATM   16  C   UNL     1     -11.064   9.216  71.805  1.00  0.00    -0.437 C  
HETATM   17  C   UNL     1      -8.965   9.162  69.726  1.00  0.00    -0.168 C  
HETATM   18  C   UNL     1      -6.978   3.197  63.742  1.00  0.00    -0.048 C  
HETATM   19  C   UNL     1     -11.305   8.752  70.336  1.00  0.00    -0.213 C  
HETATM   20  C   UNL     1     -10.033   8.053  69.751  1.00  0.00    -0.191 C  
ENDROOT
BRANCH  11  21
HETATM   21  C   UNL     1     -10.824   4.426  72.613  1.00  0.00    -0.166 C  
HETATM   22  C   UNL     1      -9.989   2.102  72.192  1.00  0.00    -0.230 C  
HETATM   23  C   UNL     1      -9.790   3.559  72.590  1.00  0.00    -0.211 C  
HETATM   24  C   UNL     1      -9.099   1.736  71.006  1.00  0.00    -0.081 C  
HETATM   25  O   UNL     1      -9.529   2.402  69.815  1.00  0.00    -0.119 OA 
HETATM   26  C   UNL     1      -7.628   2.068  71.280  1.00  0.00    -0.036 C  
HETATM   27  H   UNL     1      -8.975   2.175  69.077  1.00  0.00     0.000 HD 
HETATM   28  C   UNL     1      -7.440   3.519  71.735  1.00  0.00    -0.052 C  
HETATM   29  O   UNL     1      -6.076   3.698  72.125  1.00  0.00    -0.012 OA 
HETATM   30  C   UNL     1      -8.386   3.868  72.883  1.00  0.00    -0.095 C  
HETATM   31  H   UNL     1      -5.960   4.598  72.408  1.00  0.00     0.000 HD 
HETATM   32  C   UNL     1      -8.000   4.361  74.071  1.00  0.00    -0.093 C  
ENDBRANCH  11  21
TORSDOF 1
ENDMDL
MODEL       47
REMARK 921   NORMALIZED FREE ENERGY PREDICTED BY IDOCK:   -5.53 KCAL/MOL
REMARK 922        TOTAL FREE ENERGY PREDICTED BY IDOCK:   -6.30 KCAL/MOL
REMARK 923 INTER-LIGAND FREE ENERGY PREDICTED BY IDOCK:   -5.18 KCAL/MOL
REMARK 924 INTRA-LIGAND FREE ENERGY PREDICTED BY IDOCK:   -1.12 KCAL/MOL
REMARK 927      BINDING AFFINITY PREDICTED BY RF-SCORE:    0.00 PKD
ROOT
HETATM    1  C   UNL     1      -9.884   9.409  66.667  1.00  0.00    -0.309 C  
HETATM    2  C   UNL     1     -10.700   8.138  66.911  1.00  0.00    -0.186 C  
HETATM    3  C   UNL     1      -8.365   8.959  66.488  1.00  0.00    -0.115 C  
HETATM    4  C   UNL     1      -7.309  10.056  66.318  1.00  0.00    -0.106 C  
HETATM    5  C   UNL     1     -10.653   7.930  68.413  1.00  0.00    -0.154 C  
HETATM    6  C   UNL     1      -8.217   8.114  65.234  1.00  0.00    -0.150 C  
HETATM    7  C   UNL     1     -10.191   9.246  69.091  1.00  0.00    -0.214 C  
HETATM    8  C   UNL     1      -7.647   6.898  65.156  1.00  0.00    -0.102 C  
HETATM    9  C   UNL     1     -11.039   9.532  70.343  1.00  0.00    -0.330 C  
HETATM   10  C   UNL     1      -7.482   6.197  63.822  1.00  0.00    -0.075 C  
HETATM   11  C   UNL     1     -11.635   8.646  71.177  1.00  0.00    -0.330 C  
HETATM   12  C   UNL     1     -11.294  11.000  70.558  1.00  0.00    -0.116 C  
HETATM   13  C   UNL     1      -6.006   6.017  63.366  1.00  0.00    -0.022 C  
HETATM   14  C   UNL     1      -8.287   4.895  63.805  1.00  0.00    -0.127 C  
HETATM   15  C   UNL     1      -5.219   7.334  63.439  1.00  0.00    -0.033 C  
HETATM   16  C   UNL     1     -11.928  11.668  69.338  1.00  0.00    -0.381 C  
HETATM   17  C   UNL     1      -9.335  11.539  67.926  1.00  0.00    -0.171 C  
HETATM   18  C   UNL     1      -5.222   4.924  64.097  1.00  0.00    -0.009 C  
HETATM   19  C   UNL     1     -11.705  10.910  67.994  1.00  0.00    -0.205 C  
HETATM   20  C   UNL     1     -10.263  10.309  67.919  1.00  0.00    -0.217 C  
ENDROOT
BRANCH  11  21
HETATM   21  C   UNL     1     -11.489   7.200  71.206  1.00  0.00    -0.314 C  
HETATM   22  C   UNL     1     -10.383   4.985  71.590  1.00  0.00    -0.262 C  
HETATM   23  C   UNL     1     -10.445   6.503  71.703  1.00  0.00    -0.241 C  
HETATM   24  C   UNL     1      -9.114   4.547  70.860  1.00  0.00    -0.131 C  
HETATM   25  O   UNL     1      -9.161   4.919  69.479  1.00  0.00    -0.105 OA 
HETATM   26  C   UNL     1      -7.857   5.133  71.510  1.00  0.00    -0.111 C  
HETATM   27  H   UNL     1      -8.372   4.647  69.025  1.00  0.00     0.000 HD 
HETATM   28  C   UNL     1      -7.949   6.655  71.674  1.00  0.00    -0.103 C  
HETATM   29  O   UNL     1      -6.820   7.098  72.430  1.00  0.00    -0.063 OA 
HETATM   30  C   UNL     1      -9.255   7.061  72.355  1.00  0.00    -0.148 C  
HETATM   31  H   UNL     1      -6.877   8.041  72.532  1.00  0.00     0.000 HD 
HETATM   32  C   UNL     1      -9.338   7.810  73.467  1.00  0.00    -0.351 C  
ENDBRANCH  11  21
TORSDOF 1
ENDMDL
MODEL       48
REMARK 921   NORMALIZED FREE ENERGY PREDICTED BY IDOCK:   -5.53 KCAL/MOL
REMARK 922        TOTAL FREE ENERGY PREDICTED BY IDOCK:   -6.30 KCAL/MOL
REMARK 923 INTER-LIGAND FREE ENERGY PREDICTED BY IDOCK:   -5.23 KCAL/MOL
REMARK 924 INTRA-LIGAND FREE ENERGY PREDICTED BY IDOCK:   -1.06 KCAL/MOL
REMARK 927      BINDING AFFINITY PREDICTED BY RF-SCORE:    0.00 PKD
ROOT
HETATM    1  C   UNL     1     -12.021   9.774  69.838  1.00  0.00     0.071 C  
HETATM    2  C   UNL     1     -11.086   9.159  68.795  1.00  0.00     0.100 C  
HETATM    3  C   UNL     1     -11.514  11.263  70.096  1.00  0.00    -0.336 C  
HETATM    4  C   UNL     1     -12.227  12.085  71.176  1.00  0.00    -0.144 C  
HETATM    5  C   UNL     1      -9.947   8.562  69.600  1.00  0.00    -0.192 C  
HETATM    6  C   UNL     1     -11.680  12.095  68.836  1.00  0.00    -0.381 C  
HETATM    7  C   UNL     1     -10.384   8.446  71.084  1.00  0.00    -0.264 C  
HETATM    8  C   UNL     1     -10.728  12.834  68.238  1.00  0.00    -0.257 C  
HETATM    9  C   UNL     1      -9.943   7.093  71.669  1.00  0.00    -0.186 C  
HETATM   10  C   UNL     1     -11.049  13.692  67.031  1.00  0.00    -0.313 C  
HETATM   11  C   UNL     1      -8.864   6.343  71.337  1.00  0.00    -0.138 C  
HETATM   12  C   UNL     1     -10.931   6.528  72.655  1.00  0.00    -0.287 C  
HETATM   13  C   UNL     1     -10.929  15.224  67.278  1.00  0.00    -0.327 C  
HETATM   14  C   UNL     1     -10.258  13.209  65.812  1.00  0.00    -0.294 C  
HETATM   15  C   UNL     1     -11.698  15.663  68.533  1.00  0.00    -0.339 C  
HETATM   16  C   UNL     1     -12.337   6.406  72.068  1.00  0.00    -0.268 C  
HETATM   17  C   UNL     1     -12.662   9.338  72.251  1.00  0.00    -0.435 C  
HETATM   18  C   UNL     1      -9.499  15.767  67.351  1.00  0.00    -0.213 C  
HETATM   19  C   UNL     1     -12.611   7.330  70.843  1.00  0.00    -0.237 C  
HETATM   20  C   UNL     1     -11.941   8.731  71.033  1.00  0.00    -0.291 C  
ENDROOT
BRANCH  11  21
HETATM   21  C   UNL     1      -7.755   6.698  70.468  1.00  0.00    -0.104 C  
HETATM   22  C   UNL     1      -5.614   7.795  69.765  1.00  0.00    -0.023 C  
HETATM   23  C   UNL     1      -6.664   7.421  70.804  1.00  0.00    -0.047 C  
HETATM   24  C   UNL     1      -5.436   9.311  69.697  1.00  0.00    -0.034 C  
HETATM   25  O   UNL     1      -6.596   9.941  69.146  1.00  0.00    -0.051 OA 
HETATM   26  C   UNL     1      -5.129   9.907  71.074  1.00  0.00    -0.051 C  
HETATM   27  H   UNL     1      -6.485  10.884  69.103  1.00  0.00     0.000 HD 
HETATM   28  C   UNL     1      -6.157   9.480  72.128  1.00  0.00     0.222 C  
HETATM   29  O   UNL     1      -5.711   9.939  73.407  1.00  0.00    -0.306 OA 
HETATM   30  C   UNL     1      -6.353   7.965  72.131  1.00  0.00    -0.050 C  
HETATM   31  H   UNL     1      -6.349   9.674  74.060  1.00  0.00     0.000 HD 
HETATM   32  C   UNL     1      -6.214   7.176  73.208  1.00  0.00    -0.057 C  
ENDBRANCH  11  21
TORSDOF 1
ENDMDL
MODEL       49
REMARK 921   NORMALIZED FREE ENERGY PREDICTED BY IDOCK:   -5.52 KCAL/MOL
REMARK 922        TOTAL FREE ENERGY PREDICTED BY IDOCK:   -6.28 KCAL/MOL
REMARK 923 INTER-LIGAND FREE ENERGY PREDICTED BY IDOCK:   -5.23 KCAL/MOL
REMARK 924 INTRA-LIGAND FREE ENERGY PREDICTED BY IDOCK:   -1.05 KCAL/MOL
REMARK 927      BINDING AFFINITY PREDICTED BY RF-SCORE:    0.00 PKD
ROOT
HETATM    1  C   UNL     1      -7.569   8.248  66.968  1.00  0.00    -0.092 C  
HETATM    2  C   UNL     1      -6.722   8.456  68.224  1.00  0.00    -0.065 C  
HETATM    3  C   UNL     1      -8.809   9.243  67.072  1.00  0.00    -0.135 C  
HETATM    4  C   UNL     1      -9.876   9.177  65.974  1.00  0.00    -0.342 C  
HETATM    5  C   UNL     1      -7.313   7.508  69.251  1.00  0.00    -0.089 C  
HETATM    6  C   UNL     1      -8.326  10.683  67.024  1.00  0.00    -0.126 C  
HETATM    7  C   UNL     1      -8.202   6.465  68.523  1.00  0.00    -0.113 C  
HETATM    8  C   UNL     1      -8.623  11.653  67.907  1.00  0.00    -0.150 C  
HETATM    9  C   UNL     1      -7.960   5.058  69.097  1.00  0.00    -0.080 C  
HETATM   10  C   UNL     1      -8.148  13.076  67.693  1.00  0.00    -0.172 C  
HETATM   11  C   UNL     1      -7.602   4.713  70.358  1.00  0.00    -0.054 C  
HETATM   12  C   UNL     1      -8.041   3.975  68.054  1.00  0.00    -0.088 C  
HETATM   13  C   UNL     1      -9.285  14.103  67.425  1.00  0.00    -0.204 C  
HETATM   14  C   UNL     1      -7.205  13.495  68.825  1.00  0.00    -0.096 C  
HETATM   15  C   UNL     1     -10.234  13.629  66.315  1.00  0.00    -0.296 C  
HETATM   16  C   UNL     1      -7.098   4.224  66.878  1.00  0.00    -0.067 C  
HETATM   17  C   UNL     1      -8.889   6.364  65.903  1.00  0.00    -0.142 C  
HETATM   18  C   UNL     1     -10.109  14.506  68.651  1.00  0.00    -0.244 C  
HETATM   19  C   UNL     1      -6.663   5.711  66.700  1.00  0.00    -0.058 C  
HETATM   20  C   UNL     1      -7.850   6.685  66.994  1.00  0.00    -0.108 C  
ENDROOT
BRANCH  11  21
HETATM   21  C   UNL     1      -7.519   5.563  71.534  1.00  0.00    -0.095 C  
HETATM   22  C   UNL     1      -8.322   6.886  73.505  1.00  0.00    -0.134 C  
HETATM   23  C   UNL     1      -8.535   5.913  72.352  1.00  0.00    -0.117 C  
HETATM   24  C   UNL     1      -9.256   8.088  73.379  1.00  0.00    -0.263 C  
HETATM   25  O   UNL     1      -8.893   8.907  72.263  1.00  0.00    -0.397 OA 
HETATM   26  C   UNL     1     -10.720   7.656  73.246  1.00  0.00    -0.409 C  
HETATM   27  H   UNL     1      -9.474   9.656  72.185  1.00  0.00     0.000 HD 
HETATM   28  C   UNL     1     -10.918   6.633  72.122  1.00  0.00    -0.245 C  
HETATM   29  O   UNL     1     -12.267   6.161  72.172  1.00  0.00    -0.407 OA 
HETATM   30  C   UNL     1      -9.931   5.474  72.245  1.00  0.00    -0.211 C  
HETATM   31  H   UNL     1     -12.390   5.527  71.475  1.00  0.00     0.000 HD 
HETATM   32  C   UNL     1     -10.274   4.177  72.303  1.00  0.00    -0.234 C  
ENDBRANCH  11  21
TORSDOF 1
ENDMDL
MODEL       50
REMARK 921   NORMALIZED FREE ENERGY PREDICTED BY IDOCK:   -5.50 KCAL/MOL
REMARK 922        TOTAL FREE ENERGY PREDICTED BY IDOCK:   -6.27 KCAL/MOL
REMARK 923 INTER-LIGAND FREE ENERGY PREDICTED BY IDOCK:   -5.33 KCAL/MOL
REMARK 924 INTRA-LIGAND FREE ENERGY PREDICTED BY IDOCK:   -0.94 KCAL/MOL
REMARK 927      BINDING AFFINITY PREDICTED BY RF-SCORE:    0.00 PKD
ROOT
HETATM    1  C   UNL     1     -10.216  12.232  67.048  1.00  0.00    -0.230 C  
HETATM    2  C   UNL     1     -11.152  11.051  66.791  1.00  0.00    -0.240 C  
HETATM    3  C   UNL     1      -8.726  11.671  66.969  1.00  0.00    -0.173 C  
HETATM    4  C   UNL     1      -7.579  12.639  67.282  1.00  0.00    -0.121 C  
HETATM    5  C   UNL     1     -11.382  10.433  68.157  1.00  0.00    -0.284 C  
HETATM    6  C   UNL     1      -8.425  11.192  65.559  1.00  0.00    -0.003 C  
HETATM    7  C   UNL     1     -10.950  11.448  69.248  1.00  0.00    -0.282 C  
HETATM    8  C   UNL     1      -7.939   9.985  65.215  1.00  0.00    -0.143 C  
HETATM    9  C   UNL     1     -11.980  11.478  70.392  1.00  0.00    -0.459 C  
HETATM   10  C   UNL     1      -7.597   9.664  63.775  1.00  0.00    -0.126 C  
HETATM   11  C   UNL     1     -12.775  10.474  70.836  1.00  0.00    -0.495 C  
HETATM   12  C   UNL     1     -12.162  12.851  70.984  1.00  0.00    -0.211 C  
HETATM   13  C   UNL     1      -6.081   9.440  63.506  1.00  0.00    -0.092 C  
HETATM   14  C   UNL     1      -8.479   8.522  63.263  1.00  0.00    -0.051 C  
HETATM   15  C   UNL     1      -5.225  10.584  64.072  1.00  0.00    -0.160 C  
HETATM   16  C   UNL     1     -12.524  13.898  69.932  1.00  0.00    -0.285 C  
HETATM   17  C   UNL     1      -9.741  13.854  68.937  1.00  0.00    -0.013 C  
HETATM   18  C   UNL     1      -5.517   8.103  63.995  1.00  0.00    -0.048 C  
HETATM   19  C   UNL     1     -12.126  13.517  68.473  1.00  0.00    -0.303 C  
HETATM   20  C   UNL     1     -10.740  12.793  68.439  1.00  0.00    -0.269 C  
ENDROOT
BRANCH  11  21
HETATM   21  C   UNL     1     -12.742   9.070  70.465  1.00  0.00     0.406 C  
HETATM   22  C   UNL     1     -11.778   6.785  70.103  1.00  0.00    -0.370 C  
HETATM   23  C   UNL     1     -11.706   8.217  70.618  1.00  0.00    -0.153 C  
HETATM   24  C   UNL     1     -10.641   6.504  69.121  1.00  0.00    -0.243 C  
HETATM   25  O   UNL     1     -10.819   7.238  67.905  1.00  0.00    -0.397 OA 
HETATM   26  C   UNL     1      -9.274   6.836  69.728  1.00  0.00    -0.146 C  
HETATM   27  H   UNL     1     -10.112   7.063  67.295  1.00  0.00     0.000 HD 
HETATM   28  C   UNL     1      -9.226   8.258  70.297  1.00  0.00    -0.155 C  
HETATM   29  O   UNL     1      -7.985   8.429  70.985  1.00  0.00    -0.087 OA 
HETATM   30  C   UNL     1     -10.407   8.524  71.229  1.00  0.00    -0.288 C  
HETATM   31  H   UNL     1      -7.955   9.311  71.338  1.00  0.00     0.000 HD 
HETATM   32  C   UNL     1     -10.301   8.947  72.499  1.00  0.00     0.093 C  
ENDBRANCH  11  21
TORSDOF 1
ENDMDL
MODEL       51
REMARK 921   NORMALIZED FREE ENERGY PREDICTED BY IDOCK:   -5.49 KCAL/MOL
REMARK 922        TOTAL FREE ENERGY PREDICTED BY IDOCK:   -6.26 KCAL/MOL
REMARK 923 INTER-LIGAND FREE ENERGY PREDICTED BY IDOCK:   -5.15 KCAL/MOL
REMARK 924 INTRA-LIGAND FREE ENERGY PREDICTED BY IDOCK:   -1.11 KCAL/MOL
REMARK 927      BINDING AFFINITY PREDICTED BY RF-SCORE:    0.00 PKD
ROOT
HETATM    1  C   UNL     1      -6.483  11.491  68.223  1.00  0.00    -0.054 C  
HETATM    2  C   UNL     1      -6.801  11.848  66.771  1.00  0.00    -0.006 C  
HETATM    3  C   UNL     1      -7.626  10.496  68.719  1.00  0.00    -0.101 C  
HETATM    4  C   UNL     1      -7.599  10.048  70.185  1.00  0.00    -0.168 C  
HETATM    5  C   UNL     1      -7.720  13.052  66.860  1.00  0.00     0.196 C  
HETATM    6  C   UNL     1      -7.558   9.194  67.939  1.00  0.00    -0.085 C  
HETATM    7  C   UNL     1      -7.620  13.659  68.284  1.00  0.00    -0.130 C  
HETATM    8  C   UNL     1      -8.574   8.602  67.286  1.00  0.00    -0.125 C  
HETATM    9  C   UNL     1      -7.552  15.194  68.210  1.00  0.00    -0.109 C  
HETATM   10  C   UNL     1      -8.394   7.254  66.620  1.00  0.00    -0.121 C  
HETATM   11  C   UNL     1      -8.097  16.018  67.282  1.00  0.00    -0.205 C  
HETATM   12  C   UNL     1      -6.665  15.796  69.268  1.00  0.00    -0.174 C  
HETATM   13  C   UNL     1      -9.215   6.100  67.264  1.00  0.00    -0.117 C  
HETATM   14  C   UNL     1      -8.603   7.378  65.108  1.00  0.00     0.034 C  
HETATM   15  C   UNL     1      -9.013   6.034  68.785  1.00  0.00    -0.118 C  
HETATM   16  C   UNL     1      -5.253  15.213  69.248  1.00  0.00    -0.091 C  
HETATM   17  C   UNL     1      -6.276  12.708  70.437  1.00  0.00     0.103 C  
HETATM   18  C   UNL     1     -10.715   6.111  66.957  1.00  0.00    -0.423 C  
HETATM   19  C   UNL     1      -5.138  13.815  68.567  1.00  0.00    -0.092 C  
HETATM   20  C   UNL     1      -6.370  12.917  68.914  1.00  0.00    -0.090 C  
ENDROOT
BRANCH  11  21
HETATM   21  C   UNL     1      -9.025  15.681  66.215  1.00  0.00    -0.377 C  
HETATM   22  C   UNL     1     -11.154  14.900  65.150  1.00  0.00    -0.399 C  
HETATM   23  C   UNL     1     -10.316  15.310  66.354  1.00  0.00    -0.296 C  
HETATM   24  C   UNL     1     -11.710  13.489  65.332  1.00  0.00    -0.332 C  
HETATM   25  O   UNL     1     -10.665  12.513  65.279  1.00  0.00    -0.272 OA 
HETATM   26  C   UNL     1     -12.479  13.349  66.650  1.00  0.00    -0.212 C  
HETATM   27  H   UNL     1     -11.011  11.635  65.392  1.00  0.00     0.000 HD 
HETATM   28  C   UNL     1     -11.652  13.819  67.852  1.00  0.00    -0.341 C  
HETATM   29  O   UNL     1     -12.491  13.812  69.010  1.00  0.00    -0.374 OA 
HETATM   30  C   UNL     1     -11.063  15.208  67.613  1.00  0.00    -0.318 C  
HETATM   31  H   UNL     1     -11.977  14.103  69.754  1.00  0.00     0.000 HD 
HETATM   32  C   UNL     1     -11.235  16.263  68.425  1.00  0.00    -0.349 C  
ENDBRANCH  11  21
TORSDOF 1
ENDMDL
MODEL       52
REMARK 921   NORMALIZED FREE ENERGY PREDICTED BY IDOCK:   -5.49 KCAL/MOL
REMARK 922        TOTAL FREE ENERGY PREDICTED BY IDOCK:   -6.26 KCAL/MOL
REMARK 923 INTER-LIGAND FREE ENERGY PREDICTED BY IDOCK:   -5.33 KCAL/MOL
REMARK 924 INTRA-LIGAND FREE ENERGY PREDICTED BY IDOCK:   -0.93 KCAL/MOL
REMARK 927      BINDING AFFINITY PREDICTED BY RF-SCORE:    0.00 PKD
ROOT
HETATM    1  C   UNL     1     -10.944  11.529  66.873  1.00  0.00    -0.350 C  
HETATM    2  C   UNL     1     -10.610  11.542  68.366  1.00  0.00    -0.227 C  
HETATM    3  C   UNL     1      -9.932  10.511  66.180  1.00  0.00    -0.286 C  
HETATM    4  C   UNL     1      -9.988  10.374  64.654  1.00  0.00    -0.408 C  
HETATM    5  C   UNL     1      -9.540  12.607  68.515  1.00  0.00    -0.112 C  
HETATM    6  C   UNL     1     -10.187   9.100  66.682  1.00  0.00    -0.328 C  
HETATM    7  C   UNL     1      -9.530  13.494  67.243  1.00  0.00    -0.230 C  
HETATM    8  C   UNL     1      -9.270   8.260  67.195  1.00  0.00    -0.175 C  
HETATM    9  C   UNL     1      -9.396  14.979  67.625  1.00  0.00    -0.194 C  
HETATM   10  C   UNL     1      -9.640   6.841  67.578  1.00  0.00    -0.146 C  
HETATM   11  C   UNL     1      -8.766  15.520  68.696  1.00  0.00    -0.188 C  
HETATM   12  C   UNL     1     -10.175  15.893  66.716  1.00  0.00    -0.283 C  
HETATM   13  C   UNL     1      -8.965   5.741  66.709  1.00  0.00    -0.118 C  
HETATM   14  C   UNL     1      -9.446   6.631  69.082  1.00  0.00    -0.136 C  
HETATM   15  C   UNL     1      -9.143   6.009  65.207  1.00  0.00     0.153 C  
HETATM   16  C   UNL     1     -11.652  15.511  66.628  1.00  0.00     0.163 C  
HETATM   17  C   UNL     1     -10.944  13.182  64.952  1.00  0.00    -0.337 C  
HETATM   18  C   UNL     1      -7.483   5.490  67.001  1.00  0.00    -0.088 C  
HETATM   19  C   UNL     1     -11.963  14.033  67.014  1.00  0.00    -0.472 C  
HETATM   20  C   UNL     1     -10.853  13.066  66.485  1.00  0.00    -0.294 C  
ENDROOT
BRANCH  11  21
HETATM   21  C   UNL     1      -7.912  14.856  69.666  1.00  0.00    -0.010 C  
HETATM   22  C   UNL     1      -6.007  13.469  70.519  1.00  0.00    -0.133 C  
HETATM   23  C   UNL     1      -6.761  14.197  69.413  1.00  0.00    -0.116 C  
HETATM   24  C   UNL     1      -5.829  11.992  70.172  1.00  0.00    -0.162 C  
HETATM   25  O   UNL     1      -7.082  11.302  70.200  1.00  0.00    -0.440 OA 
HETATM   26  C   UNL     1      -5.169  11.808  68.801  1.00  0.00    -0.049 C  
HETATM   27  H   UNL     1      -6.971  10.383  69.984  1.00  0.00     0.000 HD 
HETATM   28  C   UNL     1      -5.898  12.590  67.702  1.00  0.00    -0.134 C  
HETATM   29  O   UNL     1      -5.132  12.500  66.499  1.00  0.00    -0.280 OA 
HETATM   30  C   UNL     1      -6.111  14.048  68.106  1.00  0.00    -0.129 C  
HETATM   31  H   UNL     1      -5.584  12.985  65.818  1.00  0.00     0.000 HD 
HETATM   32  C   UNL     1      -5.712  15.109  67.386  1.00  0.00     0.184 C  
ENDBRANCH  11  21
TORSDOF 1
ENDMDL
MODEL       53
REMARK 921   NORMALIZED FREE ENERGY PREDICTED BY IDOCK:   -5.48 KCAL/MOL
REMARK 922        TOTAL FREE ENERGY PREDICTED BY IDOCK:   -6.25 KCAL/MOL
REMARK 923 INTER-LIGAND FREE ENERGY PREDICTED BY IDOCK:   -5.67 KCAL/MOL
REMARK 924 INTRA-LIGAND FREE ENERGY PREDICTED BY IDOCK:   -0.58 KCAL/MOL
REMARK 927      BINDING AFFINITY PREDICTED BY RF-SCORE:    0.00 PKD
ROOT
HETATM    1  C   UNL     1      -7.371  10.798  68.112  1.00  0.00    -0.088 C  
HETATM    2  C   UNL     1      -8.399  11.410  69.063  1.00  0.00     0.036 C  
HETATM    3  C   UNL     1      -8.170  10.282  66.833  1.00  0.00    -0.123 C  
HETATM    4  C   UNL     1      -7.383   9.535  65.750  1.00  0.00    -0.097 C  
HETATM    5  C   UNL     1      -8.881  10.250  69.914  1.00  0.00     0.018 C  
HETATM    6  C   UNL     1      -8.782  11.458  66.092  1.00  0.00    -0.153 C  
HETATM    7  C   UNL     1      -7.881   9.072  69.773  1.00  0.00    -0.086 C  
HETATM    8  C   UNL     1     -10.071  11.588  65.730  1.00  0.00    -0.278 C  
HETATM    9  C   UNL     1      -7.611   8.430  71.146  1.00  0.00    -0.089 C  
HETATM   10  C   UNL     1     -10.537  12.776  64.912  1.00  0.00    -0.336 C  
HETATM   11  C   UNL     1      -8.442   8.343  72.213  1.00  0.00    -0.242 C  
HETATM   12  C   UNL     1      -6.192   7.952  71.302  1.00  0.00    -0.034 C  
HETATM   13  C   UNL     1     -11.020  12.422  63.477  1.00  0.00    -0.506 C  
HETATM   14  C   UNL     1     -11.551  13.601  65.709  1.00  0.00    -0.349 C  
HETATM   15  C   UNL     1      -9.995  11.558  62.725  1.00  0.00    -0.105 C  
HETATM   16  C   UNL     1      -5.170   9.057  71.035  1.00  0.00    -0.029 C  
HETATM   17  C   UNL     1      -5.729   8.867  68.139  1.00  0.00    -0.039 C  
HETATM   18  C   UNL     1     -12.396  11.757  63.391  1.00  0.00    -0.476 C  
HETATM   19  C   UNL     1      -5.704  10.240  70.172  1.00  0.00    -0.058 C  
HETATM   20  C   UNL     1      -6.644   9.726  69.032  1.00  0.00    -0.049 C  
ENDROOT
BRANCH  11  21
HETATM   21  C   UNL     1      -9.854   8.677  72.283  1.00  0.00    -0.360 C  
HETATM   22  C   UNL     1     -12.302   8.343  72.702  1.00  0.00    -0.278 C  
HETATM   23  C   UNL     1     -10.846   7.900  72.769  1.00  0.00    -0.451 C  
HETATM   24  C   UNL     1     -13.146   7.317  71.947  1.00  0.00    -0.242 C  
HETATM   25  O   UNL     1     -12.806   7.294  70.557  1.00  0.00    -0.590 OA 
HETATM   26  C   UNL     1     -12.993   5.912  72.538  1.00  0.00     0.546 C  
HETATM   27  H   UNL     1     -13.331   6.656  70.087  1.00  0.00     0.000 HD 
HETATM   28  C   UNL     1     -11.523   5.495  72.658  1.00  0.00    -0.272 C  
HETATM   29  O   UNL     1     -11.460   4.254  73.364  1.00  0.00    -0.280 OA 
HETATM   30  C   UNL     1     -10.697   6.568  73.366  1.00  0.00    -0.295 C  
HETATM   31  H   UNL     1     -10.549   3.996  73.439  1.00  0.00     0.000 HD 
HETATM   32  C   UNL     1      -9.941   6.358  74.455  1.00  0.00    -0.370 C  
ENDBRANCH  11  21
TORSDOF 1
ENDMDL
MODEL       54
REMARK 921   NORMALIZED FREE ENERGY PREDICTED BY IDOCK:   -5.45 KCAL/MOL
REMARK 922        TOTAL FREE ENERGY PREDICTED BY IDOCK:   -6.22 KCAL/MOL
REMARK 923 INTER-LIGAND FREE ENERGY PREDICTED BY IDOCK:   -5.76 KCAL/MOL
REMARK 924 INTRA-LIGAND FREE ENERGY PREDICTED BY IDOCK:   -0.46 KCAL/MOL
REMARK 927      BINDING AFFINITY PREDICTED BY RF-SCORE:    0.00 PKD
ROOT
HETATM    1  C   UNL     1     -10.368   7.814  71.949  1.00  0.00    -0.256 C  
HETATM    2  C   UNL     1      -9.355   8.808  71.381  1.00  0.00    -0.328 C  
HETATM    3  C   UNL     1     -10.038   6.394  71.304  1.00  0.00    -0.213 C  
HETATM    4  C   UNL     1     -10.968   5.222  71.636  1.00  0.00    -0.121 C  
HETATM    5  C   UNL     1      -9.987   9.317  70.100  1.00  0.00    -0.251 C  
HETATM    6  C   UNL     1      -8.671   5.917  71.767  1.00  0.00    -0.139 C  
HETATM    7  C   UNL     1     -11.499   8.969  70.110  1.00  0.00    -0.078 C  
HETATM    8  C   UNL     1      -7.662   5.505  70.978  1.00  0.00    -0.103 C  
HETATM    9  C   UNL     1     -12.329  10.162  69.603  1.00  0.00     0.157 C  
HETATM   10  C   UNL     1      -6.376   4.967  71.573  1.00  0.00    -0.030 C  
HETATM   11  C   UNL     1     -11.974  11.114  68.706  1.00  0.00    -0.337 C  
HETATM   12  C   UNL     1     -13.652  10.299  70.308  1.00  0.00     0.617 C  
HETATM   13  C   UNL     1      -6.120   3.458  71.298  1.00  0.00    -0.014 C  
HETATM   14  C   UNL     1      -5.198   5.864  71.185  1.00  0.00    -0.013 C  
HETATM   15  C   UNL     1      -7.339   2.595  71.659  1.00  0.00    -0.040 C  
HETATM   16  C   UNL     1     -13.501  10.380  71.826  1.00  0.00    -0.366 C  
HETATM   17  C   UNL     1     -12.882   7.492  71.913  1.00  0.00    -0.306 C  
HETATM   18  C   UNL     1      -5.667   3.117  69.876  1.00  0.00    -0.018 C  
HETATM   19  C   UNL     1     -12.166   9.791  72.377  1.00  0.00     0.259 C  
HETATM   20  C   UNL     1     -11.758   8.497  71.600  1.00  0.00    -0.369 C  
ENDROOT
BRANCH  11  21
HETATM   21  C   UNL     1     -10.790  11.161  67.866  1.00  0.00    -0.285 C  
HETATM   22  C   UNL     1      -9.359  11.771  65.901  1.00  0.00    -0.214 C  
HETATM   23  C   UNL     1     -10.629  11.883  66.736  1.00  0.00    -0.264 C  
HETATM   24  C   UNL     1      -9.686  11.355  64.468  1.00  0.00    -0.233 C  
HETATM   25  O   UNL     1     -10.161  10.006  64.420  1.00  0.00    -0.416 OA 
HETATM   26  C   UNL     1     -10.721  12.289  63.831  1.00  0.00    -0.463 C  
HETATM   27  H   UNL     1     -10.365   9.747  63.529  1.00  0.00     0.000 HD 
HETATM   28  C   UNL     1     -11.972  12.443  64.703  1.00  0.00    -0.394 C  
HETATM   29  O   UNL     1     -12.807  13.448  64.122  1.00  0.00    -0.635 OA 
HETATM   30  C   UNL     1     -11.606  12.802  66.141  1.00  0.00    -0.431 C  
HETATM   31  H   UNL     1     -13.582  13.544  64.663  1.00  0.00     0.000 HD 
HETATM   32  C   UNL     1     -12.073  13.871  66.807  1.00  0.00    -0.476 C  
ENDBRANCH  11  21
TORSDOF 1
ENDMDL
MODEL       55
REMARK 921   NORMALIZED FREE ENERGY PREDICTED BY IDOCK:   -5.45 KCAL/MOL
REMARK 922        TOTAL FREE ENERGY PREDICTED BY IDOCK:   -6.21 KCAL/MOL
REMARK 923 INTER-LIGAND FREE ENERGY PREDICTED BY IDOCK:   -5.42 KCAL/MOL
REMARK 924 INTRA-LIGAND FREE ENERGY PREDICTED BY IDOCK:   -0.80 KCAL/MOL
REMARK 927      BINDING AFFINITY PREDICTED BY RF-SCORE:    0.00 PKD
ROOT
HETATM    1  C   UNL     1     -10.737   9.080  70.846  1.00  0.00    -0.319 C  
HETATM    2  C   UNL     1      -9.403   8.799  70.153  1.00  0.00    -0.181 C  
HETATM    3  C   UNL     1     -11.461   7.675  71.050  1.00  0.00    -0.294 C  
HETATM    4  C   UNL     1     -12.872   7.675  71.648  1.00  0.00    -0.378 C  
HETATM    5  C   UNL     1      -9.724   8.823  68.671  1.00  0.00    -0.170 C  
HETATM    6  C   UNL     1     -10.659   6.811  72.010  1.00  0.00    -0.239 C  
HETATM    7  C   UNL     1     -11.100   9.509  68.463  1.00  0.00    -0.035 C  
HETATM    8  C   UNL     1     -10.244   5.550  71.789  1.00  0.00    -0.256 C  
HETATM    9  C   UNL     1     -11.044  10.474  67.265  1.00  0.00    -0.284 C  
HETATM   10  C   UNL     1      -9.527   4.765  72.869  1.00  0.00    -0.150 C  
HETATM   11  C   UNL     1     -10.281  10.386  66.148  1.00  0.00    -0.288 C  
HETATM   12  C   UNL     1     -11.883  11.708  67.464  1.00  0.00    -0.196 C  
HETATM   13  C   UNL     1     -10.318   3.540  73.410  1.00  0.00    -0.239 C  
HETATM   14  C   UNL     1      -8.106   4.419  72.415  1.00  0.00    -0.100 C  
HETATM   15  C   UNL     1     -11.752   3.917  73.813  1.00  0.00     0.171 C  
HETATM   16  C   UNL     1     -11.529  12.455  68.749  1.00  0.00    -0.350 C  
HETATM   17  C   UNL     1     -12.869  10.352  70.335  1.00  0.00    -0.249 C  
HETATM   18  C   UNL     1     -10.362   2.324  72.480  1.00  0.00    -0.219 C  
HETATM   19  C   UNL     1     -10.811  11.587  69.827  1.00  0.00     0.049 C  
HETATM   20  C   UNL     1     -11.412  10.144  69.880  1.00  0.00    -0.317 C  
ENDROOT
BRANCH  11  21
HETATM   21  C   UNL     1      -9.449   9.278  65.712  1.00  0.00    -0.329 C  
HETATM   22  C   UNL     1      -7.349   8.033  65.147  1.00  0.00    -0.074 C  
HETATM   23  C   UNL     1      -8.099   9.231  65.715  1.00  0.00    -0.115 C  
HETATM   24  C   UNL     1      -6.393   8.468  64.037  1.00  0.00    -0.072 C  
HETATM   25  O   UNL     1      -7.113   8.909  62.882  1.00  0.00    -0.090 OA 
HETATM   26  C   UNL     1      -5.446   9.576  64.509  1.00  0.00    -0.061 C  
HETATM   27  H   UNL     1      -6.518   9.180  62.191  1.00  0.00     0.000 HD 
HETATM   28  C   UNL     1      -6.203  10.754  65.133  1.00  0.00     0.057 C  
HETATM   29  O   UNL     1      -5.249  11.661  65.691  1.00  0.00    -0.478 OA 
HETATM   30  C   UNL     1      -7.191  10.278  66.197  1.00  0.00    -0.121 C  
HETATM   31  H   UNL     1      -5.719  12.390  66.078  1.00  0.00     0.000 HD 
HETATM   32  C   UNL     1      -7.220  10.716  67.466  1.00  0.00    -0.090 C  
ENDBRANCH  11  21
TORSDOF 1
ENDMDL
MODEL       56
REMARK 921   NORMALIZED FREE ENERGY PREDICTED BY IDOCK:   -5.45 KCAL/MOL
REMARK 922        TOTAL FREE ENERGY PREDICTED BY IDOCK:   -6.21 KCAL/MOL
REMARK 923 INTER-LIGAND FREE ENERGY PREDICTED BY IDOCK:   -5.14 KCAL/MOL
REMARK 924 INTRA-LIGAND FREE ENERGY PREDICTED BY IDOCK:   -1.07 KCAL/MOL
REMARK 927      BINDING AFFINITY PREDICTED BY RF-SCORE:    0.00 PKD
ROOT
HETATM    1  C   UNL     1     -11.311   9.090  68.980  1.00  0.00     0.373 C  
HETATM    2  C   UNL     1     -10.639   8.472  67.754  1.00  0.00    -0.242 C  
HETATM    3  C   UNL     1     -10.837  10.610  69.054  1.00  0.00    -0.277 C  
HETATM    4  C   UNL     1     -11.296  11.447  70.253  1.00  0.00    -0.116 C  
HETATM    5  C   UNL     1      -9.303   7.962  68.260  1.00  0.00    -0.145 C  
HETATM    6  C   UNL     1     -11.361  11.378  67.852  1.00  0.00    -0.371 C  
HETATM    7  C   UNL     1      -9.343   7.892  69.809  1.00  0.00    -0.153 C  
HETATM    8  C   UNL     1     -10.632  12.130  67.007  1.00  0.00    -0.256 C  
HETATM    9  C   UNL     1      -8.696   6.587  70.305  1.00  0.00    -0.151 C  
HETATM   10  C   UNL     1     -11.294  12.920  65.896  1.00  0.00    -0.348 C  
HETATM   11  C   UNL     1      -7.698   5.871  69.733  1.00  0.00    -0.089 C  
HETATM   12  C   UNL     1      -9.371   6.023  71.528  1.00  0.00    -0.161 C  
HETATM   13  C   UNL     1     -11.197  14.464  66.055  1.00  0.00    -0.333 C  
HETATM   14  C   UNL     1     -10.813  12.418  64.531  1.00  0.00    -0.358 C  
HETATM   15  C   UNL     1     -11.647  14.924  67.451  1.00  0.00    -0.347 C  
HETATM   16  C   UNL     1     -10.871   5.814  71.324  1.00  0.00    -0.313 C  
HETATM   17  C   UNL     1     -11.296   8.734  71.490  1.00  0.00    -0.375 C  
HETATM   18  C   UNL     1      -9.828  15.072  65.744  1.00  0.00    -0.386 C  
HETATM   19  C   UNL     1     -11.495   6.670  70.180  1.00  0.00    -0.444 C  
HETATM   20  C   UNL     1     -10.875   8.106  70.148  1.00  0.00    -0.241 C  
ENDROOT
BRANCH  11  21
HETATM   21  C   UNL     1      -6.865   6.236  68.599  1.00  0.00    -0.074 C  
HETATM   22  C   UNL     1      -5.232   7.578  67.253  1.00  0.00    -0.026 C  
HETATM   23  C   UNL     1      -5.979   7.253  68.541  1.00  0.00    -0.027 C  
HETATM   24  C   UNL     1      -5.488   9.023  66.828  1.00  0.00    -0.040 C  
HETATM   25  O   UNL     1      -6.844   9.202  66.407  1.00  0.00    -0.077 OA 
HETATM   26  C   UNL     1      -5.163  10.010  67.953  1.00  0.00    -0.038 C  
HETATM   27  H   UNL     1      -7.003  10.101  66.142  1.00  0.00     0.000 HD 
HETATM   28  C   UNL     1      -5.871   9.645  69.263  1.00  0.00    -0.034 C  
HETATM   29  O   UNL     1      -5.390  10.509  70.295  1.00  0.00    -0.044 OA 
HETATM   30  C   UNL     1      -5.642   8.179  69.628  1.00  0.00    -0.026 C  
HETATM   31  H   UNL     1      -5.829  10.282  71.106  1.00  0.00     0.000 HD 
HETATM   32  C   UNL     1      -5.138   7.750  70.796  1.00  0.00    -0.023 C  
ENDBRANCH  11  21
TORSDOF 1
ENDMDL
MODEL       57
REMARK 921   NORMALIZED FREE ENERGY PREDICTED BY IDOCK:   -5.34 KCAL/MOL
REMARK 922        TOTAL FREE ENERGY PREDICTED BY IDOCK:   -6.09 KCAL/MOL
REMARK 923 INTER-LIGAND FREE ENERGY PREDICTED BY IDOCK:   -5.14 KCAL/MOL
REMARK 924 INTRA-LIGAND FREE ENERGY PREDICTED BY IDOCK:   -0.95 KCAL/MOL
REMARK 927      BINDING AFFINITY PREDICTED BY RF-SCORE:    0.00 PKD
ROOT
HETATM    1  C   UNL     1      -9.414  10.669  69.121  1.00  0.00    -0.185 C  
HETATM    2  C   UNL     1      -7.911  10.523  68.876  1.00  0.00    -0.128 C  
HETATM    3  C   UNL     1      -9.904   9.323  69.819  1.00  0.00    -0.202 C  
HETATM    4  C   UNL     1     -11.403   9.164  70.096  1.00  0.00    -0.164 C  
HETATM    5  C   UNL     1      -7.803   9.857  67.517  1.00  0.00    -0.098 C  
HETATM    6  C   UNL     1      -9.264   9.183  71.189  1.00  0.00    -0.301 C  
HETATM    7  C   UNL     1      -9.164   9.982  66.784  1.00  0.00    -0.173 C  
HETATM    8  C   UNL     1      -8.587   8.114  71.647  1.00  0.00    -0.181 C  
HETATM    9  C   UNL     1      -8.947  10.356  65.307  1.00  0.00    -0.212 C  
HETATM   10  C   UNL     1      -8.073   8.068  73.072  1.00  0.00    -0.222 C  
HETATM   11  C   UNL     1      -7.899  10.046  64.505  1.00  0.00    -0.145 C  
HETATM   12  C   UNL     1     -10.013  11.273  64.770  1.00  0.00    -0.327 C  
HETATM   13  C   UNL     1      -8.754   6.995  73.969  1.00  0.00    -0.200 C  
HETATM   14  C   UNL     1      -6.544   7.986  73.081  1.00  0.00    -0.095 C  
HETATM   15  C   UNL     1     -10.286   7.080  73.900  1.00  0.00    -0.386 C  
HETATM   16  C   UNL     1     -10.172  12.541  65.608  1.00  0.00    -0.287 C  
HETATM   17  C   UNL     1     -11.507  10.968  67.724  1.00  0.00    -0.339 C  
HETATM   18  C   UNL     1      -8.320   5.550  73.709  1.00  0.00    -0.111 C  
HETATM   19  C   UNL     1      -9.643  12.422  67.070  1.00  0.00    -0.211 C  
HETATM   20  C   UNL     1      -9.969  11.016  67.674  1.00  0.00    -0.196 C  
ENDROOT
BRANCH  11  21
HETATM   21  C   UNL     1      -6.795   9.142  64.778  1.00  0.00    -0.085 C  
HETATM   22  C   UNL     1      -5.540   6.976  64.888  1.00  0.00    -0.032 C  
HETATM   23  C   UNL     1      -6.727   7.831  64.463  1.00  0.00    -0.052 C  
HETATM   24  C   UNL     1      -6.001   5.785  65.727  1.00  0.00    -0.025 C  
HETATM   25  O   UNL     1      -6.494   6.213  67.000  1.00  0.00    -0.049 OA 
HETATM   26  C   UNL     1      -7.077   4.967  65.005  1.00  0.00    -0.062 C  
HETATM   27  H   UNL     1      -6.780   5.473  67.522  1.00  0.00     0.000 HD 
HETATM   28  C   UNL     1      -8.242   5.842  64.529  1.00  0.00    -0.122 C  
HETATM   29  O   UNL     1      -9.114   5.039  63.730  1.00  0.00    -0.334 OA 
HETATM   30  C   UNL     1      -7.743   7.053  63.744  1.00  0.00    -0.111 C  
HETATM   31  H   UNL     1      -9.836   5.581  63.435  1.00  0.00     0.000 HD 
HETATM   32  C   UNL     1      -8.135   7.375  62.500  1.00  0.00    -0.104 C  
ENDBRANCH  11  21
TORSDOF 1
ENDMDL
MODEL       58
REMARK 921   NORMALIZED FREE ENERGY PREDICTED BY IDOCK:   -5.20 KCAL/MOL
REMARK 922        TOTAL FREE ENERGY PREDICTED BY IDOCK:   -5.95 KCAL/MOL
REMARK 923 INTER-LIGAND FREE ENERGY PREDICTED BY IDOCK:   -5.48 KCAL/MOL
REMARK 924 INTRA-LIGAND FREE ENERGY PREDICTED BY IDOCK:   -0.47 KCAL/MOL
REMARK 927      BINDING AFFINITY PREDICTED BY RF-SCORE:    0.00 PKD
ROOT
HETATM    1  C   UNL     1      -7.901  10.294  66.696  1.00  0.00    -0.116 C  
HETATM    2  C   UNL     1      -7.390  10.365  68.136  1.00  0.00    -0.088 C  
HETATM    3  C   UNL     1      -9.243  11.152  66.636  1.00  0.00    -0.188 C  
HETATM    4  C   UNL     1     -10.020  11.175  65.315  1.00  0.00    -0.311 C  
HETATM    5  C   UNL     1      -8.078   9.216  68.849  1.00  0.00    -0.100 C  
HETATM    6  C   UNL     1      -8.938  12.616  66.905  1.00  0.00    -0.213 C  
HETATM    7  C   UNL     1      -8.649   8.235  67.791  1.00  0.00    -0.131 C  
HETATM    8  C   UNL     1      -9.540  13.401  67.817  1.00  0.00    -0.213 C  
HETATM    9  C   UNL     1      -8.377   6.779  68.206  1.00  0.00    -0.118 C  
HETATM   10  C   UNL     1      -9.202  14.874  67.923  1.00  0.00    -0.183 C  
HETATM   11  C   UNL     1      -8.272   6.265  69.456  1.00  0.00    -0.117 C  
HETATM   12  C   UNL     1      -8.091   5.877  67.034  1.00  0.00    -0.102 C  
HETATM   13  C   UNL     1     -10.364  15.832  67.534  1.00  0.00    -0.280 C  
HETATM   14  C   UNL     1      -8.595  15.181  69.295  1.00  0.00    -0.211 C  
HETATM   15  C   UNL     1     -10.976  15.467  66.173  1.00  0.00    -0.279 C  
HETATM   16  C   UNL     1      -6.945   6.393  66.165  1.00  0.00    -0.066 C  
HETATM   17  C   UNL     1      -8.713   8.505  65.095  1.00  0.00    -0.156 C  
HETATM   18  C   UNL     1     -11.485  15.960  68.570  1.00  0.00    -0.377 C  
HETATM   19  C   UNL     1      -6.661   7.919  66.305  1.00  0.00    -0.050 C  
HETATM   20  C   UNL     1      -7.992   8.730  66.437  1.00  0.00    -0.103 C  
ENDROOT
BRANCH  11  21
HETATM   21  C   UNL     1      -8.558   6.916  70.723  1.00  0.00    -0.144 C  
HETATM   22  C   UNL     1      -9.272   7.130  73.115  1.00  0.00    -0.179 C  
HETATM   23  C   UNL     1      -8.916   6.315  71.878  1.00  0.00    -0.139 C  
HETATM   24  C   UNL     1     -10.681   6.793  73.600  1.00  0.00    -0.254 C  
HETATM   25  O   UNL     1     -11.668   7.259  72.675  1.00  0.00    -0.470 OA 
HETATM   26  C   UNL     1     -10.856   5.287  73.825  1.00  0.00    -0.315 C  
HETATM   27  H   UNL     1     -12.545   7.050  72.976  1.00  0.00     0.000 HD 
HETATM   28  C   UNL     1     -10.441   4.469  72.597  1.00  0.00    -0.195 C  
HETATM   29  O   UNL     1     -10.478   3.082  72.943  1.00  0.00    -0.155 OA 
HETATM   30  C   UNL     1      -9.052   4.872  72.104  1.00  0.00    -0.148 C  
HETATM   31  H   UNL     1     -10.221   2.575  72.182  1.00  0.00     0.000 HD 
HETATM   32  C   UNL     1      -8.025   4.025  71.933  1.00  0.00    -0.079 C  
ENDBRANCH  11  21
TORSDOF 1
ENDMDL
MODEL       59
REMARK 921   NORMALIZED FREE ENERGY PREDICTED BY IDOCK:   -5.14 KCAL/MOL
REMARK 922        TOTAL FREE ENERGY PREDICTED BY IDOCK:   -5.89 KCAL/MOL
REMARK 923 INTER-LIGAND FREE ENERGY PREDICTED BY IDOCK:   -5.78 KCAL/MOL
REMARK 924 INTRA-LIGAND FREE ENERGY PREDICTED BY IDOCK:   -0.11 KCAL/MOL
REMARK 927      BINDING AFFINITY PREDICTED BY RF-SCORE:    0.00 PKD
ROOT
HETATM    1  C   UNL     1     -10.799  14.763  67.777  1.00  0.00    -0.278 C  
HETATM    2  C   UNL     1     -10.304  14.941  69.213  1.00  0.00    -0.240 C  
HETATM    3  C   UNL     1     -10.150  13.416  67.225  1.00  0.00    -0.238 C  
HETATM    4  C   UNL     1     -10.412  13.042  65.761  1.00  0.00    -0.292 C  
HETATM    5  C   UNL     1      -8.997  15.701  69.082  1.00  0.00    -0.257 C  
HETATM    6  C   UNL     1     -10.681  12.225  68.005  1.00  0.00    -0.245 C  
HETATM    7  C   UNL     1      -8.918  16.328  67.665  1.00  0.00    -0.194 C  
HETATM    8  C   UNL     1      -9.943  11.275  68.607  1.00  0.00    -0.210 C  
HETATM    9  C   UNL     1      -8.385  17.769  67.744  1.00  0.00    -0.235 C  
HETATM   10  C   UNL     1     -10.600  10.086  69.280  1.00  0.00    -0.249 C  
HETATM   11  C   UNL     1      -7.525  18.301  68.647  1.00  0.00    -0.308 C  
HETATM   12  C   UNL     1      -9.017  18.687  66.731  1.00  0.00    -0.297 C  
HETATM   13  C   UNL     1     -10.315   8.719  68.595  1.00  0.00    -0.230 C  
HETATM   14  C   UNL     1     -10.292  10.090  70.780  1.00  0.00    -0.063 C  
HETATM   15  C   UNL     1     -10.594   8.766  67.084  1.00  0.00    -0.303 C  
HETATM   16  C   UNL     1     -10.543  18.692  66.818  1.00  0.00    -0.422 C  
HETATM   17  C   UNL     1     -10.618  16.011  65.577  1.00  0.00    -0.415 C  
HETATM   18  C   UNL     1      -8.915   8.145  68.829  1.00  0.00    -0.144 C  
HETATM   19  C   UNL     1     -11.158  17.433  67.502  1.00  0.00     0.052 C  
HETATM   20  C   UNL     1     -10.383  16.136  67.095  1.00  0.00    -0.291 C  
ENDROOT
BRANCH  11  21
HETATM   21  C   UNL     1      -6.752  17.612  69.667  1.00  0.00    -0.015 C  
HETATM   22  C   UNL     1      -5.280  15.850  70.670  1.00  0.00    -0.168 C  
HETATM   23  C   UNL     1      -5.968  16.527  69.491  1.00  0.00    -0.184 C  
HETATM   24  C   UNL     1      -5.681  14.379  70.761  1.00  0.00    -0.184 C  
HETATM   25  O   UNL     1      -7.055  14.242  71.135  1.00  0.00     0.271 OA 
HETATM   26  C   UNL     1      -5.431  13.642  69.441  1.00  0.00    -0.085 C  
HETATM   27  H   UNL     1      -7.305  13.327  71.192  1.00  0.00     0.000 HD 
HETATM   28  C   UNL     1      -6.077  14.359  68.250  1.00  0.00    -0.119 C  
HETATM   29  O   UNL     1      -5.661  13.705  67.048  1.00  0.00    -0.212 OA 
HETATM   30  C   UNL     1      -5.702  15.839  68.223  1.00  0.00    -0.116 C  
HETATM   31  H   UNL     1      -6.062  14.149  66.310  1.00  0.00     0.000 HD 
HETATM   32  C   UNL     1      -5.138  16.468  67.179  1.00  0.00    -0.107 C  
ENDBRANCH  11  21
TORSDOF 1
ENDMDL
MODEL       60
REMARK 921   NORMALIZED FREE ENERGY PREDICTED BY IDOCK:   -5.06 KCAL/MOL
REMARK 922        TOTAL FREE ENERGY PREDICTED BY IDOCK:   -5.80 KCAL/MOL
REMARK 923 INTER-LIGAND FREE ENERGY PREDICTED BY IDOCK:   -4.72 KCAL/MOL
REMARK 924 INTRA-LIGAND FREE ENERGY PREDICTED BY IDOCK:   -1.08 KCAL/MOL
REMARK 927      BINDING AFFINITY PREDICTED BY RF-SCORE:    0.00 PKD
ROOT
HETATM    1  C   UNL     1      -5.863  10.756  67.819  1.00  0.00    -0.043 C  
HETATM    2  C   UNL     1      -6.015  11.443  66.461  1.00  0.00    -0.130 C  
HETATM    3  C   UNL     1      -6.827   9.487  67.807  1.00  0.00    -0.078 C  
HETATM    4  C   UNL     1      -6.939   8.661  69.094  1.00  0.00    -0.063 C  
HETATM    5  C   UNL     1      -7.175  12.404  66.640  1.00  0.00     0.400 C  
HETATM    6  C   UNL     1      -6.353   8.483  66.770  1.00  0.00    -0.056 C  
HETATM    7  C   UNL     1      -7.439  12.600  68.156  1.00  0.00    -0.122 C  
HETATM    8  C   UNL     1      -7.099   7.933  65.794  1.00  0.00    -0.060 C  
HETATM    9  C   UNL     1      -7.696  14.085  68.469  1.00  0.00    -0.139 C  
HETATM   10  C   UNL     1      -6.525   6.872  64.877  1.00  0.00    -0.043 C  
HETATM   11  C   UNL     1      -8.251  15.030  67.672  1.00  0.00    -0.181 C  
HETATM   12  C   UNL     1      -7.142  14.509  69.804  1.00  0.00    -0.052 C  
HETATM   13  C   UNL     1      -7.168   5.465  65.036  1.00  0.00    -0.066 C  
HETATM   14  C   UNL     1      -6.511   7.374  63.430  1.00  0.00    -0.053 C  
HETATM   15  C   UNL     1      -7.203   5.015  66.505  1.00  0.00    -0.077 C  
HETATM   16  C   UNL     1      -5.652  14.199  69.944  1.00  0.00    -0.105 C  
HETATM   17  C   UNL     1      -6.283  11.329  70.252  1.00  0.00    -0.124 C  
HETATM   18  C   UNL     1      -8.565   5.309  64.430  1.00  0.00    -0.093 C  
HETATM   19  C   UNL     1      -5.129  13.085  68.987  1.00  0.00    -0.069 C  
HETATM   20  C   UNL     1      -6.175  11.933  68.839  1.00  0.00    -0.064 C  
ENDROOT
BRANCH  11  21
HETATM   21  C   UNL     1      -8.900  14.852  66.384  1.00  0.00    -0.196 C  
HETATM   22  C   UNL     1     -10.577  14.004  64.726  1.00  0.00    -0.441 C  
HETATM   23  C   UNL     1     -10.052  14.189  66.144  1.00  0.00    -0.324 C  
HETATM   24  C   UNL     1     -10.756  12.522  64.403  1.00  0.00    -0.350 C  
HETATM   25  O   UNL     1      -9.491  11.859  64.311  1.00  0.00    -0.445 OA 
HETATM   26  C   UNL     1     -11.632  11.818  65.443  1.00  0.00    -0.190 C  
HETATM   27  H   UNL     1      -9.602  10.937  64.109  1.00  0.00     0.000 HD 
HETATM   28  C   UNL     1     -11.133  12.055  66.873  1.00  0.00    -0.302 C  
HETATM   29  O   UNL     1     -12.090  11.508  67.783  1.00  0.00    -0.626 OA 
HETATM   30  C   UNL     1     -10.910  13.542  67.144  1.00  0.00    -0.291 C  
HETATM   31  H   UNL     1     -11.780  11.656  68.670  1.00  0.00     0.000 HD 
HETATM   32  C   UNL     1     -11.466  14.229  68.154  1.00  0.00    -0.336 C  
ENDBRANCH  11  21
TORSDOF 1
ENDMDL
MODEL       61
REMARK 921   NORMALIZED FREE ENERGY PREDICTED BY IDOCK:   -5.03 KCAL/MOL
REMARK 922        TOTAL FREE ENERGY PREDICTED BY IDOCK:   -5.77 KCAL/MOL
REMARK 923 INTER-LIGAND FREE ENERGY PREDICTED BY IDOCK:   -4.87 KCAL/MOL
REMARK 924 INTRA-LIGAND FREE ENERGY PREDICTED BY IDOCK:   -0.90 KCAL/MOL
REMARK 927      BINDING AFFINITY PREDICTED BY RF-SCORE:    0.00 PKD
ROOT
HETATM    1  C   UNL     1      -7.875  12.366  67.779  1.00  0.00    -0.154 C  
HETATM    2  C   UNL     1      -9.314  12.553  67.297  1.00  0.00    -0.190 C  
HETATM    3  C   UNL     1      -7.881  11.138  68.795  1.00  0.00    -0.142 C  
HETATM    4  C   UNL     1      -6.568  10.789  69.505  1.00  0.00    -0.099 C  
HETATM    5  C   UNL     1      -9.947  13.483  68.315  1.00  0.00    -0.237 C  
HETATM    6  C   UNL     1      -8.252   9.859  68.064  1.00  0.00    -0.113 C  
HETATM    7  C   UNL     1      -8.825  14.169  69.138  1.00  0.00     0.231 C  
HETATM    8  C   UNL     1      -9.219   8.992  68.414  1.00  0.00    -0.137 C  
HETATM    9  C   UNL     1      -9.135  15.664  69.329  1.00  0.00    -0.270 C  
HETATM   10  C   UNL     1      -9.427   7.703  67.646  1.00  0.00    -0.165 C  
HETATM   11  C   UNL     1     -10.345  16.270  69.409  1.00  0.00    -0.278 C  
HETATM   12  C   UNL     1      -7.902  16.527  69.311  1.00  0.00    -0.121 C  
HETATM   13  C   UNL     1      -9.111   6.412  68.454  1.00  0.00    -0.118 C  
HETATM   14  C   UNL     1     -10.815   7.691  66.999  1.00  0.00    -0.219 C  
HETATM   15  C   UNL     1      -7.730   6.479  69.124  1.00  0.00    -0.102 C  
HETATM   16  C   UNL     1      -7.067  16.328  68.047  1.00  0.00    -0.143 C  
HETATM   17  C   UNL     1      -6.155  13.709  69.069  1.00  0.00    -0.088 C  
HETATM   18  C   UNL     1     -10.157   6.020  69.501  1.00  0.00    -0.246 C  
HETATM   19  C   UNL     1      -7.313  14.974  67.314  1.00  0.00    -0.195 C  
HETATM   20  C   UNL     1      -7.507  13.807  68.338  1.00  0.00    -0.119 C  
ENDROOT
BRANCH  11  21
HETATM   21  C   UNL     1     -11.656  15.650  69.505  1.00  0.00    -0.366 C  
HETATM   22  C   UNL     1     -13.694  14.684  70.598  1.00  0.00     0.125 C  
HETATM   23  C   UNL     1     -12.362  15.424  70.633  1.00  0.00    -0.451 C  
HETATM   24  C   UNL     1     -13.653  13.451  71.499  1.00  0.00    -0.133 C  
HETATM   25  O   UNL     1     -12.774  12.454  70.967  1.00  0.00    -0.326 OA 
HETATM   26  C   UNL     1     -13.224  13.807  72.926  1.00  0.00    -0.345 C  
HETATM   27  H   UNL     1     -12.749  11.687  71.527  1.00  0.00     0.000 HD 
HETATM   28  C   UNL     1     -11.914  14.602  72.952  1.00  0.00    -0.026 C  
HETATM   29  O   UNL     1     -11.673  15.034  74.294  1.00  0.00    -0.395 OA 
HETATM   30  C   UNL     1     -11.968  15.794  71.998  1.00  0.00    -0.570 C  
HETATM   31  H   UNL     1     -10.861  15.527  74.310  1.00  0.00     0.000 HD 
HETATM   32  C   UNL     1     -11.734  17.069  72.349  1.00  0.00     0.517 C  
ENDBRANCH  11  21
TORSDOF 1
ENDMDL
MODEL       62
REMARK 921   NORMALIZED FREE ENERGY PREDICTED BY IDOCK:   -5.03 KCAL/MOL
REMARK 922        TOTAL FREE ENERGY PREDICTED BY IDOCK:   -5.77 KCAL/MOL
REMARK 923 INTER-LIGAND FREE ENERGY PREDICTED BY IDOCK:   -5.27 KCAL/MOL
REMARK 924 INTRA-LIGAND FREE ENERGY PREDICTED BY IDOCK:   -0.50 KCAL/MOL
REMARK 927      BINDING AFFINITY PREDICTED BY RF-SCORE:    0.00 PKD
ROOT
HETATM    1  C   UNL     1     -10.320   8.287  71.037  1.00  0.00    -0.230 C  
HETATM    2  C   UNL     1      -9.224   9.333  70.828  1.00  0.00    -0.316 C  
HETATM    3  C   UNL     1     -10.113   7.167  69.922  1.00  0.00    -0.197 C  
HETATM    4  C   UNL     1     -11.141   6.033  69.847  1.00  0.00    -0.469 C  
HETATM    5  C   UNL     1      -9.810  10.313  69.828  1.00  0.00    -0.201 C  
HETATM    6  C   UNL     1      -8.793   6.448  70.145  1.00  0.00    -0.150 C  
HETATM    7  C   UNL     1     -11.346  10.107  69.761  1.00  0.00    -0.312 C  
HETATM    8  C   UNL     1      -7.823   6.263  69.232  1.00  0.00    -0.105 C  
HETATM    9  C   UNL     1     -12.069  11.466  69.734  1.00  0.00    -0.388 C  
HETATM   10  C   UNL     1      -6.589   5.446  69.559  1.00  0.00    -0.047 C  
HETATM   11  C   UNL     1     -11.633  12.642  69.221  1.00  0.00    -0.376 C  
HETATM   12  C   UNL     1     -13.376  11.451  70.481  1.00  0.00     0.654 C  
HETATM   13  C   UNL     1      -6.464   4.117  68.760  1.00  0.00    -0.037 C  
HETATM   14  C   UNL     1      -5.337   6.324  69.478  1.00  0.00    -0.013 C  
HETATM   15  C   UNL     1      -7.753   3.285  68.829  1.00  0.00    -0.051 C  
HETATM   16  C   UNL     1     -13.219  10.975  71.925  1.00  0.00    -0.503 C  
HETATM   17  C   UNL     1     -12.852   8.204  70.966  1.00  0.00     0.003 C  
HETATM   18  C   UNL     1      -6.042   4.267  67.297  1.00  0.00    -0.028 C  
HETATM   19  C   UNL     1     -11.941  10.123  72.191  1.00  0.00     0.504 C  
HETATM   20  C   UNL     1     -11.646   9.161  70.994  1.00  0.00    -0.370 C  
ENDROOT
BRANCH  11  21
HETATM   21  C   UNL     1     -10.449  12.888  68.416  1.00  0.00    -0.260 C  
HETATM   22  C   UNL     1      -8.635  14.205  67.296  1.00  0.00    -0.231 C  
HETATM   23  C   UNL     1      -9.822  14.072  68.240  1.00  0.00    -0.233 C  
HETATM   24  C   UNL     1      -8.908  15.261  66.226  1.00  0.00    -0.227 C  
HETATM   25  O   UNL     1      -9.927  14.824  65.321  1.00  0.00    -0.374 OA 
HETATM   26  C   UNL     1      -9.310  16.603  66.846  1.00  0.00    -0.246 C  
HETATM   27  H   UNL     1     -10.097  15.481  64.655  1.00  0.00     0.000 HD 
HETATM   28  C   UNL     1     -10.468  16.454  67.840  1.00  0.00    -0.307 C  
HETATM   29  O   UNL     1     -10.670  17.711  68.491  1.00  0.00    -0.311 OA 
HETATM   30  C   UNL     1     -10.186  15.352  68.859  1.00  0.00    -0.219 C  
HETATM   31  H   UNL     1     -11.387  17.619  69.107  1.00  0.00     0.000 HD 
HETATM   32  C   UNL     1     -10.212  15.515  70.192  1.00  0.00    -0.230 C  
ENDBRANCH  11  21
TORSDOF 1
ENDMDL
MODEL       63
REMARK 921   NORMALIZED FREE ENERGY PREDICTED BY IDOCK:   -4.97 KCAL/MOL
REMARK 922        TOTAL FREE ENERGY PREDICTED BY IDOCK:   -5.70 KCAL/MOL
REMARK 923 INTER-LIGAND FREE ENERGY PREDICTED BY IDOCK:   -4.97 KCAL/MOL
REMARK 924 INTRA-LIGAND FREE ENERGY PREDICTED BY IDOCK:   -0.73 KCAL/MOL
REMARK 927      BINDING AFFINITY PREDICTED BY RF-SCORE:    0.00 PKD
ROOT
HETATM    1  C   UNL     1     -11.814   9.021  69.762  1.00  0.00     0.516 C  
HETATM    2  C   UNL     1     -11.139   8.237  68.636  1.00  0.00     0.313 C  
HETATM    3  C   UNL     1     -11.228  10.503  69.712  1.00  0.00    -0.361 C  
HETATM    4  C   UNL     1     -11.672  11.486  70.801  1.00  0.00     0.008 C  
HETATM    5  C   UNL     1      -9.869   7.685  69.254  1.00  0.00    -0.168 C  
HETATM    6  C   UNL     1     -11.641  11.182  68.417  1.00  0.00    -0.376 C  
HETATM    7  C   UNL     1      -9.980   7.773  70.799  1.00  0.00    -0.184 C  
HETATM    8  C   UNL     1     -10.821  11.792  67.541  1.00  0.00    -0.286 C  
HETATM    9  C   UNL     1      -9.456   6.481  71.450  1.00  0.00    -0.164 C  
HETATM   10  C   UNL     1     -11.374  12.512  66.327  1.00  0.00    -0.386 C  
HETATM   11  C   UNL     1      -8.491   5.642  70.999  1.00  0.00    -0.122 C  
HETATM   12  C   UNL     1     -10.223   6.092  72.686  1.00  0.00    -0.202 C  
HETATM   13  C   UNL     1     -11.166  14.054  66.342  1.00  0.00    -0.321 C  
HETATM   14  C   UNL     1     -10.875  11.844  65.043  1.00  0.00    -0.351 C  
HETATM   15  C   UNL     1     -11.637  14.682  67.662  1.00  0.00    -0.383 C  
HETATM   16  C   UNL     1     -11.724   5.973  72.429  1.00  0.00    -0.322 C  
HETATM   17  C   UNL     1     -11.931   8.917  72.292  1.00  0.00    -0.380 C  
HETATM   18  C   UNL     1      -9.742  14.528  66.041  1.00  0.00    -0.331 C  
HETATM   19  C   UNL     1     -12.233   6.753  71.178  1.00  0.00    -0.413 C  
HETATM   20  C   UNL     1     -11.504   8.129  71.039  1.00  0.00    -0.301 C  
ENDROOT
BRANCH  11  21
HETATM   21  C   UNL     1      -7.587   5.831  69.878  1.00  0.00    -0.080 C  
HETATM   22  C   UNL     1      -6.583   5.450  67.614  1.00  0.00    -0.053 C  
HETATM   23  C   UNL     1      -7.652   5.222  68.675  1.00  0.00    -0.082 C  
HETATM   24  C   UNL     1      -5.943   4.127  67.196  1.00  0.00    -0.024 C  
HETATM   25  O   UNL     1      -5.158   3.576  68.258  1.00  0.00    -0.007 OA 
HETATM   26  C   UNL     1      -6.995   3.106  66.750  1.00  0.00    -0.054 C  
HETATM   27  H   UNL     1      -4.760   2.753  67.998  1.00  0.00     0.000 HD 
HETATM   28  C   UNL     1      -8.101   2.924  67.796  1.00  0.00    -0.074 C  
HETATM   29  O   UNL     1      -9.119   2.089  67.239  1.00  0.00    -0.137 OA 
HETATM   30  C   UNL     1      -8.678   4.269  68.234  1.00  0.00    -0.116 C  
HETATM   31  H   UNL     1      -9.804   1.977  67.888  1.00  0.00     0.000 HD 
HETATM   32  C   UNL     1      -9.979   4.596  68.187  1.00  0.00    -0.127 C  
ENDBRANCH  11  21
TORSDOF 1
ENDMDL
MODEL       64
REMARK 921   NORMALIZED FREE ENERGY PREDICTED BY IDOCK:   -4.95 KCAL/MOL
REMARK 922        TOTAL FREE ENERGY PREDICTED BY IDOCK:   -5.69 KCAL/MOL
REMARK 923 INTER-LIGAND FREE ENERGY PREDICTED BY IDOCK:   -4.58 KCAL/MOL
REMARK 924 INTRA-LIGAND FREE ENERGY PREDICTED BY IDOCK:   -1.11 KCAL/MOL
REMARK 927      BINDING AFFINITY PREDICTED BY RF-SCORE:    0.00 PKD
ROOT
HETATM    1  C   UNL     1      -9.001   7.836  69.219  1.00  0.00    -0.139 C  
HETATM    2  C   UNL     1      -7.679   7.120  68.940  1.00  0.00    -0.113 C  
HETATM    3  C   UNL     1     -10.037   6.726  69.706  1.00  0.00    -0.198 C  
HETATM    4  C   UNL     1     -11.483   7.163  69.970  1.00  0.00    -0.200 C  
HETATM    5  C   UNL     1      -7.778   6.671  67.494  1.00  0.00    -0.110 C  
HETATM    6  C   UNL     1      -9.586   6.140  71.033  1.00  0.00    -0.194 C  
HETATM    7  C   UNL     1      -8.927   7.450  66.802  1.00  0.00    -0.159 C  
HETATM    8  C   UNL     1      -9.431   4.834  71.316  1.00  0.00    -0.216 C  
HETATM    9  C   UNL     1      -8.495   7.908  65.398  1.00  0.00    -0.134 C  
HETATM   10  C   UNL     1      -9.060   4.376  72.712  1.00  0.00    -0.135 C  
HETATM   11  C   UNL     1      -7.623   7.313  64.548  1.00  0.00    -0.107 C  
HETATM   12  C   UNL     1      -9.062   9.251  65.017  1.00  0.00    -0.245 C  
HETATM   13  C   UNL     1     -10.168   3.562  73.440  1.00  0.00    -0.222 C  
HETATM   14  C   UNL     1      -7.701   3.670  72.694  1.00  0.00    -0.061 C  
HETATM   15  C   UNL     1     -11.526   4.281  73.399  1.00  0.00    -0.267 C  
HETATM   16  C   UNL     1      -8.734  10.336  66.041  1.00  0.00    -0.162 C  
HETATM   17  C   UNL     1     -10.710   9.168  67.904  1.00  0.00    -0.224 C  
HETATM   18  C   UNL     1     -10.350   2.121  72.957  1.00  0.00    -0.223 C  
HETATM   19  C   UNL     1      -8.381   9.801  67.463  1.00  0.00    -0.114 C  
HETATM   20  C   UNL     1      -9.286   8.584  67.847  1.00  0.00    -0.148 C  
ENDROOT
BRANCH  11  21
HETATM   21  C   UNL     1      -7.002   6.004  64.668  1.00  0.00    -0.052 C  
HETATM   22  C   UNL     1      -6.835   3.504  64.668  1.00  0.00    -0.048 C  
HETATM   23  C   UNL     1      -7.579   4.810  64.416  1.00  0.00    -0.073 C  
HETATM   24  C   UNL     1      -7.613   2.615  65.636  1.00  0.00    -0.076 C  
HETATM   25  O   UNL     1      -7.627   3.177  66.952  1.00  0.00    -0.074 OA 
HETATM   26  C   UNL     1      -9.050   2.382  65.160  1.00  0.00    -0.126 C  
HETATM   27  H   UNL     1      -8.110   2.623  67.555  1.00  0.00     0.000 HD 
HETATM   28  C   UNL     1      -9.775   3.697  64.852  1.00  0.00    -0.172 C  
HETATM   29  O   UNL     1     -11.041   3.389  64.263  1.00  0.00    -0.608 OA 
HETATM   30  C   UNL     1      -8.945   4.586  63.928  1.00  0.00    -0.136 C  
HETATM   31  H   UNL     1     -11.490   4.204  64.072  1.00  0.00     0.000 HD 
HETATM   32  C   UNL     1      -9.373   5.087  62.759  1.00  0.00     0.159 C  
ENDBRANCH  11  21
TORSDOF 1
ENDMDL
MODEL       65
REMARK 921   NORMALIZED FREE ENERGY PREDICTED BY IDOCK:   -4.95 KCAL/MOL
REMARK 922        TOTAL FREE ENERGY PREDICTED BY IDOCK:   -5.69 KCAL/MOL
REMARK 923 INTER-LIGAND FREE ENERGY PREDICTED BY IDOCK:   -4.59 KCAL/MOL
REMARK 924 INTRA-LIGAND FREE ENERGY PREDICTED BY IDOCK:   -1.09 KCAL/MOL
REMARK 927      BINDING AFFINITY PREDICTED BY RF-SCORE:    0.00 PKD
ROOT
HETATM    1  C   UNL     1      -8.399   9.549  67.144  1.00  0.00    -0.131 C  
HETATM    2  C   UNL     1      -7.131   8.782  67.521  1.00  0.00    -0.079 C  
HETATM    3  C   UNL     1      -9.601   8.889  67.957  1.00  0.00    -0.167 C  
HETATM    4  C   UNL     1     -11.017   9.414  67.694  1.00  0.00    -0.106 C  
HETATM    5  C   UNL     1      -7.071   7.626  66.542  1.00  0.00    -0.075 C  
HETATM    6  C   UNL     1      -9.403   9.106  69.447  1.00  0.00    -0.160 C  
HETATM    7  C   UNL     1      -8.026   7.920  65.355  1.00  0.00    -0.123 C  
HETATM    8  C   UNL     1      -9.424   8.157  70.401  1.00  0.00    -0.163 C  
HETATM    9  C   UNL     1      -7.356   7.544  64.021  1.00  0.00    -0.095 C  
HETATM   10  C   UNL     1      -9.302   8.520  71.867  1.00  0.00    -0.337 C  
HETATM   11  C   UNL     1      -6.439   6.575  63.782  1.00  0.00    -0.033 C  
HETATM   12  C   UNL     1      -7.724   8.475  62.896  1.00  0.00    -0.124 C  
HETATM   13  C   UNL     1     -10.578   8.240  72.710  1.00  0.00    -0.321 C  
HETATM   14  C   UNL     1      -8.033   7.902  72.461  1.00  0.00    -0.157 C  
HETATM   15  C   UNL     1     -11.836   8.837  72.060  1.00  0.00    -0.442 C  
HETATM   16  C   UNL     1      -7.434   9.938  63.228  1.00  0.00    -0.131 C  
HETATM   17  C   UNL     1      -9.760   9.980  65.050  1.00  0.00    -0.386 C  
HETATM   18  C   UNL     1     -10.837   6.767  73.041  1.00  0.00    -0.314 C  
HETATM   19  C   UNL     1      -7.340  10.250  64.753  1.00  0.00    -0.099 C  
HETATM   20  C   UNL     1      -8.410   9.443  65.560  1.00  0.00    -0.139 C  
ENDROOT
BRANCH  11  21
HETATM   21  C   UNL     1      -5.979   5.532  64.682  1.00  0.00    -0.022 C  
HETATM   22  C   UNL     1      -6.117   3.522  66.173  1.00  0.00    -0.024 C  
HETATM   23  C   UNL     1      -6.704   4.500  65.163  1.00  0.00    -0.049 C  
HETATM   24  C   UNL     1      -6.963   3.482  67.444  1.00  0.00    -0.054 C  
HETATM   25  O   UNL     1      -6.863   4.712  68.168  1.00  0.00    -0.053 OA 
HETATM   26  C   UNL     1      -8.434   3.184  67.135  1.00  0.00    -0.104 C  
HETATM   27  H   UNL     1      -7.389   4.687  68.959  1.00  0.00     0.000 HD 
HETATM   28  C   UNL     1      -9.004   4.134  66.075  1.00  0.00    -0.126 C  
HETATM   29  O   UNL     1     -10.317   3.689  65.728  1.00  0.00    -0.391 OA 
HETATM   30  C   UNL     1      -8.104   4.194  64.842  1.00  0.00    -0.094 C  
HETATM   31  H   UNL     1     -10.670   4.277  65.070  1.00  0.00     0.000 HD 
HETATM   32  C   UNL     1      -8.508   3.949  63.586  1.00  0.00    -0.094 C  
ENDBRANCH  11  21
TORSDOF 1
ENDMDL
MODEL       66
REMARK 921   NORMALIZED FREE ENERGY PREDICTED BY IDOCK:   -4.92 KCAL/MOL
REMARK 922        TOTAL FREE ENERGY PREDICTED BY IDOCK:   -5.65 KCAL/MOL
REMARK 923 INTER-LIGAND FREE ENERGY PREDICTED BY IDOCK:   -4.54 KCAL/MOL
REMARK 924 INTRA-LIGAND FREE ENERGY PREDICTED BY IDOCK:   -1.11 KCAL/MOL
REMARK 927      BINDING AFFINITY PREDICTED BY RF-SCORE:    0.00 PKD
ROOT
HETATM    1  C   UNL     1      -9.429  10.087  69.918  1.00  0.00    -0.221 C  
HETATM    2  C   UNL     1      -7.910   9.981  69.770  1.00  0.00    -0.185 C  
HETATM    3  C   UNL     1      -9.967   8.624  70.251  1.00  0.00    -0.204 C  
HETATM    4  C   UNL     1     -11.483   8.427  70.362  1.00  0.00    -0.129 C  
HETATM    5  C   UNL     1      -7.686   9.637  68.309  1.00  0.00    -0.082 C  
HETATM    6  C   UNL     1      -9.441   8.171  71.603  1.00  0.00    -0.233 C  
HETATM    7  C   UNL     1      -8.983   9.941  67.514  1.00  0.00    -0.141 C  
HETATM    8  C   UNL     1      -8.798   7.018  71.861  1.00  0.00    -0.128 C  
HETATM    9  C   UNL     1      -8.647  10.635  66.183  1.00  0.00    -0.163 C  
HETATM   10  C   UNL     1      -8.403   6.645  73.276  1.00  0.00    -0.126 C  
HETATM   11  C   UNL     1      -7.534  10.501  65.420  1.00  0.00    -0.089 C  
HETATM   12  C   UNL     1      -9.670  11.664  65.781  1.00  0.00    -0.262 C  
HETATM   13  C   UNL     1      -9.149   5.406  73.849  1.00  0.00    -0.122 C  
HETATM   14  C   UNL     1      -6.880   6.544  73.391  1.00  0.00    -0.077 C  
HETATM   15  C   UNL     1     -10.671   5.524  73.676  1.00  0.00    -0.321 C  
HETATM   16  C   UNL     1      -9.905  12.711  66.868  1.00  0.00    -0.234 C  
HETATM   17  C   UNL     1     -11.402  10.720  68.458  1.00  0.00    -0.360 C  
HETATM   18  C   UNL     1      -8.687   4.051  73.306  1.00  0.00    -0.095 C  
HETATM   19  C   UNL     1      -9.498  12.259  68.303  1.00  0.00    -0.209 C  
HETATM   20  C   UNL     1      -9.864  10.758  68.546  1.00  0.00    -0.182 C  
ENDROOT
BRANCH  11  21
HETATM   21  C   UNL     1      -6.451   9.544  65.571  1.00  0.00    -0.072 C  
HETATM   22  C   UNL     1      -5.283   7.328  65.501  1.00  0.00    -0.028 C  
HETATM   23  C   UNL     1      -6.463   8.245  65.204  1.00  0.00    -0.052 C  
HETATM   24  C   UNL     1      -5.726   6.124  66.329  1.00  0.00    -0.017 C  
HETATM   25  O   UNL     1      -6.102   6.519  67.652  1.00  0.00    -0.025 OA 
HETATM   26  C   UNL     1      -6.888   5.378  65.665  1.00  0.00    -0.064 C  
HETATM   27  H   UNL     1      -6.377   5.769  68.167  1.00  0.00     0.000 HD 
HETATM   28  C   UNL     1      -8.050   6.315  65.315  1.00  0.00    -0.132 C  
HETATM   29  O   UNL     1      -9.013   5.579  64.557  1.00  0.00    -0.358 OA 
HETATM   30  C   UNL     1      -7.563   7.537  64.538  1.00  0.00    -0.110 C  
HETATM   31  H   UNL     1      -9.733   6.160  64.341  1.00  0.00     0.000 HD 
HETATM   32  C   UNL     1      -8.036   7.923  63.342  1.00  0.00    -0.125 C  
ENDBRANCH  11  21
TORSDOF 1
ENDMDL
MODEL       67
REMARK 921   NORMALIZED FREE ENERGY PREDICTED BY IDOCK:   -4.92 KCAL/MOL
REMARK 922        TOTAL FREE ENERGY PREDICTED BY IDOCK:   -5.65 KCAL/MOL
REMARK 923 INTER-LIGAND FREE ENERGY PREDICTED BY IDOCK:   -4.99 KCAL/MOL
REMARK 924 INTRA-LIGAND FREE ENERGY PREDICTED BY IDOCK:   -0.66 KCAL/MOL
REMARK 927      BINDING AFFINITY PREDICTED BY RF-SCORE:    0.00 PKD
ROOT
HETATM    1  C   UNL     1      -7.049   9.550  69.008  1.00  0.00    -0.066 C  
HETATM    2  C   UNL     1      -8.315   9.712  68.164  1.00  0.00    -0.117 C  
HETATM    3  C   UNL     1      -7.509   9.016  70.438  1.00  0.00    -0.089 C  
HETATM    4  C   UNL     1      -6.436   8.851  71.520  1.00  0.00    -0.076 C  
HETATM    5  C   UNL     1      -8.801  11.118  68.460  1.00  0.00    -0.161 C  
HETATM    6  C   UNL     1      -8.110   7.627  70.307  1.00  0.00    -0.114 C  
HETATM    7  C   UNL     1      -7.650  11.921  69.121  1.00  0.00     0.115 C  
HETATM    8  C   UNL     1      -9.309   7.231  70.771  1.00  0.00    -0.160 C  
HETATM    9  C   UNL     1      -7.574  13.339  68.528  1.00  0.00    -0.128 C  
HETATM   10  C   UNL     1      -9.753   5.787  70.652  1.00  0.00    -0.224 C  
HETATM   11  C   UNL     1      -8.580  14.098  68.029  1.00  0.00    -0.172 C  
HETATM   12  C   UNL     1      -6.164  13.853  68.413  1.00  0.00    -0.101 C  
HETATM   13  C   UNL     1      -9.896   5.041  72.010  1.00  0.00    -0.226 C  
HETATM   14  C   UNL     1     -11.002   5.688  69.771  1.00  0.00    -0.301 C  
HETATM   15  C   UNL     1      -8.642   5.199  72.884  1.00  0.00    -0.115 C  
HETATM   16  C   UNL     1      -5.259  12.910  67.621  1.00  0.00    -0.090 C  
HETATM   17  C   UNL     1      -5.211  11.043  69.911  1.00  0.00    -0.045 C  
HETATM   18  C   UNL     1     -11.132   5.410  72.835  1.00  0.00    -0.360 C  
HETATM   19  C   UNL     1      -5.761  11.435  67.553  1.00  0.00    -0.056 C  
HETATM   20  C   UNL     1      -6.386  10.990  68.916  1.00  0.00    -0.051 C  
ENDROOT
BRANCH  11  21
HETATM   21  C   UNL     1     -10.009  13.843  68.080  1.00  0.00    -0.240 C  
HETATM   22  C   UNL     1     -12.407  14.182  68.724  1.00  0.00    -0.083 C  
HETATM   23  C   UNL     1     -10.948  14.615  68.670  1.00  0.00    -0.266 C  
HETATM   24  C   UNL     1     -12.902  14.119  70.168  1.00  0.00    -0.054 C  
HETATM   25  O   UNL     1     -12.275  13.047  70.879  1.00  0.00    -0.418 OA 
HETATM   26  C   UNL     1     -12.659  15.439  70.907  1.00  0.00    -0.496 C  
HETATM   27  H   UNL     1     -12.583  13.007  71.778  1.00  0.00     0.000 HD 
HETATM   28  C   UNL     1     -11.201  15.899  70.800  1.00  0.00    -0.370 C  
HETATM   29  O   UNL     1     -11.096  17.207  71.369  1.00  0.00     0.062 OA 
HETATM   30  C   UNL     1     -10.722  15.896  69.350  1.00  0.00    -0.272 C  
HETATM   31  H   UNL     1     -10.192  17.492  71.303  1.00  0.00     0.000 HD 
HETATM   32  C   UNL     1     -10.190  16.953  68.716  1.00  0.00    -0.311 C  
ENDBRANCH  11  21
TORSDOF 1
ENDMDL
MODEL       68
REMARK 921   NORMALIZED FREE ENERGY PREDICTED BY IDOCK:   -4.77 KCAL/MOL
REMARK 922        TOTAL FREE ENERGY PREDICTED BY IDOCK:   -5.49 KCAL/MOL
REMARK 923 INTER-LIGAND FREE ENERGY PREDICTED BY IDOCK:   -4.72 KCAL/MOL
REMARK 924 INTRA-LIGAND FREE ENERGY PREDICTED BY IDOCK:   -0.77 KCAL/MOL
REMARK 927      BINDING AFFINITY PREDICTED BY RF-SCORE:    0.00 PKD
ROOT
HETATM    1  C   UNL     1      -7.904   9.139  67.321  1.00  0.00    -0.099 C  
HETATM    2  C   UNL     1      -7.601   8.938  68.806  1.00  0.00    -0.091 C  
HETATM    3  C   UNL     1      -8.665  10.533  67.186  1.00  0.00    -0.130 C  
HETATM    4  C   UNL     1      -9.170  10.942  65.798  1.00  0.00    -0.224 C  
HETATM    5  C   UNL     1      -8.831   8.246  69.363  1.00  0.00    -0.146 C  
HETATM    6  C   UNL     1      -7.741  11.671  67.587  1.00  0.00    -0.133 C  
HETATM    7  C   UNL     1      -9.662   7.670  68.185  1.00  0.00    -0.168 C  
HETATM    8  C   UNL     1      -8.010  12.635  68.487  1.00  0.00    -0.093 C  
HETATM    9  C   UNL     1     -10.161   6.254  68.522  1.00  0.00    -0.205 C  
HETATM   10  C   UNL     1      -7.033  13.768  68.730  1.00  0.00    -0.109 C  
HETATM   11  C   UNL     1     -10.466   5.734  69.737  1.00  0.00    -0.363 C  
HETATM   12  C   UNL     1     -10.192   5.341  67.325  1.00  0.00    -0.252 C  
HETATM   13  C   UNL     1      -7.549  15.170  68.294  1.00  0.00    -0.109 C  
HETATM   14  C   UNL     1      -6.528  13.729  70.175  1.00  0.00     0.009 C  
HETATM   15  C   UNL     1      -8.089  15.159  66.856  1.00  0.00    -0.194 C  
HETATM   16  C   UNL     1      -8.841   5.261  66.615  1.00  0.00    -0.113 C  
HETATM   17  C   UNL     1      -9.259   7.975  65.523  1.00  0.00     0.092 C  
HETATM   18  C   UNL     1      -8.595  15.801  69.217  1.00  0.00    -0.259 C  
HETATM   19  C   UNL     1      -7.891   6.466  66.891  1.00  0.00    -0.104 C  
HETATM   20  C   UNL     1      -8.689   7.810  66.944  1.00  0.00    -0.136 C  
ENDROOT
BRANCH  11  21
HETATM   21  C   UNL     1     -10.564   6.425  71.011  1.00  0.00    -0.282 C  
HETATM   22  C   UNL     1      -9.963   7.069  73.357  1.00  0.00    -0.296 C  
HETATM   23  C   UNL     1      -9.691   6.356  72.038  1.00  0.00    -0.160 C  
HETATM   24  C   UNL     1      -9.959   6.078  74.520  1.00  0.00    -0.310 C  
HETATM   25  O   UNL     1     -11.086   5.199  74.450  1.00  0.00    -0.355 OA 
HETATM   26  C   UNL     1      -8.666   5.257  74.559  1.00  0.00    -0.107 C  
HETATM   27  H   UNL     1     -11.083   4.582  75.174  1.00  0.00     0.000 HD 
HETATM   28  C   UNL     1      -8.367   4.589  73.212  1.00  0.00    -0.099 C  
HETATM   29  O   UNL     1      -7.073   3.985  73.284  1.00  0.00    -0.062 OA 
HETATM   30  C   UNL     1      -8.436   5.596  72.065  1.00  0.00    -0.126 C  
HETATM   31  H   UNL     1      -6.888   3.571  72.448  1.00  0.00     0.000 HD 
HETATM   32  C   UNL     1      -7.448   5.823  71.185  1.00  0.00    -0.091 C  
ENDBRANCH  11  21
TORSDOF 1
ENDMDL
MODEL       69
REMARK 921   NORMALIZED FREE ENERGY PREDICTED BY IDOCK:   -4.71 KCAL/MOL
REMARK 922        TOTAL FREE ENERGY PREDICTED BY IDOCK:   -5.42 KCAL/MOL
REMARK 923 INTER-LIGAND FREE ENERGY PREDICTED BY IDOCK:   -4.33 KCAL/MOL
REMARK 924 INTRA-LIGAND FREE ENERGY PREDICTED BY IDOCK:   -1.09 KCAL/MOL
REMARK 927      BINDING AFFINITY PREDICTED BY RF-SCORE:    0.00 PKD
ROOT
HETATM    1  C   UNL     1      -8.964   9.451  69.159  1.00  0.00    -0.147 C  
HETATM    2  C   UNL     1      -7.525   8.992  68.917  1.00  0.00    -0.075 C  
HETATM    3  C   UNL     1      -9.686   8.297  69.988  1.00  0.00    -0.176 C  
HETATM    4  C   UNL     1     -11.180   8.461  70.292  1.00  0.00    -0.175 C  
HETATM    5  C   UNL     1      -7.585   8.193  67.628  1.00  0.00    -0.098 C  
HETATM    6  C   UNL     1      -9.048   8.165  71.361  1.00  0.00    -0.194 C  
HETATM    7  C   UNL     1      -8.916   8.511  66.898  1.00  0.00    -0.166 C  
HETATM    8  C   UNL     1      -8.578   7.033  71.915  1.00  0.00    -0.122 C  
HETATM    9  C   UNL     1      -8.670   8.695  65.390  1.00  0.00    -0.208 C  
HETATM   10  C   UNL     1      -8.045   7.021  73.334  1.00  0.00    -0.117 C  
HETATM   11  C   UNL     1      -7.724   8.113  64.613  1.00  0.00    -0.118 C  
HETATM   12  C   UNL     1      -9.553   9.748  64.774  1.00  0.00    -0.284 C  
HETATM   13  C   UNL     1      -8.895   6.190  74.336  1.00  0.00    -0.139 C  
HETATM   14  C   UNL     1      -6.561   6.644  73.338  1.00  0.00    -0.065 C  
HETATM   15  C   UNL     1     -10.384   6.566  74.272  1.00  0.00    -0.309 C  
HETATM   16  C   UNL     1      -9.441  11.095  65.487  1.00  0.00    -0.251 C  
HETATM   17  C   UNL     1     -10.998  10.020  67.757  1.00  0.00    -0.310 C  
HETATM   18  C   UNL     1      -8.756   4.671  74.215  1.00  0.00    -0.106 C  
HETATM   19  C   UNL     1      -8.906  11.013  66.949  1.00  0.00    -0.150 C  
HETATM   20  C   UNL     1      -9.480   9.762  67.689  1.00  0.00    -0.164 C  
ENDROOT
BRANCH  11  21
HETATM   21  C   UNL     1      -6.809   7.040  64.963  1.00  0.00    -0.051 C  
HETATM   22  C   UNL     1      -6.051   4.706  65.469  1.00  0.00    -0.026 C  
HETATM   23  C   UNL     1      -7.087   5.720  64.998  1.00  0.00    -0.064 C  
HETATM   24  C   UNL     1      -6.586   3.890  66.645  1.00  0.00    -0.045 C  
HETATM   25  O   UNL     1      -6.721   4.703  67.815  1.00  0.00    -0.048 OA 
HETATM   26  C   UNL     1      -7.932   3.236  66.314  1.00  0.00    -0.088 C  
HETATM   27  H   UNL     1      -7.054   4.195  68.547  1.00  0.00     0.000 HD 
HETATM   28  C   UNL     1      -8.951   4.251  65.785  1.00  0.00    -0.129 C  
HETATM   29  O   UNL     1     -10.113   3.541  65.348  1.00  0.00    -0.391 OA 
HETATM   30  C   UNL     1      -8.365   5.088  64.650  1.00  0.00    -0.141 C  
HETATM   31  H   UNL     1     -10.745   4.170  65.021  1.00  0.00     0.000 HD 
HETATM   32  C   UNL     1      -8.911   5.214  63.430  1.00  0.00     0.026 C  
ENDBRANCH  11  21
TORSDOF 1
ENDMDL
MODEL       70
REMARK 921   NORMALIZED FREE ENERGY PREDICTED BY IDOCK:   -4.70 KCAL/MOL
REMARK 922        TOTAL FREE ENERGY PREDICTED BY IDOCK:   -5.42 KCAL/MOL
REMARK 923 INTER-LIGAND FREE ENERGY PREDICTED BY IDOCK:   -4.39 KCAL/MOL
REMARK 924 INTRA-LIGAND FREE ENERGY PREDICTED BY IDOCK:   -1.03 KCAL/MOL
REMARK 927      BINDING AFFINITY PREDICTED BY RF-SCORE:    0.00 PKD
ROOT
HETATM    1  C   UNL     1      -7.903   6.190  66.890  1.00  0.00    -0.104 C  
HETATM    2  C   UNL     1      -9.410   6.451  66.892  1.00  0.00    -0.150 C  
HETATM    3  C   UNL     1      -7.373   6.517  68.358  1.00  0.00    -0.087 C  
HETATM    4  C   UNL     1      -5.865   6.425  68.612  1.00  0.00    -0.020 C  
HETATM    5  C   UNL     1      -9.550   7.921  66.544  1.00  0.00    -0.281 C  
HETATM    6  C   UNL     1      -7.971   5.540  69.356  1.00  0.00    -0.094 C  
HETATM    7  C   UNL     1      -8.212   8.426  65.941  1.00  0.00    -0.123 C  
HETATM    8  C   UNL     1      -8.619   5.858  70.492  1.00  0.00    -0.136 C  
HETATM    9  C   UNL     1      -8.479   9.324  64.719  1.00  0.00    -0.189 C  
HETATM   10  C   UNL     1      -9.089   4.782  71.449  1.00  0.00    -0.174 C  
HETATM   11  C   UNL     1      -9.545  10.124  64.479  1.00  0.00    -0.376 C  
HETATM   12  C   UNL     1      -7.442   9.169  63.638  1.00  0.00    -0.106 C  
HETATM   13  C   UNL     1      -8.368   4.784  72.827  1.00  0.00    -0.111 C  
HETATM   14  C   UNL     1     -10.616   4.806  71.563  1.00  0.00    -0.065 C  
HETATM   15  C   UNL     1      -6.839   4.804  72.673  1.00  0.00    -0.069 C  
HETATM   16  C   UNL     1      -7.276   7.717  63.190  1.00  0.00    -0.091 C  
HETATM   17  C   UNL     1      -5.856   7.106  65.709  1.00  0.00    -0.036 C  
HETATM   18  C   UNL     1      -8.789   5.898  73.789  1.00  0.00    -0.124 C  
HETATM   19  C   UNL     1      -7.759   6.659  64.228  1.00  0.00    -0.109 C  
HETATM   20  C   UNL     1      -7.396   7.093  65.686  1.00  0.00    -0.079 C  
ENDROOT
BRANCH  11  21
HETATM   21  C   UNL     1     -10.628  10.475  65.382  1.00  0.00    -0.143 C  
HETATM   22  C   UNL     1     -11.735  11.381  67.440  1.00  0.00    -0.172 C  
HETATM   23  C   UNL     1     -10.524  11.156  66.543  1.00  0.00    -0.305 C  
HETATM   24  C   UNL     1     -11.486  10.819  68.838  1.00  0.00    -0.293 C  
HETATM   25  O   UNL     1     -11.427   9.389  68.815  1.00  0.00    -0.397 OA 
HETATM   26  C   UNL     1     -10.198  11.378  69.451  1.00  0.00     0.083 C  
HETATM   27  H   UNL     1     -11.272   9.040  69.686  1.00  0.00     0.000 HD 
HETATM   28  C   UNL     1      -8.993  11.202  68.520  1.00  0.00    -0.168 C  
HETATM   29  O   UNL     1      -7.877  11.890  69.089  1.00  0.00    -0.338 OA 
HETATM   30  C   UNL     1      -9.296  11.721  67.115  1.00  0.00    -0.178 C  
HETATM   31  H   UNL     1      -7.130  11.781  68.511  1.00  0.00     0.000 HD 
HETATM   32  C   UNL     1      -8.564  12.637  66.462  1.00  0.00     0.051 C  
ENDBRANCH  11  21
TORSDOF 1
ENDMDL
MODEL       71
REMARK 921   NORMALIZED FREE ENERGY PREDICTED BY IDOCK:   -4.67 KCAL/MOL
REMARK 922        TOTAL FREE ENERGY PREDICTED BY IDOCK:   -5.39 KCAL/MOL
REMARK 923 INTER-LIGAND FREE ENERGY PREDICTED BY IDOCK:   -4.28 KCAL/MOL
REMARK 924 INTRA-LIGAND FREE ENERGY PREDICTED BY IDOCK:   -1.11 KCAL/MOL
REMARK 927      BINDING AFFINITY PREDICTED BY RF-SCORE:    0.00 PKD
ROOT
HETATM    1  C   UNL     1     -10.433   9.586  68.797  1.00  0.00    -0.243 C  
HETATM    2  C   UNL     1     -11.023   8.828  67.607  1.00  0.00     0.069 C  
HETATM    3  C   UNL     1      -9.826  10.945  68.227  1.00  0.00    -0.179 C  
HETATM    4  C   UNL     1      -9.084  11.864  69.204  1.00  0.00     0.453 C  
HETATM    5  C   UNL     1      -9.871   8.007  67.060  1.00  0.00    -0.295 C  
HETATM    6  C   UNL     1     -10.938  11.822  67.676  1.00  0.00    -0.286 C  
HETATM    7  C   UNL     1      -8.746   7.943  68.127  1.00  0.00    -0.126 C  
HETATM    8  C   UNL     1     -10.981  12.378  66.451  1.00  0.00    -0.315 C  
HETATM    9  C   UNL     1      -8.173   6.518  68.218  1.00  0.00    -0.114 C  
HETATM   10  C   UNL     1     -12.110  13.309  66.057  1.00  0.00    -0.491 C  
HETATM   11  C   UNL     1      -8.079   5.583  67.241  1.00  0.00    -0.101 C  
HETATM   12  C   UNL     1      -7.781   6.130  69.619  1.00  0.00    -0.098 C  
HETATM   13  C   UNL     1     -11.676  14.783  65.814  1.00  0.00    -0.252 C  
HETATM   14  C   UNL     1     -12.907  12.711  64.894  1.00  0.00    -0.312 C  
HETATM   15  C   UNL     1     -10.842  15.333  66.982  1.00  0.00    -0.321 C  
HETATM   16  C   UNL     1      -8.929   6.292  70.614  1.00  0.00    -0.144 C  
HETATM   17  C   UNL     1      -8.600   9.227  70.509  1.00  0.00    -0.271 C  
HETATM   18  C   UNL     1     -10.932  15.042  64.502  1.00  0.00    -0.209 C  
HETATM   19  C   UNL     1     -10.048   7.278  70.158  1.00  0.00    -0.192 C  
HETATM   20  C   UNL     1      -9.439   8.521  69.428  1.00  0.00    -0.161 C  
ENDROOT
BRANCH  11  21
HETATM   21  C   UNL     1      -8.337   5.740  65.819  1.00  0.00    -0.134 C  
HETATM   22  C   UNL     1      -8.029   6.594  63.484  1.00  0.00    -0.070 C  
HETATM   23  C   UNL     1      -7.594   6.441  64.936  1.00  0.00    -0.093 C  
HETATM   24  C   UNL     1      -8.161   8.069  63.110  1.00  0.00    -0.059 C  
HETATM   25  O   UNL     1      -9.266   8.675  63.788  1.00  0.00    -0.089 OA 
HETATM   26  C   UNL     1      -6.878   8.847  63.417  1.00  0.00    -0.089 C  
HETATM   27  H   UNL     1      -9.348   9.593  63.555  1.00  0.00     0.000 HD 
HETATM   28  C   UNL     1      -6.412   8.643  64.863  1.00  0.00    -0.065 C  
HETATM   29  O   UNL     1      -5.134   9.263  65.019  1.00  0.00    -0.039 OA 
HETATM   30  C   UNL     1      -6.347   7.160  65.221  1.00  0.00    -0.037 C  
HETATM   31  H   UNL     1      -4.845   9.136  65.915  1.00  0.00     0.000 HD 
HETATM   32  C   UNL     1      -5.261   6.535  65.703  1.00  0.00    -0.017 C  
ENDBRANCH  11  21
TORSDOF 1
ENDMDL
MODEL       72
REMARK 921   NORMALIZED FREE ENERGY PREDICTED BY IDOCK:   -4.67 KCAL/MOL
REMARK 922        TOTAL FREE ENERGY PREDICTED BY IDOCK:   -5.38 KCAL/MOL
REMARK 923 INTER-LIGAND FREE ENERGY PREDICTED BY IDOCK:   -4.88 KCAL/MOL
REMARK 924 INTRA-LIGAND FREE ENERGY PREDICTED BY IDOCK:   -0.50 KCAL/MOL
REMARK 927      BINDING AFFINITY PREDICTED BY RF-SCORE:    0.00 PKD
ROOT
HETATM    1  C   UNL     1      -6.886   7.285  67.503  1.00  0.00    -0.074 C  
HETATM    2  C   UNL     1      -6.861   8.188  66.269  1.00  0.00    -0.058 C  
HETATM    3  C   UNL     1      -8.121   6.293  67.328  1.00  0.00    -0.109 C  
HETATM    4  C   UNL     1      -8.434   5.329  68.478  1.00  0.00    -0.092 C  
HETATM    5  C   UNL     1      -7.763   9.355  66.624  1.00  0.00    -0.097 C  
HETATM    6  C   UNL     1      -7.890   5.377  66.138  1.00  0.00    -0.103 C  
HETATM    7  C   UNL     1      -7.985   9.372  68.160  1.00  0.00    -0.091 C  
HETATM    8  C   UNL     1      -8.737   5.174  65.113  1.00  0.00    -0.151 C  
HETATM    9  C   UNL     1      -7.888  10.810  68.700  1.00  0.00    -0.122 C  
HETATM   10  C   UNL     1      -8.422   4.162  64.030  1.00  0.00    -0.103 C  
HETATM   11  C   UNL     1      -8.198  11.969  68.071  1.00  0.00    -0.156 C  
HETATM   12  C   UNL     1      -7.259  10.883  70.067  1.00  0.00     0.127 C  
HETATM   13  C   UNL     1      -9.380   2.937  63.993  1.00  0.00    -0.118 C  
HETATM   14  C   UNL     1      -8.280   4.862  62.676  1.00  0.00    -0.095 C  
HETATM   15  C   UNL     1      -9.531   2.287  65.378  1.00  0.00     0.082 C  
HETATM   16  C   UNL     1      -5.886  10.215  70.116  1.00  0.00    -0.059 C  
HETATM   17  C   UNL     1      -7.177   7.559  70.006  1.00  0.00    -0.069 C  
HETATM   18  C   UNL     1     -10.770   3.206  63.412  1.00  0.00    -0.244 C  
HETATM   19  C   UNL     1      -5.632   9.170  68.987  1.00  0.00    -0.036 C  
HETATM   20  C   UNL     1      -6.920   8.331  68.697  1.00  0.00    -0.068 C  
ENDROOT
BRANCH  11  21
HETATM   21  C   UNL     1      -8.862  12.147  66.791  1.00  0.00    -0.198 C  
HETATM   22  C   UNL     1     -10.427  13.140  65.104  1.00  0.00    -0.339 C  
HETATM   23  C   UNL     1      -9.737  13.122  66.462  1.00  0.00    -0.268 C  
HETATM   24  C   UNL     1     -11.946  13.130  65.268  1.00  0.00    -0.398 C  
HETATM   25  O   UNL     1     -12.400  11.876  65.785  1.00  0.00    -0.343 OA 
HETATM   26  C   UNL     1     -12.424  14.266  66.177  1.00  0.00    -0.362 C  
HETATM   27  H   UNL     1     -13.345  11.869  65.887  1.00  0.00     0.000 HD 
HETATM   28  C   UNL     1     -11.685  14.279  67.520  1.00  0.00    -0.384 C  
HETATM   29  O   UNL     1     -12.067  15.456  68.237  1.00  0.00    -0.512 OA 
HETATM   30  C   UNL     1     -10.171  14.230  67.321  1.00  0.00    -0.252 C  
HETATM   31  H   UNL     1     -11.609  15.463  69.069  1.00  0.00     0.000 HD 
HETATM   32  C   UNL     1      -9.303  15.121  67.825  1.00  0.00    -0.189 C  
ENDBRANCH  11  21
TORSDOF 1
ENDMDL
MODEL       73
REMARK 921   NORMALIZED FREE ENERGY PREDICTED BY IDOCK:   -4.63 KCAL/MOL
REMARK 922        TOTAL FREE ENERGY PREDICTED BY IDOCK:   -5.35 KCAL/MOL
REMARK 923 INTER-LIGAND FREE ENERGY PREDICTED BY IDOCK:   -5.71 KCAL/MOL
REMARK 924 INTRA-LIGAND FREE ENERGY PREDICTED BY IDOCK:    0.36 KCAL/MOL
REMARK 927      BINDING AFFINITY PREDICTED BY RF-SCORE:    0.00 PKD
ROOT
HETATM    1  C   UNL     1     -10.860  16.945  67.607  1.00  0.00    -0.244 C  
HETATM    2  C   UNL     1     -10.345  16.664  69.019  1.00  0.00    -0.317 C  
HETATM    3  C   UNL     1     -10.443  15.700  66.704  1.00  0.00    -0.301 C  
HETATM    4  C   UNL     1     -10.760  15.764  65.205  1.00  0.00    -0.446 C  
HETATM    5  C   UNL     1      -8.931  17.212  69.033  1.00  0.00    -0.110 C  
HETATM    6  C   UNL     1     -11.165  14.449  67.176  1.00  0.00    -0.337 C  
HETATM    7  C   UNL     1      -8.746  18.162  67.820  1.00  0.00    -0.259 C  
HETATM    8  C   UNL     1     -10.596  13.270  67.485  1.00  0.00    -0.251 C  
HETATM    9  C   UNL     1      -7.981  19.429  68.243  1.00  0.00    -0.366 C  
HETATM   10  C   UNL     1     -11.442  12.070  67.858  1.00  0.00    -0.396 C  
HETATM   11  C   UNL     1      -7.046  19.565  69.215  1.00  0.00    -0.372 C  
HETATM   12  C   UNL     1      -8.451  20.667  67.524  1.00  0.00    -0.252 C  
HETATM   13  C   UNL     1     -11.387  10.898  66.837  1.00  0.00    -0.044 C  
HETATM   14  C   UNL     1     -11.141  11.637  69.296  1.00  0.00    -0.291 C  
HETATM   15  C   UNL     1     -11.651  11.378  65.401  1.00  0.00     0.144 C  
HETATM   16  C   UNL     1      -9.954  20.894  67.672  1.00  0.00    -0.176 C  
HETATM   17  C   UNL     1     -10.471  18.672  65.793  1.00  0.00    -0.294 C  
HETATM   18  C   UNL     1     -10.102  10.066  66.859  1.00  0.00    -0.287 C  
HETATM   19  C   UNL     1     -10.771  19.617  68.037  1.00  0.00    -0.333 C  
HETATM   20  C   UNL     1     -10.221  18.363  67.281  1.00  0.00    -0.396 C  
ENDROOT
BRANCH  11  21
HETATM   21  C   UNL     1      -6.401  18.521  69.993  1.00  0.00    -0.014 C  
HETATM   22  C   UNL     1      -5.294  16.322  70.463  1.00  0.00    -0.176 C  
HETATM   23  C   UNL     1      -5.866  17.375  69.521  1.00  0.00    -0.238 C  
HETATM   24  C   UNL     1      -5.989  14.977  70.258  1.00  0.00    -0.150 C  
HETATM   25  O   UNL     1      -7.349  15.027  70.702  1.00  0.00     0.050 OA 
HETATM   26  C   UNL     1      -5.941  14.533  68.793  1.00  0.00    -0.084 C  
HETATM   27  H   UNL     1      -7.781  14.190  70.575  1.00  0.00     0.000 HD 
HETATM   28  C   UNL     1      -6.463  15.618  67.844  1.00  0.00    -0.149 C  
HETATM   29  O   UNL     1      -6.232  15.193  66.499  1.00  0.00     0.643 OA 
HETATM   30  C   UNL     1      -5.789  16.962  68.115  1.00  0.00    -0.121 C  
HETATM   31  H   UNL     1      -6.555  15.866  65.911  1.00  0.00     0.000 HD 
HETATM   32  C   UNL     1      -5.142  17.694  67.194  1.00  0.00    -0.146 C  
ENDBRANCH  11  21
TORSDOF 1
ENDMDL
MODEL       74
REMARK 921   NORMALIZED FREE ENERGY PREDICTED BY IDOCK:   -4.63 KCAL/MOL
REMARK 922        TOTAL FREE ENERGY PREDICTED BY IDOCK:   -5.35 KCAL/MOL
REMARK 923 INTER-LIGAND FREE ENERGY PREDICTED BY IDOCK:   -4.24 KCAL/MOL
REMARK 924 INTRA-LIGAND FREE ENERGY PREDICTED BY IDOCK:   -1.11 KCAL/MOL
REMARK 927      BINDING AFFINITY PREDICTED BY RF-SCORE:    0.00 PKD
ROOT
HETATM    1  C   UNL     1     -12.328  15.477  69.875  1.00  0.00    -0.306 C  
HETATM    2  C   UNL     1     -12.625  14.790  68.542  1.00  0.00     0.421 C  
HETATM    3  C   UNL     1     -10.924  16.214  69.715  1.00  0.00    -0.349 C  
HETATM    4  C   UNL     1     -10.338  16.914  70.947  1.00  0.00     1.743 C  
HETATM    5  C   UNL     1     -11.971  13.426  68.653  1.00  0.00    -0.362 C  
HETATM    6  C   UNL     1     -11.033  17.323  68.683  1.00  0.00    -0.097 C  
HETATM    7  C   UNL     1     -11.658  13.137  70.145  1.00  0.00    -0.147 C  
HETATM    8  C   UNL     1     -10.231  17.502  67.617  1.00  0.00    -0.343 C  
HETATM    9  C   UNL     1     -12.023  11.685  70.499  1.00  0.00    -0.413 C  
HETATM   10  C   UNL     1     -10.394  18.706  66.711  1.00  0.00    -0.449 C  
HETATM   11  C   UNL     1     -12.009  10.592  69.696  1.00  0.00    -0.340 C  
HETATM   12  C   UNL     1     -12.561  11.538  71.898  1.00  0.00    -0.104 C  
HETATM   13  C   UNL     1      -9.201  19.704  66.745  1.00  0.00    -0.438 C  
HETATM   14  C   UNL     1     -10.770  18.256  65.297  1.00  0.00     0.431 C  
HETATM   15  C   UNL     1      -8.825  20.097  68.182  1.00  0.00    -0.180 C  
HETATM   16  C   UNL     1     -13.755  12.454  72.164  1.00  0.00    -0.271 C  
HETATM   17  C   UNL     1     -11.938  14.781  72.281  1.00  0.00    -0.323 C  
HETATM   18  C   UNL     1      -7.942  19.249  66.003  1.00  0.00    -0.257 C  
HETATM   19  C   UNL     1     -13.854  13.684  71.212  1.00  0.00     0.067 C  
HETATM   20  C   UNL     1     -12.439  14.280  70.914  1.00  0.00    -0.424 C  
ENDROOT
BRANCH  11  21
HETATM   21  C   UNL     1     -11.484  10.476  68.346  1.00  0.00    -0.285 C  
HETATM   22  C   UNL     1      -9.778  10.459  66.511  1.00  0.00    -0.241 C  
HETATM   23  C   UNL     1     -10.185  10.506  67.978  1.00  0.00    -0.195 C  
HETATM   24  C   UNL     1      -8.935  11.679  66.143  1.00  0.00    -0.178 C  
HETATM   25  O   UNL     1      -9.722  12.874  66.167  1.00  0.00    -0.266 OA 
HETATM   26  C   UNL     1      -7.730  11.837  67.076  1.00  0.00    -0.158 C  
HETATM   27  H   UNL     1      -9.198  13.634  65.938  1.00  0.00     0.000 HD 
HETATM   28  C   UNL     1      -8.139  11.825  68.553  1.00  0.00    -0.140 C  
HETATM   29  O   UNL     1      -6.954  11.809  69.351  1.00  0.00    -0.228 OA 
HETATM   30  C   UNL     1      -9.028  10.624  68.873  1.00  0.00    -0.172 C  
HETATM   31  H   UNL     1      -7.207  11.802  70.267  1.00  0.00     0.000 HD 
HETATM   32  C   UNL     1      -8.778   9.721  69.835  1.00  0.00    -0.238 C  
ENDBRANCH  11  21
TORSDOF 1
ENDMDL
MODEL       75
REMARK 921   NORMALIZED FREE ENERGY PREDICTED BY IDOCK:   -4.58 KCAL/MOL
REMARK 922        TOTAL FREE ENERGY PREDICTED BY IDOCK:   -5.29 KCAL/MOL
REMARK 923 INTER-LIGAND FREE ENERGY PREDICTED BY IDOCK:   -4.40 KCAL/MOL
REMARK 924 INTRA-LIGAND FREE ENERGY PREDICTED BY IDOCK:   -0.89 KCAL/MOL
REMARK 927      BINDING AFFINITY PREDICTED BY RF-SCORE:    0.00 PKD
ROOT
HETATM    1  C   UNL     1      -8.426  10.214  69.178  1.00  0.00    -0.157 C  
HETATM    2  C   UNL     1      -9.249   9.262  68.308  1.00  0.00    -0.134 C  
HETATM    3  C   UNL     1      -8.175  11.532  68.317  1.00  0.00    -0.152 C  
HETATM    4  C   UNL     1      -7.290  12.626  68.924  1.00  0.00    -0.016 C  
HETATM    5  C   UNL     1      -8.222   8.472  67.519  1.00  0.00    -0.117 C  
HETATM    6  C   UNL     1      -9.494  12.237  68.049  1.00  0.00    -0.206 C  
HETATM    7  C   UNL     1      -6.833   8.638  68.191  1.00  0.00    -0.069 C  
HETATM    8  C   UNL     1      -9.960  12.624  66.847  1.00  0.00    -0.232 C  
HETATM    9  C   UNL     1      -6.097   7.287  68.244  1.00  0.00    -0.031 C  
HETATM   10  C   UNL     1     -11.255  13.402  66.727  1.00  0.00    -0.332 C  
HETATM   11  C   UNL     1      -6.188   6.244  67.383  1.00  0.00    -0.029 C  
HETATM   12  C   UNL     1      -5.268   7.118  69.489  1.00  0.00    -0.015 C  
HETATM   13  C   UNL     1     -11.086  14.862  66.217  1.00  0.00    -0.340 C  
HETATM   14  C   UNL     1     -12.285  12.596  65.929  1.00  0.00    -0.375 C  
HETATM   15  C   UNL     1     -10.015  15.624  67.012  1.00  0.00    -0.242 C  
HETATM   16  C   UNL     1      -6.083   7.316  70.767  1.00  0.00    -0.035 C  
HETATM   17  C   UNL     1      -6.141  10.229  70.273  1.00  0.00    -0.098 C  
HETATM   18  C   UNL     1     -10.797  15.006  64.721  1.00  0.00    -0.375 C  
HETATM   19  C   UNL     1      -7.392   8.141  70.579  1.00  0.00    -0.056 C  
HETATM   20  C   UNL     1      -7.174   9.323  69.578  1.00  0.00    -0.061 C  
ENDROOT
BRANCH  11  21
HETATM   21  C   UNL     1      -6.869   6.194  66.101  1.00  0.00    -0.061 C  
HETATM   22  C   UNL     1      -8.506   5.417  64.370  1.00  0.00    -0.106 C  
HETATM   23  C   UNL     1      -7.943   5.438  65.785  1.00  0.00    -0.106 C  
HETATM   24  C   UNL     1      -8.521   3.995  63.812  1.00  0.00    -0.097 C  
HETATM   25  O   UNL     1      -7.191   3.519  63.581  1.00  0.00    -0.048 OA 
HETATM   26  C   UNL     1      -9.259   3.030  64.745  1.00  0.00    -0.146 C  
HETATM   27  H   UNL     1      -7.200   2.634  63.234  1.00  0.00     0.000 HD 
HETATM   28  C   UNL     1      -8.727   3.097  66.182  1.00  0.00    -0.130 C  
HETATM   29  O   UNL     1      -9.569   2.296  67.014  1.00  0.00    -0.393 OA 
HETATM   30  C   UNL     1      -8.671   4.538  66.686  1.00  0.00    -0.111 C  
HETATM   31  H   UNL     1      -9.239   2.338  67.905  1.00  0.00     0.000 HD 
HETATM   32  C   UNL     1      -9.259   4.979  67.810  1.00  0.00    -0.131 C  
ENDBRANCH  11  21
TORSDOF 1
ENDMDL
MODEL       76
REMARK 921   NORMALIZED FREE ENERGY PREDICTED BY IDOCK:   -4.57 KCAL/MOL
REMARK 922        TOTAL FREE ENERGY PREDICTED BY IDOCK:   -5.28 KCAL/MOL
REMARK 923 INTER-LIGAND FREE ENERGY PREDICTED BY IDOCK:   -4.59 KCAL/MOL
REMARK 924 INTRA-LIGAND FREE ENERGY PREDICTED BY IDOCK:   -0.69 KCAL/MOL
REMARK 927      BINDING AFFINITY PREDICTED BY RF-SCORE:    0.00 PKD
ROOT
HETATM    1  C   UNL     1      -9.676   9.054  70.144  1.00  0.00    -0.213 C  
HETATM    2  C   UNL     1     -10.817   8.421  69.347  1.00  0.00    -0.094 C  
HETATM    3  C   UNL     1      -8.889  10.017  69.147  1.00  0.00    -0.171 C  
HETATM    4  C   UNL     1      -7.630  10.717  69.670  1.00  0.00    -0.100 C  
HETATM    5  C   UNL     1     -10.212   7.176  68.726  1.00  0.00    -0.184 C  
HETATM    6  C   UNL     1      -9.788  11.163  68.712  1.00  0.00    -0.201 C  
HETATM    7  C   UNL     1      -8.886   6.841  69.458  1.00  0.00    -0.139 C  
HETATM    8  C   UNL     1     -10.042  11.540  67.446  1.00  0.00    -0.213 C  
HETATM    9  C   UNL     1      -8.786   5.327  69.720  1.00  0.00    -0.116 C  
HETATM   10  C   UNL     1     -10.890  12.762  67.151  1.00  0.00    -0.282 C  
HETATM   11  C   UNL     1      -9.302   4.309  68.989  1.00  0.00    -0.226 C  
HETATM   12  C   UNL     1      -8.111   5.001  71.026  1.00  0.00    -0.101 C  
HETATM   13  C   UNL     1     -10.120  13.934  66.479  1.00  0.00    -0.286 C  
HETATM   14  C   UNL     1     -12.158  12.355  66.395  1.00  0.00    -0.215 C  
HETATM   15  C   UNL     1      -8.832  14.284  67.241  1.00  0.00    -0.224 C  
HETATM   16  C   UNL     1      -8.775   5.691  72.217  1.00  0.00    -0.132 C  
HETATM   17  C   UNL     1      -7.601   8.268  71.370  1.00  0.00    -0.095 C  
HETATM   18  C   UNL     1      -9.788  13.740  64.997  1.00  0.00    -0.087 C  
HETATM   19  C   UNL     1      -9.615   6.952  71.849  1.00  0.00    -0.159 C  
HETATM   20  C   UNL     1      -8.916   7.787  70.727  1.00  0.00    -0.148 C  
ENDROOT
BRANCH  11  21
HETATM   21  C   UNL     1      -9.934   4.371  67.682  1.00  0.00    -0.111 C  
HETATM   22  C   UNL     1     -10.196   4.047  65.212  1.00  0.00    -0.149 C  
HETATM   23  C   UNL     1      -9.472   3.831  66.535  1.00  0.00    -0.204 C  
HETATM   24  C   UNL     1      -9.265   4.685  64.182  1.00  0.00    -0.065 C  
HETATM   25  O   UNL     1      -8.948   6.033  64.540  1.00  0.00    -0.340 OA 
HETATM   26  C   UNL     1      -7.973   3.879  64.012  1.00  0.00    -0.089 C  
HETATM   27  H   UNL     1      -8.369   6.430  63.900  1.00  0.00     0.000 HD 
HETATM   28  C   UNL     1      -7.279   3.614  65.353  1.00  0.00    -0.067 C  
HETATM   29  O   UNL     1      -6.182   2.726  65.127  1.00  0.00    -0.019 OA 
HETATM   30  C   UNL     1      -8.252   3.031  66.376  1.00  0.00    -0.087 C  
HETATM   31  H   UNL     1      -5.752   2.562  65.958  1.00  0.00     0.000 HD 
HETATM   32  C   UNL     1      -8.064   1.881  67.043  1.00  0.00    -0.072 C  
ENDBRANCH  11  21
TORSDOF 1
ENDMDL
MODEL       77
REMARK 921   NORMALIZED FREE ENERGY PREDICTED BY IDOCK:   -4.55 KCAL/MOL
REMARK 922        TOTAL FREE ENERGY PREDICTED BY IDOCK:   -5.26 KCAL/MOL
REMARK 923 INTER-LIGAND FREE ENERGY PREDICTED BY IDOCK:   -4.80 KCAL/MOL
REMARK 924 INTRA-LIGAND FREE ENERGY PREDICTED BY IDOCK:   -0.46 KCAL/MOL
REMARK 927      BINDING AFFINITY PREDICTED BY RF-SCORE:    0.00 PKD
ROOT
HETATM    1  C   UNL     1     -10.798   9.776  67.756  1.00  0.00    -0.306 C  
HETATM    2  C   UNL     1     -10.819  10.820  68.874  1.00  0.00    -0.269 C  
HETATM    3  C   UNL     1      -9.648   8.733  68.116  1.00  0.00    -0.162 C  
HETATM    4  C   UNL     1      -9.348   7.620  67.106  1.00  0.00    -0.180 C  
HETATM    5  C   UNL     1      -9.818  11.874  68.439  1.00  0.00    -0.201 C  
HETATM    6  C   UNL     1     -10.004   7.983  69.389  1.00  0.00    -0.190 C  
HETATM    7  C   UNL     1      -9.520  11.693  66.927  1.00  0.00    -0.195 C  
HETATM    8  C   UNL     1      -9.227   7.849  70.478  1.00  0.00    -0.158 C  
HETATM    9  C   UNL     1      -9.486  13.059  66.219  1.00  0.00    -0.199 C  
HETATM   10  C   UNL     1      -9.668   6.996  71.651  1.00  0.00    -0.164 C  
HETATM   11  C   UNL     1      -9.124  14.262  66.727  1.00  0.00    -0.269 C  
HETATM   12  C   UNL     1     -10.038  13.009  64.819  1.00  0.00    -0.239 C  
HETATM   13  C   UNL     1      -8.804   5.724  71.884  1.00  0.00    -0.139 C  
HETATM   14  C   UNL     1      -9.826   7.861  72.904  1.00  0.00    -0.348 C  
HETATM   15  C   UNL     1      -8.631   4.905  70.596  1.00  0.00    -0.123 C  
HETATM   16  C   UNL     1     -11.452  12.433  64.768  1.00  0.00    -0.375 C  
HETATM   17  C   UNL     1     -10.363   9.730  65.260  1.00  0.00     0.227 C  
HETATM   18  C   UNL     1      -7.428   5.969  72.511  1.00  0.00    -0.098 C  
HETATM   19  C   UNL     1     -11.837  11.549  65.993  1.00  0.00     0.384 C  
HETATM   20  C   UNL     1     -10.629  10.667  66.453  1.00  0.00    -0.240 C  
ENDROOT
BRANCH  11  21
HETATM   21  C   UNL     1      -8.514  14.548  68.015  1.00  0.00    -0.161 C  
HETATM   22  C   UNL     1      -7.580  15.926  69.887  1.00  0.00     0.294 C  
HETATM   23  C   UNL     1      -8.313  15.766  68.562  1.00  0.00    -0.175 C  
HETATM   24  C   UNL     1      -6.364  16.838  69.728  1.00  0.00    -0.169 C  
HETATM   25  O   UNL     1      -5.353  16.211  68.934  1.00  0.00    -0.109 OA 
HETATM   26  C   UNL     1      -6.745  18.186  69.108  1.00  0.00    -0.252 C  
HETATM   27  H   UNL     1      -4.596  16.778  68.835  1.00  0.00     0.000 HD 
HETATM   28  C   UNL     1      -7.533  18.018  67.804  1.00  0.00    -0.211 C  
HETATM   29  O   UNL     1      -7.989  19.306  67.382  1.00  0.00    -0.258 OA 
HETATM   30  C   UNL     1      -8.707  17.057  67.984  1.00  0.00    -0.218 C  
HETATM   31  H   UNL     1      -8.477  19.202  66.573  1.00  0.00     0.000 HD 
HETATM   32  C   UNL     1      -9.987  17.348  67.701  1.00  0.00    -0.300 C  
ENDBRANCH  11  21
TORSDOF 1
ENDMDL
MODEL       78
REMARK 921   NORMALIZED FREE ENERGY PREDICTED BY IDOCK:   -4.36 KCAL/MOL
REMARK 922        TOTAL FREE ENERGY PREDICTED BY IDOCK:   -5.06 KCAL/MOL
REMARK 923 INTER-LIGAND FREE ENERGY PREDICTED BY IDOCK:   -4.13 KCAL/MOL
REMARK 924 INTRA-LIGAND FREE ENERGY PREDICTED BY IDOCK:   -0.93 KCAL/MOL
REMARK 927      BINDING AFFINITY PREDICTED BY RF-SCORE:    0.00 PKD
ROOT
HETATM    1  C   UNL     1      -9.141   8.368  70.118  1.00  0.00    -0.150 C  
HETATM    2  C   UNL     1      -7.709   7.898  69.859  1.00  0.00    -0.098 C  
HETATM    3  C   UNL     1     -10.026   7.060  70.338  1.00  0.00    -0.187 C  
HETATM    4  C   UNL     1     -11.536   7.241  70.529  1.00  0.00    -0.292 C  
HETATM    5  C   UNL     1      -7.638   7.678  68.360  1.00  0.00    -0.113 C  
HETATM    6  C   UNL     1      -9.583   6.338  71.599  1.00  0.00    -0.167 C  
HETATM    7  C   UNL     1      -8.842   8.389  67.688  1.00  0.00    -0.138 C  
HETATM    8  C   UNL     1      -9.251   5.037  71.697  1.00  0.00    -0.178 C  
HETATM    9  C   UNL     1      -8.389   9.123  66.413  1.00  0.00    -0.124 C  
HETATM   10  C   UNL     1      -8.912   4.418  73.038  1.00  0.00    -0.123 C  
HETATM   11  C   UNL     1      -7.380   8.800  65.568  1.00  0.00    -0.085 C  
HETATM   12  C   UNL     1      -9.127  10.416  66.186  1.00  0.00    -0.183 C  
HETATM   13  C   UNL     1      -9.930   3.351  73.532  1.00  0.00    -0.173 C  
HETATM   14  C   UNL     1      -7.463   3.922  73.040  1.00  0.00    -0.073 C  
HETATM   15  C   UNL     1     -11.375   3.869  73.473  1.00  0.00    -0.261 C  
HETATM   16  C   UNL     1      -9.041  11.358  67.386  1.00  0.00    -0.160 C  
HETATM   17  C   UNL     1     -10.938   9.641  68.864  1.00  0.00    -0.153 C  
HETATM   18  C   UNL     1      -9.855   1.994  72.826  1.00  0.00    -0.171 C  
HETATM   19  C   UNL     1      -8.709  10.656  68.739  1.00  0.00    -0.157 C  
HETATM   20  C   UNL     1      -9.441   9.279  68.853  1.00  0.00    -0.154 C  
ENDROOT
BRANCH  11  21
HETATM   21  C   UNL     1      -6.576   7.590  65.550  1.00  0.00    -0.045 C  
HETATM   22  C   UNL     1      -5.916   5.249  64.945  1.00  0.00    -0.022 C  
HETATM   23  C   UNL     1      -6.793   6.487  64.802  1.00  0.00    -0.050 C  
HETATM   24  C   UNL     1      -6.759   4.026  65.301  1.00  0.00    -0.048 C  
HETATM   25  O   UNL     1      -7.291   4.135  66.624  1.00  0.00    -0.073 OA 
HETATM   26  C   UNL     1      -7.901   3.816  64.301  1.00  0.00    -0.085 C  
HETATM   27  H   UNL     1      -7.816   3.373  66.845  1.00  0.00     0.000 HD 
HETATM   28  C   UNL     1      -8.745   5.082  64.117  1.00  0.00    -0.097 C  
HETATM   29  O   UNL     1      -9.677   4.854  63.057  1.00  0.00    -0.355 OA 
HETATM   30  C   UNL     1      -7.867   6.296  63.820  1.00  0.00    -0.111 C  
HETATM   31  H   UNL     1     -10.200   5.639  62.942  1.00  0.00     0.000 HD 
HETATM   32  C   UNL     1      -8.005   7.099  62.752  1.00  0.00    -0.107 C  
ENDBRANCH  11  21
TORSDOF 1
ENDMDL
MODEL       79
REMARK 921   NORMALIZED FREE ENERGY PREDICTED BY IDOCK:   -4.21 KCAL/MOL
REMARK 922        TOTAL FREE ENERGY PREDICTED BY IDOCK:   -4.90 KCAL/MOL
REMARK 923 INTER-LIGAND FREE ENERGY PREDICTED BY IDOCK:   -3.77 KCAL/MOL
REMARK 924 INTRA-LIGAND FREE ENERGY PREDICTED BY IDOCK:   -1.12 KCAL/MOL
REMARK 927      BINDING AFFINITY PREDICTED BY RF-SCORE:    0.00 PKD
ROOT
HETATM    1  C   UNL     1     -10.680  12.334  70.065  1.00  0.00     1.000 C  
HETATM    2  C   UNL     1      -9.443  12.312  69.166  1.00  0.00     0.526 C  
HETATM    3  C   UNL     1     -11.502  11.004  69.757  1.00  0.00    -0.387 C  
HETATM    4  C   UNL     1     -12.850  10.815  70.463  1.00  0.00    -0.335 C  
HETATM    5  C   UNL     1      -9.891  12.966  67.873  1.00  0.00    -0.227 C  
HETATM    6  C   UNL     1     -10.697   9.785  70.175  1.00  0.00    -0.339 C  
HETATM    7  C   UNL     1     -11.215  13.734  68.128  1.00  0.00    -0.298 C  
HETATM    8  C   UNL     1     -10.415   8.715  69.410  1.00  0.00    -0.224 C  
HETATM    9  C   UNL     1     -11.181  15.108  67.434  1.00  0.00    -0.323 C  
HETATM   10  C   UNL     1      -9.676   7.522  69.980  1.00  0.00    -0.172 C  
HETATM   11  C   UNL     1     -10.532  15.462  66.299  1.00  0.00    -0.310 C  
HETATM   12  C   UNL     1     -11.889  16.180  68.219  1.00  0.00     0.083 C  
HETATM   13  C   UNL     1     -10.519   6.217  70.059  1.00  0.00    -0.274 C  
HETATM   14  C   UNL     1      -8.336   7.336  69.261  1.00  0.00    -0.132 C  
HETATM   15  C   UNL     1     -11.873   6.452  70.747  1.00  0.00    -0.319 C  
HETATM   16  C   UNL     1     -11.358  16.307  69.647  1.00  0.00    -0.266 C  
HETATM   17  C   UNL     1     -12.730  13.793  70.375  1.00  0.00    -0.245 C  
HETATM   18  C   UNL     1     -10.752   5.504  68.724  1.00  0.00    -0.195 C  
HETATM   19  C   UNL     1     -10.625  15.038  70.181  1.00  0.00    -0.155 C  
HETATM   20  C   UNL     1     -11.343  13.732  69.707  1.00  0.00    -0.200 C  
ENDROOT
BRANCH  11  21
HETATM   21  C   UNL     1      -9.841  14.603  65.352  1.00  0.00    -0.280 C  
HETATM   22  C   UNL     1      -9.558  12.840  63.594  1.00  0.00     0.930 C  
HETATM   23  C   UNL     1     -10.408  13.749  64.473  1.00  0.00    -0.311 C  
HETATM   24  C   UNL     1      -9.926  11.373  63.815  1.00  0.00    -0.341 C  
HETATM   25  O   UNL     1      -9.532  10.935  65.119  1.00  0.00    -0.204 OA 
HETATM   26  C   UNL     1     -11.426  11.131  63.622  1.00  0.00     0.199 C  
HETATM   27  H   UNL     1      -9.761  10.023  65.257  1.00  0.00     0.000 HD 
HETATM   28  C   UNL     1     -12.278  12.088  64.464  1.00  0.00    -0.241 C  
HETATM   29  O   UNL     1     -13.650  11.910  64.105  1.00  0.00    -0.481 OA 
HETATM   30  C   UNL     1     -11.845  13.540  64.263  1.00  0.00    -0.471 C  
HETATM   31  H   UNL     1     -14.177  12.503  64.627  1.00  0.00     0.000 HD 
HETATM   32  C   UNL     1     -12.661  14.537  63.885  1.00  0.00     0.219 C  
ENDBRANCH  11  21
TORSDOF 1
ENDMDL
MODEL       80
REMARK 921   NORMALIZED FREE ENERGY PREDICTED BY IDOCK:   -4.21 KCAL/MOL
REMARK 922        TOTAL FREE ENERGY PREDICTED BY IDOCK:   -4.90 KCAL/MOL
REMARK 923 INTER-LIGAND FREE ENERGY PREDICTED BY IDOCK:   -3.80 KCAL/MOL
REMARK 924 INTRA-LIGAND FREE ENERGY PREDICTED BY IDOCK:   -1.09 KCAL/MOL
REMARK 927      BINDING AFFINITY PREDICTED BY RF-SCORE:    0.00 PKD
ROOT
HETATM    1  C   UNL     1     -10.732   9.999  67.793  1.00  0.00    -0.333 C  
HETATM    2  C   UNL     1     -10.851   8.485  67.972  1.00  0.00    -0.022 C  
HETATM    3  C   UNL     1      -9.235  10.297  67.335  1.00  0.00    -0.155 C  
HETATM    4  C   UNL     1      -8.814  11.762  67.170  1.00  0.00    -0.173 C  
HETATM    5  C   UNL     1     -10.431   8.230  69.407  1.00  0.00    -0.224 C  
HETATM    6  C   UNL     1      -8.979   9.688  65.967  1.00  0.00    -0.195 C  
HETATM    7  C   UNL     1     -10.465   9.569  70.189  1.00  0.00    -0.299 C  
HETATM    8  C   UNL     1      -7.963   8.869  65.637  1.00  0.00    -0.098 C  
HETATM    9  C   UNL     1     -11.095   9.364  71.579  1.00  0.00    -0.446 C  
HETATM   10  C   UNL     1      -7.771   8.402  64.208  1.00  0.00    -0.136 C  
HETATM   11  C   UNL     1     -11.074   8.255  72.357  1.00  0.00    -0.447 C  
HETATM   12  C   UNL     1     -11.917  10.541  72.032  1.00  0.00     0.688 C  
HETATM   13  C   UNL     1      -6.481   8.937  63.523  1.00  0.00    -0.089 C  
HETATM   14  C   UNL     1      -7.917   6.880  64.125  1.00  0.00    -0.078 C  
HETATM   15  C   UNL     1      -6.347  10.461  63.665  1.00  0.00    -0.059 C  
HETATM   16  C   UNL     1     -12.999  10.923  71.023  1.00  0.00    -0.396 C  
HETATM   17  C   UNL     1     -10.933  12.067  69.246  1.00  0.00    -0.189 C  
HETATM   18  C   UNL     1      -5.175   8.275  63.972  1.00  0.00    -0.041 C  
HETATM   19  C   UNL     1     -12.731  10.430  69.568  1.00  0.00     0.444 C  
HETATM   20  C   UNL     1     -11.216  10.553  69.201  1.00  0.00    -0.314 C  
ENDROOT
BRANCH  11  21
HETATM   21  C   UNL     1     -10.312   7.033  72.162  1.00  0.00    -0.214 C  
HETATM   22  C   UNL     1      -8.310   5.526  72.116  1.00  0.00    -0.122 C  
HETATM   23  C   UNL     1      -9.009   6.837  72.454  1.00  0.00    -0.141 C  
HETATM   24  C   UNL     1      -7.100   5.773  71.217  1.00  0.00    -0.073 C  
HETATM   25  O   UNL     1      -7.506   6.207  69.915  1.00  0.00    -0.077 OA 
HETATM   26  C   UNL     1      -6.142   6.801  71.827  1.00  0.00    -0.038 C  
HETATM   27  H   UNL     1      -6.753   6.361  69.356  1.00  0.00     0.000 HD 
HETATM   28  C   UNL     1      -6.861   8.097  72.220  1.00  0.00    -0.083 C  
HETATM   29  O   UNL     1      -5.939   8.930  72.926  1.00  0.00    -0.127 OA 
HETATM   30  C   UNL     1      -8.098   7.810  73.070  1.00  0.00    -0.174 C  
HETATM   31  H   UNL     1      -6.385   9.733  73.170  1.00  0.00     0.000 HD 
HETATM   32  C   UNL     1      -8.334   8.338  74.281  1.00  0.00    -0.190 C  
ENDBRANCH  11  21
TORSDOF 1
ENDMDL
MODEL       81
REMARK 921   NORMALIZED FREE ENERGY PREDICTED BY IDOCK:   -4.12 KCAL/MOL
REMARK 922        TOTAL FREE ENERGY PREDICTED BY IDOCK:   -4.81 KCAL/MOL
REMARK 923 INTER-LIGAND FREE ENERGY PREDICTED BY IDOCK:   -4.10 KCAL/MOL
REMARK 924 INTRA-LIGAND FREE ENERGY PREDICTED BY IDOCK:   -0.71 KCAL/MOL
REMARK 927      BINDING AFFINITY PREDICTED BY RF-SCORE:    0.00 PKD
ROOT
HETATM    1  C   UNL     1      -9.824   8.319  70.229  1.00  0.00    -0.186 C  
HETATM    2  C   UNL     1      -8.771   9.326  69.766  1.00  0.00    -0.168 C  
HETATM    3  C   UNL     1      -9.837   7.135  69.162  1.00  0.00    -0.160 C  
HETATM    4  C   UNL     1     -10.877   6.022  69.338  1.00  0.00    -0.433 C  
HETATM    5  C   UNL     1      -9.515  10.263  68.833  1.00  0.00    -0.190 C  
HETATM    6  C   UNL     1      -8.508   6.399  69.185  1.00  0.00    -0.122 C  
HETATM    7  C   UNL     1     -11.040  10.090  69.054  1.00  0.00    -0.221 C  
HETATM    8  C   UNL     1      -7.721   6.141  68.124  1.00  0.00    -0.103 C  
HETATM    9  C   UNL     1     -11.739  11.461  69.079  1.00  0.00    -0.409 C  
HETATM   10  C   UNL     1      -6.459   5.315  68.272  1.00  0.00    -0.040 C  
HETATM   11  C   UNL     1     -11.387  12.597  68.430  1.00  0.00    -0.329 C  
HETATM   12  C   UNL     1     -12.889  11.517  70.049  1.00  0.00     0.175 C  
HETATM   13  C   UNL     1      -6.497   3.942  67.542  1.00  0.00    -0.038 C  
HETATM   14  C   UNL     1      -5.231   6.158  67.916  1.00  0.00    -0.004 C  
HETATM   15  C   UNL     1      -7.764   3.145  67.889  1.00  0.00    -0.063 C  
HETATM   16  C   UNL     1     -12.481  11.117  71.466  1.00  0.00    -0.356 C  
HETATM   17  C   UNL     1     -12.329   8.290  70.618  1.00  0.00     0.181 C  
HETATM   18  C   UNL     1      -6.344   4.003  66.020  1.00  0.00    -0.033 C  
HETATM   19  C   UNL     1     -11.186  10.252  71.547  1.00  0.00     0.392 C  
HETATM   20  C   UNL     1     -11.124   9.219  70.374  1.00  0.00    -0.300 C  
ENDROOT
BRANCH  11  21
HETATM   21  C   UNL     1     -10.364  12.772  67.412  1.00  0.00    -0.222 C  
HETATM   22  C   UNL     1      -9.398  13.145  65.131  1.00  0.00     0.551 C  
HETATM   23  C   UNL     1     -10.561  13.077  66.112  1.00  0.00    -0.289 C  
HETATM   24  C   UNL     1      -9.615  12.183  63.964  1.00  0.00     0.031 C  
HETATM   25  O   UNL     1      -9.525  10.822  64.396  1.00  0.00    -0.218 OA 
HETATM   26  C   UNL     1     -10.966  12.418  63.281  1.00  0.00    -0.325 C  
HETATM   27  H   UNL     1      -9.660  10.223  63.671  1.00  0.00     0.000 HD 
HETATM   28  C   UNL     1     -12.127  12.407  64.281  1.00  0.00    -0.433 C  
HETATM   29  O   UNL     1     -13.320  12.795  63.594  1.00  0.00    -0.069 OA 
HETATM   30  C   UNL     1     -11.852  13.335  65.463  1.00  0.00    -0.405 C  
HETATM   31  H   UNL     1     -14.040  12.788  64.215  1.00  0.00     0.000 HD 
HETATM   32  C   UNL     1     -12.662  14.328  65.862  1.00  0.00    -0.310 C  
ENDBRANCH  11  21
TORSDOF 1
ENDMDL
MODEL       82
REMARK 921   NORMALIZED FREE ENERGY PREDICTED BY IDOCK:   -4.10 KCAL/MOL
REMARK 922        TOTAL FREE ENERGY PREDICTED BY IDOCK:   -4.78 KCAL/MOL
REMARK 923 INTER-LIGAND FREE ENERGY PREDICTED BY IDOCK:   -4.33 KCAL/MOL
REMARK 924 INTRA-LIGAND FREE ENERGY PREDICTED BY IDOCK:   -0.45 KCAL/MOL
REMARK 927      BINDING AFFINITY PREDICTED BY RF-SCORE:    0.00 PKD
ROOT
HETATM    1  C   UNL     1      -9.217  13.958  65.605  1.00  0.00     0.397 C  
HETATM    2  C   UNL     1      -8.444  13.448  66.821  1.00  0.00     0.021 C  
HETATM    3  C   UNL     1     -10.128  15.166  66.106  1.00  0.00    -0.314 C  
HETATM    4  C   UNL     1     -11.084  15.810  65.096  1.00  0.00    -0.332 C  
HETATM    5  C   UNL     1      -9.355  12.412  67.454  1.00  0.00    -0.181 C  
HETATM    6  C   UNL     1      -9.254  16.321  66.567  1.00  0.00    -0.299 C  
HETATM    7  C   UNL     1     -10.446  12.006  66.428  1.00  0.00    -0.267 C  
HETATM    8  C   UNL     1      -9.329  16.954  67.752  1.00  0.00    -0.235 C  
HETATM    9  C   UNL     1     -10.658  10.482  66.444  1.00  0.00    -0.218 C  
HETATM   10  C   UNL     1      -8.454  18.154  68.052  1.00  0.00    -0.268 C  
HETATM   11  C   UNL     1     -10.508   9.622  67.481  1.00  0.00    -0.321 C  
HETATM   12  C   UNL     1     -10.964   9.916  65.083  1.00  0.00     1.748 C  
HETATM   13  C   UNL     1      -9.229  19.493  68.214  1.00  0.00    -0.412 C  
HETATM   14  C   UNL     1      -7.519  17.847  69.226  1.00  0.00     0.015 C  
HETATM   15  C   UNL     1     -10.188  19.745  67.040  1.00  0.00    -0.579 C  
HETATM   16  C   UNL     1      -9.903  10.282  64.045  1.00  0.00    -0.286 C  
HETATM   17  C   UNL     1     -10.933  13.051  63.975  1.00  0.00    -0.422 C  
HETATM   18  C   UNL     1      -9.994  19.654  69.530  1.00  0.00    -0.130 C  
HETATM   19  C   UNL     1      -9.051  11.538  64.403  1.00  0.00     0.177 C  
HETATM   20  C   UNL     1      -9.932  12.644  65.072  1.00  0.00    -0.179 C  
ENDROOT
BRANCH  11  21
HETATM   21  C   UNL     1     -10.276   9.933  68.881  1.00  0.00    -0.209 C  
HETATM   22  C   UNL     1      -9.904   9.512  71.323  1.00  0.00    -0.095 C  
HETATM   23  C   UNL     1     -10.045   9.052  69.878  1.00  0.00    -0.213 C  
HETATM   24  C   UNL     1     -10.930   8.817  72.217  1.00  0.00    -0.266 C  
HETATM   25  O   UNL     1     -12.257   9.263  71.919  1.00  0.00    -0.356 OA 
HETATM   26  C   UNL     1     -10.856   7.292  72.082  1.00  0.00    -0.263 C  
HETATM   27  H   UNL     1     -12.895   8.831  72.475  1.00  0.00     0.000 HD 
HETATM   28  C   UNL     1     -10.941   6.838  70.621  1.00  0.00    -0.267 C  
HETATM   29  O   UNL     1     -10.700   5.430  70.570  1.00  0.00    -0.263 OA 
HETATM   30  C   UNL     1      -9.942   7.594  69.746  1.00  0.00    -0.184 C  
HETATM   31  H   UNL     1     -10.753   5.148  69.664  1.00  0.00     0.000 HD 
HETATM   32  C   UNL     1      -9.018   7.015  68.963  1.00  0.00    -0.133 C  
ENDBRANCH  11  21
TORSDOF 1
ENDMDL
MODEL       83
REMARK 921   NORMALIZED FREE ENERGY PREDICTED BY IDOCK:   -4.03 KCAL/MOL
REMARK 922        TOTAL FREE ENERGY PREDICTED BY IDOCK:   -4.71 KCAL/MOL
REMARK 923 INTER-LIGAND FREE ENERGY PREDICTED BY IDOCK:   -4.17 KCAL/MOL
REMARK 924 INTRA-LIGAND FREE ENERGY PREDICTED BY IDOCK:   -0.54 KCAL/MOL
REMARK 927      BINDING AFFINITY PREDICTED BY RF-SCORE:    0.00 PKD
ROOT
HETATM    1  C   UNL     1      -9.869  14.759  67.665  1.00  0.00    -0.218 C  
HETATM    2  C   UNL     1      -8.587  14.087  67.172  1.00  0.00    -0.220 C  
HETATM    3  C   UNL     1      -9.452  15.747  68.844  1.00  0.00    -0.229 C  
HETATM    4  C   UNL     1     -10.569  16.490  69.586  1.00  0.00    -0.302 C  
HETATM    5  C   UNL     1      -8.427  12.862  68.054  1.00  0.00    -0.178 C  
HETATM    6  C   UNL     1      -8.572  16.861  68.302  1.00  0.00    -0.230 C  
HETATM    7  C   UNL     1      -9.775  12.572  68.764  1.00  0.00     0.045 C  
HETATM    8  C   UNL     1      -7.368  17.229  68.779  1.00  0.00    -0.250 C  
HETATM    9  C   UNL     1     -10.079  11.064  68.745  1.00  0.00    -0.214 C  
HETATM   10  C   UNL     1      -6.631  18.420  68.201  1.00  0.00    -0.218 C  
HETATM   11  C   UNL     1      -9.204  10.028  68.747  1.00  0.00    -0.159 C  
HETATM   12  C   UNL     1     -11.546  10.761  68.596  1.00  0.00    -0.342 C  
HETATM   13  C   UNL     1      -6.473  19.618  69.181  1.00  0.00    -0.361 C  
HETATM   14  C   UNL     1      -5.309  17.970  67.573  1.00  0.00    -0.142 C  
HETATM   15  C   UNL     1      -7.812  20.012  69.824  1.00  0.00     0.520 C  
HETATM   16  C   UNL     1     -12.159  11.430  67.366  1.00  0.00     0.470 C  
HETATM   17  C   UNL     1     -12.051  14.044  68.740  1.00  0.00    -0.338 C  
HETATM   18  C   UNL     1      -5.423  19.434  70.280  1.00  0.00    -0.247 C  
HETATM   19  C   UNL     1     -11.365  12.661  66.834  1.00  0.00    -0.373 C  
HETATM   20  C   UNL     1     -10.799  13.519  68.013  1.00  0.00    -0.266 C  
ENDROOT
BRANCH  11  21
HETATM   21  C   UNL     1      -7.764  10.068  68.940  1.00  0.00    -0.089 C  
HETATM   22  C   UNL     1      -5.532   9.459  69.902  1.00  0.00    -0.032 C  
HETATM   23  C   UNL     1      -7.031   9.249  69.724  1.00  0.00    -0.058 C  
HETATM   24  C   UNL     1      -5.181   9.640  71.377  1.00  0.00    -0.065 C  
HETATM   25  O   UNL     1      -5.689  10.881  71.878  1.00  0.00    -0.248 OA 
HETATM   26  C   UNL     1      -5.711   8.484  72.231  1.00  0.00    -0.054 C  
HETATM   27  H   UNL     1      -5.470  10.994  72.796  1.00  0.00     0.000 HD 
HETATM   28  C   UNL     1      -7.208   8.240  72.005  1.00  0.00    -0.091 C  
HETATM   29  O   UNL     1      -7.584   7.052  72.706  1.00  0.00    -0.084 OA 
HETATM   30  C   UNL     1      -7.532   8.121  70.517  1.00  0.00    -0.063 C  
HETATM   31  H   UNL     1      -8.512   6.901  72.566  1.00  0.00     0.000 HD 
HETATM   32  C   UNL     1      -8.166   7.081  69.952  1.00  0.00    -0.130 C  
ENDBRANCH  11  21
TORSDOF 1
ENDMDL
MODEL       84
REMARK 921   NORMALIZED FREE ENERGY PREDICTED BY IDOCK:   -3.94 KCAL/MOL
REMARK 922        TOTAL FREE ENERGY PREDICTED BY IDOCK:   -4.61 KCAL/MOL
REMARK 923 INTER-LIGAND FREE ENERGY PREDICTED BY IDOCK:   -3.50 KCAL/MOL
REMARK 924 INTRA-LIGAND FREE ENERGY PREDICTED BY IDOCK:   -1.11 KCAL/MOL
REMARK 927      BINDING AFFINITY PREDICTED BY RF-SCORE:    0.00 PKD
ROOT
HETATM    1  C   UNL     1      -8.141   9.314  66.751  1.00  0.00    -0.112 C  
HETATM    2  C   UNL     1      -6.805   9.635  67.422  1.00  0.00    -0.083 C  
HETATM    3  C   UNL     1      -9.266  10.109  67.554  1.00  0.00    -0.150 C  
HETATM    4  C   UNL     1     -10.727   9.893  67.142  1.00  0.00    -0.276 C  
HETATM    5  C   UNL     1      -6.663   8.597  68.520  1.00  0.00    -0.060 C  
HETATM    6  C   UNL     1      -9.061  11.606  67.394  1.00  0.00    -0.169 C  
HETATM    7  C   UNL     1      -7.661   7.440  68.252  1.00  0.00    -0.114 C  
HETATM    8  C   UNL     1      -8.982  12.510  68.387  1.00  0.00    -0.130 C  
HETATM    9  C   UNL     1      -6.986   6.079  68.501  1.00  0.00    -0.076 C  
HETATM   10  C   UNL     1      -8.865  13.991  68.087  1.00  0.00    -0.182 C  
HETATM   11  C   UNL     1      -5.992   5.779  69.373  1.00  0.00    -0.027 C  
HETATM   12  C   UNL     1      -7.453   5.008  67.552  1.00  0.00    -0.083 C  
HETATM   13  C   UNL     1     -10.097  14.836  68.519  1.00  0.00    -0.230 C  
HETATM   14  C   UNL     1      -7.537  14.535  68.620  1.00  0.00    -0.131 C  
HETATM   15  C   UNL     1     -11.414  14.235  68.003  1.00  0.00    -0.342 C  
HETATM   16  C   UNL     1      -7.285   5.410  66.087  1.00  0.00    -0.077 C  
HETATM   17  C   UNL     1      -9.573   7.264  66.339  1.00  0.00    -0.169 C  
HETATM   18  C   UNL     1     -10.221  15.096  70.023  1.00  0.00    -0.149 C  
HETATM   19  C   UNL     1      -7.191   6.947  65.844  1.00  0.00    -0.074 C  
HETATM   20  C   UNL     1      -8.171   7.727  66.780  1.00  0.00    -0.120 C  
ENDROOT
BRANCH  11  21
HETATM   21  C   UNL     1      -5.427   6.619  70.415  1.00  0.00    -0.019 C  
HETATM   22  C   UNL     1      -5.307   7.858  72.590  1.00  0.00    -0.036 C  
HETATM   23  C   UNL     1      -5.970   6.886  71.622  1.00  0.00    -0.037 C  
HETATM   24  C   UNL     1      -6.261   8.992  72.959  1.00  0.00     0.107 C  
HETATM   25  O   UNL     1      -6.501   9.848  71.838  1.00  0.00    -0.211 OA 
HETATM   26  C   UNL     1      -7.594   8.458  73.494  1.00  0.00    -0.134 C  
HETATM   27  H   UNL     1      -7.095  10.554  72.067  1.00  0.00     0.000 HD 
HETATM   28  C   UNL     1      -8.229   7.437  72.543  1.00  0.00    -0.105 C  
HETATM   29  O   UNL     1      -9.373   6.870  73.186  1.00  0.00    -0.136 OA 
HETATM   30  C   UNL     1      -7.230   6.350  72.150  1.00  0.00    -0.087 C  
HETATM   31  H   UNL     1      -9.766   6.236  72.597  1.00  0.00     0.000 HD 
HETATM   32  C   UNL     1      -7.432   5.031  72.303  1.00  0.00    -0.093 C  
ENDBRANCH  11  21
TORSDOF 1
ENDMDL
MODEL       85
REMARK 921   NORMALIZED FREE ENERGY PREDICTED BY IDOCK:   -3.82 KCAL/MOL
REMARK 922        TOTAL FREE ENERGY PREDICTED BY IDOCK:   -4.48 KCAL/MOL
REMARK 923 INTER-LIGAND FREE ENERGY PREDICTED BY IDOCK:   -3.50 KCAL/MOL
REMARK 924 INTRA-LIGAND FREE ENERGY PREDICTED BY IDOCK:   -0.98 KCAL/MOL
REMARK 927      BINDING AFFINITY PREDICTED BY RF-SCORE:    0.00 PKD
ROOT
HETATM    1  C   UNL     1      -9.533   5.495  73.498  1.00  0.00    -0.138 C  
HETATM    2  C   UNL     1     -10.401   4.476  72.759  1.00  0.00    -0.245 C  
HETATM    3  C   UNL     1      -9.669   6.877  72.714  1.00  0.00    -0.171 C  
HETATM    4  C   UNL     1      -8.821   8.060  73.195  1.00  0.00    -0.318 C  
HETATM    5  C   UNL     1      -9.489   3.887  71.698  1.00  0.00    -0.220 C  
HETATM    6  C   UNL     1     -11.096   7.389  72.806  1.00  0.00    -0.394 C  
HETATM    7  C   UNL     1      -8.017   4.225  72.054  1.00  0.00    -0.090 C  
HETATM    8  C   UNL     1     -11.877   7.761  71.775  1.00  0.00    -0.328 C  
HETATM    9  C   UNL     1      -7.115   2.999  71.830  1.00  0.00    -0.038 C  
HETATM   10  C   UNL     1     -13.256   8.342  72.011  1.00  0.00    -0.372 C  
HETATM   11  C   UNL     1      -7.264   1.997  70.929  1.00  0.00    -0.033 C  
HETATM   12  C   UNL     1      -6.003   2.894  72.840  1.00  0.00    -0.008 C  
HETATM   13  C   UNL     1     -13.407   9.834  71.598  1.00  0.00    -0.487 C  
HETATM   14  C   UNL     1     -14.326   7.432  71.401  1.00  0.00    -0.522 C  
HETATM   15  C   UNL     1     -12.292  10.708  72.194  1.00  0.00     0.411 C  
HETATM   16  C   UNL     1      -6.517   2.905  74.279  1.00  0.00    -0.025 C  
HETATM   17  C   UNL     1      -7.078   5.797  74.052  1.00  0.00    -0.082 C  
HETATM   18  C   UNL     1     -13.497  10.094  70.092  1.00  0.00     0.587 C  
HETATM   19  C   UNL     1      -7.932   3.534  74.458  1.00  0.00    -0.069 C  
HETATM   20  C   UNL     1      -8.114   4.783  73.533  1.00  0.00    -0.106 C  
ENDROOT
BRANCH  11  21
HETATM   21  C   UNL     1      -8.212   1.908  69.831  1.00  0.00    -0.061 C  
HETATM   22  C   UNL     1      -9.142   2.260  67.531  1.00  0.00    -0.196 C  
HETATM   23  C   UNL     1      -8.025   2.338  68.565  1.00  0.00    -0.061 C  
HETATM   24  C   UNL     1      -9.445   3.642  66.955  1.00  0.00    -0.187 C  
HETATM   25  O   UNL     1     -10.046   4.489  67.939  1.00  0.00    -0.091 OA 
HETATM   26  C   UNL     1      -8.184   4.312  66.399  1.00  0.00    -0.102 C  
HETATM   27  H   UNL     1     -10.234   5.349  67.581  1.00  0.00     0.000 HD 
HETATM   28  C   UNL     1      -7.044   4.335  67.424  1.00  0.00    -0.067 C  
HETATM   29  O   UNL     1      -5.865   4.821  66.779  1.00  0.00    -0.024 OA 
HETATM   30  C   UNL     1      -6.807   2.949  68.022  1.00  0.00    -0.048 C  
HETATM   31  H   UNL     1      -5.158   4.836  67.415  1.00  0.00     0.000 HD 
HETATM   32  C   UNL     1      -5.628   2.307  68.023  1.00  0.00    -0.018 C  
ENDBRANCH  11  21
TORSDOF 1
ENDMDL
MODEL       86
REMARK 921   NORMALIZED FREE ENERGY PREDICTED BY IDOCK:   -3.75 KCAL/MOL
REMARK 922        TOTAL FREE ENERGY PREDICTED BY IDOCK:   -4.41 KCAL/MOL
REMARK 923 INTER-LIGAND FREE ENERGY PREDICTED BY IDOCK:   -3.78 KCAL/MOL
REMARK 924 INTRA-LIGAND FREE ENERGY PREDICTED BY IDOCK:   -0.63 KCAL/MOL
REMARK 927      BINDING AFFINITY PREDICTED BY RF-SCORE:    0.00 PKD
ROOT
HETATM    1  C   UNL     1      -9.988  11.685  66.079  1.00  0.00    -0.260 C  
HETATM    2  C   UNL     1      -8.750  12.285  66.747  1.00  0.00    -0.175 C  
HETATM    3  C   UNL     1      -9.512  11.063  64.691  1.00  0.00    -0.270 C  
HETATM    4  C   UNL     1     -10.582  10.469  63.767  1.00  0.00     0.309 C  
HETATM    5  C   UNL     1      -8.671  13.703  66.214  1.00  0.00     0.372 C  
HETATM    6  C   UNL     1      -8.561   9.904  64.939  1.00  0.00    -0.183 C  
HETATM    7  C   UNL     1     -10.037  14.082  65.584  1.00  0.00    -0.342 C  
HETATM    8  C   UNL     1      -7.338   9.748  64.400  1.00  0.00    -0.132 C  
HETATM    9  C   UNL     1     -10.437  15.513  65.988  1.00  0.00    -0.335 C  
HETATM   10  C   UNL     1      -6.524   8.496  64.661  1.00  0.00    -0.066 C  
HETATM   11  C   UNL     1      -9.630  16.566  66.266  1.00  0.00    -0.333 C  
HETATM   12  C   UNL     1     -11.920  15.674  66.190  1.00  0.00     0.777 C  
HETATM   13  C   UNL     1      -6.293   7.605  63.407  1.00  0.00    -0.055 C  
HETATM   14  C   UNL     1      -5.232   8.850  65.402  1.00  0.00    -0.037 C  
HETATM   15  C   UNL     1      -7.605   7.308  62.665  1.00  0.00    -0.110 C  
HETATM   16  C   UNL     1     -12.486  14.673  67.197  1.00  0.00     0.287 C  
HETATM   17  C   UNL     1     -12.214  12.515  65.196  1.00  0.00    -0.509 C  
HETATM   18  C   UNL     1      -5.260   8.132  62.407  1.00  0.00    -0.065 C  
HETATM   19  C   UNL     1     -11.613  13.398  67.404  1.00  0.00    -0.394 C  
HETATM   20  C   UNL     1     -10.996  12.912  66.051  1.00  0.00    -0.301 C  
ENDROOT
BRANCH  11  21
HETATM   21  C   UNL     1      -8.191  16.668  66.089  1.00  0.00    -0.295 C  
HETATM   22  C   UNL     1      -5.831  17.339  66.597  1.00  0.00    -0.241 C  
HETATM   23  C   UNL     1      -7.309  17.221  66.948  1.00  0.00    -0.240 C  
HETATM   24  C   UNL     1      -5.372  18.794  66.661  1.00  0.00    -0.139 C  
HETATM   25  O   UNL     1      -5.962  19.567  65.611  1.00  0.00    -0.173 OA 
HETATM   26  C   UNL     1      -5.699  19.431  68.016  1.00  0.00    -0.211 C  
HETATM   27  H   UNL     1      -5.676  20.473  65.651  1.00  0.00     0.000 HD 
HETATM   28  C   UNL     1      -7.175  19.259  68.391  1.00  0.00    -0.303 C  
HETATM   29  O   UNL     1      -7.360  19.730  69.729  1.00  0.00    -0.194 OA 
HETATM   30  C   UNL     1      -7.616  17.802  68.260  1.00  0.00    -0.256 C  
HETATM   31  H   UNL     1      -8.275  19.623  69.961  1.00  0.00     0.000 HD 
HETATM   32  C   UNL     1      -8.183  17.082  69.241  1.00  0.00     0.093 C  
ENDBRANCH  11  21
TORSDOF 1
ENDMDL
MODEL       87
REMARK 921   NORMALIZED FREE ENERGY PREDICTED BY IDOCK:   -3.73 KCAL/MOL
REMARK 922        TOTAL FREE ENERGY PREDICTED BY IDOCK:   -4.39 KCAL/MOL
REMARK 923 INTER-LIGAND FREE ENERGY PREDICTED BY IDOCK:   -3.83 KCAL/MOL
REMARK 924 INTRA-LIGAND FREE ENERGY PREDICTED BY IDOCK:   -0.55 KCAL/MOL
REMARK 927      BINDING AFFINITY PREDICTED BY RF-SCORE:    0.00 PKD
ROOT
HETATM    1  C   UNL     1     -10.250  15.813  67.044  1.00  0.00    -0.280 C  
HETATM    2  C   UNL     1      -9.122  15.359  66.117  1.00  0.00    -0.339 C  
HETATM    3  C   UNL     1      -9.567  16.334  68.387  1.00  0.00    -0.216 C  
HETATM    4  C   UNL     1     -10.484  16.768  69.536  1.00  0.00    -0.263 C  
HETATM    5  C   UNL     1      -8.881  13.907  66.481  1.00  0.00    -0.023 C  
HETATM    6  C   UNL     1      -8.732  17.571  68.100  1.00  0.00    -0.262 C  
HETATM    7  C   UNL     1     -10.094  13.382  67.293  1.00  0.00    -0.238 C  
HETATM    8  C   UNL     1      -7.442  17.757  68.435  1.00  0.00    -0.263 C  
HETATM    9  C   UNL     1     -10.488  11.972  66.819  1.00  0.00    -0.243 C  
HETATM   10  C   UNL     1      -6.750  19.078  68.168  1.00  0.00    -0.256 C  
HETATM   11  C   UNL     1      -9.693  11.004  66.302  1.00  0.00    -0.244 C  
HETATM   12  C   UNL     1     -11.974  11.732  66.859  1.00  0.00     0.094 C  
HETATM   13  C   UNL     1      -6.344  19.864  69.448  1.00  0.00    -0.374 C  
HETATM   14  C   UNL     1      -5.593  18.880  67.184  1.00  0.00    -0.146 C  
HETATM   15  C   UNL     1      -7.518  20.004  70.430  1.00  0.00     0.715 C  
HETATM   16  C   UNL     1     -12.757  12.782  66.071  1.00  0.00     0.422 C  
HETATM   17  C   UNL     1     -12.241  14.760  68.206  1.00  0.00    -0.065 C  
HETATM   18  C   UNL     1      -5.127  19.315  70.197  1.00  0.00    -0.207 C  
HETATM   19  C   UNL     1     -11.997  14.125  65.849  1.00  0.00    -0.420 C  
HETATM   20  C   UNL     1     -11.176  14.525  67.119  1.00  0.00    -0.341 C  
ENDROOT
BRANCH  11  21
HETATM   21  C   UNL     1      -8.242  10.981  66.218  1.00  0.00    -0.164 C  
HETATM   22  C   UNL     1      -5.912  10.109  66.514  1.00  0.00    -0.062 C  
HETATM   23  C   UNL     1      -7.427   9.965  66.573  1.00  0.00    -0.100 C  
HETATM   24  C   UNL     1      -5.288   9.842  67.882  1.00  0.00    -0.039 C  
HETATM   25  O   UNL     1      -5.621  10.878  68.811  1.00  0.00    -0.041 OA 
HETATM   26  C   UNL     1      -5.721   8.485  68.447  1.00  0.00    -0.038 C  
HETATM   27  H   UNL     1      -5.233  10.712  69.662  1.00  0.00     0.000 HD 
HETATM   28  C   UNL     1      -7.245   8.322  68.450  1.00  0.00    -0.092 C  
HETATM   29  O   UNL     1      -7.556   6.980  68.832  1.00  0.00    -0.100 OA 
HETATM   30  C   UNL     1      -7.842   8.653  67.083  1.00  0.00    -0.097 C  
HETATM   31  H   UNL     1      -8.501   6.880  68.834  1.00  0.00     0.000 HD 
HETATM   32  C   UNL     1      -8.628   7.829  66.371  1.00  0.00    -0.153 C  
ENDBRANCH  11  21
TORSDOF 1
ENDMDL
MODEL       88
REMARK 921   NORMALIZED FREE ENERGY PREDICTED BY IDOCK:   -3.57 KCAL/MOL
REMARK 922        TOTAL FREE ENERGY PREDICTED BY IDOCK:   -4.22 KCAL/MOL
REMARK 923 INTER-LIGAND FREE ENERGY PREDICTED BY IDOCK:   -3.42 KCAL/MOL
REMARK 924 INTRA-LIGAND FREE ENERGY PREDICTED BY IDOCK:   -0.80 KCAL/MOL
REMARK 927      BINDING AFFINITY PREDICTED BY RF-SCORE:    0.00 PKD
ROOT
HETATM    1  C   UNL     1      -5.551   9.811  68.340  1.00  0.00    -0.043 C  
HETATM    2  C   UNL     1      -6.191   9.640  69.718  1.00  0.00    -0.045 C  
HETATM    3  C   UNL     1      -6.080  11.195  67.751  1.00  0.00    -0.047 C  
HETATM    4  C   UNL     1      -5.660  11.574  66.327  1.00  0.00    -0.003 C  
HETATM    5  C   UNL     1      -7.513   8.945  69.449  1.00  0.00    -0.077 C  
HETATM    6  C   UNL     1      -5.573  12.349  68.600  1.00  0.00    -0.054 C  
HETATM    7  C   UNL     1      -7.482   8.340  68.020  1.00  0.00    -0.097 C  
HETATM    8  C   UNL     1      -6.321  13.327  69.144  1.00  0.00    -0.103 C  
HETATM    9  C   UNL     1      -8.087   6.925  68.023  1.00  0.00    -0.115 C  
HETATM   10  C   UNL     1      -5.679  14.474  69.897  1.00  0.00    -0.114 C  
HETATM   11  C   UNL     1      -9.055   6.424  68.829  1.00  0.00    -0.125 C  
HETATM   12  C   UNL     1      -7.402   5.991  67.061  1.00  0.00    -0.076 C  
HETATM   13  C   UNL     1      -5.831  15.862  69.211  1.00  0.00    -0.120 C  
HETATM   14  C   UNL     1      -6.131  14.466  71.360  1.00  0.00     0.038 C  
HETATM   15  C   UNL     1      -5.410  15.820  67.734  1.00  0.00    -0.141 C  
HETATM   16  C   UNL     1      -5.894   5.912  67.295  1.00  0.00    -0.017 C  
HETATM   17  C   UNL     1      -5.574   8.602  66.113  1.00  0.00    -0.038 C  
HETATM   18  C   UNL     1      -7.219  16.499  69.318  1.00  0.00    -0.213 C  
HETATM   19  C   UNL     1      -5.291   7.132  68.056  1.00  0.00    -0.020 C  
HETATM   20  C   UNL     1      -5.961   8.469  67.598  1.00  0.00    -0.047 C  
ENDROOT
BRANCH  11  21
HETATM   21  C   UNL     1      -9.890   7.136  69.781  1.00  0.00    -0.173 C  
HETATM   22  C   UNL     1     -10.811   7.815  72.010  1.00  0.00    -0.295 C  
HETATM   23  C   UNL     1      -9.810   7.079  71.127  1.00  0.00    -0.180 C  
HETATM   24  C   UNL     1     -11.520   6.844  72.952  1.00  0.00    -0.091 C  
HETATM   25  O   UNL     1     -12.391   5.969  72.228  1.00  0.00    -0.456 OA 
HETATM   26  C   UNL     1     -10.522   6.017  73.769  1.00  0.00    -0.288 C  
HETATM   27  H   UNL     1     -12.832   5.364  72.813  1.00  0.00     0.000 HD 
HETATM   28  C   UNL     1      -9.482   5.326  72.879  1.00  0.00    -0.144 C  
HETATM   29  O   UNL     1      -8.500   4.716  73.721  1.00  0.00    -0.104 OA 
HETATM   30  C   UNL     1      -8.834   6.314  71.912  1.00  0.00    -0.139 C  
HETATM   31  H   UNL     1      -7.856   4.288  73.169  1.00  0.00     0.000 HD 
HETATM   32  C   UNL     1      -7.513   6.522  71.800  1.00  0.00    -0.093 C  
ENDBRANCH  11  21
TORSDOF 1
ENDMDL
MODEL       89
REMARK 921   NORMALIZED FREE ENERGY PREDICTED BY IDOCK:   -3.21 KCAL/MOL
REMARK 922        TOTAL FREE ENERGY PREDICTED BY IDOCK:   -3.84 KCAL/MOL
REMARK 923 INTER-LIGAND FREE ENERGY PREDICTED BY IDOCK:   -2.74 KCAL/MOL
REMARK 924 INTRA-LIGAND FREE ENERGY PREDICTED BY IDOCK:   -1.10 KCAL/MOL
REMARK 927      BINDING AFFINITY PREDICTED BY RF-SCORE:    0.00 PKD
ROOT
HETATM    1  C   UNL     1     -10.994  13.767  70.219  1.00  0.00     0.522 C  
HETATM    2  C   UNL     1      -9.791  13.224  69.445  1.00  0.00     0.774 C  
HETATM    3  C   UNL     1     -12.124  12.644  70.170  1.00  0.00    -0.368 C  
HETATM    4  C   UNL     1     -13.484  12.968  70.798  1.00  0.00     0.598 C  
HETATM    5  C   UNL     1     -10.041  13.631  68.005  1.00  0.00    -0.250 C  
HETATM    6  C   UNL     1     -11.661  11.406  70.921  1.00  0.00     0.087 C  
HETATM    7  C   UNL     1     -11.128  14.737  67.975  1.00  0.00    -0.294 C  
HETATM    8  C   UNL     1     -11.651  10.146  70.450  1.00  0.00    -0.396 C  
HETATM    9  C   UNL     1     -10.737  15.847  66.983  1.00  0.00    -0.292 C  
HETATM   10  C   UNL     1     -11.247   8.985  71.336  1.00  0.00    -0.394 C  
HETATM   11  C   UNL     1     -10.004  15.744  65.848  1.00  0.00    -0.380 C  
HETATM   12  C   UNL     1     -11.158  17.219  67.441  1.00  0.00     0.086 C  
HETATM   13  C   UNL     1     -12.396   7.986  71.654  1.00  0.00    -0.344 C  
HETATM   14  C   UNL     1      -9.990   8.309  70.783  1.00  0.00    -0.217 C  
HETATM   15  C   UNL     1     -13.655   8.705  72.165  1.00  0.00    -0.447 C  
HETATM   16  C   UNL     1     -10.632  17.558  68.835  1.00  0.00    -0.193 C  
HETATM   17  C   UNL     1     -12.608  15.711  70.025  1.00  0.00    -0.181 C  
HETATM   18  C   UNL     1     -12.786   7.047  70.510  1.00  0.00     0.090 C  
HETATM   19  C   UNL     1     -10.254  16.320  69.704  1.00  0.00    -0.216 C  
HETATM   20  C   UNL     1     -11.274  15.153  69.496  1.00  0.00    -0.286 C  
ENDROOT
BRANCH  11  21
HETATM   21  C   UNL     1      -9.542  14.537  65.183  1.00  0.00     0.221 C  
HETATM   22  C   UNL     1      -9.697  12.341  63.986  1.00  0.00    -0.083 C  
HETATM   23  C   UNL     1     -10.307  13.609  64.570  1.00  0.00    -0.355 C  
HETATM   24  C   UNL     1     -10.336  11.097  64.601  1.00  0.00    -0.330 C  
HETATM   25  O   UNL     1      -9.974  10.961  65.979  1.00  0.00    -0.221 OA 
HETATM   26  C   UNL     1     -11.862  11.121  64.469  1.00  0.00     0.611 C  
HETATM   27  H   UNL     1     -10.371  10.187  66.361  1.00  0.00     0.000 HD 
HETATM   28  C   UNL     1     -12.466  12.424  65.005  1.00  0.00    -0.316 C  
HETATM   29  O   UNL     1     -13.862  12.436  64.697  1.00  0.00     0.116 OA 
HETATM   30  C   UNL     1     -11.766  13.646  64.414  1.00  0.00    -0.444 C  
HETATM   31  H   UNL     1     -14.237  13.244  65.029  1.00  0.00     0.000 HD 
HETATM   32  C   UNL     1     -12.386  14.646  63.767  1.00  0.00     0.165 C  
ENDBRANCH  11  21
TORSDOF 1
ENDMDL
MODEL       90
REMARK 921   NORMALIZED FREE ENERGY PREDICTED BY IDOCK:   -3.13 KCAL/MOL
REMARK 922        TOTAL FREE ENERGY PREDICTED BY IDOCK:   -3.75 KCAL/MOL
REMARK 923 INTER-LIGAND FREE ENERGY PREDICTED BY IDOCK:   -3.30 KCAL/MOL
REMARK 924 INTRA-LIGAND FREE ENERGY PREDICTED BY IDOCK:   -0.46 KCAL/MOL
REMARK 927      BINDING AFFINITY PREDICTED BY RF-SCORE:    0.00 PKD
ROOT
HETATM    1  C   UNL     1      -5.982  10.782  68.458  1.00  0.00    -0.043 C  
HETATM    2  C   UNL     1      -6.647  10.977  69.822  1.00  0.00    -0.143 C  
HETATM    3  C   UNL     1      -6.341  12.062  67.578  1.00  0.00    -0.118 C  
HETATM    4  C   UNL     1      -5.871  12.084  66.120  1.00  0.00     1.031 C  
HETATM    5  C   UNL     1      -8.038  10.394  69.661  1.00  0.00    -0.116 C  
HETATM    6  C   UNL     1      -5.709  13.304  68.184  1.00  0.00    -0.101 C  
HETATM    7  C   UNL     1      -8.069   9.504  68.391  1.00  0.00    -0.101 C  
HETATM    8  C   UNL     1      -6.342  14.452  68.489  1.00  0.00    -0.088 C  
HETATM    9  C   UNL     1      -8.835   8.198  68.670  1.00  0.00    -0.134 C  
HETATM   10  C   UNL     1      -5.575  15.651  69.007  1.00  0.00    -0.103 C  
HETATM   11  C   UNL     1      -9.860   7.990  69.532  1.00  0.00    -0.181 C  
HETATM   12  C   UNL     1      -8.257   7.012  67.944  1.00  0.00    -0.115 C  
HETATM   13  C   UNL     1      -5.560  16.873  68.044  1.00  0.00    -0.126 C  
HETATM   14  C   UNL     1      -6.035  16.002  70.425  1.00  0.00    -0.007 C  
HETATM   15  C   UNL     1      -5.136  16.474  66.621  1.00  0.00     0.221 C  
HETATM   16  C   UNL     1      -6.770   6.814  68.236  1.00  0.00    -0.068 C  
HETATM   17  C   UNL     1      -6.131   9.142  66.532  1.00  0.00    -0.064 C  
HETATM   18  C   UNL     1      -6.865  17.670  67.973  1.00  0.00    -0.193 C  
HETATM   19  C   UNL     1      -6.034   8.091  68.746  1.00  0.00    -0.039 C  
HETATM   20  C   UNL     1      -6.541   9.368  67.999  1.00  0.00    -0.063 C  
ENDROOT
BRANCH  11  21
HETATM   21  C   UNL     1     -10.613   8.975  70.288  1.00  0.00    -0.250 C  
HETATM   22  C   UNL     1     -12.311   9.862  71.903  1.00  0.00    -0.390 C  
HETATM   23  C   UNL     1     -11.530   8.730  71.248  1.00  0.00    -0.355 C  
HETATM   24  C   UNL     1     -13.815   9.653  71.732  1.00  0.00    -0.186 C  
HETATM   25  O   UNL     1     -14.204   9.813  70.364  1.00  0.00    -0.091 OA 
HETATM   26  C   UNL     1     -14.256   8.275  72.236  1.00  0.00    -0.393 C  
HETATM   27  H   UNL     1     -15.140   9.683  70.257  1.00  0.00     0.000 HD 
HETATM   28  C   UNL     1     -13.428   7.144  71.617  1.00  0.00    -0.321 C  
HETATM   29  O   UNL     1     -13.787   5.917  72.258  1.00  0.00    -0.125 OA 
HETATM   30  C   UNL     1     -11.930   7.412  71.755  1.00  0.00    -0.338 C  
HETATM   31  H   UNL     1     -13.274   5.216  71.874  1.00  0.00     0.000 HD 
HETATM   32  C   UNL     1     -11.050   6.572  72.322  1.00  0.00    -0.297 C  
ENDBRANCH  11  21
TORSDOF 1
ENDMDL
MODEL       91
REMARK 921   NORMALIZED FREE ENERGY PREDICTED BY IDOCK:   -3.06 KCAL/MOL
REMARK 922        TOTAL FREE ENERGY PREDICTED BY IDOCK:   -3.68 KCAL/MOL
REMARK 923 INTER-LIGAND FREE ENERGY PREDICTED BY IDOCK:   -2.74 KCAL/MOL
REMARK 924 INTRA-LIGAND FREE ENERGY PREDICTED BY IDOCK:   -0.93 KCAL/MOL
REMARK 927      BINDING AFFINITY PREDICTED BY RF-SCORE:    0.00 PKD
ROOT
HETATM    1  C   UNL     1      -7.299   8.580  66.394  1.00  0.00    -0.080 C  
HETATM    2  C   UNL     1      -6.672   8.108  67.706  1.00  0.00    -0.065 C  
HETATM    3  C   UNL     1      -8.018   9.971  66.697  1.00  0.00    -0.115 C  
HETATM    4  C   UNL     1      -8.812  10.628  65.562  1.00  0.00    -0.202 C  
HETATM    5  C   UNL     1      -7.767   7.316  68.396  1.00  0.00    -0.120 C  
HETATM    6  C   UNL     1      -6.986  11.019  67.074  1.00  0.00    -0.117 C  
HETATM    7  C   UNL     1      -8.866   6.965  67.359  1.00  0.00    -0.118 C  
HETATM    8  C   UNL     1      -7.005  11.797  68.172  1.00  0.00    -0.076 C  
HETATM    9  C   UNL     1      -9.327   5.508  67.537  1.00  0.00    -0.114 C  
HETATM   10  C   UNL     1      -5.957  12.871  68.386  1.00  0.00    -0.074 C  
HETATM   11  C   UNL     1      -9.365   4.769  68.673  1.00  0.00    -0.187 C  
HETATM   12  C   UNL     1      -9.665   4.834  66.234  1.00  0.00    -0.206 C  
HETATM   13  C   UNL     1      -6.507  14.326  68.345  1.00  0.00    -0.106 C  
HETATM   14  C   UNL     1      -5.136  12.566  69.641  1.00  0.00    -0.073 C  
HETATM   15  C   UNL     1      -7.361  14.580  67.094  1.00  0.00     0.057 C  
HETATM   16  C   UNL     1      -8.517   4.896  65.228  1.00  0.00    -0.137 C  
HETATM   17  C   UNL     1      -9.072   7.764  64.777  1.00  0.00     0.752 C  
HETATM   18  C   UNL     1      -7.289  14.767  69.585  1.00  0.00    -0.114 C  
HETATM   19  C   UNL     1      -7.485   6.035  65.491  1.00  0.00    -0.082 C  
HETATM   20  C   UNL     1      -8.198   7.341  65.973  1.00  0.00    -0.138 C  
ENDROOT
BRANCH  11  21
HETATM   21  C   UNL     1      -9.143   5.209  70.040  1.00  0.00    -0.163 C  
HETATM   22  C   UNL     1      -9.450   6.573  72.119  1.00  0.00    -0.148 C  
HETATM   23  C   UNL     1      -9.847   6.145  70.712  1.00  0.00    -0.220 C  
HETATM   24  C   UNL     1      -9.196   8.079  72.176  1.00  0.00    -0.172 C  
HETATM   25  O   UNL     1      -8.017   8.429  71.444  1.00  0.00    -0.103 OA 
HETATM   26  C   UNL     1     -10.390   8.875  71.641  1.00  0.00    -0.416 C  
HETATM   27  H   UNL     1      -7.858   9.365  71.479  1.00  0.00     0.000 HD 
HETATM   28  C   UNL     1     -10.822   8.400  70.249  1.00  0.00    -0.239 C  
HETATM   29  O   UNL     1     -12.033   9.075  69.896  1.00  0.00    -0.320 OA 
HETATM   30  C   UNL     1     -11.012   6.885  70.213  1.00  0.00    -0.322 C  
HETATM   31  H   UNL     1     -12.300   8.780  69.033  1.00  0.00     0.000 HD 
HETATM   32  C   UNL     1     -12.134   6.262  69.819  1.00  0.00     0.676 C  
ENDBRANCH  11  21
TORSDOF 1
ENDMDL
MODEL       92
REMARK 921   NORMALIZED FREE ENERGY PREDICTED BY IDOCK:   -2.97 KCAL/MOL
REMARK 922        TOTAL FREE ENERGY PREDICTED BY IDOCK:   -3.59 KCAL/MOL
REMARK 923 INTER-LIGAND FREE ENERGY PREDICTED BY IDOCK:   -2.83 KCAL/MOL
REMARK 924 INTRA-LIGAND FREE ENERGY PREDICTED BY IDOCK:   -0.76 KCAL/MOL
REMARK 927      BINDING AFFINITY PREDICTED BY RF-SCORE:    0.00 PKD
ROOT
HETATM    1  C   UNL     1      -8.807   5.173  71.832  1.00  0.00    -0.143 C  
HETATM    2  C   UNL     1      -9.757   4.189  71.148  1.00  0.00    -0.258 C  
HETATM    3  C   UNL     1      -9.239   6.636  71.369  1.00  0.00    -0.151 C  
HETATM    4  C   UNL     1      -8.386   7.819  71.841  1.00  0.00    -0.136 C  
HETATM    5  C   UNL     1      -9.107   3.887  69.811  1.00  0.00    -0.188 C  
HETATM    6  C   UNL     1     -10.629   6.957  71.892  1.00  0.00    -0.236 C  
HETATM    7  C   UNL     1      -7.622   4.334  69.860  1.00  0.00    -0.053 C  
HETATM    8  C   UNL     1     -11.673   7.394  71.164  1.00  0.00    -0.322 C  
HETATM    9  C   UNL     1      -6.720   3.273  69.206  1.00  0.00    -0.037 C  
HETATM   10  C   UNL     1     -12.985   7.765  71.826  1.00  0.00    -0.351 C  
HETATM   11  C   UNL     1      -7.020   2.416  68.199  1.00  0.00    -0.047 C  
HETATM   12  C   UNL     1      -5.382   3.140  69.883  1.00  0.00    -0.012 C  
HETATM   13  C   UNL     1     -13.346   9.276  71.741  1.00  0.00    -0.477 C  
HETATM   14  C   UNL     1     -14.105   6.844  71.334  1.00  0.00    -0.232 C  
HETATM   15  C   UNL     1     -12.183  10.168  72.202  1.00  0.00     0.173 C  
HETATM   16  C   UNL     1      -5.509   2.862  71.380  1.00  0.00    -0.008 C  
HETATM   17  C   UNL     1      -6.321   5.669  71.827  1.00  0.00    -0.044 C  
HETATM   18  C   UNL     1     -13.838   9.758  70.374  1.00  0.00     0.723 C  
HETATM   19  C   UNL     1      -6.874   3.285  72.005  1.00  0.00    -0.019 C  
HETATM   20  C   UNL     1      -7.378   4.635  71.395  1.00  0.00    -0.068 C  
ENDROOT
BRANCH  11  21
HETATM   21  C   UNL     1      -8.209   2.393  67.363  1.00  0.00    -0.077 C  
HETATM   22  C   UNL     1      -9.628   2.765  65.332  1.00  0.00     0.075 C  
HETATM   23  C   UNL     1      -8.293   2.758  66.066  1.00  0.00    -0.094 C  
HETATM   24  C   UNL     1      -9.928   4.152  64.766  1.00  0.00    -0.187 C  
HETATM   25  O   UNL     1     -10.192   5.090  65.814  1.00  0.00    -0.337 OA 
HETATM   26  C   UNL     1      -8.781   4.667  63.891  1.00  0.00    -0.140 C  
HETATM   27  H   UNL     1     -10.379   5.953  65.462  1.00  0.00     0.000 HD 
HETATM   28  C   UNL     1      -7.431   4.603  64.615  1.00  0.00    -0.072 C  
HETATM   29  O   UNL     1      -6.401   4.941  63.683  1.00  0.00    -0.025 OA 
HETATM   30  C   UNL     1      -7.189   3.220  65.217  1.00  0.00    -0.070 C  
HETATM   31  H   UNL     1      -5.564   4.901  64.132  1.00  0.00     0.000 HD 
HETATM   32  C   UNL     1      -6.110   2.458  64.976  1.00  0.00    -0.019 C  
ENDBRANCH  11  21
TORSDOF 1
ENDMDL
MODEL       93
REMARK 921   NORMALIZED FREE ENERGY PREDICTED BY IDOCK:   -2.96 KCAL/MOL
REMARK 922        TOTAL FREE ENERGY PREDICTED BY IDOCK:   -3.58 KCAL/MOL
REMARK 923 INTER-LIGAND FREE ENERGY PREDICTED BY IDOCK:   -2.56 KCAL/MOL
REMARK 924 INTRA-LIGAND FREE ENERGY PREDICTED BY IDOCK:   -1.02 KCAL/MOL
REMARK 927      BINDING AFFINITY PREDICTED BY RF-SCORE:    0.00 PKD
ROOT
HETATM    1  C   UNL     1      -7.765   9.318  67.753  1.00  0.00    -0.088 C  
HETATM    2  C   UNL     1      -8.121  10.428  68.743  1.00  0.00    -0.125 C  
HETATM    3  C   UNL     1      -8.928   9.277  66.663  1.00  0.00    -0.165 C  
HETATM    4  C   UNL     1      -8.867   8.183  65.592  1.00  0.00    -0.160 C  
HETATM    5  C   UNL     1      -8.988   9.753  69.788  1.00  0.00    -0.239 C  
HETATM    6  C   UNL     1      -8.937  10.569  65.864  1.00  0.00    -0.185 C  
HETATM    7  C   UNL     1      -8.815   8.216  69.671  1.00  0.00    -0.143 C  
HETATM    8  C   UNL     1      -9.998  11.370  65.656  1.00  0.00    -0.282 C  
HETATM    9  C   UNL     1      -8.691   7.582  71.068  1.00  0.00    -0.134 C  
HETATM   10  C   UNL     1      -9.893  12.588  64.761  1.00  0.00    -0.084 C  
HETATM   11  C   UNL     1      -9.236   8.002  72.236  1.00  0.00    -0.243 C  
HETATM   12  C   UNL     1      -7.745   6.411  71.101  1.00  0.00    -0.098 C  
HETATM   13  C   UNL     1     -10.736  12.504  63.456  1.00  0.00    -0.417 C  
HETATM   14  C   UNL     1     -10.151  13.863  65.569  1.00  0.00    -0.319 C  
HETATM   15  C   UNL     1     -10.483  11.193  62.695  1.00  0.00     0.322 C  
HETATM   16  C   UNL     1      -6.358   6.764  70.566  1.00  0.00    -0.039 C  
HETATM   17  C   UNL     1      -7.434   6.806  67.814  1.00  0.00    -0.098 C  
HETATM   18  C   UNL     1     -12.244  12.698  63.633  1.00  0.00    -0.624 C  
HETATM   19  C   UNL     1      -6.321   8.015  69.635  1.00  0.00    -0.033 C  
HETATM   20  C   UNL     1      -7.574   8.058  68.701  1.00  0.00    -0.100 C  
ENDROOT
BRANCH  11  21
HETATM   21  C   UNL     1     -10.213   9.057  72.443  1.00  0.00     0.154 C  
HETATM   22  C   UNL     1     -12.466  10.152  72.536  1.00  0.00     0.636 C  
HETATM   23  C   UNL     1     -11.557   8.939  72.383  1.00  0.00    -0.237 C  
HETATM   24  C   UNL     1     -13.367  10.312  71.314  1.00  0.00    -0.284 C  
HETATM   25  O   UNL     1     -12.608  10.687  70.160  1.00  0.00    -0.406 OA 
HETATM   26  C   UNL     1     -14.154   9.031  71.019  1.00  0.00     0.039 C  
HETATM   27  H   UNL     1     -13.169  10.787  69.399  1.00  0.00     0.000 HD 
HETATM   28  C   UNL     1     -13.240   7.803  70.923  1.00  0.00     0.158 C  
HETATM   29  O   UNL     1     -14.059   6.637  70.812  1.00  0.00     0.321 OA 
HETATM   30  C   UNL     1     -12.313   7.706  72.133  1.00  0.00    -0.276 C  
HETATM   31  H   UNL     1     -13.493   5.876  70.753  1.00  0.00     0.000 HD 
HETATM   32  C   UNL     1     -12.211   6.635  72.937  1.00  0.00     0.587 C  
ENDBRANCH  11  21
TORSDOF 1
ENDMDL
MODEL       94
REMARK 921   NORMALIZED FREE ENERGY PREDICTED BY IDOCK:   -2.93 KCAL/MOL
REMARK 922        TOTAL FREE ENERGY PREDICTED BY IDOCK:   -3.54 KCAL/MOL
REMARK 923 INTER-LIGAND FREE ENERGY PREDICTED BY IDOCK:   -2.46 KCAL/MOL
REMARK 924 INTRA-LIGAND FREE ENERGY PREDICTED BY IDOCK:   -1.08 KCAL/MOL
REMARK 927      BINDING AFFINITY PREDICTED BY RF-SCORE:    0.00 PKD
ROOT
HETATM    1  C   UNL     1      -9.668  12.483  65.772  1.00  0.00    -0.196 C  
HETATM    2  C   UNL     1      -8.338  12.399  66.523  1.00  0.00     0.104 C  
HETATM    3  C   UNL     1     -10.822  12.487  66.872  1.00  0.00    -0.280 C  
HETATM    4  C   UNL     1     -12.275  12.474  66.384  1.00  0.00    -0.100 C  
HETATM    5  C   UNL     1      -8.085  10.914  66.699  1.00  0.00    -0.147 C  
HETATM    6  C   UNL     1     -10.732  13.747  67.716  1.00  0.00    -0.254 C  
HETATM    7  C   UNL     1      -9.003  10.126  65.728  1.00  0.00    -0.187 C  
HETATM    8  C   UNL     1     -10.689  13.805  69.059  1.00  0.00    -0.209 C  
HETATM    9  C   UNL     1      -8.222   8.981  65.060  1.00  0.00    -0.154 C  
HETATM   10  C   UNL     1     -10.691  15.136  69.784  1.00  0.00    -0.288 C  
HETATM   11  C   UNL     1      -7.182   8.268  65.558  1.00  0.00    -0.071 C  
HETATM   12  C   UNL     1      -8.639   8.737  63.634  1.00  0.00    -0.058 C  
HETATM   13  C   UNL     1     -11.967  15.408  70.630  1.00  0.00    -0.396 C  
HETATM   14  C   UNL     1      -9.390  15.311  70.572  1.00  0.00     1.017 C  
HETATM   15  C   UNL     1     -13.252  15.180  69.818  1.00  0.00     0.527 C  
HETATM   16  C   UNL     1      -8.548   9.998  62.775  1.00  0.00    -0.196 C  
HETATM   17  C   UNL     1     -10.957  11.074  64.106  1.00  0.00    -0.133 C  
HETATM   18  C   UNL     1     -12.061  14.631  71.946  1.00  0.00    -0.375 C  
HETATM   19  C   UNL     1      -8.576  11.334  63.578  1.00  0.00     0.270 C  
HETATM   20  C   UNL     1      -9.580  11.251  64.774  1.00  0.00    -0.269 C  
ENDROOT
BRANCH  11  21
HETATM   21  C   UNL     1      -6.647   8.283  66.909  1.00  0.00    -0.057 C  
HETATM   22  C   UNL     1      -6.523   7.795  69.363  1.00  0.00    -0.035 C  
HETATM   23  C   UNL     1      -7.135   7.621  67.979  1.00  0.00    -0.085 C  
HETATM   24  C   UNL     1      -7.572   8.275  70.364  1.00  0.00    -0.075 C  
HETATM   25  O   UNL     1      -7.981   9.617  70.078  1.00  0.00    -0.136 OA 
HETATM   26  C   UNL     1      -8.798   7.357  70.383  1.00  0.00    -0.149 C  
HETATM   27  H   UNL     1      -8.634   9.916  70.701  1.00  0.00     0.000 HD 
HETATM   28  C   UNL     1      -9.375   7.138  68.980  1.00  0.00    -0.140 C  
HETATM   29  O   UNL     1     -10.404   6.148  69.062  1.00  0.00    -0.173 OA 
HETATM   30  C   UNL     1      -8.289   6.715  67.992  1.00  0.00    -0.117 C  
HETATM   31  H   UNL     1     -10.761   6.012  68.192  1.00  0.00     0.000 HD 
HETATM   32  C   UNL     1      -8.332   5.607  67.235  1.00  0.00    -0.100 C  
ENDBRANCH  11  21
TORSDOF 1
ENDMDL
MODEL       95
REMARK 921   NORMALIZED FREE ENERGY PREDICTED BY IDOCK:   -2.84 KCAL/MOL
REMARK 922        TOTAL FREE ENERGY PREDICTED BY IDOCK:   -3.45 KCAL/MOL
REMARK 923 INTER-LIGAND FREE ENERGY PREDICTED BY IDOCK:   -3.82 KCAL/MOL
REMARK 924 INTRA-LIGAND FREE ENERGY PREDICTED BY IDOCK:    0.38 KCAL/MOL
REMARK 927      BINDING AFFINITY PREDICTED BY RF-SCORE:    0.00 PKD
ROOT
HETATM    1  C   UNL     1      -5.929  15.790  68.238  1.00  0.00    -0.114 C  
HETATM    2  C   UNL     1      -6.340  15.350  66.832  1.00  0.00     0.699 C  
HETATM    3  C   UNL     1      -6.392  14.639  69.239  1.00  0.00    -0.116 C  
HETATM    4  C   UNL     1      -6.182  14.867  70.740  1.00  0.00     0.027 C  
HETATM    5  C   UNL     1      -7.757  15.864  66.663  1.00  0.00    -0.199 C  
HETATM    6  C   UNL     1      -5.622  13.360  68.954  1.00  0.00    -0.073 C  
HETATM    7  C   UNL     1      -8.039  16.933  67.751  1.00  0.00    -0.188 C  
HETATM    8  C   UNL     1      -6.152  12.143  68.735  1.00  0.00    -0.067 C  
HETATM    9  C   UNL     1      -8.789  18.132  67.144  1.00  0.00    -0.259 C  
HETATM   10  C   UNL     1      -5.265  10.928  68.551  1.00  0.00    -0.040 C  
HETATM   11  C   UNL     1      -9.655  18.144  66.102  1.00  0.00    -0.180 C  
HETATM   12  C   UNL     1      -8.388  19.448  67.757  1.00  0.00    -0.340 C  
HETATM   13  C   UNL     1      -5.376   9.870  69.686  1.00  0.00    -0.034 C  
HETATM   14  C   UNL     1      -5.459  10.339  67.150  1.00  0.00    -0.041 C  
HETATM   15  C   UNL     1      -5.221  10.505  71.076  1.00  0.00    -0.090 C  
HETATM   16  C   UNL     1      -6.881  19.690  67.688  1.00  0.00    -0.270 C  
HETATM   17  C   UNL     1      -6.468  17.691  69.826  1.00  0.00    -0.057 C  
HETATM   18  C   UNL     1      -6.645   9.014  69.665  1.00  0.00    -0.043 C  
HETATM   19  C   UNL     1      -6.024  18.398  67.519  1.00  0.00    -0.172 C  
HETATM   20  C   UNL     1      -6.608  17.220  68.366  1.00  0.00    -0.174 C  
ENDROOT
BRANCH  11  21
HETATM   21  C   UNL     1     -10.230  17.010  65.398  1.00  0.00    -0.008 C  
HETATM   22  C   UNL     1     -11.270  14.751  65.091  1.00  0.00    -0.384 C  
HETATM   23  C   UNL     1     -10.781  15.909  65.952  1.00  0.00    -0.303 C  
HETATM   24  C   UNL     1     -10.572  13.450  65.484  1.00  0.00    -0.290 C  
HETATM   25  O   UNL     1      -9.186  13.483  65.130  1.00  0.00    -0.081 OA 
HETATM   26  C   UNL     1     -10.715  13.162  66.982  1.00  0.00    -0.270 C  
HETATM   27  H   UNL     1      -8.752  12.674  65.374  1.00  0.00     0.000 HD 
HETATM   28  C   UNL     1     -10.275  14.352  67.842  1.00  0.00    -0.232 C  
HETATM   29  O   UNL     1     -10.592  14.066  69.207  1.00  0.00    -0.389 OA 
HETATM   30  C   UNL     1     -10.948  15.645  67.386  1.00  0.00    -0.293 C  
HETATM   31  H   UNL     1     -10.320  14.804  69.740  1.00  0.00     0.000 HD 
HETATM   32  C   UNL     1     -11.668  16.456  68.179  1.00  0.00     0.153 C  
ENDBRANCH  11  21
TORSDOF 1
ENDMDL
MODEL       96
REMARK 921   NORMALIZED FREE ENERGY PREDICTED BY IDOCK:   -2.69 KCAL/MOL
REMARK 922        TOTAL FREE ENERGY PREDICTED BY IDOCK:   -3.29 KCAL/MOL
REMARK 923 INTER-LIGAND FREE ENERGY PREDICTED BY IDOCK:   -2.42 KCAL/MOL
REMARK 924 INTRA-LIGAND FREE ENERGY PREDICTED BY IDOCK:   -0.87 KCAL/MOL
REMARK 927      BINDING AFFINITY PREDICTED BY RF-SCORE:    0.00 PKD
ROOT
HETATM    1  C   UNL     1     -10.897  16.337  69.276  1.00  0.00    -0.318 C  
HETATM    2  C   UNL     1     -11.806  16.208  68.052  1.00  0.00     0.223 C  
HETATM    3  C   UNL     1      -9.472  16.817  68.748  1.00  0.00    -0.259 C  
HETATM    4  C   UNL     1      -8.335  16.940  69.768  1.00  0.00     1.033 C  
HETATM    5  C   UNL     1     -11.587  14.793  67.553  1.00  0.00    -0.379 C  
HETATM    6  C   UNL     1      -9.580  18.211  68.153  1.00  0.00    -0.312 C  
HETATM    7  C   UNL     1     -10.901  13.964  68.671  1.00  0.00    -0.278 C  
HETATM    8  C   UNL     1      -9.159  18.592  66.933  1.00  0.00    -0.290 C  
HETATM    9  C   UNL     1     -11.543  12.569  68.776  1.00  0.00    -0.366 C  
HETATM   10  C   UNL     1      -9.246  20.040  66.495  1.00  0.00    -0.471 C  
HETATM   11  C   UNL     1     -12.117  11.830  67.795  1.00  0.00     0.068 C  
HETATM   12  C   UNL     1     -11.609  12.057  70.190  1.00  0.00    -0.228 C  
HETATM   13  C   UNL     1      -7.870  20.735  66.287  1.00  0.00     0.165 C  
HETATM   14  C   UNL     1     -10.182  20.173  65.290  1.00  0.00     0.200 C  
HETATM   15  C   UNL     1      -6.943  20.542  67.497  1.00  0.00    -0.370 C  
HETATM   16  C   UNL     1     -12.321  13.028  71.131  1.00  0.00    -0.270 C  
HETATM   17  C   UNL     1      -9.963  14.809  71.069  1.00  0.00     1.660 C  
HETATM   18  C   UNL     1      -7.119  20.338  65.013  1.00  0.00    -0.101 C  
HETATM   19  C   UNL     1     -12.358  14.505  70.632  1.00  0.00    -0.407 C  
HETATM   20  C   UNL     1     -11.010  14.900  69.943  1.00  0.00    -0.257 C  
ENDROOT
BRANCH  11  21
HETATM   21  C   UNL     1     -12.125  12.085  66.365  1.00  0.00     0.118 C  
HETATM   22  C   UNL     1     -11.373  11.954  63.978  1.00  0.00    -0.475 C  
HETATM   23  C   UNL     1     -11.314  11.529  65.440  1.00  0.00    -0.147 C  
HETATM   24  C   UNL     1     -10.010  12.455  63.503  1.00  0.00    -0.107 C  
HETATM   25  O   UNL     1      -9.671  13.695  64.131  1.00  0.00    -0.581 OA 
HETATM   26  C   UNL     1      -8.906  11.426  63.764  1.00  0.00     0.255 C  
HETATM   27  H   UNL     1      -8.823  14.007  63.836  1.00  0.00     0.000 HD 
HETATM   28  C   UNL     1      -8.889  10.958  65.224  1.00  0.00    -0.167 C  
HETATM   29  O   UNL     1      -7.948   9.888  65.345  1.00  0.00    -0.123 OA 
HETATM   30  C   UNL     1     -10.278  10.518  65.684  1.00  0.00    -0.315 C  
HETATM   31  H   UNL     1      -7.938   9.598  66.250  1.00  0.00     0.000 HD 
HETATM   32  C   UNL     1     -10.565   9.319  66.214  1.00  0.00     0.078 C  
ENDBRANCH  11  21
TORSDOF 1
ENDMDL
MODEL       97
REMARK 921   NORMALIZED FREE ENERGY PREDICTED BY IDOCK:   -2.64 KCAL/MOL
REMARK 922        TOTAL FREE ENERGY PREDICTED BY IDOCK:   -3.24 KCAL/MOL
REMARK 923 INTER-LIGAND FREE ENERGY PREDICTED BY IDOCK:   -2.16 KCAL/MOL
REMARK 924 INTRA-LIGAND FREE ENERGY PREDICTED BY IDOCK:   -1.08 KCAL/MOL
REMARK 927      BINDING AFFINITY PREDICTED BY RF-SCORE:    0.00 PKD
ROOT
HETATM    1  C   UNL     1      -9.946  11.407  68.518  1.00  0.00    -0.203 C  
HETATM    2  C   UNL     1      -8.675  12.093  69.020  1.00  0.00     0.385 C  
HETATM    3  C   UNL     1      -9.805  11.265  66.937  1.00  0.00    -0.220 C  
HETATM    4  C   UNL     1     -10.994  10.686  66.161  1.00  0.00     0.015 C  
HETATM    5  C   UNL     1      -8.972  13.577  68.926  1.00  0.00     0.221 C  
HETATM    6  C   UNL     1      -8.658  10.328  66.599  1.00  0.00    -0.130 C  
HETATM    7  C   UNL     1     -10.503  13.777  68.778  1.00  0.00    -0.224 C  
HETATM    8  C   UNL     1      -7.636  10.589  65.764  1.00  0.00    -0.142 C  
HETATM    9  C   UNL     1     -10.981  14.938  69.669  1.00  0.00    -0.294 C  
HETATM   10  C   UNL     1      -6.600   9.530  65.443  1.00  0.00    -0.077 C  
HETATM   11  C   UNL     1     -10.300  16.047  70.045  1.00  0.00    -0.204 C  
HETATM   12  C   UNL     1     -12.348  14.704  70.255  1.00  0.00    -0.406 C  
HETATM   13  C   UNL     1      -6.610   9.046  63.965  1.00  0.00    -0.087 C  
HETATM   14  C   UNL     1      -5.218   9.978  65.927  1.00  0.00    -0.042 C  
HETATM   15  C   UNL     1      -8.020   8.647  63.502  1.00  0.00    -0.160 C  
HETATM   16  C   UNL     1     -12.437  13.388  71.026  1.00  0.00    -0.437 C  
HETATM   17  C   UNL     1     -12.432  11.898  68.473  1.00  0.00     0.715 C  
HETATM   18  C   UNL     1      -6.006  10.020  62.950  1.00  0.00    -0.124 C  
HETATM   19  C   UNL     1     -11.357  12.333  70.635  1.00  0.00     1.016 C  
HETATM   20  C   UNL     1     -11.094  12.342  69.093  1.00  0.00    -0.260 C  
ENDROOT
BRANCH  11  21
HETATM   21  C   UNL     1      -9.008  16.513  69.571  1.00  0.00     0.208 C  
HETATM   22  C   UNL     1      -7.342  17.553  68.014  1.00  0.00    -0.208 C  
HETATM   23  C   UNL     1      -8.764  17.201  68.435  1.00  0.00    -0.246 C  
HETATM   24  C   UNL     1      -7.034  16.994  66.626  1.00  0.00    -0.249 C  
HETATM   25  O   UNL     1      -6.963  15.565  66.650  1.00  0.00    -0.221 OA 
HETATM   26  C   UNL     1      -8.074  17.441  65.593  1.00  0.00     0.494 C  
HETATM   27  H   UNL     1      -6.772  15.218  65.787  1.00  0.00     0.000 HD 
HETATM   28  C   UNL     1      -9.506  17.137  66.048  1.00  0.00    -0.137 C  
HETATM   29  O   UNL     1     -10.413  17.728  65.114  1.00  0.00    -0.483 OA 
HETATM   30  C   UNL     1      -9.761  17.659  67.461  1.00  0.00    -0.280 C  
HETATM   31  H   UNL     1     -11.300  17.540  65.397  1.00  0.00     0.000 HD 
HETATM   32  C   UNL     1     -10.758  18.491  67.802  1.00  0.00    -0.378 C  
ENDBRANCH  11  21
TORSDOF 1
ENDMDL
MODEL       98
REMARK 921   NORMALIZED FREE ENERGY PREDICTED BY IDOCK:   -2.32 KCAL/MOL
REMARK 922        TOTAL FREE ENERGY PREDICTED BY IDOCK:   -2.90 KCAL/MOL
REMARK 923 INTER-LIGAND FREE ENERGY PREDICTED BY IDOCK:   -2.10 KCAL/MOL
REMARK 924 INTRA-LIGAND FREE ENERGY PREDICTED BY IDOCK:   -0.80 KCAL/MOL
REMARK 927      BINDING AFFINITY PREDICTED BY RF-SCORE:    0.00 PKD
ROOT
HETATM    1  C   UNL     1      -8.257  11.261  69.423  1.00  0.00     0.264 C  
HETATM    2  C   UNL     1      -9.426  10.335  69.083  1.00  0.00    -0.225 C  
HETATM    3  C   UNL     1      -8.038  12.216  68.165  1.00  0.00    -0.161 C  
HETATM    4  C   UNL     1      -6.858  13.193  68.203  1.00  0.00    -0.111 C  
HETATM    5  C   UNL     1      -8.791   9.152  68.378  1.00  0.00    -0.129 C  
HETATM    6  C   UNL     1      -9.249  13.114  67.977  1.00  0.00    -0.211 C  
HETATM    7  C   UNL     1      -7.264   9.158  68.657  1.00  0.00    -0.075 C  
HETATM    8  C   UNL     1      -9.953  13.275  66.842  1.00  0.00    -0.250 C  
HETATM    9  C   UNL     1      -6.769   7.734  68.967  1.00  0.00    -0.049 C  
HETATM   10  C   UNL     1     -11.090  14.274  66.763  1.00  0.00    -0.316 C  
HETATM   11  C   UNL     1      -7.256   6.555  68.509  1.00  0.00    -0.085 C  
HETATM   12  C   UNL     1      -5.673   7.704  69.999  1.00  0.00    -0.023 C  
HETATM   13  C   UNL     1     -10.831  15.472  65.805  1.00  0.00    -0.337 C  
HETATM   14  C   UNL     1     -12.412  13.552  66.490  1.00  0.00    -0.309 C  
HETATM   15  C   UNL     1      -9.477  16.143  66.081  1.00  0.00    -0.362 C  
HETATM   16  C   UNL     1      -6.071   8.409  71.295  1.00  0.00    -0.039 C  
HETATM   17  C   UNL     1      -5.789  11.027  69.952  1.00  0.00    -0.086 C  
HETATM   18  C   UNL     1     -10.937  15.153  64.311  1.00  0.00     0.173 C  
HETATM   19  C   UNL     1      -7.231   9.440  71.143  1.00  0.00    -0.001 C  
HETATM   20  C   UNL     1      -7.104  10.238  69.804  1.00  0.00    -0.140 C  
ENDROOT
BRANCH  11  21
HETATM   21  C   UNL     1      -8.256   6.334  67.479  1.00  0.00    -0.113 C  
HETATM   22  C   UNL     1      -9.174   5.832  65.202  1.00  0.00     0.216 C  
HETATM   23  C   UNL     1      -8.034   5.941  66.206  1.00  0.00    -0.102 C  
HETATM   24  C   UNL     1      -8.908   6.712  63.982  1.00  0.00     0.815 C  
HETATM   25  O   UNL     1      -8.980   8.100  64.323  1.00  0.00    -0.245 OA 
HETATM   26  C   UNL     1      -7.546   6.407  63.350  1.00  0.00    -0.087 C  
HETATM   27  H   UNL     1      -8.815   8.647  63.563  1.00  0.00     0.000 HD 
HETATM   28  C   UNL     1      -6.409   6.461  64.377  1.00  0.00    -0.030 C  
HETATM   29  O   UNL     1      -5.209   6.007  63.749  1.00  0.00    -0.016 OA 
HETATM   30  C   UNL     1      -6.733   5.617  65.609  1.00  0.00    -0.044 C  
HETATM   31  H   UNL     1      -4.504   6.040  64.386  1.00  0.00     0.000 HD 
HETATM   32  C   UNL     1      -5.953   4.637  66.093  1.00  0.00    -0.023 C  
ENDBRANCH  11  21
TORSDOF 1
ENDMDL
MODEL       99
REMARK 921   NORMALIZED FREE ENERGY PREDICTED BY IDOCK:   -2.22 KCAL/MOL
REMARK 922        TOTAL FREE ENERGY PREDICTED BY IDOCK:   -2.79 KCAL/MOL
REMARK 923 INTER-LIGAND FREE ENERGY PREDICTED BY IDOCK:   -2.18 KCAL/MOL
REMARK 924 INTRA-LIGAND FREE ENERGY PREDICTED BY IDOCK:   -0.61 KCAL/MOL
REMARK 927      BINDING AFFINITY PREDICTED BY RF-SCORE:    0.00 PKD
ROOT
HETATM    1  C   UNL     1      -9.908  15.751  66.159  1.00  0.00    -0.341 C  
HETATM    2  C   UNL     1      -8.770  14.791  66.508  1.00  0.00    -0.160 C  
HETATM    3  C   UNL     1      -9.881  16.919  67.244  1.00  0.00    -0.265 C  
HETATM    4  C   UNL     1     -10.985  17.980  67.182  1.00  0.00    -0.025 C  
HETATM    5  C   UNL     1      -9.378  13.807  67.489  1.00  0.00    -0.222 C  
HETATM    6  C   UNL     1      -8.597  17.721  67.112  1.00  0.00    -0.242 C  
HETATM    7  C   UNL     1     -10.925  13.907  67.410  1.00  0.00    -0.299 C  
HETATM    8  C   UNL     1      -7.729  18.004  68.100  1.00  0.00    -0.274 C  
HETATM    9  C   UNL     1     -11.555  12.503  67.426  1.00  0.00    -0.434 C  
HETATM   10  C   UNL     1      -6.527  18.893  67.853  1.00  0.00    -0.227 C  
HETATM   11  C   UNL     1     -11.091  11.377  68.022  1.00  0.00    -0.317 C  
HETATM   12  C   UNL     1     -12.786  12.401  66.564  1.00  0.00     1.476 C  
HETATM   13  C   UNL     1      -6.565  20.254  68.606  1.00  0.00    -0.315 C  
HETATM   14  C   UNL     1      -5.232  18.108  68.080  1.00  0.00    -0.164 C  
HETATM   15  C   UNL     1      -7.895  20.991  68.389  1.00  0.00     0.822 C  
HETATM   16  C   UNL     1     -12.529  12.839  65.123  1.00  0.00    -0.565 C  
HETATM   17  C   UNL     1     -12.437  15.659  66.000  1.00  0.00     1.531 C  
HETATM   18  C   UNL     1      -6.270  20.182  70.107  1.00  0.00    -0.388 C  
HETATM   19  C   UNL     1     -11.290  13.768  64.938  1.00  0.00    -0.353 C  
HETATM   20  C   UNL     1     -11.172  14.788  66.118  1.00  0.00    -0.337 C  
ENDROOT
BRANCH  11  21
HETATM   21  C   UNL     1      -9.972  11.241  68.938  1.00  0.00    -0.169 C  
HETATM   22  C   UNL     1      -7.687  10.589  69.734  1.00  0.00    -0.079 C  
HETATM   23  C   UNL     1      -8.745  10.757  68.650  1.00  0.00    -0.152 C  
HETATM   24  C   UNL     1      -7.210   9.139  69.806  1.00  0.00    -0.062 C  
HETATM   25  O   UNL     1      -8.243   8.282  70.302  1.00  0.00    -0.114 OA 
HETATM   26  C   UNL     1      -6.731   8.632  68.442  1.00  0.00    -0.064 C  
HETATM   27  H   UNL     1      -7.947   7.380  70.348  1.00  0.00     0.000 HD 
HETATM   28  C   UNL     1      -7.777   8.857  67.344  1.00  0.00    -0.096 C  
HETATM   29  O   UNL     1      -7.193   8.511  66.086  1.00  0.00    -0.078 OA 
HETATM   30  C   UNL     1      -8.273  10.301  67.337  1.00  0.00    -0.114 C  
HETATM   31  H   UNL     1      -7.841   8.651  65.405  1.00  0.00     0.000 HD 
HETATM   32  C   UNL     1      -8.249  11.115  66.269  1.00  0.00    -0.153 C  
ENDBRANCH  11  21
TORSDOF 1
ENDMDL
MODEL      100
REMARK 921   NORMALIZED FREE ENERGY PREDICTED BY IDOCK:   -1.95 KCAL/MOL
REMARK 922        TOTAL FREE ENERGY PREDICTED BY IDOCK:   -2.51 KCAL/MOL
REMARK 923 INTER-LIGAND FREE ENERGY PREDICTED BY IDOCK:   -2.02 KCAL/MOL
REMARK 924 INTRA-LIGAND FREE ENERGY PREDICTED BY IDOCK:   -0.48 KCAL/MOL
REMARK 927      BINDING AFFINITY PREDICTED BY RF-SCORE:    0.00 PKD
ROOT
HETATM    1  C   UNL     1      -6.662   8.932  69.689  1.00  0.00    -0.046 C  
HETATM    2  C   UNL     1      -5.537   8.310  68.861  1.00  0.00    -0.039 C  
HETATM    3  C   UNL     1      -7.915   7.952  69.582  1.00  0.00    -0.118 C  
HETATM    4  C   UNL     1      -9.223   8.385  70.253  1.00  0.00    -0.154 C  
HETATM    5  C   UNL     1      -5.750   8.842  67.456  1.00  0.00    -0.039 C  
HETATM    6  C   UNL     1      -7.591   6.620  70.239  1.00  0.00    -0.096 C  
HETATM    7  C   UNL     1      -6.703  10.065  67.518  1.00  0.00    -0.072 C  
HETATM    8  C   UNL     1      -7.730   5.403  69.683  1.00  0.00    -0.074 C  
HETATM    9  C   UNL     1      -6.195  11.189  66.599  1.00  0.00    -0.136 C  
HETATM   10  C   UNL     1      -7.456   4.145  70.482  1.00  0.00    -0.045 C  
HETATM   11  C   UNL     1      -5.488  11.082  65.447  1.00  0.00    -0.009 C  
HETATM   12  C   UNL     1      -6.451  12.565  67.156  1.00  0.00    -0.053 C  
HETATM   13  C   UNL     1      -8.710   3.264  70.750  1.00  0.00    -0.128 C  
HETATM   14  C   UNL     1      -6.290   3.369  69.863  1.00  0.00    -0.028 C  
HETATM   15  C   UNL     1      -9.872   4.085  71.329  1.00  0.00    -0.242 C  
HETATM   16  C   UNL     1      -5.877  12.744  68.561  1.00  0.00    -0.061 C  
HETATM   17  C   UNL     1      -8.044  11.057  69.655  1.00  0.00     0.327 C  
HETATM   18  C   UNL     1      -9.214   2.457  69.551  1.00  0.00    -0.189 C  
HETATM   19  C   UNL     1      -5.637  11.413  69.337  1.00  0.00    -0.051 C  
HETATM   20  C   UNL     1      -6.787  10.388  69.066  1.00  0.00    -0.064 C  
ENDROOT
BRANCH  11  21
HETATM   21  C   UNL     1      -5.174   9.879  64.694  1.00  0.00    -0.070 C  
HETATM   22  C   UNL     1      -5.573   7.690  63.542  1.00  0.00    -0.045 C  
HETATM   23  C   UNL     1      -6.050   8.953  64.248  1.00  0.00    -0.071 C  
HETATM   24  C   UNL     1      -6.070   6.442  64.270  1.00  0.00    -0.026 C  
HETATM   25  O   UNL     1      -5.431   6.299  65.542  1.00  0.00    -0.016 OA 
HETATM   26  C   UNL     1      -7.591   6.465  64.457  1.00  0.00    -0.100 C  
HETATM   27  H   UNL     1      -5.740   5.522  65.994  1.00  0.00     0.000 HD 
HETATM   28  C   UNL     1      -8.071   7.763  65.115  1.00  0.00    -0.137 C  
HETATM   29  O   UNL     1      -9.501   7.775  65.102  1.00  0.00     0.023 OA 
HETATM   30  C   UNL     1      -7.509   8.990  64.398  1.00  0.00    -0.105 C  
HETATM   31  H   UNL     1      -9.798   8.581  65.510  1.00  0.00     0.000 HD 
HETATM   32  C   UNL     1      -8.250   9.992  63.899  1.00  0.00    -0.159 C  
ENDBRANCH  11  21
TORSDOF 1
ENDMDL
MODEL      101
REMARK 921   NORMALIZED FREE ENERGY PREDICTED BY IDOCK:   -1.82 KCAL/MOL
REMARK 922        TOTAL FREE ENERGY PREDICTED BY IDOCK:   -2.37 KCAL/MOL
REMARK 923 INTER-LIGAND FREE ENERGY PREDICTED BY IDOCK:   -1.93 KCAL/MOL
REMARK 924 INTRA-LIGAND FREE ENERGY PREDICTED BY IDOCK:   -0.44 KCAL/MOL
REMARK 927      BINDING AFFINITY PREDICTED BY RF-SCORE:    0.00 PKD
ROOT
HETATM    1  C   UNL     1      -7.154  12.010  66.560  1.00  0.00     0.285 C  
HETATM    2  C   UNL     1      -6.089  11.894  67.652  1.00  0.00    -0.084 C  
HETATM    3  C   UNL     1      -8.208  13.099  67.053  1.00  0.00    -0.062 C  
HETATM    4  C   UNL     1      -9.442  13.348  66.178  1.00  0.00    -0.156 C  
HETATM    5  C   UNL     1      -6.626  10.846  68.608  1.00  0.00    -0.057 C  
HETATM    6  C   UNL     1      -7.544  14.463  67.142  1.00  0.00    -0.021 C  
HETATM    7  C   UNL     1      -7.761  10.056  67.905  1.00  0.00    -0.090 C  
HETATM    8  C   UNL     1      -7.552  15.284  68.208  1.00  0.00    -0.112 C  
HETATM    9  C   UNL     1      -7.625   8.550  68.194  1.00  0.00    -0.098 C  
HETATM   10  C   UNL     1      -6.925  16.662  68.136  1.00  0.00    -0.156 C  
HETATM   11  C   UNL     1      -7.113   7.946  69.295  1.00  0.00    -0.071 C  
HETATM   12  C   UNL     1      -8.029   7.688  67.028  1.00  0.00    -0.116 C  
HETATM   13  C   UNL     1      -7.936  17.838  68.252  1.00  0.00    -0.282 C  
HETATM   14  C   UNL     1      -5.757  16.765  69.121  1.00  0.00    -0.152 C  
HETATM   15  C   UNL     1      -9.115  17.678  67.279  1.00  0.00    -0.237 C  
HETATM   16  C   UNL     1      -7.270   8.042  65.749  1.00  0.00    -0.071 C  
HETATM   17  C   UNL     1      -8.882  10.504  65.479  1.00  0.00    -0.200 C  
HETATM   18  C   UNL     1      -8.480  18.101  69.659  1.00  0.00     0.944 C  
HETATM   19  C   UNL     1      -6.668   9.480  65.729  1.00  0.00    -0.083 C  
HETATM   20  C   UNL     1      -7.642  10.508  66.392  1.00  0.00    -0.132 C  
ENDROOT
BRANCH  11  21
HETATM   21  C   UNL     1      -6.717   8.556  70.553  1.00  0.00    -0.038 C  
HETATM   22  C   UNL     1      -6.112   8.688  72.981  1.00  0.00    -0.086 C  
HETATM   23  C   UNL     1      -6.431   7.916  71.707  1.00  0.00    -0.041 C  
HETATM   24  C   UNL     1      -7.074   8.303  74.103  1.00  0.00    -0.157 C  
HETATM   25  O   UNL     1      -8.399   8.769  73.829  1.00  0.00    -0.322 OA 
HETATM   26  C   UNL     1      -7.098   6.788  74.332  1.00  0.00    -0.090 C  
HETATM   27  H   UNL     1      -8.997   8.530  74.527  1.00  0.00     0.000 HD 
HETATM   28  C   UNL     1      -7.362   6.014  73.036  1.00  0.00    -0.093 C  
HETATM   29  O   UNL     1      -7.205   4.618  73.303  1.00  0.00    -0.076 OA 
HETATM   30  C   UNL     1      -6.421   6.464  71.919  1.00  0.00    -0.054 C  
HETATM   31  H   UNL     1      -7.368   4.138  72.499  1.00  0.00     0.000 HD 
HETATM   32  C   UNL     1      -5.618   5.648  71.218  1.00  0.00    -0.016 C  
ENDBRANCH  11  21
TORSDOF 1
ENDMDL
MODEL      102
REMARK 921   NORMALIZED FREE ENERGY PREDICTED BY IDOCK:   -1.80 KCAL/MOL
REMARK 922        TOTAL FREE ENERGY PREDICTED BY IDOCK:   -2.35 KCAL/MOL
REMARK 923 INTER-LIGAND FREE ENERGY PREDICTED BY IDOCK:   -1.83 KCAL/MOL
REMARK 924 INTRA-LIGAND FREE ENERGY PREDICTED BY IDOCK:   -0.52 KCAL/MOL
REMARK 927      BINDING AFFINITY PREDICTED BY RF-SCORE:    0.00 PKD
ROOT
HETATM    1  C   UNL     1     -11.469   7.985  72.851  1.00  0.00    -0.329 C  
HETATM    2  C   UNL     1     -10.071   8.590  72.718  1.00  0.00    -0.168 C  
HETATM    3  C   UNL     1     -11.342   6.438  72.485  1.00  0.00    -0.299 C  
HETATM    4  C   UNL     1     -12.626   5.603  72.450  1.00  0.00     0.446 C  
HETATM    5  C   UNL     1      -9.966   9.010  71.264  1.00  0.00    -0.381 C  
HETATM    6  C   UNL     1     -10.475   5.730  73.513  1.00  0.00    -0.276 C  
HETATM    7  C   UNL     1     -11.389   9.047  70.646  1.00  0.00    -0.311 C  
HETATM    8  C   UNL     1      -9.405   4.956  73.254  1.00  0.00    -0.131 C  
HETATM    9  C   UNL     1     -11.561  10.300  69.770  1.00  0.00    -0.294 C  
HETATM   10  C   UNL     1      -8.678   4.232  74.370  1.00  0.00    -0.095 C  
HETATM   11  C   UNL     1     -10.619  10.969  69.061  1.00  0.00    -0.258 C  
HETATM   12  C   UNL     1     -12.952  10.874  69.833  1.00  0.00     0.161 C  
HETATM   13  C   UNL     1      -8.788   2.681  74.312  1.00  0.00    -0.079 C  
HETATM   14  C   UNL     1      -7.236   4.735  74.476  1.00  0.00    -0.077 C  
HETATM   15  C   UNL     1     -10.245   2.216  74.162  1.00  0.00    -0.168 C  
HETATM   16  C   UNL     1     -13.397  11.175  71.263  1.00  0.00    -0.044 C  
HETATM   17  C   UNL     1     -13.738   8.282  71.761  1.00  0.00    -0.420 C  
HETATM   18  C   UNL     1      -7.932   2.002  73.240  1.00  0.00    -0.046 C  
HETATM   19  C   UNL     1     -12.625  10.383  72.363  1.00  0.00     0.393 C  
HETATM   20  C   UNL     1     -12.341   8.915  71.904  1.00  0.00    -0.445 C  
ENDROOT
BRANCH  11  21
HETATM   21  C   UNL     1      -9.242  10.582  68.807  1.00  0.00    -0.177 C  
HETATM   22  C   UNL     1      -6.826  10.857  68.201  1.00  0.00    -0.067 C  
HETATM   23  C   UNL     1      -8.208  11.406  68.535  1.00  0.00    -0.153 C  
HETATM   24  C   UNL     1      -6.360  11.357  66.835  1.00  0.00    -0.137 C  
HETATM   25  O   UNL     1      -7.141  10.783  65.782  1.00  0.00    -0.249 OA 
HETATM   26  C   UNL     1      -6.416  12.886  66.743  1.00  0.00     0.971 C  
HETATM   27  H   UNL     1      -6.850  11.094  64.932  1.00  0.00     0.000 HD 
HETATM   28  C   UNL     1      -7.791  13.437  67.136  1.00  0.00    -0.019 C  
HETATM   29  O   UNL     1      -7.710  14.863  67.183  1.00  0.00    -0.202 OA 
HETATM   30  C   UNL     1      -8.252  12.872  68.478  1.00  0.00    -0.065 C  
HETATM   31  H   UNL     1      -8.563  15.205  67.427  1.00  0.00     0.000 HD 
HETATM   32  C   UNL     1      -8.620  13.613  69.536  1.00  0.00     1.091 C  
ENDBRANCH  11  21
TORSDOF 1
ENDMDL
MODEL      103
REMARK 921   NORMALIZED FREE ENERGY PREDICTED BY IDOCK:   -1.66 KCAL/MOL
REMARK 922        TOTAL FREE ENERGY PREDICTED BY IDOCK:   -2.20 KCAL/MOL
REMARK 923 INTER-LIGAND FREE ENERGY PREDICTED BY IDOCK:   -1.40 KCAL/MOL
REMARK 924 INTRA-LIGAND FREE ENERGY PREDICTED BY IDOCK:   -0.80 KCAL/MOL
REMARK 927      BINDING AFFINITY PREDICTED BY RF-SCORE:    0.00 PKD
ROOT
HETATM    1  C   UNL     1      -7.003   8.035  70.909  1.00  0.00    -0.045 C  
HETATM    2  C   UNL     1      -7.528   7.672  69.520  1.00  0.00    -0.092 C  
HETATM    3  C   UNL     1      -8.156   7.679  71.951  1.00  0.00    -0.112 C  
HETATM    4  C   UNL     1      -7.924   8.032  73.425  1.00  0.00    -0.236 C  
HETATM    5  C   UNL     1      -8.254   8.916  69.042  1.00  0.00    -0.116 C  
HETATM    6  C   UNL     1      -8.396   6.179  71.968  1.00  0.00    -0.114 C  
HETATM    7  C   UNL     1      -7.823  10.120  69.921  1.00  0.00    -0.164 C  
HETATM    8  C   UNL     1      -9.581   5.560  71.815  1.00  0.00    -0.183 C  
HETATM    9  C   UNL     1      -7.574  11.361  69.045  1.00  0.00    -0.084 C  
HETATM   10  C   UNL     1      -9.697   4.055  71.944  1.00  0.00    -0.236 C  
HETATM   11  C   UNL     1      -8.166  11.699  67.874  1.00  0.00    -0.141 C  
HETATM   12  C   UNL     1      -6.442  12.217  69.548  1.00  0.00    -0.094 C  
HETATM   13  C   UNL     1     -10.530   3.574  73.166  1.00  0.00    -0.258 C  
HETATM   14  C   UNL     1     -10.157   3.444  70.617  1.00  0.00     0.304 C  
HETATM   15  C   UNL     1     -10.068   4.241  74.471  1.00  0.00    -0.250 C  
HETATM   16  C   UNL     1      -5.142  11.431  69.714  1.00  0.00    -0.054 C  
HETATM   17  C   UNL     1      -6.247  10.127  72.126  1.00  0.00     0.908 C  
HETATM   18  C   UNL     1     -12.047   3.733  73.032  1.00  0.00     0.578 C  
HETATM   19  C   UNL     1      -5.331   9.890  69.862  1.00  0.00    -0.037 C  
HETATM   20  C   UNL     1      -6.586   9.558  70.735  1.00  0.00    -0.104 C  
ENDROOT
BRANCH  11  21
HETATM   21  C   UNL     1      -9.306  11.069  67.229  1.00  0.00    -0.167 C  
HETATM   22  C   UNL     1     -10.640  10.001  65.396  1.00  0.00     0.231 C  
HETATM   23  C   UNL     1      -9.347  10.558  65.980  1.00  0.00    -0.215 C  
HETATM   24  C   UNL     1     -11.002  10.722  64.098  1.00  0.00     0.349 C  
HETATM   25  O   UNL     1     -11.382  12.078  64.352  1.00  0.00    -0.323 OA 
HETATM   26  C   UNL     1      -9.848  10.689  63.091  1.00  0.00    -0.351 C  
HETATM   27  H   UNL     1     -11.607  12.526  63.544  1.00  0.00     0.000 HD 
HETATM   28  C   UNL     1      -8.536  11.195  63.702  1.00  0.00     0.212 C  
HETATM   29  O   UNL     1      -7.484  10.978  62.759  1.00  0.00    -0.370 OA 
HETATM   30  C   UNL     1      -8.234  10.495  65.026  1.00  0.00    -0.120 C  
HETATM   31  H   UNL     1      -6.671  11.292  63.137  1.00  0.00     0.000 HD 
HETATM   32  C   UNL     1      -7.096   9.839  65.303  1.00  0.00    -0.119 C  
ENDBRANCH  11  21
TORSDOF 1
ENDMDL
MODEL      104
REMARK 921   NORMALIZED FREE ENERGY PREDICTED BY IDOCK:   -1.33 KCAL/MOL
REMARK 922        TOTAL FREE ENERGY PREDICTED BY IDOCK:   -1.85 KCAL/MOL
REMARK 923 INTER-LIGAND FREE ENERGY PREDICTED BY IDOCK:   -1.27 KCAL/MOL
REMARK 924 INTRA-LIGAND FREE ENERGY PREDICTED BY IDOCK:   -0.58 KCAL/MOL
REMARK 927      BINDING AFFINITY PREDICTED BY RF-SCORE:    0.00 PKD
ROOT
HETATM    1  C   UNL     1     -12.164  14.291  69.196  1.00  0.00    -0.272 C  
HETATM    2  C   UNL     1     -12.370  13.754  67.779  1.00  0.00    -0.031 C  
HETATM    3  C   UNL     1     -10.815  15.141  69.179  1.00  0.00    -0.251 C  
HETATM    4  C   UNL     1     -10.320  15.724  70.508  1.00  0.00     0.053 C  
HETATM    5  C   UNL     1     -11.617  12.437  67.750  1.00  0.00    -0.413 C  
HETATM    6  C   UNL     1     -10.978  16.358  68.285  1.00  0.00    -0.355 C  
HETATM    7  C   UNL     1     -11.326  11.990  69.207  1.00  0.00    -0.330 C  
HETATM    8  C   UNL     1     -10.162  16.723  67.279  1.00  0.00    -0.292 C  
HETATM    9  C   UNL     1     -11.591  10.483  69.370  1.00  0.00    -0.318 C  
HETATM   10  C   UNL     1     -10.388  18.014  66.520  1.00  0.00    -0.376 C  
HETATM   11  C   UNL     1     -11.471   9.501  68.442  1.00  0.00     0.381 C  
HETATM   12  C   UNL     1     -12.157  10.127  70.719  1.00  0.00    -0.438 C  
HETATM   13  C   UNL     1      -9.276  19.084  66.719  1.00  0.00    -0.345 C  
HETATM   14  C   UNL     1     -10.689  17.717  65.048  1.00  0.00     0.542 C  
HETATM   15  C   UNL     1      -8.972  19.323  68.206  1.00  0.00    -0.381 C  
HETATM   16  C   UNL     1     -13.424  10.915  71.048  1.00  0.00     0.227 C  
HETATM   17  C   UNL     1     -11.792  13.335  71.514  1.00  0.00     0.965 C  
HETATM   18  C   UNL     1      -7.965  18.814  65.976  1.00  0.00    -0.169 C  
HETATM   19  C   UNL     1     -13.588  12.243  70.248  1.00  0.00     2.311 C  
HETATM   20  C   UNL     1     -12.214  12.971  70.077  1.00  0.00    -0.306 C  
ENDROOT
BRANCH  11  21
HETATM   21  C   UNL     1     -10.900   9.589  67.109  1.00  0.00    -0.156 C  
HETATM   22  C   UNL     1      -9.393   9.031  65.186  1.00  0.00    -0.099 C  
HETATM   23  C   UNL     1      -9.970   8.771  66.572  1.00  0.00    -0.360 C  
HETATM   24  C   UNL     1      -7.873   9.170  65.249  1.00  0.00    -0.105 C  
HETATM   25  O   UNL     1      -7.493  10.370  65.930  1.00  0.00    -0.129 OA 
HETATM   26  C   UNL     1      -7.222   7.962  65.932  1.00  0.00    -0.072 C  
HETATM   27  H   UNL     1      -6.547  10.456  65.969  1.00  0.00     0.000 HD 
HETATM   28  C   UNL     1      -7.846   7.669  67.301  1.00  0.00    -0.117 C  
HETATM   29  O   UNL     1      -7.303   6.442  67.793  1.00  0.00    -0.084 OA 
HETATM   30  C   UNL     1      -9.369   7.594  67.212  1.00  0.00    -0.174 C  
HETATM   31  H   UNL     1      -7.690   6.260  68.641  1.00  0.00     0.000 HD 
HETATM   32  C   UNL     1     -10.111   6.553  67.623  1.00  0.00    -0.180 C  
ENDBRANCH  11  21
TORSDOF 1
ENDMDL
MODEL      105
REMARK 921   NORMALIZED FREE ENERGY PREDICTED BY IDOCK:   -1.10 KCAL/MOL
REMARK 922        TOTAL FREE ENERGY PREDICTED BY IDOCK:   -1.61 KCAL/MOL
REMARK 923 INTER-LIGAND FREE ENERGY PREDICTED BY IDOCK:   -1.17 KCAL/MOL
REMARK 924 INTRA-LIGAND FREE ENERGY PREDICTED BY IDOCK:   -0.44 KCAL/MOL
REMARK 927      BINDING AFFINITY PREDICTED BY RF-SCORE:    0.00 PKD
ROOT
HETATM    1  C   UNL     1     -10.236  14.774  65.607  1.00  0.00    -0.382 C  
HETATM    2  C   UNL     1      -8.763  14.372  65.521  1.00  0.00     1.797 C  
HETATM    3  C   UNL     1     -10.349  15.890  66.740  1.00  0.00    -0.298 C  
HETATM    4  C   UNL     1     -11.746  16.408  67.098  1.00  0.00     0.810 C  
HETATM    5  C   UNL     1      -8.603  13.260  66.540  1.00  0.00     0.168 C  
HETATM    6  C   UNL     1      -9.594  17.139  66.316  1.00  0.00    -0.273 C  
HETATM    7  C   UNL     1     -10.007  12.721  66.923  1.00  0.00    -0.232 C  
HETATM    8  C   UNL     1      -8.656  17.784  67.033  1.00  0.00    -0.248 C  
HETATM    9  C   UNL     1      -9.991  11.184  66.991  1.00  0.00    -0.223 C  
HETATM   10  C   UNL     1      -8.042  19.076  66.532  1.00  0.00    -0.300 C  
HETATM   11  C   UNL     1      -8.962  10.365  67.320  1.00  0.00    -0.142 C  
HETATM   12  C   UNL     1     -11.278  10.561  66.517  1.00  0.00     0.203 C  
HETATM   13  C   UNL     1      -8.388  20.329  67.386  1.00  0.00    -0.396 C  
HETATM   14  C   UNL     1      -6.540  18.893  66.301  1.00  0.00    -0.234 C  
HETATM   15  C   UNL     1      -9.899  20.454  67.632  1.00  0.00    -0.538 C  
HETATM   16  C   UNL     1     -11.663  11.014  65.109  1.00  0.00     0.819 C  
HETATM   17  C   UNL     1     -12.439  13.658  66.179  1.00  0.00    -0.449 C  
HETATM   18  C   UNL     1      -7.652  20.436  68.724  1.00  0.00     0.205 C  
HETATM   19  C   UNL     1     -11.015  12.360  64.661  1.00  0.00    -0.344 C  
HETATM   20  C   UNL     1     -10.961  13.381  65.845  1.00  0.00    -0.284 C  
ENDROOT
BRANCH  11  21
HETATM   21  C   UNL     1      -7.661  10.728  67.857  1.00  0.00    -0.100 C  
HETATM   22  C   UNL     1      -5.448  10.418  68.990  1.00  0.00    -0.041 C  
HETATM   23  C   UNL     1      -6.741   9.890  68.380  1.00  0.00    -0.055 C  
HETATM   24  C   UNL     1      -5.309   9.966  70.443  1.00  0.00    -0.045 C  
HETATM   25  O   UNL     1      -6.281  10.606  71.275  1.00  0.00    -0.329 OA 
HETATM   26  C   UNL     1      -5.437   8.445  70.577  1.00  0.00    -0.024 C  
HETATM   27  H   UNL     1      -6.195  10.325  72.179  1.00  0.00     0.000 HD 
HETATM   28  C   UNL     1      -6.711   7.913  69.911  1.00  0.00    -0.037 C  
HETATM   29  O   UNL     1      -6.671   6.484  69.936  1.00  0.00    -0.046 OA 
HETATM   30  C   UNL     1      -6.847   8.430  68.480  1.00  0.00    -0.064 C  
HETATM   31  H   UNL     1      -7.461   6.154  69.523  1.00  0.00     0.000 HD 
HETATM   32  C   UNL     1      -6.999   7.653  67.396  1.00  0.00    -0.084 C  
ENDBRANCH  11  21
TORSDOF 1
ENDMDL
MODEL      106
REMARK 921   NORMALIZED FREE ENERGY PREDICTED BY IDOCK:   -0.88 KCAL/MOL
REMARK 922        TOTAL FREE ENERGY PREDICTED BY IDOCK:   -1.37 KCAL/MOL
REMARK 923 INTER-LIGAND FREE ENERGY PREDICTED BY IDOCK:   -0.26 KCAL/MOL
REMARK 924 INTRA-LIGAND FREE ENERGY PREDICTED BY IDOCK:   -1.11 KCAL/MOL
REMARK 927      BINDING AFFINITY PREDICTED BY RF-SCORE:    0.00 PKD
ROOT
HETATM    1  C   UNL     1     -10.315  11.426  69.630  1.00  0.00     0.268 C  
HETATM    2  C   UNL     1      -8.823  11.205  69.883  1.00  0.00     1.227 C  
HETATM    3  C   UNL     1     -11.014   9.994  69.689  1.00  0.00    -0.301 C  
HETATM    4  C   UNL     1     -12.512   9.915  69.377  1.00  0.00     0.900 C  
HETATM    5  C   UNL     1      -8.233  10.934  68.511  1.00  0.00    -0.140 C  
HETATM    6  C   UNL     1     -10.902   9.418  71.090  1.00  0.00    -0.427 C  
HETATM    7  C   UNL     1      -9.245  11.392  67.428  1.00  0.00    -0.164 C  
HETATM    8  C   UNL     1     -10.427   8.202  71.416  1.00  0.00    -0.261 C  
HETATM    9  C   UNL     1      -8.518  12.136  66.294  1.00  0.00     0.140 C  
HETATM   10  C   UNL     1     -10.454   7.713  72.850  1.00  0.00    -0.394 C  
HETATM   11  C   UNL     1      -7.252  11.958  65.846  1.00  0.00     1.074 C  
HETATM   12  C   UNL     1      -9.329  13.268  65.719  1.00  0.00     0.150 C  
HETATM   13  C   UNL     1     -11.403   6.506  73.102  1.00  0.00    -0.009 C  
HETATM   14  C   UNL     1      -9.028   7.480  73.357  1.00  0.00    -0.252 C  
HETATM   15  C   UNL     1     -12.811   6.759  72.541  1.00  0.00     0.378 C  
HETATM   16  C   UNL     1      -9.784  14.263  66.786  1.00  0.00    -0.282 C  
HETATM   17  C   UNL     1     -11.775  12.306  67.755  1.00  0.00    -0.403 C  
HETATM   18  C   UNL     1     -10.896   5.154  72.593  1.00  0.00    -0.303 C  
HETATM   19  C   UNL     1      -9.809  13.692  68.237  1.00  0.00    -0.232 C  
HETATM   20  C   UNL     1     -10.320  12.213  68.251  1.00  0.00    -0.218 C  
ENDROOT
BRANCH  11  21
HETATM   21  C   UNL     1      -6.311  10.909  66.201  1.00  0.00    -0.123 C  
HETATM   22  C   UNL     1      -5.316   8.611  66.275  1.00  0.00    -0.031 C  
HETATM   23  C   UNL     1      -6.314   9.636  65.751  1.00  0.00    -0.075 C  
HETATM   24  C   UNL     1      -6.039   7.406  66.874  1.00  0.00    -0.046 C  
HETATM   25  O   UNL     1      -6.719   7.763  68.082  1.00  0.00    -0.062 OA 
HETATM   26  C   UNL     1      -7.035   6.794  65.883  1.00  0.00    -0.064 C  
HETATM   27  H   UNL     1      -7.169   7.013  68.454  1.00  0.00     0.000 HD 
HETATM   28  C   UNL     1      -7.999   7.841  65.315  1.00  0.00    -0.127 C  
HETATM   29  O   UNL     1      -8.779   7.227  64.286  1.00  0.00    -0.278 OA 
HETATM   30  C   UNL     1      -7.246   9.056  64.778  1.00  0.00    -0.096 C  
HETATM   31  H   UNL     1      -9.377   7.876  63.934  1.00  0.00     0.000 HD 
HETATM   32  C   UNL     1      -7.364   9.541  63.531  1.00  0.00    -0.107 C  
ENDBRANCH  11  21
TORSDOF 1
ENDMDL
MODEL      107
REMARK 921   NORMALIZED FREE ENERGY PREDICTED BY IDOCK:   -0.63 KCAL/MOL
REMARK 922        TOTAL FREE ENERGY PREDICTED BY IDOCK:   -1.11 KCAL/MOL
REMARK 923 INTER-LIGAND FREE ENERGY PREDICTED BY IDOCK:   -1.54 KCAL/MOL
REMARK 924 INTRA-LIGAND FREE ENERGY PREDICTED BY IDOCK:    0.43 KCAL/MOL
REMARK 927      BINDING AFFINITY PREDICTED BY RF-SCORE:    0.00 PKD
ROOT
HETATM    1  C   UNL     1      -6.582   7.663  64.742  1.00  0.00    -0.044 C  
HETATM    2  C   UNL     1      -6.229   6.806  65.958  1.00  0.00    -0.038 C  
HETATM    3  C   UNL     1      -7.359   8.944  65.286  1.00  0.00    -0.088 C  
HETATM    4  C   UNL     1      -7.912   9.937  64.257  1.00  0.00    -0.146 C  
HETATM    5  C   UNL     1      -7.434   5.907  66.161  1.00  0.00    -0.085 C  
HETATM    6  C   UNL     1      -6.433   9.789  66.145  1.00  0.00    -0.076 C  
HETATM    7  C   UNL     1      -8.298   5.922  64.872  1.00  0.00    -0.115 C  
HETATM    8  C   UNL     1      -6.680  10.222  67.394  1.00  0.00    -0.072 C  
HETATM    9  C   UNL     1      -8.773   4.499  64.529  1.00  0.00    -0.148 C  
HETATM   10  C   UNL     1      -5.706  11.137  68.110  1.00  0.00    -0.045 C  
HETATM   11  C   UNL     1      -9.034   3.470  65.372  1.00  0.00    -0.139 C  
HETATM   12  C   UNL     1      -8.835   4.242  63.046  1.00  0.00    -0.119 C  
HETATM   13  C   UNL     1      -6.249  12.569  68.384  1.00  0.00    -0.058 C  
HETATM   14  C   UNL     1      -5.153  10.447  69.360  1.00  0.00    -0.038 C  
HETATM   15  C   UNL     1      -6.834  13.211  67.117  1.00  0.00     0.175 C  
HETATM   16  C   UNL     1      -7.507   4.529  62.346  1.00  0.00    -0.043 C  
HETATM   17  C   UNL     1      -7.984   7.431  62.643  1.00  0.00    -0.126 C  
HETATM   18  C   UNL     1      -7.269  12.679  69.520  1.00  0.00     0.376 C  
HETATM   19  C   UNL     1      -6.560   5.492  63.124  1.00  0.00    -0.025 C  
HETATM   20  C   UNL     1      -7.367   6.641  63.813  1.00  0.00    -0.072 C  
ENDROOT
BRANCH  11  21
HETATM   21  C   UNL     1      -9.097   3.492  66.824  1.00  0.00    -0.179 C  
HETATM   22  C   UNL     1      -9.648   4.353  69.112  1.00  0.00    -0.252 C  
HETATM   23  C   UNL     1      -9.736   4.401  67.591  1.00  0.00    -0.198 C  
HETATM   24  C   UNL     1      -9.098   5.666  69.665  1.00  0.00    -0.130 C  
HETATM   25  O   UNL     1      -7.719   5.833  69.319  1.00  0.00    -0.086 OA 
HETATM   26  C   UNL     1      -9.903   6.871  69.167  1.00  0.00    -0.156 C  
HETATM   27  H   UNL     1      -7.377   6.650  69.663  1.00  0.00     0.000 HD 
HETATM   28  C   UNL     1     -10.039   6.882  67.640  1.00  0.00    -0.161 C  
HETATM   29  O   UNL     1     -10.934   7.935  67.273  1.00  0.00    -0.518 OA 
HETATM   30  C   UNL     1     -10.535   5.536  67.116  1.00  0.00    -0.321 C  
HETATM   31  H   UNL     1     -11.018   7.941  66.326  1.00  0.00     0.000 HD 
HETATM   32  C   UNL     1     -11.618   5.368  66.340  1.00  0.00     1.386 C  
ENDBRANCH  11  21
TORSDOF 1
ENDMDL
MODEL      108
REMARK 921   NORMALIZED FREE ENERGY PREDICTED BY IDOCK:   -0.25 KCAL/MOL
REMARK 922        TOTAL FREE ENERGY PREDICTED BY IDOCK:   -0.70 KCAL/MOL
REMARK 923 INTER-LIGAND FREE ENERGY PREDICTED BY IDOCK:   -0.21 KCAL/MOL
REMARK 924 INTRA-LIGAND FREE ENERGY PREDICTED BY IDOCK:   -0.50 KCAL/MOL
REMARK 927      BINDING AFFINITY PREDICTED BY RF-SCORE:    0.00 PKD
ROOT
HETATM    1  C   UNL     1     -10.656  12.998  68.657  1.00  0.00    -0.257 C  
HETATM    2  C   UNL     1     -11.024  12.927  67.175  1.00  0.00    -0.290 C  
HETATM    3  C   UNL     1      -9.502  14.089  68.799  1.00  0.00    -0.076 C  
HETATM    4  C   UNL     1      -8.879  14.297  70.184  1.00  0.00     1.682 C  
HETATM    5  C   UNL     1     -10.073  11.902  66.587  1.00  0.00    -0.225 C  
HETATM    6  C   UNL     1     -10.037  15.462  68.430  1.00  0.00    -0.215 C  
HETATM    7  C   UNL     1      -9.444  11.077  67.741  1.00  0.00    -0.169 C  
HETATM    8  C   UNL     1      -9.496  16.315  67.540  1.00  0.00    -0.227 C  
HETATM    9  C   UNL     1      -9.408   9.583  67.376  1.00  0.00    -0.153 C  
HETATM   10  C   UNL     1     -10.081  17.697  67.329  1.00  0.00    -0.331 C  
HETATM   11  C   UNL     1      -9.293   9.018  66.149  1.00  0.00    -0.294 C  
HETATM   12  C   UNL     1      -9.645   8.682  68.559  1.00  0.00    -0.162 C  
HETATM   13  C   UNL     1      -9.154  18.864  67.776  1.00  0.00    -0.322 C  
HETATM   14  C   UNL     1     -10.591  17.842  65.893  1.00  0.00    -0.216 C  
HETATM   15  C   UNL     1      -8.627  18.661  69.205  1.00  0.00     0.025 C  
HETATM   16  C   UNL     1     -10.946   9.006  69.291  1.00  0.00    -0.052 C  
HETATM   17  C   UNL     1      -9.702  11.440  70.415  1.00  0.00     2.940 C  
HETATM   18  C   UNL     1      -7.976  19.161  66.845  1.00  0.00    -0.273 C  
HETATM   19  C   UNL     1     -11.483  10.450  69.049  1.00  0.00    -0.258 C  
HETATM   20  C   UNL     1     -10.313  11.486  69.001  1.00  0.00    -0.143 C  
ENDROOT
BRANCH  11  21
HETATM   21  C   UNL     1      -9.002   9.669  64.883  1.00  0.00    -0.260 C  
HETATM   22  C   UNL     1      -7.978   9.994  62.619  1.00  0.00    -0.141 C  
HETATM   23  C   UNL     1      -8.279   9.164  63.861  1.00  0.00    -0.172 C  
HETATM   24  C   UNL     1      -6.471  10.104  62.393  1.00  0.00    -0.120 C  
HETATM   25  O   UNL     1      -5.855  10.904  63.408  1.00  0.00    -0.368 OA 
HETATM   26  C   UNL     1      -5.803   8.726  62.346  1.00  0.00    -0.087 C  
HETATM   27  H   UNL     1      -4.918  10.972  63.266  1.00  0.00     0.000 HD 
HETATM   28  C   UNL     1      -6.156   7.874  63.570  1.00  0.00    -0.063 C  
HETATM   29  O   UNL     1      -5.634   6.558  63.371  1.00  0.00    -0.028 OA 
HETATM   30  C   UNL     1      -7.666   7.832  63.802  1.00  0.00    -0.123 C  
HETATM   31  H   UNL     1      -5.853   6.029  64.130  1.00  0.00     0.000 HD 
HETATM   32  C   UNL     1      -8.396   6.709  63.895  1.00  0.00     0.171 C  
ENDBRANCH  11  21
TORSDOF 1
ENDMDL
MODEL      109
REMARK 921   NORMALIZED FREE ENERGY PREDICTED BY IDOCK:    0.10 KCAL/MOL
REMARK 922        TOTAL FREE ENERGY PREDICTED BY IDOCK:   -0.34 KCAL/MOL
REMARK 923 INTER-LIGAND FREE ENERGY PREDICTED BY IDOCK:    0.17 KCAL/MOL
REMARK 924 INTRA-LIGAND FREE ENERGY PREDICTED BY IDOCK:   -0.51 KCAL/MOL
REMARK 927      BINDING AFFINITY PREDICTED BY RF-SCORE:    0.00 PKD
ROOT
HETATM    1  C   UNL     1      -7.583   9.045  67.278  1.00  0.00    -0.088 C  
HETATM    2  C   UNL     1      -7.816   9.665  68.656  1.00  0.00    -0.081 C  
HETATM    3  C   UNL     1      -8.879   9.356  66.403  1.00  0.00    -0.167 C  
HETATM    4  C   UNL     1      -8.949   8.764  64.991  1.00  0.00    -0.113 C  
HETATM    5  C   UNL     1      -8.530   8.587  69.450  1.00  0.00    -0.127 C  
HETATM    6  C   UNL     1      -9.007  10.853  66.177  1.00  0.00    -0.196 C  
HETATM    7  C   UNL     1      -8.357   7.227  68.724  1.00  0.00    -0.129 C  
HETATM    8  C   UNL     1     -10.095  11.605  66.425  1.00  0.00    -0.246 C  
HETATM    9  C   UNL     1      -8.042   6.113  69.738  1.00  0.00    -0.119 C  
HETATM   10  C   UNL     1     -10.123  13.078  66.069  1.00  0.00    -0.286 C  
HETATM   11  C   UNL     1      -8.433   6.018  71.033  1.00  0.00    -0.124 C  
HETATM   12  C   UNL     1      -7.088   5.080  69.200  1.00  0.00    -0.056 C  
HETATM   13  C   UNL     1     -11.130  13.451  64.944  1.00  0.00    -0.348 C  
HETATM   14  C   UNL     1     -10.285  13.924  67.335  1.00  0.00    -0.252 C  
HETATM   15  C   UNL     1     -10.966  12.552  63.708  1.00  0.00    -0.496 C  
HETATM   16  C   UNL     1      -5.788   5.697  68.686  1.00  0.00    -0.019 C  
HETATM   17  C   UNL     1      -7.219   6.728  66.315  1.00  0.00    -0.072 C  
HETATM   18  C   UNL     1     -12.603  13.469  65.359  1.00  0.00    -0.531 C  
HETATM   19  C   UNL     1      -5.887   7.209  68.319  1.00  0.00    -0.022 C  
HETATM   20  C   UNL     1      -7.254   7.531  67.629  1.00  0.00    -0.090 C  
ENDROOT
BRANCH  11  21
HETATM   21  C   UNL     1      -9.385   6.850  71.749  1.00  0.00    -0.147 C  
HETATM   22  C   UNL     1     -11.285   7.411  73.282  1.00  0.00    -0.203 C  
HETATM   23  C   UNL     1     -10.283   6.441  72.670  1.00  0.00    -0.200 C  
HETATM   24  C   UNL     1     -12.717   6.932  73.048  1.00  0.00     1.479 C  
HETATM   25  O   UNL     1     -13.068   7.017  71.664  1.00  0.00    -0.377 OA 
HETATM   26  C   UNL     1     -12.921   5.497  73.544  1.00  0.00     3.390 C  
HETATM   27  H   UNL     1     -13.959   6.719  71.518  1.00  0.00     0.000 HD 
HETATM   28  C   UNL     1     -11.874   4.535  72.971  1.00  0.00     0.096 C  
HETATM   29  O   UNL     1     -12.031   3.263  73.605  1.00  0.00     0.077 OA 
HETATM   30  C   UNL     1     -10.458   5.072  73.170  1.00  0.00    -0.255 C  
HETATM   31  H   UNL     1     -11.382   2.667  73.250  1.00  0.00     0.000 HD 
HETATM   32  C   UNL     1      -9.465   4.407  73.781  1.00  0.00    -0.128 C  
ENDBRANCH  11  21
TORSDOF 1
ENDMDL
MODEL      110
REMARK 921   NORMALIZED FREE ENERGY PREDICTED BY IDOCK:    1.64 KCAL/MOL
REMARK 922        TOTAL FREE ENERGY PREDICTED BY IDOCK:    1.29 KCAL/MOL
REMARK 923 INTER-LIGAND FREE ENERGY PREDICTED BY IDOCK:    1.42 KCAL/MOL
REMARK 924 INTRA-LIGAND FREE ENERGY PREDICTED BY IDOCK:   -0.13 KCAL/MOL
REMARK 927      BINDING AFFINITY PREDICTED BY RF-SCORE:    0.00 PKD
ROOT
HETATM    1  C   UNL     1      -5.932  11.552  68.476  1.00  0.00    -0.045 C  
HETATM    2  C   UNL     1      -6.917  11.789  69.621  1.00  0.00     0.094 C  
HETATM    3  C   UNL     1      -6.403  12.469  67.259  1.00  0.00    -0.126 C  
HETATM    4  C   UNL     1      -5.635  12.356  65.938  1.00  0.00     2.672 C  
HETATM    5  C   UNL     1      -8.033  10.789  69.385  1.00  0.00    -0.075 C  
HETATM    6  C   UNL     1      -6.273  13.936  67.633  1.00  0.00    -0.109 C  
HETATM    7  C   UNL     1      -7.540   9.708  68.388  1.00  0.00    -0.081 C  
HETATM    8  C   UNL     1      -7.236  14.871  67.537  1.00  0.00    -0.227 C  
HETATM    9  C   UNL     1      -7.980   8.308  68.853  1.00  0.00    -0.113 C  
HETATM   10  C   UNL     1      -6.949  16.323  67.859  1.00  0.00    -0.153 C  
HETATM   11  C   UNL     1      -9.083   7.963  69.561  1.00  0.00    -0.149 C  
HETATM   12  C   UNL     1      -6.963   7.241  68.548  1.00  0.00    -0.079 C  
HETATM   13  C   UNL     1      -7.034  17.284  66.639  1.00  0.00    -0.272 C  
HETATM   14  C   UNL     1      -7.795  16.778  69.051  1.00  0.00    -0.201 C  
HETATM   15  C   UNL     1      -6.209  16.772  65.448  1.00  0.00     2.684 C  
HETATM   16  C   UNL     1      -5.583   7.567  69.118  1.00  0.00    -0.019 C  
HETATM   17  C   UNL     1      -5.204   9.611  67.018  1.00  0.00    -0.038 C  
HETATM   18  C   UNL     1      -8.451  17.615  66.161  1.00  0.00    -0.167 C  
HETATM   19  C   UNL     1      -5.343   9.080  69.408  1.00  0.00    -0.035 C  
HETATM   20  C   UNL     1      -5.982   9.975  68.296  1.00  0.00    -0.042 C  
ENDROOT
BRANCH  11  21
HETATM   21  C   UNL     1     -10.220   8.796  69.916  1.00  0.00    -0.206 C  
HETATM   22  C   UNL     1     -12.062  10.466  69.608  1.00  0.00    -0.167 C  
HETATM   23  C   UNL     1     -10.945   9.573  69.083  1.00  0.00    -0.148 C  
HETATM   24  C   UNL     1     -11.812  11.925  69.230  1.00  0.00    -0.318 C  
HETATM   25  O   UNL     1     -10.687  12.455  69.938  1.00  0.00    -0.169 OA 
HETATM   26  C   UNL     1     -11.596  12.090  67.722  1.00  0.00    -0.400 C  
HETATM   27  H   UNL     1     -10.532  13.363  69.703  1.00  0.00     0.000 HD 
HETATM   28  C   UNL     1     -10.511  11.147  67.189  1.00  0.00    -0.231 C  
HETATM   29  O   UNL     1     -10.487  11.244  65.763  1.00  0.00    -0.246 OA 
HETATM   30  C   UNL     1     -10.760   9.707  67.634  1.00  0.00    -0.324 C  
HETATM   31  H   UNL     1      -9.814  10.659  65.433  1.00  0.00     0.000 HD 
HETATM   32  C   UNL     1     -10.856   8.655  66.805  1.00  0.00     0.113 C  
ENDBRANCH  11  21
TORSDOF 1
ENDMDL
MODEL      111
REMARK 921   NORMALIZED FREE ENERGY PREDICTED BY IDOCK:    1.68 KCAL/MOL
REMARK 922        TOTAL FREE ENERGY PREDICTED BY IDOCK:    1.34 KCAL/MOL
REMARK 923 INTER-LIGAND FREE ENERGY PREDICTED BY IDOCK:   -2.72 KCAL/MOL
REMARK 924 INTRA-LIGAND FREE ENERGY PREDICTED BY IDOCK:    4.05 KCAL/MOL
REMARK 927      BINDING AFFINITY PREDICTED BY RF-SCORE:    0.00 PKD
ROOT
HETATM    1  C   UNL     1      -9.687  12.280  69.383  1.00  0.00     0.885 C  
HETATM    2  C   UNL     1      -8.690  12.339  68.224  1.00  0.00    -0.178 C  
HETATM    3  C   UNL     1     -10.198  10.774  69.481  1.00  0.00    -0.146 C  
HETATM    4  C   UNL     1     -11.284  10.451  70.513  1.00  0.00    -0.395 C  
HETATM    5  C   UNL     1      -9.538  12.616  66.997  1.00  0.00    -0.219 C  
HETATM    6  C   UNL     1      -9.048   9.858  69.865  1.00  0.00    -0.241 C  
HETATM    7  C   UNL     1     -10.932  13.125  67.451  1.00  0.00    -0.283 C  
HETATM    8  C   UNL     1      -8.669   8.740  69.218  1.00  0.00    -0.135 C  
HETATM    9  C   UNL     1     -11.381  14.310  66.577  1.00  0.00    -0.351 C  
HETATM   10  C   UNL     1      -7.557   7.865  69.760  1.00  0.00    -0.090 C  
HETATM   11  C   UNL     1     -11.083  14.560  65.278  1.00  0.00    -0.355 C  
HETATM   12  C   UNL     1     -12.159  15.345  67.345  1.00  0.00     0.441 C  
HETATM   13  C   UNL     1      -8.016   6.455  70.230  1.00  0.00    -0.112 C  
HETATM   14  C   UNL     1      -6.387   7.824  68.772  1.00  0.00    -0.043 C  
HETATM   15  C   UNL     1      -9.218   6.534  71.184  1.00  0.00    -0.156 C  
HETATM   16  C   UNL     1     -11.400  15.860  68.567  1.00  0.00    -0.374 C  
HETATM   17  C   UNL     1     -11.928  13.311  69.964  1.00  0.00    -0.399 C  
HETATM   18  C   UNL     1      -8.329   5.458  69.111  1.00  0.00    -0.097 C  
HETATM   19  C   UNL     1     -10.283  14.905  69.087  1.00  0.00    -0.243 C  
HETATM   20  C   UNL     1     -10.734  13.410  68.996  1.00  0.00    -0.160 C  
ENDROOT
BRANCH  11  21
HETATM   21  C   UNL     1     -10.406  13.693  64.329  1.00  0.00    -0.068 C  
HETATM   22  C   UNL     1      -9.607  11.554  63.297  1.00  0.00    -0.366 C  
HETATM   23  C   UNL     1     -10.437  12.344  64.301  1.00  0.00    -0.389 C  
HETATM   24  C   UNL     1      -8.673  10.580  64.012  1.00  0.00    -0.169 C  
HETATM   25  O   UNL     1      -7.646  11.279  64.722  1.00  0.00     0.018 OA 
HETATM   26  C   UNL     1      -9.439   9.668  64.977  1.00  0.00    -0.312 C  
HETATM   27  H   UNL     1      -7.065  10.672  65.168  1.00  0.00     0.000 HD 
HETATM   28  C   UNL     1     -10.318  10.466  65.948  1.00  0.00    -0.190 C  
HETATM   29  O   UNL     1     -11.116   9.546  66.696  1.00  0.00     0.109 OA 
HETATM   30  C   UNL     1     -11.196  11.470  65.204  1.00  0.00    -0.214 C  
HETATM   31  H   UNL     1     -11.661  10.040  67.297  1.00  0.00     0.000 HD 
HETATM   32  C   UNL     1     -12.533  11.541  65.305  1.00  0.00     1.520 C  
ENDBRANCH  11  21
TORSDOF 1
ENDMDL
MODEL      112
REMARK 921   NORMALIZED FREE ENERGY PREDICTED BY IDOCK:    1.77 KCAL/MOL
REMARK 922        TOTAL FREE ENERGY PREDICTED BY IDOCK:    1.43 KCAL/MOL
REMARK 923 INTER-LIGAND FREE ENERGY PREDICTED BY IDOCK:    0.65 KCAL/MOL
REMARK 924 INTRA-LIGAND FREE ENERGY PREDICTED BY IDOCK:    0.78 KCAL/MOL
REMARK 927      BINDING AFFINITY PREDICTED BY RF-SCORE:    0.00 PKD
ROOT
HETATM    1  C   UNL     1      -7.251   7.842  68.964  1.00  0.00    -0.075 C  
HETATM    2  C   UNL     1      -7.176   6.547  68.154  1.00  0.00    -0.088 C  
HETATM    3  C   UNL     1      -7.631   7.436  70.457  1.00  0.00    -0.087 C  
HETATM    4  C   UNL     1      -7.862   8.563  71.470  1.00  0.00    -0.158 C  
HETATM    5  C   UNL     1      -8.591   6.316  67.660  1.00  0.00    -0.114 C  
HETATM    6  C   UNL     1      -6.511   6.615  71.075  1.00  0.00    -0.049 C  
HETATM    7  C   UNL     1      -9.398   7.633  67.806  1.00  0.00    -0.153 C  
HETATM    8  C   UNL     1      -6.638   5.416  71.671  1.00  0.00    -0.044 C  
HETATM    9  C   UNL     1     -10.260   7.876  66.554  1.00  0.00    -0.212 C  
HETATM   10  C   UNL     1      -5.451   4.742  72.328  1.00  0.00    -0.008 C  
HETATM   11  C   UNL     1     -10.817   6.961  65.724  1.00  0.00     2.537 C  
HETATM   12  C   UNL     1     -10.376   9.334  66.194  1.00  0.00    -0.118 C  
HETATM   13  C   UNL     1      -5.559   4.607  73.874  1.00  0.00    -0.013 C  
HETATM   14  C   UNL     1      -5.136   3.419  71.624  1.00  0.00     0.000 C  
HETATM   15  C   UNL     1      -5.919   5.944  74.541  1.00  0.00    -0.060 C  
HETATM   16  C   UNL     1      -9.013  10.004  66.025  1.00  0.00    -0.174 C  
HETATM   17  C   UNL     1      -8.635   9.966  68.955  1.00  0.00    -0.149 C  
HETATM   18  C   UNL     1      -6.519   3.523  74.374  1.00  0.00    -0.037 C  
HETATM   19  C   UNL     1      -7.837   9.273  66.742  1.00  0.00    -0.104 C  
HETATM   20  C   UNL     1      -8.286   8.712  68.131  1.00  0.00    -0.127 C  
ENDROOT
BRANCH  11  21
HETATM   21  C   UNL     1     -10.888   5.519  65.893  1.00  0.00     0.215 C  
HETATM   22  C   UNL     1     -10.251   3.113  65.607  1.00  0.00     0.707 C  
HETATM   23  C   UNL     1     -10.007   4.606  65.431  1.00  0.00    -0.167 C  
HETATM   24  C   UNL     1     -10.259   2.402  64.255  1.00  0.00     0.102 C  
HETATM   25  O   UNL     1     -11.406   2.774  63.485  1.00  0.00    -0.480 OA 
HETATM   26  C   UNL     1      -8.985   2.692  63.456  1.00  0.00    -0.092 C  
HETATM   27  H   UNL     1     -11.411   2.332  62.643  1.00  0.00     0.000 HD 
HETATM   28  C   UNL     1      -8.713   4.195  63.332  1.00  0.00    -0.112 C  
HETATM   29  O   UNL     1      -7.432   4.375  62.722  1.00  0.00    -0.047 OA 
HETATM   30  C   UNL     1      -8.769   4.884  64.694  1.00  0.00    -0.152 C  
HETATM   31  H   UNL     1      -7.264   5.307  62.645  1.00  0.00     0.000 HD 
HETATM   32  C   UNL     1      -7.785   5.633  65.215  1.00  0.00    -0.088 C  
ENDBRANCH  11  21
TORSDOF 1
ENDMDL
MODEL      113
REMARK 921   NORMALIZED FREE ENERGY PREDICTED BY IDOCK:    1.85 KCAL/MOL
REMARK 922        TOTAL FREE ENERGY PREDICTED BY IDOCK:    1.52 KCAL/MOL
REMARK 923 INTER-LIGAND FREE ENERGY PREDICTED BY IDOCK:   -2.34 KCAL/MOL
REMARK 924 INTRA-LIGAND FREE ENERGY PREDICTED BY IDOCK:    3.86 KCAL/MOL
REMARK 927      BINDING AFFINITY PREDICTED BY RF-SCORE:    0.00 PKD
ROOT
HETATM    1  C   UNL     1      -9.662  13.441  69.001  1.00  0.00     0.251 C  
HETATM    2  C   UNL     1     -11.058  13.720  68.443  1.00  0.00    -0.287 C  
HETATM    3  C   UNL     1      -8.697  14.572  68.425  1.00  0.00    -0.175 C  
HETATM    4  C   UNL     1      -7.204  14.477  68.759  1.00  0.00    -0.126 C  
HETATM    5  C   UNL     1     -11.099  12.988  67.115  1.00  0.00    -0.304 C  
HETATM    6  C   UNL     1      -9.106  15.931  68.969  1.00  0.00    -0.240 C  
HETATM    7  C   UNL     1      -9.937  11.962  67.069  1.00  0.00    -0.219 C  
HETATM    8  C   UNL     1      -9.355  17.037  68.243  1.00  0.00    -0.255 C  
HETATM    9  C   UNL     1     -10.422  10.626  66.479  1.00  0.00    -0.285 C  
HETATM   10  C   UNL     1      -9.667  18.358  68.917  1.00  0.00    -0.318 C  
HETATM   11  C   UNL     1     -11.400  10.414  65.565  1.00  0.00     1.157 C  
HETATM   12  C   UNL     1      -9.767   9.429  67.117  1.00  0.00    -0.225 C  
HETATM   13  C   UNL     1      -8.588  19.458  68.712  1.00  0.00    -0.371 C  
HETATM   14  C   UNL     1     -11.081  18.817  68.550  1.00  0.00     0.881 C  
HETATM   15  C   UNL     1      -7.178  18.947  69.048  1.00  0.00    -0.328 C  
HETATM   16  C   UNL     1      -9.927   9.415  68.636  1.00  0.00    -0.187 C  
HETATM   17  C   UNL     1      -7.938  11.589  68.861  1.00  0.00    -0.057 C  
HETATM   18  C   UNL     1      -8.568  20.109  67.326  1.00  0.00    -0.414 C  
HETATM   19  C   UNL     1     -10.226  10.807  69.270  1.00  0.00    -0.217 C  
HETATM   20  C   UNL     1      -9.408  11.936  68.562  1.00  0.00    -0.142 C  
ENDROOT
BRANCH  11  21
HETATM   21  C   UNL     1     -12.124  11.399  64.779  1.00  0.00     0.511 C  
HETATM   22  C   UNL     1     -12.552  13.563  63.591  1.00  0.00    -0.121 C  
HETATM   23  C   UNL     1     -11.653  12.584  64.335  1.00  0.00    -0.419 C  
HETATM   24  C   UNL     1     -12.591  14.914  64.305  1.00  0.00     0.025 C  
HETATM   25  O   UNL     1     -13.277  14.815  65.557  1.00  0.00    -0.222 OA 
HETATM   26  C   UNL     1     -11.183  15.474  64.531  1.00  0.00    -0.327 C  
HETATM   27  H   UNL     1     -13.301  15.655  66.001  1.00  0.00     0.000 HD 
HETATM   28  C   UNL     1     -10.266  14.463  65.228  1.00  0.00    -0.389 C  
HETATM   29  O   UNL     1      -8.939  14.997  65.252  1.00  0.00     0.124 OA 
HETATM   30  C   UNL     1     -10.295  13.108  64.523  1.00  0.00    -0.389 C  
HETATM   31  H   UNL     1      -8.371  14.370  65.684  1.00  0.00     0.000 HD 
HETATM   32  C   UNL     1      -9.213  12.459  64.064  1.00  0.00     0.729 C  
ENDBRANCH  11  21
TORSDOF 1
ENDMDL
MODEL      114
REMARK 921   NORMALIZED FREE ENERGY PREDICTED BY IDOCK:    2.97 KCAL/MOL
REMARK 922        TOTAL FREE ENERGY PREDICTED BY IDOCK:    2.70 KCAL/MOL
REMARK 923 INTER-LIGAND FREE ENERGY PREDICTED BY IDOCK:    2.33 KCAL/MOL
REMARK 924 INTRA-LIGAND FREE ENERGY PREDICTED BY IDOCK:    0.37 KCAL/MOL
REMARK 927      BINDING AFFINITY PREDICTED BY RF-SCORE:    0.00 PKD
ROOT
HETATM    1  C   UNL     1     -11.307  12.884  69.187  1.00  0.00    -0.329 C  
HETATM    2  C   UNL     1     -10.069  13.023  70.073  1.00  0.00     2.222 C  
HETATM    3  C   UNL     1     -11.516  11.326  68.921  1.00  0.00    -0.363 C  
HETATM    4  C   UNL     1     -12.647  10.906  67.976  1.00  0.00     2.391 C  
HETATM    5  C   UNL     1      -8.904  13.099  69.104  1.00  0.00     0.668 C  
HETATM    6  C   UNL     1     -11.846  10.616  70.223  1.00  0.00    -0.430 C  
HETATM    7  C   UNL     1      -9.447  13.421  67.687  1.00  0.00    -0.216 C  
HETATM    8  C   UNL     1     -11.223   9.531  70.719  1.00  0.00    -0.383 C  
HETATM    9  C   UNL     1      -8.560  14.473  66.998  1.00  0.00    -0.241 C  
HETATM   10  C   UNL     1     -11.710   8.864  71.989  1.00  0.00    -0.438 C  
HETATM   11  C   UNL     1      -7.231  14.689  67.157  1.00  0.00     0.085 C  
HETATM   12  C   UNL     1      -9.341  15.423  66.130  1.00  0.00    -0.367 C  
HETATM   13  C   UNL     1     -12.281   7.431  71.786  1.00  0.00    -0.359 C  
HETATM   14  C   UNL     1     -10.633   8.941  73.074  1.00  0.00     1.199 C  
HETATM   15  C   UNL     1     -13.326   7.385  70.661  1.00  0.00     0.369 C  
HETATM   16  C   UNL     1     -10.471  16.116  66.890  1.00  0.00    -0.300 C  
HETATM   17  C   UNL     1     -12.023  13.601  66.863  1.00  0.00    -0.454 C  
HETATM   18  C   UNL     1     -11.238   6.336  71.548  1.00  0.00    -0.344 C  
HETATM   19  C   UNL     1     -10.941  15.368  68.175  1.00  0.00    -0.297 C  
HETATM   20  C   UNL     1     -10.956  13.820  67.953  1.00  0.00    -0.270 C  
ENDROOT
BRANCH  11  21
HETATM   21  C   UNL     1      -6.270  13.879  67.886  1.00  0.00    -0.164 C  
HETATM   22  C   UNL     1      -5.132  11.804  68.711  1.00  0.00    -0.046 C  
HETATM   23  C   UNL     1      -6.130  12.538  67.823  1.00  0.00    -0.119 C  
HETATM   24  C   UNL     1      -5.837  10.747  69.559  1.00  0.00    -0.043 C  
HETATM   25  O   UNL     1      -6.680  11.354  70.543  1.00  0.00    -0.488 OA 
HETATM   26  C   UNL     1      -6.662   9.787  68.695  1.00  0.00    -0.051 C  
HETATM   27  H   UNL     1      -7.119  10.696  71.070  1.00  0.00     0.000 HD 
HETATM   28  C   UNL     1      -7.622  10.532  67.761  1.00  0.00    -0.088 C  
HETATM   29  O   UNL     1      -8.228   9.581  66.882  1.00  0.00    -0.112 OA 
HETATM   30  C   UNL     1      -6.896  11.620  66.972  1.00  0.00    -0.144 C  
HETATM   31  H   UNL     1      -8.823  10.044  66.303  1.00  0.00     0.000 HD 
HETATM   32  C   UNL     1      -6.897  11.725  65.633  1.00  0.00     1.445 C  
ENDBRANCH  11  21
TORSDOF 1
ENDMDL
MODEL      115
REMARK 921   NORMALIZED FREE ENERGY PREDICTED BY IDOCK:    2.97 KCAL/MOL
REMARK 922        TOTAL FREE ENERGY PREDICTED BY IDOCK:    2.71 KCAL/MOL
REMARK 923 INTER-LIGAND FREE ENERGY PREDICTED BY IDOCK:    3.16 KCAL/MOL
REMARK 924 INTRA-LIGAND FREE ENERGY PREDICTED BY IDOCK:   -0.46 KCAL/MOL
REMARK 927      BINDING AFFINITY PREDICTED BY RF-SCORE:    0.00 PKD
ROOT
HETATM    1  C   UNL     1      -9.828  13.923  66.622  1.00  0.00    -0.288 C  
HETATM    2  C   UNL     1      -8.509  13.345  66.108  1.00  0.00     0.905 C  
HETATM    3  C   UNL     1      -9.516  14.628  68.017  1.00  0.00    -0.207 C  
HETATM    4  C   UNL     1     -10.693  15.218  68.801  1.00  0.00    -0.241 C  
HETATM    5  C   UNL     1      -8.430  11.958  66.717  1.00  0.00    -0.167 C  
HETATM    6  C   UNL     1      -8.589  15.813  67.805  1.00  0.00    -0.164 C  
HETATM    7  C   UNL     1      -9.837  11.551  67.229  1.00  0.00    -0.208 C  
HETATM    8  C   UNL     1      -7.432  16.045  68.452  1.00  0.00    -0.143 C  
HETATM    9  C   UNL     1     -10.141  10.088  66.860  1.00  0.00    -0.287 C  
HETATM   10  C   UNL     1      -6.644  17.316  68.210  1.00  0.00    -0.171 C  
HETATM   11  C   UNL     1      -9.272   9.058  66.715  1.00  0.00    -0.198 C  
HETATM   12  C   UNL     1     -11.590   9.855  66.523  1.00  0.00     2.057 C  
HETATM   13  C   UNL     1      -6.571  18.273  69.434  1.00  0.00    -0.213 C  
HETATM   14  C   UNL     1      -5.272  16.983  67.616  1.00  0.00    -0.137 C  
HETATM   15  C   UNL     1      -7.961  18.549  70.028  1.00  0.00     1.502 C  
HETATM   16  C   UNL     1     -12.090  10.784  65.417  1.00  0.00     2.829 C  
HETATM   17  C   UNL     1     -12.098  13.042  67.324  1.00  0.00    -0.304 C  
HETATM   18  C   UNL     1      -5.624  17.836  70.555  1.00  0.00    -0.179 C  
HETATM   19  C   UNL     1     -11.248  12.084  65.232  1.00  0.00    -0.374 C  
HETATM   20  C   UNL     1     -10.788  12.657  66.613  1.00  0.00    -0.286 C  
ENDROOT
BRANCH  11  21
HETATM   21  C   UNL     1      -7.855   9.025  67.036  1.00  0.00    -0.098 C  
HETATM   22  C   UNL     1      -5.537   8.092  67.220  1.00  0.00    -0.038 C  
HETATM   23  C   UNL     1      -6.984   8.035  66.747  1.00  0.00    -0.073 C  
HETATM   24  C   UNL     1      -5.194   6.867  68.066  1.00  0.00    -0.015 C  
HETATM   25  O   UNL     1      -5.889   6.895  69.317  1.00  0.00    -0.017 OA 
HETATM   26  C   UNL     1      -5.513   5.563  67.329  1.00  0.00    -0.012 C  
HETATM   27  H   UNL     1      -5.676   6.133  69.844  1.00  0.00     0.000 HD 
HETATM   28  C   UNL     1      -6.953   5.535  66.804  1.00  0.00    -0.065 C  
HETATM   29  O   UNL     1      -7.117   4.369  65.993  1.00  0.00    -0.068 OA 
HETATM   30  C   UNL     1      -7.279   6.800  66.011  1.00  0.00    -0.067 C  
HETATM   31  H   UNL     1      -8.009   4.352  65.668  1.00  0.00     0.000 HD 
HETATM   32  C   UNL     1      -7.744   6.816  64.752  1.00  0.00    -0.111 C  
ENDBRANCH  11  21
TORSDOF 1
ENDMDL
MODEL      116
REMARK 921   NORMALIZED FREE ENERGY PREDICTED BY IDOCK:    3.09 KCAL/MOL
REMARK 922        TOTAL FREE ENERGY PREDICTED BY IDOCK:    2.83 KCAL/MOL
REMARK 923 INTER-LIGAND FREE ENERGY PREDICTED BY IDOCK:    2.97 KCAL/MOL
REMARK 924 INTRA-LIGAND FREE ENERGY PREDICTED BY IDOCK:   -0.14 KCAL/MOL
REMARK 927      BINDING AFFINITY PREDICTED BY RF-SCORE:    0.00 PKD
ROOT
HETATM    1  C   UNL     1      -6.552  12.051  68.546  1.00  0.00    -0.062 C  
HETATM    2  C   UNL     1      -7.237  12.526  69.828  1.00  0.00     0.674 C  
HETATM    3  C   UNL     1      -6.769  13.191  67.453  1.00  0.00    -0.107 C  
HETATM    4  C   UNL     1      -6.255  12.929  66.033  1.00  0.00     4.046 C  
HETATM    5  C   UNL     1      -8.670  12.044  69.704  1.00  0.00     1.687 C  
HETATM    6  C   UNL     1      -6.045  14.459  67.874  1.00  0.00    -0.161 C  
HETATM    7  C   UNL     1      -8.744  10.959  68.597  1.00  0.00    -0.154 C  
HETATM    8  C   UNL     1      -6.580  15.691  67.960  1.00  0.00    -0.152 C  
HETATM    9  C   UNL     1      -9.632   9.788  69.051  1.00  0.00    -0.177 C  
HETATM   10  C   UNL     1      -5.723  16.891  68.307  1.00  0.00    -0.126 C  
HETATM   11  C   UNL     1     -10.697   9.813  69.890  1.00  0.00    -0.303 C  
HETATM   12  C   UNL     1      -9.143   8.452  68.556  1.00  0.00    -0.136 C  
HETATM   13  C   UNL     1      -5.570  17.929  67.159  1.00  0.00    -0.155 C  
HETATM   14  C   UNL     1      -6.191  17.511  69.627  1.00  0.00    -0.227 C  
HETATM   15  C   UNL     1      -5.142  17.264  65.841  1.00  0.00     0.095 C  
HETATM   16  C   UNL     1      -7.689   8.182  68.941  1.00  0.00    -0.103 C  
HETATM   17  C   UNL     1      -6.792  10.130  66.909  1.00  0.00    -0.084 C  
HETATM   18  C   UNL     1      -6.794  18.810  66.901  1.00  0.00    -0.211 C  
HETATM   19  C   UNL     1      -6.856   9.459  69.267  1.00  0.00    -0.049 C  
HETATM   20  C   UNL     1      -7.223  10.632  68.300  1.00  0.00    -0.083 C  
ENDROOT
BRANCH  11  21
HETATM   21  C   UNL     1     -11.379  10.971  70.441  1.00  0.00    -0.222 C  
HETATM   22  C   UNL     1     -12.463  13.231  70.475  1.00  0.00    -0.332 C  
HETATM   23  C   UNL     1     -11.840  12.040  69.756  1.00  0.00    -0.401 C  
HETATM   24  C   UNL     1     -11.716  14.520  70.135  1.00  0.00    -0.297 C  
HETATM   25  O   UNL     1     -10.403  14.519  70.703  1.00  0.00    -0.056 OA 
HETATM   26  C   UNL     1     -11.623  14.738  68.621  1.00  0.00    -0.345 C  
HETATM   27  H   UNL     1      -9.938  15.321  70.492  1.00  0.00     0.000 HD 
HETATM   28  C   UNL     1     -11.050  13.515  67.897  1.00  0.00    -0.265 C  
HETATM   29  O   UNL     1     -11.150  13.734  66.488  1.00  0.00    -0.300 OA 
HETATM   30  C   UNL     1     -11.781  12.236  68.303  1.00  0.00    -0.392 C  
HETATM   31  H   UNL     1     -10.795  12.976  66.040  1.00  0.00     0.000 HD 
HETATM   32  C   UNL     1     -12.365  11.382  67.447  1.00  0.00     1.367 C  
ENDBRANCH  11  21
TORSDOF 1
ENDMDL
MODEL      117
REMARK 921   NORMALIZED FREE ENERGY PREDICTED BY IDOCK:    3.31 KCAL/MOL
REMARK 922        TOTAL FREE ENERGY PREDICTED BY IDOCK:    3.06 KCAL/MOL
REMARK 923 INTER-LIGAND FREE ENERGY PREDICTED BY IDOCK:    3.21 KCAL/MOL
REMARK 924 INTRA-LIGAND FREE ENERGY PREDICTED BY IDOCK:   -0.15 KCAL/MOL
REMARK 927      BINDING AFFINITY PREDICTED BY RF-SCORE:    0.00 PKD
ROOT
HETATM    1  C   UNL     1     -10.121   7.103  70.014  1.00  0.00    -0.194 C  
HETATM    2  C   UNL     1      -8.859   7.947  69.827  1.00  0.00    -0.141 C  
HETATM    3  C   UNL     1     -10.108   5.989  68.874  1.00  0.00    -0.220 C  
HETATM    4  C   UNL     1     -11.317   5.052  68.774  1.00  0.00     2.461 C  
HETATM    5  C   UNL     1      -9.261   9.035  68.849  1.00  0.00    -0.140 C  
HETATM    6  C   UNL     1      -8.934   5.046  69.082  1.00  0.00    -0.130 C  
HETATM    7  C   UNL     1     -10.810   9.101  68.777  1.00  0.00    -0.096 C  
HETATM    8  C   UNL     1      -8.007   4.714  68.165  1.00  0.00    -0.084 C  
HETATM    9  C   UNL     1     -11.285  10.565  68.779  1.00  0.00    -0.317 C  
HETATM   10  C   UNL     1      -6.935   3.689  68.475  1.00  0.00    -0.050 C  
HETATM   11  C   UNL     1     -10.649  11.658  68.293  1.00  0.00    -0.232 C  
HETATM   12  C   UNL     1     -12.578  10.762  69.526  1.00  0.00     0.055 C  
HETATM   13  C   UNL     1      -7.040   2.376  67.647  1.00  0.00    -0.048 C  
HETATM   14  C   UNL     1      -5.549   4.337  68.413  1.00  0.00    -0.016 C  
HETATM   15  C   UNL     1      -8.455   1.779  67.697  1.00  0.00    -0.093 C  
HETATM   16  C   UNL     1     -12.513  10.235  70.958  1.00  0.00    -0.484 C  
HETATM   17  C   UNL     1     -12.629   7.463  69.939  1.00  0.00     1.151 C  
HETATM   18  C   UNL     1      -6.592   2.482  66.187  1.00  0.00    -0.032 C  
HETATM   19  C   UNL     1     -11.403   9.168  71.207  1.00  0.00    -0.406 C  
HETATM   20  C   UNL     1     -11.274   8.195  69.989  1.00  0.00    -0.084 C  
ENDROOT
BRANCH  11  21
HETATM   21  C   UNL     1      -9.437  11.712  67.494  1.00  0.00    -0.173 C  
HETATM   22  C   UNL     1      -7.011  12.068  66.975  1.00  0.00    -0.095 C  
HETATM   23  C   UNL     1      -8.185  11.954  67.939  1.00  0.00    -0.150 C  
HETATM   24  C   UNL     1      -6.314  13.419  67.127  1.00  0.00     0.483 C  
HETATM   25  O   UNL     1      -7.150  14.484  66.662  1.00  0.00    -0.073 OA 
HETATM   26  C   UNL     1      -5.902  13.683  68.578  1.00  0.00    -0.092 C  
HETATM   27  H   UNL     1      -6.716  15.324  66.756  1.00  0.00     0.000 HD 
HETATM   28  C   UNL     1      -7.074  13.510  69.551  1.00  0.00     0.193 C  
HETATM   29  O   UNL     1      -6.573  13.611  70.886  1.00  0.00    -0.394 OA 
HETATM   30  C   UNL     1      -7.783  12.175  69.334  1.00  0.00     0.509 C  
HETATM   31  H   UNL     1      -7.300  13.503  71.489  1.00  0.00     0.000 HD 
HETATM   32  C   UNL     1      -7.990  11.253  70.287  1.00  0.00     2.105 C  
ENDBRANCH  11  21
TORSDOF 1
ENDMDL
MODEL      118
REMARK 921   NORMALIZED FREE ENERGY PREDICTED BY IDOCK:    3.34 KCAL/MOL
REMARK 922        TOTAL FREE ENERGY PREDICTED BY IDOCK:    3.09 KCAL/MOL
REMARK 923 INTER-LIGAND FREE ENERGY PREDICTED BY IDOCK:    3.78 KCAL/MOL
REMARK 924 INTRA-LIGAND FREE ENERGY PREDICTED BY IDOCK:   -0.68 KCAL/MOL
REMARK 927      BINDING AFFINITY PREDICTED BY RF-SCORE:    0.00 PKD
ROOT
HETATM    1  C   UNL     1     -12.544   9.765  69.215  1.00  0.00     1.591 C  
HETATM    2  C   UNL     1     -11.659   8.633  68.691  1.00  0.00     1.246 C  
HETATM    3  C   UNL     1     -11.946  11.126  68.641  1.00  0.00    -0.289 C  
HETATM    4  C   UNL     1     -12.596  12.440  69.089  1.00  0.00     0.626 C  
HETATM    5  C   UNL     1     -10.549   8.502  69.717  1.00  0.00    -0.224 C  
HETATM    6  C   UNL     1     -12.075  11.154  67.127  1.00  0.00     1.052 C  
HETATM    7  C   UNL     1     -10.976   9.230  71.018  1.00  0.00    -0.390 C  
HETATM    8  C   UNL     1     -11.087  11.397  66.247  1.00  0.00    -0.281 C  
HETATM    9  C   UNL     1     -10.610   8.385  72.251  1.00  0.00    -0.412 C  
HETATM   10  C   UNL     1     -11.369  11.485  64.761  1.00  0.00    -0.206 C  
HETATM   11  C   UNL     1      -9.582   7.514  72.402  1.00  0.00    -0.205 C  
HETATM   12  C   UNL     1     -11.620   8.499  73.363  1.00  0.00     1.633 C  
HETATM   13  C   UNL     1     -11.154  12.897  64.145  1.00  0.00    -0.438 C  
HETATM   14  C   UNL     1     -10.623  10.376  64.014  1.00  0.00     0.479 C  
HETATM   15  C   UNL     1     -11.882  13.987  64.946  1.00  0.00    -0.402 C  
HETATM   16  C   UNL     1     -13.037   8.160  72.902  1.00  0.00     0.367 C  
HETATM   17  C   UNL     1     -13.182  10.739  71.466  1.00  0.00    -0.434 C  
HETATM   18  C   UNL     1      -9.694  13.311  63.946  1.00  0.00     1.317 C  
HETATM   19  C   UNL     1     -13.269   8.289  71.366  1.00  0.00    -0.241 C  
HETATM   20  C   UNL     1     -12.513   9.530  70.785  1.00  0.00    -0.195 C  
ENDROOT
BRANCH  11  21
HETATM   21  C   UNL     1      -8.464   7.281  71.504  1.00  0.00    -0.113 C  
HETATM   22  C   UNL     1      -6.749   5.982  70.219  1.00  0.00    -0.049 C  
HETATM   23  C   UNL     1      -7.989   6.084  71.098  1.00  0.00    -0.116 C  
HETATM   24  C   UNL     1      -5.679   5.120  70.889  1.00  0.00    -0.016 C  
HETATM   25  O   UNL     1      -5.141   5.774  72.042  1.00  0.00    -0.015 OA 
HETATM   26  C   UNL     1      -6.226   3.745  71.284  1.00  0.00    -0.015 C  
HETATM   27  H   UNL     1      -4.475   5.238  72.459  1.00  0.00     0.000 HD 
HETATM   28  C   UNL     1      -7.507   3.852  72.119  1.00  0.00    -0.065 C  
HETATM   29  O   UNL     1      -8.039   2.538  72.304  1.00  0.00    -0.053 OA 
HETATM   30  C   UNL     1      -8.532   4.766  71.449  1.00  0.00    -0.113 C  
HETATM   31  H   UNL     1      -8.833   2.605  72.821  1.00  0.00     0.000 HD 
HETATM   32  C   UNL     1      -9.793   4.415  71.152  1.00  0.00    -0.258 C  
ENDBRANCH  11  21
TORSDOF 1
ENDMDL
MODEL      119
REMARK 921   NORMALIZED FREE ENERGY PREDICTED BY IDOCK:    3.96 KCAL/MOL
REMARK 922        TOTAL FREE ENERGY PREDICTED BY IDOCK:    3.75 KCAL/MOL
REMARK 923 INTER-LIGAND FREE ENERGY PREDICTED BY IDOCK:    4.75 KCAL/MOL
REMARK 924 INTRA-LIGAND FREE ENERGY PREDICTED BY IDOCK:   -1.00 KCAL/MOL
REMARK 927      BINDING AFFINITY PREDICTED BY RF-SCORE:    0.00 PKD
ROOT
HETATM    1  C   UNL     1     -11.128   7.731  69.952  1.00  0.00    -0.142 C  
HETATM    2  C   UNL     1     -10.276   8.405  71.029  1.00  0.00    -0.245 C  
HETATM    3  C   UNL     1     -10.267   6.525  69.366  1.00  0.00    -0.214 C  
HETATM    4  C   UNL     1     -10.855   5.728  68.196  1.00  0.00    -0.249 C  
HETATM    5  C   UNL     1      -9.455   9.440  70.283  1.00  0.00    -0.294 C  
HETATM    6  C   UNL     1     -10.040   5.477  70.442  1.00  0.00    -0.297 C  
HETATM    7  C   UNL     1     -10.088   9.675  68.886  1.00  0.00    -0.198 C  
HETATM    8  C   UNL     1      -8.854   4.960  70.813  1.00  0.00    -0.154 C  
HETATM    9  C   UNL     1     -10.113  11.178  68.555  1.00  0.00    -0.208 C  
HETATM   10  C   UNL     1      -8.774   3.851  71.843  1.00  0.00    -0.120 C  
HETATM   11  C   UNL     1      -9.250  12.144  68.955  1.00  0.00     0.217 C  
HETATM   12  C   UNL     1     -11.334  11.588  67.774  1.00  0.00    -0.364 C  
HETATM   13  C   UNL     1      -8.268   2.489  71.286  1.00  0.00    -0.071 C  
HETATM   14  C   UNL     1      -8.002   4.328  73.076  1.00  0.00    -0.090 C  
HETATM   15  C   UNL     1      -9.036   2.065  70.025  1.00  0.00    -0.165 C  
HETATM   16  C   UNL     1     -12.635  11.188  68.469  1.00  0.00     1.104 C  
HETATM   17  C   UNL     1     -12.159   8.367  67.726  1.00  0.00     4.637 C  
HETATM   18  C   UNL     1      -6.765   2.411  71.007  1.00  0.00    -0.031 C  
HETATM   19  C   UNL     1     -12.489  10.028  69.500  1.00  0.00     0.535 C  
HETATM   20  C   UNL     1     -11.488   8.941  68.988  1.00  0.00     0.609 C  
ENDROOT
BRANCH  11  21
HETATM   21  C   UNL     1      -7.987  11.986  69.655  1.00  0.00     1.151 C  
HETATM   22  C   UNL     1      -5.661  11.164  70.094  1.00  0.00    -0.101 C  
HETATM   23  C   UNL     1      -6.895  11.325  69.215  1.00  0.00    -0.116 C  
HETATM   24  C   UNL     1      -5.319   9.687  70.283  1.00  0.00    -0.040 C  
HETATM   25  O   UNL     1      -6.308   9.028  71.081  1.00  0.00    -0.053 OA 
HETATM   26  C   UNL     1      -5.175   8.963  68.940  1.00  0.00    -0.037 C  
HETATM   27  H   UNL     1      -6.095   8.109  71.199  1.00  0.00     0.000 HD 
HETATM   28  C   UNL     1      -6.395   9.177  68.037  1.00  0.00    -0.055 C  
HETATM   29  O   UNL     1      -6.113   8.613  66.754  1.00  0.00    -0.055 OA 
HETATM   30  C   UNL     1      -6.744  10.659  67.916  1.00  0.00    -0.064 C  
HETATM   31  H   UNL     1      -6.869   8.745  66.194  1.00  0.00     0.000 HD 
HETATM   32  C   UNL     1      -6.858  11.327  66.757  1.00  0.00    -0.140 C  
ENDBRANCH  11  21
TORSDOF 1
ENDMDL
MODEL      120
REMARK 921   NORMALIZED FREE ENERGY PREDICTED BY IDOCK:    4.76 KCAL/MOL
REMARK 922        TOTAL FREE ENERGY PREDICTED BY IDOCK:    4.60 KCAL/MOL
REMARK 923 INTER-LIGAND FREE ENERGY PREDICTED BY IDOCK:    5.24 KCAL/MOL
REMARK 924 INTRA-LIGAND FREE ENERGY PREDICTED BY IDOCK:   -0.65 KCAL/MOL
REMARK 927      BINDING AFFINITY PREDICTED BY RF-SCORE:    0.00 PKD
ROOT
HETATM    1  C   UNL     1      -8.604  12.876  65.907  1.00  0.00     0.910 C  
HETATM    2  C   UNL     1      -7.442  12.083  66.506  1.00  0.00     0.225 C  
HETATM    3  C   UNL     1      -9.109  13.885  67.034  1.00  0.00    -0.259 C  
HETATM    4  C   UNL     1     -10.338  14.746  66.726  1.00  0.00    -0.268 C  
HETATM    5  C   UNL     1      -8.093  10.894  67.187  1.00  0.00    -0.127 C  
HETATM    6  C   UNL     1      -8.022  14.899  67.349  1.00  0.00    -0.223 C  
HETATM    7  C   UNL     1      -9.545  10.744  66.661  1.00  0.00    -0.208 C  
HETATM    8  C   UNL     1      -7.537  15.194  68.568  1.00  0.00    -0.120 C  
HETATM    9  C   UNL     1      -9.867   9.265  66.385  1.00  0.00    -0.347 C  
HETATM   10  C   UNL     1      -6.513  16.296  68.755  1.00  0.00    -0.128 C  
HETATM   11  C   UNL     1      -9.374   8.166  67.007  1.00  0.00    -0.197 C  
HETATM   12  C   UNL     1     -10.765   9.071  65.192  1.00  0.00     3.437 C  
HETATM   13  C   UNL     1      -7.025  17.523  69.561  1.00  0.00     0.000 C  
HETATM   14  C   UNL     1      -5.204  15.715  69.298  1.00  0.00    -0.100 C  
HETATM   15  C   UNL     1      -8.360  18.050  69.015  1.00  0.00    -0.027 C  
HETATM   16  C   UNL     1     -10.208   9.725  63.928  1.00  0.00     1.318 C  
HETATM   17  C   UNL     1     -10.920  12.386  64.999  1.00  0.00    -0.336 C  
HETATM   18  C   UNL     1      -7.151  17.311  71.072  1.00  0.00     4.057 C  
HETATM   19  C   UNL     1      -9.175  10.864  64.189  1.00  0.00    -0.216 C  
HETATM   20  C   UNL     1      -9.592  11.730  65.422  1.00  0.00    -0.210 C  
ENDROOT
BRANCH  11  21
HETATM   21  C   UNL     1      -8.550   8.102  68.202  1.00  0.00    -0.129 C  
HETATM   22  C   UNL     1      -7.926   7.558  70.567  1.00  0.00    -0.098 C  
HETATM   23  C   UNL     1      -8.849   7.471  69.357  1.00  0.00    -0.136 C  
HETATM   24  C   UNL     1      -8.671   8.119  71.777  1.00  0.00    -0.151 C  
HETATM   25  O   UNL     1      -8.997   9.499  71.586  1.00  0.00    -0.233 OA 
HETATM   26  C   UNL     1      -9.947   7.324  72.075  1.00  0.00    -0.184 C  
HETATM   27  H   UNL     1      -9.460   9.848  72.339  1.00  0.00     0.000 HD 
HETATM   28  C   UNL     1     -10.843   7.190  70.839  1.00  0.00    -0.244 C  
HETATM   29  O   UNL     1     -11.920   6.304  71.155  1.00  0.00    -0.270 OA 
HETATM   30  C   UNL     1     -10.055   6.682  69.633  1.00  0.00    -0.202 C  
HETATM   31  H   UNL     1     -12.476   6.221  70.389  1.00  0.00     0.000 HD 
HETATM   32  C   UNL     1     -10.377   5.598  68.909  1.00  0.00    -0.295 C  
ENDBRANCH  11  21
TORSDOF 1
ENDMDL
MODEL      121
REMARK 921   NORMALIZED FREE ENERGY PREDICTED BY IDOCK:    4.88 KCAL/MOL
REMARK 922        TOTAL FREE ENERGY PREDICTED BY IDOCK:    4.72 KCAL/MOL
REMARK 923 INTER-LIGAND FREE ENERGY PREDICTED BY IDOCK:    2.63 KCAL/MOL
REMARK 924 INTRA-LIGAND FREE ENERGY PREDICTED BY IDOCK:    2.09 KCAL/MOL
REMARK 927      BINDING AFFINITY PREDICTED BY RF-SCORE:    0.00 PKD
ROOT
HETATM    1  C   UNL     1      -7.806  11.610  66.551  1.00  0.00    -0.025 C  
HETATM    2  C   UNL     1      -8.146  12.201  67.919  1.00  0.00    -0.153 C  
HETATM    3  C   UNL     1      -9.148  11.628  65.690  1.00  0.00    -0.088 C  
HETATM    4  C   UNL     1      -9.110  11.002  64.291  1.00  0.00    -0.116 C  
HETATM    5  C   UNL     1      -8.616  11.019  68.747  1.00  0.00    -0.144 C  
HETATM    6  C   UNL     1      -9.583  13.062  65.435  1.00  0.00     0.079 C  
HETATM    7  C   UNL     1      -8.176   9.706  68.046  1.00  0.00    -0.110 C  
HETATM    8  C   UNL     1     -10.799  13.581  65.684  1.00  0.00    -0.292 C  
HETATM    9  C   UNL     1      -7.630   8.704  69.079  1.00  0.00    -0.090 C  
HETATM   10  C   UNL     1     -11.131  15.009  65.298  1.00  0.00    -0.391 C  
HETATM   11  C   UNL     1      -7.978   8.561  70.381  1.00  0.00    -0.099 C  
HETATM   12  C   UNL     1      -6.490   7.876  68.547  1.00  0.00    -0.053 C  
HETATM   13  C   UNL     1     -12.205  15.142  64.181  1.00  0.00    -0.182 C  
HETATM   14  C   UNL     1     -11.449  15.834  66.548  1.00  0.00     0.252 C  
HETATM   15  C   UNL     1     -11.874  14.267  62.962  1.00  0.00     1.566 C  
HETATM   16  C   UNL     1      -5.349   8.733  68.001  1.00  0.00    -0.035 C  
HETATM   17  C   UNL     1      -6.987   9.394  65.631  1.00  0.00    -0.086 C  
HETATM   18  C   UNL     1     -13.646  14.868  64.618  1.00  0.00     2.183 C  
HETATM   19  C   UNL     1      -5.760  10.183  67.604  1.00  0.00    -0.045 C  
HETATM   20  C   UNL     1      -7.171  10.204  66.929  1.00  0.00    -0.092 C  
ENDROOT
BRANCH  11  21
HETATM   21  C   UNL     1      -9.073   9.198  71.093  1.00  0.00    -0.275 C  
HETATM   22  C   UNL     1     -11.333  10.221  71.443  1.00  0.00     0.018 C  
HETATM   23  C   UNL     1     -10.304   9.467  70.610  1.00  0.00    -0.369 C  
HETATM   24  C   UNL     1     -11.801  11.481  70.717  1.00  0.00    -0.070 C  
HETATM   25  O   UNL     1     -10.751  12.451  70.642  1.00  0.00     1.491 OA 
HETATM   26  C   UNL     1     -12.313  11.165  69.308  1.00  0.00    -0.170 C  
HETATM   27  H   UNL     1     -11.042  13.235  70.191  1.00  0.00     0.000 HD 
HETATM   28  C   UNL     1     -11.297  10.357  68.494  1.00  0.00    -0.220 C  
HETATM   29  O   UNL     1     -11.911   9.965  67.264  1.00  0.00     0.285 OA 
HETATM   30  C   UNL     1     -10.807   9.136  69.271  1.00  0.00    -0.150 C  
HETATM   31  H   UNL     1     -11.281   9.464  66.759  1.00  0.00     0.000 HD 
HETATM   32  C   UNL     1     -10.863   7.871  68.826  1.00  0.00     0.009 C  
ENDBRANCH  11  21
TORSDOF 1
ENDMDL
MODEL      122
REMARK 921   NORMALIZED FREE ENERGY PREDICTED BY IDOCK:    5.44 KCAL/MOL
REMARK 922        TOTAL FREE ENERGY PREDICTED BY IDOCK:    5.32 KCAL/MOL
REMARK 923 INTER-LIGAND FREE ENERGY PREDICTED BY IDOCK:    4.94 KCAL/MOL
REMARK 924 INTRA-LIGAND FREE ENERGY PREDICTED BY IDOCK:    0.38 KCAL/MOL
REMARK 927      BINDING AFFINITY PREDICTED BY RF-SCORE:    0.00 PKD
ROOT
HETATM    1  C   UNL     1     -11.704  12.592  66.085  1.00  0.00    -0.461 C  
HETATM    2  C   UNL     1     -12.750  13.172  67.038  1.00  0.00     0.790 C  
HETATM    3  C   UNL     1     -10.633  11.823  66.982  1.00  0.00    -0.267 C  
HETATM    4  C   UNL     1      -9.413  11.218  66.279  1.00  0.00    -0.227 C  
HETATM    5  C   UNL     1     -12.203  14.530  67.435  1.00  0.00    -0.165 C  
HETATM    6  C   UNL     1     -11.286  10.635  67.667  1.00  0.00    -0.361 C  
HETATM    7  C   UNL     1     -11.087  14.936  66.437  1.00  0.00    -0.342 C  
HETATM    8  C   UNL     1     -11.254  10.357  68.983  1.00  0.00    -0.289 C  
HETATM    9  C   UNL     1     -11.228  16.418  66.047  1.00  0.00     0.320 C  
HETATM   10  C   UNL     1     -11.873   9.086  69.528  1.00  0.00     0.761 C  
HETATM   11  C   UNL     1     -11.725  17.440  66.785  1.00  0.00     1.935 C  
HETATM   12  C   UNL     1     -10.850  16.687  64.614  1.00  0.00     0.086 C  
HETATM   13  C   UNL     1     -10.851   8.075  70.124  1.00  0.00    -0.242 C  
HETATM   14  C   UNL     1     -13.022   9.423  70.482  1.00  0.00     0.271 C  
HETATM   15  C   UNL     1      -9.691   7.796  69.156  1.00  0.00    -0.161 C  
HETATM   16  C   UNL     1     -11.629  15.815  63.630  1.00  0.00     1.040 C  
HETATM   17  C   UNL     1     -10.005  13.477  64.425  1.00  0.00     0.134 C  
HETATM   18  C   UNL     1     -10.282   8.449  71.495  1.00  0.00    -0.294 C  
HETATM   19  C   UNL     1     -12.222  14.512  64.247  1.00  0.00    -0.441 C  
HETATM   20  C   UNL     1     -11.229  13.872  65.273  1.00  0.00    -0.313 C  
ENDROOT
BRANCH  11  21
HETATM   21  C   UNL     1     -12.094  17.437  68.190  1.00  0.00     2.212 C  
HETATM   22  C   UNL     1     -11.920  16.922  70.636  1.00  0.00     1.674 C  
HETATM   23  C   UNL     1     -11.372  16.936  69.215  1.00  0.00     0.272 C  
HETATM   24  C   UNL     1     -11.945  15.500  71.194  1.00  0.00    -0.382 C  
HETATM   25  O   UNL     1     -12.921  14.700  70.520  1.00  0.00    -0.464 OA 
HETATM   26  C   UNL     1     -10.571  14.829  71.095  1.00  0.00     0.695 C  
HETATM   27  H   UNL     1     -12.936  13.815  70.867  1.00  0.00     0.000 HD 
HETATM   28  C   UNL     1      -9.998  14.898  69.675  1.00  0.00    -0.022 C  
HETATM   29  O   UNL     1      -8.657  14.403  69.703  1.00  0.00    -0.287 OA 
HETATM   30  C   UNL     1     -10.041  16.323  69.126  1.00  0.00    -0.264 C  
HETATM   31  H   UNL     1      -8.302  14.446  68.823  1.00  0.00     0.000 HD 
HETATM   32  C   UNL     1      -8.980  16.994  68.651  1.00  0.00    -0.267 C  
ENDBRANCH  11  21
TORSDOF 1
ENDMDL
MODEL      123
REMARK 921   NORMALIZED FREE ENERGY PREDICTED BY IDOCK:    5.61 KCAL/MOL
REMARK 922        TOTAL FREE ENERGY PREDICTED BY IDOCK:    5.50 KCAL/MOL
REMARK 923 INTER-LIGAND FREE ENERGY PREDICTED BY IDOCK:    6.43 KCAL/MOL
REMARK 924 INTRA-LIGAND FREE ENERGY PREDICTED BY IDOCK:   -0.93 KCAL/MOL
REMARK 927      BINDING AFFINITY PREDICTED BY RF-SCORE:    0.00 PKD
ROOT
HETATM    1  C   UNL     1      -7.105   9.164  66.168  1.00  0.00    -0.087 C  
HETATM    2  C   UNL     1      -7.433   9.707  64.777  1.00  0.00    -0.122 C  
HETATM    3  C   UNL     1      -8.294   8.183  66.577  1.00  0.00    -0.113 C  
HETATM    4  C   UNL     1      -8.262   7.565  67.979  1.00  0.00    -0.124 C  
HETATM    5  C   UNL     1      -8.277  10.942  65.031  1.00  0.00     0.081 C  
HETATM    6  C   UNL     1      -8.319   6.981  65.649  1.00  0.00    -0.137 C  
HETATM    7  C   UNL     1      -8.110  11.370  66.513  1.00  0.00    -0.141 C  
HETATM    8  C   UNL     1      -9.383   6.528  64.961  1.00  0.00     0.857 C  
HETATM    9  C   UNL     1      -7.954  12.897  66.616  1.00  0.00     0.354 C  
HETATM   10  C   UNL     1      -9.297   5.259  64.137  1.00  0.00     0.430 C  
HETATM   11  C   UNL     1      -8.470  13.854  65.806  1.00  0.00     1.835 C  
HETATM   12  C   UNL     1      -7.011  13.319  67.711  1.00  0.00    -0.154 C  
HETATM   13  C   UNL     1     -10.171   4.086  64.665  1.00  0.00    -0.226 C  
HETATM   14  C   UNL     1      -9.531   5.572  62.656  1.00  0.00     0.630 C  
HETATM   15  C   UNL     1      -9.940   3.830  66.163  1.00  0.00     0.005 C  
HETATM   16  C   UNL     1      -5.636  12.664  67.584  1.00  0.00    -0.130 C  
HETATM   17  C   UNL     1      -6.779  10.098  68.502  1.00  0.00    -0.057 C  
HETATM   18  C   UNL     1     -11.674   4.216  64.405  1.00  0.00     1.538 C  
HETATM   19  C   UNL     1      -5.618  11.352  66.742  1.00  0.00    -0.129 C  
HETATM   20  C   UNL     1      -6.894  10.490  67.016  1.00  0.00    -0.087 C  
ENDROOT
BRANCH  11  21
HETATM   21  C   UNL     1      -9.438  13.698  64.734  1.00  0.00     0.811 C  
HETATM   22  C   UNL     1     -11.688  13.575  63.637  1.00  0.00    -0.298 C  
HETATM   23  C   UNL     1     -10.776  13.855  64.825  1.00  0.00    -0.437 C  
HETATM   24  C   UNL     1     -12.734  12.520  63.993  1.00  0.00    -0.318 C  
HETATM   25  O   UNL     1     -12.129  11.237  64.179  1.00  0.00    -0.067 OA 
HETATM   26  C   UNL     1     -13.521  12.906  65.250  1.00  0.00     1.333 C  
HETATM   27  H   UNL     1     -12.780  10.581  64.401  1.00  0.00     0.000 HD 
HETATM   28  C   UNL     1     -12.597  13.244  66.426  1.00  0.00     0.000 C  
HETATM   29  O   UNL     1     -13.397  13.749  67.499  1.00  0.00     1.630 OA 
HETATM   30  C   UNL     1     -11.528  14.257  66.020  1.00  0.00    -0.347 C  
HETATM   31  H   UNL     1     -12.824  13.958  68.228  1.00  0.00     0.000 HD 
HETATM   32  C   UNL     1     -11.306  15.427  66.639  1.00  0.00    -0.103 C  
ENDBRANCH  11  21
TORSDOF 1
ENDMDL
MODEL      124
REMARK 921   NORMALIZED FREE ENERGY PREDICTED BY IDOCK:    6.11 KCAL/MOL
REMARK 922        TOTAL FREE ENERGY PREDICTED BY IDOCK:    6.02 KCAL/MOL
REMARK 923 INTER-LIGAND FREE ENERGY PREDICTED BY IDOCK:    6.54 KCAL/MOL
REMARK 924 INTRA-LIGAND FREE ENERGY PREDICTED BY IDOCK:   -0.53 KCAL/MOL
REMARK 927      BINDING AFFINITY PREDICTED BY RF-SCORE:    0.00 PKD
ROOT
HETATM    1  C   UNL     1      -8.514  12.582  67.763  1.00  0.00    -0.171 C  
HETATM    2  C   UNL     1      -9.491  11.408  67.830  1.00  0.00    -0.167 C  
HETATM    3  C   UNL     1      -8.808  13.355  66.400  1.00  0.00     0.105 C  
HETATM    4  C   UNL     1      -7.900  14.535  66.035  1.00  0.00     2.594 C  
HETATM    5  C   UNL     1      -8.785  10.274  67.110  1.00  0.00    -0.131 C  
HETATM    6  C   UNL     1     -10.199  13.965  66.437  1.00  0.00    -0.292 C  
HETATM    7  C   UNL     1      -7.277  10.617  66.987  1.00  0.00    -0.101 C  
HETATM    8  C   UNL     1     -11.162  13.810  65.510  1.00  0.00    -0.303 C  
HETATM    9  C   UNL     1      -6.418   9.379  67.304  1.00  0.00    -0.070 C  
HETATM   10  C   UNL     1     -12.481  14.548  65.624  1.00  0.00    -0.238 C  
HETATM   11  C   UNL     1      -6.719   8.072  67.109  1.00  0.00    -0.065 C  
HETATM   12  C   UNL     1      -5.137   9.720  68.018  1.00  0.00    -0.032 C  
HETATM   13  C   UNL     1     -12.723  15.611  64.514  1.00  0.00     0.626 C  
HETATM   14  C   UNL     1     -13.634  13.552  65.773  1.00  0.00     1.699 C  
HETATM   15  C   UNL     1     -11.527  16.564  64.364  1.00  0.00     0.130 C  
HETATM   16  C   UNL     1      -5.375  10.527  69.294  1.00  0.00    -0.038 C  
HETATM   17  C   UNL     1      -6.002  12.911  67.663  1.00  0.00    -0.148 C  
HETATM   18  C   UNL     1     -13.093  15.051  63.138  1.00  0.00     3.100 C  
HETATM   19  C   UNL     1      -6.740  11.280  69.340  1.00  0.00    -0.123 C  
HETATM   20  C   UNL     1      -7.105  11.871  67.938  1.00  0.00    -0.093 C  
ENDROOT
BRANCH  11  21
HETATM   21  C   UNL     1      -7.853   7.507  66.398  1.00  0.00    -0.098 C  
HETATM   22  C   UNL     1      -9.089   6.010  64.813  1.00  0.00     0.458 C  
HETATM   23  C   UNL     1      -7.836   6.445  65.564  1.00  0.00    -0.103 C  
HETATM   24  C   UNL     1      -8.843   6.005  63.305  1.00  0.00     0.512 C  
HETATM   25  O   UNL     1      -8.677   7.336  62.807  1.00  0.00    -0.348 OA 
HETATM   26  C   UNL     1      -7.620   5.160  62.934  1.00  0.00    -0.064 C  
HETATM   27  H   UNL     1      -8.524   7.333  61.868  1.00  0.00     0.000 HD 
HETATM   28  C   UNL     1      -6.376   5.563  63.735  1.00  0.00    -0.022 C  
HETATM   29  O   UNL     1      -5.333   4.628  63.453  1.00  0.00    -0.009 OA 
HETATM   30  C   UNL     1      -6.673   5.614  65.233  1.00  0.00    -0.041 C  
HETATM   31  H   UNL     1      -4.562   4.878  63.949  1.00  0.00     0.000 HD 
HETATM   32  C   UNL     1      -5.990   4.941  66.172  1.00  0.00    -0.023 C  
ENDBRANCH  11  21
TORSDOF 1
ENDMDL
MODEL      125
REMARK 921   NORMALIZED FREE ENERGY PREDICTED BY IDOCK:    6.22 KCAL/MOL
REMARK 922        TOTAL FREE ENERGY PREDICTED BY IDOCK:    6.14 KCAL/MOL
REMARK 923 INTER-LIGAND FREE ENERGY PREDICTED BY IDOCK:    6.78 KCAL/MOL
REMARK 924 INTRA-LIGAND FREE ENERGY PREDICTED BY IDOCK:   -0.65 KCAL/MOL
REMARK 927      BINDING AFFINITY PREDICTED BY RF-SCORE:    0.00 PKD
ROOT
HETATM    1  C   UNL     1      -7.332   8.824  71.158  1.00  0.00    -0.106 C  
HETATM    2  C   UNL     1      -7.614   8.458  69.701  1.00  0.00    -0.089 C  
HETATM    3  C   UNL     1      -8.669   8.536  71.977  1.00  0.00    -0.265 C  
HETATM    4  C   UNL     1      -8.691   8.905  73.465  1.00  0.00     0.810 C  
HETATM    5  C   UNL     1      -8.185   9.722  69.087  1.00  0.00    -0.130 C  
HETATM    6  C   UNL     1      -8.975   7.048  71.967  1.00  0.00    -0.138 C  
HETATM    7  C   UNL     1      -7.865  10.923  70.016  1.00  0.00     0.636 C  
HETATM    8  C   UNL     1     -10.140   6.477  71.608  1.00  0.00    -0.202 C  
HETATM    9  C   UNL     1      -7.407  12.136  69.187  1.00  0.00     0.069 C  
HETATM   10  C   UNL     1     -10.345   4.981  71.729  1.00  0.00    -0.268 C  
HETATM   11  C   UNL     1      -7.763  12.478  67.925  1.00  0.00    -0.138 C  
HETATM   12  C   UNL     1      -6.347  12.953  69.878  1.00  0.00    -0.029 C  
HETATM   13  C   UNL     1     -11.406   4.558  72.785  1.00  0.00    -0.067 C  
HETATM   14  C   UNL     1     -10.585   4.366  70.347  1.00  0.00     0.598 C  
HETATM   15  C   UNL     1     -11.157   5.228  74.146  1.00  0.00     0.355 C  
HETATM   16  C   UNL     1      -5.136  12.115  70.285  1.00  0.00    -0.095 C  
HETATM   17  C   UNL     1      -6.714  10.903  72.470  1.00  0.00     4.535 C  
HETATM   18  C   UNL     1     -12.864   4.779  72.377  1.00  0.00     1.869 C  
HETATM   19  C   UNL     1      -5.417  10.587  70.412  1.00  0.00    -0.070 C  
HETATM   20  C   UNL     1      -6.823  10.324  71.046  1.00  0.00     0.483 C  
ENDROOT
BRANCH  11  21
HETATM   21  C   UNL     1      -8.795  11.885  67.091  1.00  0.00    -0.180 C  
HETATM   22  C   UNL     1     -10.923  11.749  65.774  1.00  0.00    -0.353 C  
HETATM   23  C   UNL     1      -9.867  12.514  66.562  1.00  0.00    -0.251 C  
HETATM   24  C   UNL     1     -12.305  11.932  66.399  1.00  0.00     1.103 C  
HETATM   25  O   UNL     1     -12.387  11.275  67.668  1.00  0.00    -0.166 OA 
HETATM   26  C   UNL     1     -12.661  13.413  66.561  1.00  0.00    -0.101 C  
HETATM   27  H   UNL     1     -13.247  11.389  68.056  1.00  0.00     0.000 HD 
HETATM   28  C   UNL     1     -11.568  14.190  67.304  1.00  0.00    -0.373 C  
HETATM   29  O   UNL     1     -11.898  15.581  67.267  1.00  0.00    -0.047 OA 
HETATM   30  C   UNL     1     -10.192  13.939  66.689  1.00  0.00    -0.276 C  
HETATM   31  H   UNL     1     -11.220  16.062  67.728  1.00  0.00     0.000 HD 
HETATM   32  C   UNL     1      -9.361  14.899  66.253  1.00  0.00    -0.329 C  
ENDBRANCH  11  21
TORSDOF 1
ENDMDL
MODEL      126
REMARK 921   NORMALIZED FREE ENERGY PREDICTED BY IDOCK:    6.79 KCAL/MOL
REMARK 922        TOTAL FREE ENERGY PREDICTED BY IDOCK:    6.75 KCAL/MOL
REMARK 923 INTER-LIGAND FREE ENERGY PREDICTED BY IDOCK:    5.43 KCAL/MOL
REMARK 924 INTRA-LIGAND FREE ENERGY PREDICTED BY IDOCK:    1.32 KCAL/MOL
REMARK 927      BINDING AFFINITY PREDICTED BY RF-SCORE:    0.00 PKD
ROOT
HETATM    1  C   UNL     1      -6.981  11.495  70.074  1.00  0.00     0.342 C  
HETATM    2  C   UNL     1      -8.189  11.287  70.989  1.00  0.00     6.037 C  
HETATM    3  C   UNL     1      -7.521  12.185  68.742  1.00  0.00    -0.075 C  
HETATM    4  C   UNL     1      -6.522  12.426  67.605  1.00  0.00    -0.130 C  
HETATM    5  C   UNL     1      -8.748   9.933  70.593  1.00  0.00     0.325 C  
HETATM    6  C   UNL     1      -8.058  13.571  69.055  1.00  0.00     0.244 C  
HETATM    7  C   UNL     1      -7.678   9.167  69.771  1.00  0.00    -0.082 C  
HETATM    8  C   UNL     1      -9.271  14.049  68.722  1.00  0.00    -0.050 C  
HETATM    9  C   UNL     1      -7.613   7.695  70.215  1.00  0.00    -0.089 C  
HETATM   10  C   UNL     1      -9.651  15.486  69.016  1.00  0.00    -0.238 C  
HETATM   11  C   UNL     1      -8.609   6.919  70.709  1.00  0.00    -0.144 C  
HETATM   12  C   UNL     1      -6.219   7.128  70.173  1.00  0.00    -0.027 C  
HETATM   13  C   UNL     1      -9.862  16.369  67.753  1.00  0.00    -0.239 C  
HETATM   14  C   UNL     1     -10.830  15.532  69.993  1.00  0.00    -0.330 C  
HETATM   15  C   UNL     1      -8.680  16.263  66.777  1.00  0.00    -0.264 C  
HETATM   16  C   UNL     1      -5.226   7.959  70.985  1.00  0.00    -0.026 C  
HETATM   17  C   UNL     1      -5.269  10.046  68.894  1.00  0.00    -0.035 C  
HETATM   18  C   UNL     1     -11.166  16.124  66.989  1.00  0.00     0.090 C  
HETATM   19  C   UNL     1      -5.666   9.433  71.235  1.00  0.00    -0.068 C  
HETATM   20  C   UNL     1      -6.368  10.034  69.973  1.00  0.00    -0.079 C  
ENDROOT
BRANCH  11  21
HETATM   21  C   UNL     1     -10.028   7.221  70.790  1.00  0.00    -0.187 C  
HETATM   22  C   UNL     1     -12.244   8.167  70.101  1.00  0.00     0.689 C  
HETATM   23  C   UNL     1     -10.779   7.833  69.849  1.00  0.00    -0.245 C  
HETATM   24  C   UNL     1     -12.497   9.663  69.929  1.00  0.00     0.602 C  
HETATM   25  O   UNL     1     -11.865  10.415  70.970  1.00  0.00    -0.343 OA 
HETATM   26  C   UNL     1     -12.012  10.166  68.565  1.00  0.00     0.617 C  
HETATM   27  H   UNL     1     -12.022  11.346  70.864  1.00  0.00     0.000 HD 
HETATM   28  C   UNL     1     -10.555   9.777  68.292  1.00  0.00    -0.229 C  
HETATM   29  O   UNL     1     -10.235  10.135  66.945  1.00  0.00    -0.215 OA 
HETATM   30  C   UNL     1     -10.325   8.285  68.529  1.00  0.00    -0.230 C  
HETATM   31  H   UNL     1      -9.332   9.894  66.776  1.00  0.00     0.000 HD 
HETATM   32  C   UNL     1      -9.808   7.437  67.626  1.00  0.00    -0.194 C  
ENDBRANCH  11  21
TORSDOF 1
ENDMDL
MODEL      127
REMARK 921   NORMALIZED FREE ENERGY PREDICTED BY IDOCK:    7.17 KCAL/MOL
REMARK 922        TOTAL FREE ENERGY PREDICTED BY IDOCK:    7.14 KCAL/MOL
REMARK 923 INTER-LIGAND FREE ENERGY PREDICTED BY IDOCK:    6.76 KCAL/MOL
REMARK 924 INTRA-LIGAND FREE ENERGY PREDICTED BY IDOCK:    0.38 KCAL/MOL
REMARK 927      BINDING AFFINITY PREDICTED BY RF-SCORE:    0.00 PKD
ROOT
HETATM    1  C   UNL     1      -8.265  10.761  67.373  1.00  0.00    -0.116 C  
HETATM    2  C   UNL     1      -7.260  11.772  66.820  1.00  0.00    -0.050 C  
HETATM    3  C   UNL     1      -9.701  11.451  67.309  1.00  0.00    -0.201 C  
HETATM    4  C   UNL     1     -10.892  10.682  67.892  1.00  0.00    -0.328 C  
HETATM    5  C   UNL     1      -6.842  12.600  68.021  1.00  0.00    -0.095 C  
HETATM    6  C   UNL     1     -10.098  11.695  65.863  1.00  0.00    -0.267 C  
HETATM    7  C   UNL     1      -7.252  11.852  69.317  1.00  0.00     0.039 C  
HETATM    8  C   UNL     1     -10.507  12.863  65.335  1.00  0.00    -0.308 C  
HETATM    9  C   UNL     1      -6.121  11.924  70.358  1.00  0.00    -0.041 C  
HETATM   10  C   UNL     1     -10.961  12.950  63.892  1.00  0.00    -0.422 C  
HETATM   11  C   UNL     1      -5.201  12.903  70.537  1.00  0.00    -0.123 C  
HETATM   12  C   UNL     1      -6.002  10.670  71.185  1.00  0.00     0.147 C  
HETATM   13  C   UNL     1     -12.471  13.279  63.709  1.00  0.00    -0.339 C  
HETATM   14  C   UNL     1     -10.037  13.881  63.102  1.00  0.00     5.430 C  
HETATM   15  C   UNL     1     -13.363  12.353  64.550  1.00  0.00     0.548 C  
HETATM   16  C   UNL     1      -5.839   9.417  70.326  1.00  0.00    -0.038 C  
HETATM   17  C   UNL     1      -8.692   9.570  69.569  1.00  0.00    -0.178 C  
HETATM   18  C   UNL     1     -12.864  14.734  63.977  1.00  0.00     0.647 C  
HETATM   19  C   UNL     1      -6.344   9.565  68.859  1.00  0.00    -0.043 C  
HETATM   20  C   UNL     1      -7.658  10.412  68.798  1.00  0.00    -0.097 C  
ENDROOT
BRANCH  11  21
HETATM   21  C   UNL     1      -5.147  14.212  69.908  1.00  0.00    -0.092 C  
HETATM   22  C   UNL     1      -5.993  16.390  69.004  1.00  0.00    -0.143 C  
HETATM   23  C   UNL     1      -6.170  15.082  69.764  1.00  0.00    -0.143 C  
HETATM   24  C   UNL     1      -6.988  16.485  67.849  1.00  0.00    -0.142 C  
HETATM   25  O   UNL     1      -6.680  15.534  66.825  1.00  0.00    -0.210 OA 
HETATM   26  C   UNL     1      -8.430  16.279  68.325  1.00  0.00    -0.187 C  
HETATM   27  H   UNL     1      -7.299  15.592  66.106  1.00  0.00     0.000 HD 
HETATM   28  C   UNL     1      -8.590  14.990  69.139  1.00  0.00    -0.188 C  
HETATM   29  O   UNL     1      -9.912  14.958  69.681  1.00  0.00    -0.392 OA 
HETATM   30  C   UNL     1      -7.543  14.901  70.249  1.00  0.00     0.505 C  
HETATM   31  H   UNL     1     -10.011  14.159  70.186  1.00  0.00     0.000 HD 
HETATM   32  C   UNL     1      -7.820  14.726  71.551  1.00  0.00     3.588 C  
ENDBRANCH  11  21
TORSDOF 1
ENDMDL
MODEL      128
REMARK 921   NORMALIZED FREE ENERGY PREDICTED BY IDOCK:    7.96 KCAL/MOL
REMARK 922        TOTAL FREE ENERGY PREDICTED BY IDOCK:    7.98 KCAL/MOL
REMARK 923 INTER-LIGAND FREE ENERGY PREDICTED BY IDOCK:    8.47 KCAL/MOL
REMARK 924 INTRA-LIGAND FREE ENERGY PREDICTED BY IDOCK:   -0.49 KCAL/MOL
REMARK 927      BINDING AFFINITY PREDICTED BY RF-SCORE:    0.00 PKD
ROOT
HETATM    1  C   UNL     1     -11.951   8.761  70.944  1.00  0.00    -0.235 C  
HETATM    2  C   UNL     1     -11.934   8.830  69.416  1.00  0.00     1.316 C  
HETATM    3  C   UNL     1     -11.474  10.185  71.479  1.00  0.00    -0.096 C  
HETATM    4  C   UNL     1     -11.312  10.364  72.993  1.00  0.00     6.783 C  
HETATM    5  C   UNL     1     -10.523   8.431  69.026  1.00  0.00    -0.216 C  
HETATM    6  C   UNL     1     -12.485  11.251  71.092  1.00  0.00    -0.479 C  
HETATM    7  C   UNL     1      -9.841   7.740  70.236  1.00  0.00    -0.184 C  
HETATM    8  C   UNL     1     -12.220  12.405  70.453  1.00  0.00    -0.370 C  
HETATM    9  C   UNL     1      -9.057   6.499  69.773  1.00  0.00    -0.142 C  
HETATM   10  C   UNL     1     -13.311  13.428  70.206  1.00  0.00     0.815 C  
HETATM   11  C   UNL     1      -8.449   6.282  68.581  1.00  0.00    -0.122 C  
HETATM   12  C   UNL     1      -9.096   5.373  70.772  1.00  0.00    -0.168 C  
HETATM   13  C   UNL     1     -13.128  14.766  70.979  1.00  0.00    -0.433 C  
HETATM   14  C   UNL     1     -13.525  13.620  68.702  1.00  0.00     4.620 C  
HETATM   15  C   UNL     1     -12.872  14.531  72.476  1.00  0.00    -0.471 C  
HETATM   16  C   UNL     1     -10.522   4.975  71.150  1.00  0.00    -0.205 C  
HETATM   17  C   UNL     1     -10.778   7.440  72.761  1.00  0.00    -0.362 C  
HETATM   18  C   UNL     1     -12.050  15.702  70.427  1.00  0.00    -0.425 C  
HETATM   19  C   UNL     1     -11.593   6.078  70.891  1.00  0.00    -0.147 C  
HETATM   20  C   UNL     1     -11.037   7.497  71.244  1.00  0.00    -0.267 C  
ENDROOT
BRANCH  11  21
HETATM   21  C   UNL     1      -8.232   7.226  67.498  1.00  0.00    -0.113 C  
HETATM   22  C   UNL     1      -7.662   8.024  65.192  1.00  0.00    -0.105 C  
HETATM   23  C   UNL     1      -7.952   6.929  66.211  1.00  0.00    -0.108 C  
HETATM   24  C   UNL     1      -6.289   7.821  64.554  1.00  0.00    -0.048 C  
HETATM   25  O   UNL     1      -5.242   8.050  65.502  1.00  0.00    -0.028 OA 
HETATM   26  C   UNL     1      -6.144   6.418  63.956  1.00  0.00    -0.026 C  
HETATM   27  H   UNL     1      -4.388   7.924  65.105  1.00  0.00     0.000 HD 
HETATM   28  C   UNL     1      -6.494   5.321  64.969  1.00  0.00    -0.039 C  
HETATM   29  O   UNL     1      -6.494   4.062  64.291  1.00  0.00    -0.039 OA 
HETATM   30  C   UNL     1      -7.846   5.586  65.629  1.00  0.00    -0.101 C  
HETATM   31  H   UNL     1      -6.711   3.383  64.919  1.00  0.00     0.000 HD 
HETATM   32  C   UNL     1      -8.871   4.719  65.650  1.00  0.00    -0.135 C  
ENDBRANCH  11  21
TORSDOF 1
ENDMDL
MODEL      129
REMARK 921   NORMALIZED FREE ENERGY PREDICTED BY IDOCK:    8.75 KCAL/MOL
REMARK 922        TOTAL FREE ENERGY PREDICTED BY IDOCK:    8.82 KCAL/MOL
REMARK 923 INTER-LIGAND FREE ENERGY PREDICTED BY IDOCK:    9.54 KCAL/MOL
REMARK 924 INTRA-LIGAND FREE ENERGY PREDICTED BY IDOCK:   -0.72 KCAL/MOL
REMARK 927      BINDING AFFINITY PREDICTED BY RF-SCORE:    0.00 PKD
ROOT
HETATM    1  C   UNL     1      -7.330  14.771  69.177  1.00  0.00    -0.151 C  
HETATM    2  C   UNL     1      -8.654  14.206  69.692  1.00  0.00     0.815 C  
HETATM    3  C   UNL     1      -7.665  15.628  67.876  1.00  0.00    -0.143 C  
HETATM    4  C   UNL     1      -6.494  16.240  67.099  1.00  0.00    -0.214 C  
HETATM    5  C   UNL     1      -8.831  12.893  68.953  1.00  0.00     0.328 C  
HETATM    6  C   UNL     1      -8.520  16.828  68.249  1.00  0.00    -0.222 C  
HETATM    7  C   UNL     1      -7.470  12.475  68.335  1.00  0.00    -0.127 C  
HETATM    8  C   UNL     1      -9.690  17.179  67.685  1.00  0.00    -0.263 C  
HETATM    9  C   UNL     1      -7.227  10.970  68.541  1.00  0.00    -0.085 C  
HETATM   10  C   UNL     1     -10.400  18.455  68.091  1.00  0.00    -0.393 C  
HETATM   11  C   UNL     1      -8.141   9.972  68.623  1.00  0.00    -0.102 C  
HETATM   12  C   UNL     1      -5.779  10.636  68.783  1.00  0.00    -0.040 C  
HETATM   13  C   UNL     1     -10.476  19.534  66.974  1.00  0.00    -0.587 C  
HETATM   14  C   UNL     1     -11.761  18.128  68.714  1.00  0.00     2.935 C  
HETATM   15  C   UNL     1      -9.101  19.803  66.344  1.00  0.00    -0.452 C  
HETATM   16  C   UNL     1      -5.184  11.422  69.950  1.00  0.00    -0.059 C  
HETATM   17  C   UNL     1      -5.141  13.860  68.281  1.00  0.00    -0.109 C  
HETATM   18  C   UNL     1     -11.492  19.260  65.862  1.00  0.00     1.108 C  
HETATM   19  C   UNL     1      -5.948  12.734  70.305  1.00  0.00    -0.127 C  
HETATM   20  C   UNL     1      -6.438  13.467  69.013  1.00  0.00    -0.105 C  
ENDROOT
BRANCH  11  21
HETATM   21  C   UNL     1      -9.570  10.039  68.369  1.00  0.00    -0.153 C  
HETATM   22  C   UNL     1     -12.015   9.632  68.736  1.00  0.00     1.092 C  
HETATM   23  C   UNL     1     -10.555   9.573  69.167  1.00  0.00    -0.237 C  
HETATM   24  C   UNL     1     -12.639   8.238  68.739  1.00  0.00     5.399 C  
HETATM   25  O   UNL     1     -12.083   7.423  67.702  1.00  0.00     1.360 OA 
HETATM   26  C   UNL     1     -12.460   7.541  70.092  1.00  0.00     0.639 C  
HETATM   27  H   UNL     1     -12.471   6.556  67.704  1.00  0.00     0.000 HD 
HETATM   28  C   UNL     1     -10.996   7.536  70.549  1.00  0.00    -0.252 C  
HETATM   29  O   UNL     1     -10.939   7.022  71.881  1.00  0.00    -0.226 OA 
HETATM   30  C   UNL     1     -10.388   8.936  70.478  1.00  0.00    -0.246 C  
HETATM   31  H   UNL     1     -10.032   7.019  72.164  1.00  0.00     0.000 HD 
HETATM   32  C   UNL     1      -9.797   9.567  71.505  1.00  0.00     0.157 C  
ENDBRANCH  11  21
TORSDOF 1
ENDMDL
MODEL      130
REMARK 921   NORMALIZED FREE ENERGY PREDICTED BY IDOCK:    8.98 KCAL/MOL
REMARK 922        TOTAL FREE ENERGY PREDICTED BY IDOCK:    9.06 KCAL/MOL
REMARK 923 INTER-LIGAND FREE ENERGY PREDICTED BY IDOCK:    6.62 KCAL/MOL
REMARK 924 INTRA-LIGAND FREE ENERGY PREDICTED BY IDOCK:    2.44 KCAL/MOL
REMARK 927      BINDING AFFINITY PREDICTED BY RF-SCORE:    0.00 PKD
ROOT
HETATM    1  C   UNL     1      -9.226  14.194  66.171  1.00  0.00    -0.088 C  
HETATM    2  C   UNL     1     -10.552  13.459  66.372  1.00  0.00    -0.285 C  
HETATM    3  C   UNL     1      -8.107  13.352  66.933  1.00  0.00     0.097 C  
HETATM    4  C   UNL     1      -6.683  13.920  66.968  1.00  0.00     0.821 C  
HETATM    5  C   UNL     1     -11.110  14.014  67.669  1.00  0.00    -0.298 C  
HETATM    6  C   UNL     1      -7.941  11.993  66.275  1.00  0.00     0.311 C  
HETATM    7  C   UNL     1     -10.366  15.330  68.016  1.00  0.00    -0.244 C  
HETATM    8  C   UNL     1      -7.984  10.798  66.893  1.00  0.00    -0.133 C  
HETATM    9  C   UNL     1     -11.362  16.397  68.504  1.00  0.00    -0.289 C  
HETATM   10  C   UNL     1      -7.713   9.516  66.133  1.00  0.00    -0.101 C  
HETATM   11  C   UNL     1     -12.532  16.218  69.164  1.00  0.00     0.911 C  
HETATM   12  C   UNL     1     -10.990  17.791  68.071  1.00  0.00    -0.088 C  
HETATM   13  C   UNL     1      -6.416   8.772  66.564  1.00  0.00    -0.063 C  
HETATM   14  C   UNL     1      -8.956   8.622  66.140  1.00  0.00    -0.221 C  
HETATM   15  C   UNL     1      -5.199   9.711  66.586  1.00  0.00    -0.044 C  
HETATM   16  C   UNL     1     -10.809  17.904  66.558  1.00  0.00     0.026 C  
HETATM   17  C   UNL     1      -8.242  16.453  66.762  1.00  0.00    -0.286 C  
HETATM   18  C   UNL     1      -6.499   8.027  67.898  1.00  0.00    -0.053 C  
HETATM   19  C   UNL     1     -10.511  16.553  65.837  1.00  0.00    -0.335 C  
HETATM   20  C   UNL     1      -9.558  15.656  66.694  1.00  0.00    -0.267 C  
ENDROOT
BRANCH  11  21
HETATM   21  C   UNL     1     -13.066  14.991  69.731  1.00  0.00     0.354 C  
HETATM   22  C   UNL     1     -13.045  12.723  70.796  1.00  0.00     0.140 C  
HETATM   23  C   UNL     1     -12.364  14.000  70.320  1.00  0.00    -0.425 C  
HETATM   24  C   UNL     1     -12.419  11.496  70.135  1.00  0.00    -0.164 C  
HETATM   25  O   UNL     1     -12.717  11.457  68.736  1.00  0.00    -0.096 OA 
HETATM   26  C   UNL     1     -10.901  11.456  70.340  1.00  0.00     0.855 C  
HETATM   27  H   UNL     1     -12.328  10.693  68.325  1.00  0.00     0.000 HD 
HETATM   28  C   UNL     1     -10.228  12.765  69.914  1.00  0.00     1.739 C  
HETATM   29  O   UNL     1      -8.849  12.708  70.288  1.00  0.00     3.163 OA 
HETATM   30  C   UNL     1     -10.914  13.975  70.547  1.00  0.00     0.592 C  
HETATM   31  H   UNL     1      -8.432  13.520  70.024  1.00  0.00     0.000 HD 
HETATM   32  C   UNL     1     -10.293  14.910  71.283  1.00  0.00     1.090 C  
ENDBRANCH  11  21
TORSDOF 1
ENDMDL
MODEL      131
REMARK 921   NORMALIZED FREE ENERGY PREDICTED BY IDOCK:    9.16 KCAL/MOL
REMARK 922        TOTAL FREE ENERGY PREDICTED BY IDOCK:    9.26 KCAL/MOL
REMARK 923 INTER-LIGAND FREE ENERGY PREDICTED BY IDOCK:   10.31 KCAL/MOL
REMARK 924 INTRA-LIGAND FREE ENERGY PREDICTED BY IDOCK:   -1.06 KCAL/MOL
REMARK 927      BINDING AFFINITY PREDICTED BY RF-SCORE:    0.00 PKD
ROOT
HETATM    1  C   UNL     1     -10.805  12.036  70.487  1.00  0.00     1.906 C  
HETATM    2  C   UNL     1      -9.440  12.720  70.398  1.00  0.00     5.339 C  
HETATM    3  C   UNL     1     -11.092  11.383  69.061  1.00  0.00    -0.300 C  
HETATM    4  C   UNL     1     -12.448  10.704  68.844  1.00  0.00     0.582 C  
HETATM    5  C   UNL     1      -9.740  14.119  69.892  1.00  0.00     1.043 C  
HETATM    6  C   UNL     1     -10.083  10.282  68.780  1.00  0.00    -0.198 C  
HETATM    7  C   UNL     1     -11.254  14.407  70.073  1.00  0.00    -0.193 C  
HETATM    8  C   UNL     1      -9.319  10.164  67.679  1.00  0.00    -0.162 C  
HETATM    9  C   UNL     1     -11.468  15.831  70.615  1.00  0.00    -0.415 C  
HETATM   10  C   UNL     1      -8.415   8.964  67.482  1.00  0.00    -0.116 C  
HETATM   11  C   UNL     1     -10.702  16.932  70.418  1.00  0.00     0.352 C  
HETATM   12  C   UNL     1     -12.631  15.929  71.567  1.00  0.00    -0.456 C  
HETATM   13  C   UNL     1      -8.822   8.036  66.302  1.00  0.00    -0.191 C  
HETATM   14  C   UNL     1      -6.950   9.408  67.429  1.00  0.00    -0.085 C  
HETATM   15  C   UNL     1     -10.307   7.648  66.365  1.00  0.00     0.073 C  
HETATM   16  C   UNL     1     -12.521  14.942  72.728  1.00  0.00    -0.451 C  
HETATM   17  C   UNL     1     -13.209  12.723  70.902  1.00  0.00     0.188 C  
HETATM   18  C   UNL     1      -8.503   8.573  64.904  1.00  0.00    -0.166 C  
HETATM   19  C   UNL     1     -11.593  13.720  72.455  1.00  0.00     2.089 C  
HETATM   20  C   UNL     1     -11.750  13.211  70.984  1.00  0.00     0.611 C  
ENDROOT
BRANCH  11  21
HETATM   21  C   UNL     1      -9.580  17.095  69.509  1.00  0.00     0.249 C  
HETATM   22  C   UNL     1      -8.343  17.141  67.331  1.00  0.00    -0.203 C  
HETATM   23  C   UNL     1      -9.616  17.038  68.161  1.00  0.00    -0.266 C  
HETATM   24  C   UNL     1      -8.175  15.912  66.440  1.00  0.00    -0.228 C  
HETATM   25  O   UNL     1      -7.895  14.745  67.220  1.00  0.00    -0.188 OA 
HETATM   26  C   UNL     1      -9.415  15.667  65.574  1.00  0.00    -0.164 C  
HETATM   27  H   UNL     1      -7.791  13.980  66.666  1.00  0.00     0.000 HD 
HETATM   28  C   UNL     1     -10.700  15.622  66.408  1.00  0.00    -0.291 C  
HETATM   29  O   UNL     1     -11.816  15.556  65.517  1.00  0.00     0.095 OA 
HETATM   30  C   UNL     1     -10.808  16.836  67.328  1.00  0.00    -0.137 C  
HETATM   31  H   UNL     1     -12.613  15.529  66.034  1.00  0.00     0.000 HD 
HETATM   32  C   UNL     1     -11.850  17.682  67.363  1.00  0.00     1.993 C  
ENDBRANCH  11  21
TORSDOF 1
ENDMDL
MODEL      132
REMARK 921   NORMALIZED FREE ENERGY PREDICTED BY IDOCK:   10.39 KCAL/MOL
REMARK 922        TOTAL FREE ENERGY PREDICTED BY IDOCK:   10.55 KCAL/MOL
REMARK 923 INTER-LIGAND FREE ENERGY PREDICTED BY IDOCK:   11.43 KCAL/MOL
REMARK 924 INTRA-LIGAND FREE ENERGY PREDICTED BY IDOCK:   -0.88 KCAL/MOL
REMARK 927      BINDING AFFINITY PREDICTED BY RF-SCORE:    0.00 PKD
ROOT
HETATM    1  C   UNL     1      -7.504  14.760  69.084  1.00  0.00    -0.153 C  
HETATM    2  C   UNL     1      -8.825  14.150  69.553  1.00  0.00     0.674 C  
HETATM    3  C   UNL     1      -7.748  15.326  67.614  1.00  0.00    -0.185 C  
HETATM    4  C   UNL     1      -6.548  15.917  66.865  1.00  0.00     0.113 C  
HETATM    5  C   UNL     1      -8.785  12.714  69.064  1.00  0.00     0.494 C  
HETATM    6  C   UNL     1      -8.750  16.468  67.656  1.00  0.00    -0.195 C  
HETATM    7  C   UNL     1      -7.324  12.350  68.689  1.00  0.00    -0.102 C  
HETATM    8  C   UNL     1      -9.866  16.576  66.912  1.00  0.00    -0.262 C  
HETATM    9  C   UNL     1      -6.971  10.944  69.205  1.00  0.00    -0.096 C  
HETATM   10  C   UNL     1     -10.736  17.814  66.986  1.00  0.00    -0.192 C  
HETATM   11  C   UNL     1      -7.793   9.880  69.378  1.00  0.00    -0.127 C  
HETATM   12  C   UNL     1      -5.541  10.826  69.661  1.00  0.00    -0.041 C  
HETATM   13  C   UNL     1     -10.768  18.660  65.681  1.00  0.00    -0.129 C  
HETATM   14  C   UNL     1     -12.129  17.452  67.509  1.00  0.00     2.499 C  
HETATM   15  C   UNL     1      -9.354  18.967  65.163  1.00  0.00     2.238 C  
HETATM   16  C   UNL     1      -5.175  11.872  70.714  1.00  0.00    -0.140 C  
HETATM   17  C   UNL     1      -5.144  13.959  68.621  1.00  0.00    -0.089 C  
HETATM   18  C   UNL     1     -11.604  18.076  64.540  1.00  0.00     3.857 C  
HETATM   19  C   UNL     1      -6.096  13.131  70.725  1.00  0.00     0.121 C  
HETATM   20  C   UNL     1      -6.482  13.559  69.271  1.00  0.00    -0.111 C  
ENDROOT
BRANCH  11  21
HETATM   21  C   UNL     1      -9.178   9.736  68.963  1.00  0.00    -0.165 C  
HETATM   22  C   UNL     1     -11.110   9.120  67.491  1.00  0.00     0.191 C  
HETATM   23  C   UNL     1      -9.629   9.122  67.849  1.00  0.00    -0.168 C  
HETATM   24  C   UNL     1     -11.335   9.731  66.109  1.00  0.00     1.710 C  
HETATM   25  O   UNL     1     -11.060  11.135  66.116  1.00  0.00    -0.211 OA 
HETATM   26  C   UNL     1     -10.478   9.044  65.041  1.00  0.00     2.646 C  
HETATM   27  H   UNL     1     -11.200  11.516  65.257  1.00  0.00     0.000 HD 
HETATM   28  C   UNL     1      -8.997   8.997  65.433  1.00  0.00    -0.200 C  
HETATM   29  O   UNL     1      -8.299   8.202  64.471  1.00  0.00    -0.274 OA 
HETATM   30  C   UNL     1      -8.813   8.435  66.841  1.00  0.00    -0.157 C  
HETATM   31  H   UNL     1      -7.381   8.172  64.714  1.00  0.00     0.000 HD 
HETATM   32  C   UNL     1      -8.031   7.389  67.153  1.00  0.00    -0.114 C  
ENDBRANCH  11  21
TORSDOF 1
ENDMDL
MODEL      133
REMARK 921   NORMALIZED FREE ENERGY PREDICTED BY IDOCK:   12.36 KCAL/MOL
REMARK 922        TOTAL FREE ENERGY PREDICTED BY IDOCK:   12.64 KCAL/MOL
REMARK 923 INTER-LIGAND FREE ENERGY PREDICTED BY IDOCK:   13.73 KCAL/MOL
REMARK 924 INTRA-LIGAND FREE ENERGY PREDICTED BY IDOCK:   -1.09 KCAL/MOL
REMARK 927      BINDING AFFINITY PREDICTED BY RF-SCORE:    0.00 PKD
ROOT
HETATM    1  C   UNL     1      -9.437  12.939  67.124  1.00  0.00    -0.229 C  
HETATM    2  C   UNL     1      -8.040  12.459  66.727  1.00  0.00     0.009 C  
HETATM    3  C   UNL     1      -9.344  13.443  68.634  1.00  0.00    -0.010 C  
HETATM    4  C   UNL     1     -10.637  13.899  69.318  1.00  0.00    -0.062 C  
HETATM    5  C   UNL     1      -7.999  11.000  67.142  1.00  0.00    -0.135 C  
HETATM    6  C   UNL     1      -8.438  14.659  68.721  1.00  0.00    -0.161 C  
HETATM    7  C   UNL     1      -9.448  10.505  67.390  1.00  0.00    -0.172 C  
HETATM    8  C   UNL     1      -7.389  14.814  69.550  1.00  0.00    -0.148 C  
HETATM    9  C   UNL     1      -9.648   9.105  66.783  1.00  0.00    -0.253 C  
HETATM   10  C   UNL     1      -6.619  16.118  69.600  1.00  0.00    -0.182 C  
HETATM   11  C   UNL     1      -8.733   8.118  66.621  1.00  0.00    -0.152 C  
HETATM   12  C   UNL     1     -11.028   8.901  66.216  1.00  0.00     1.189 C  
HETATM   13  C   UNL     1      -6.748  16.893  70.943  1.00  0.00     2.402 C  
HETATM   14  C   UNL     1      -5.168  15.893  69.166  1.00  0.00    -0.105 C  
HETATM   15  C   UNL     1      -8.215  17.061  71.368  1.00  0.00     8.738 C  
HETATM   16  C   UNL     1     -11.402   9.970  65.190  1.00  0.00     2.709 C  
HETATM   17  C   UNL     1     -11.751  11.934  67.371  1.00  0.00    -0.326 C  
HETATM   18  C   UNL     1      -5.950  16.315  72.114  1.00  0.00     1.919 C  
HETATM   19  C   UNL     1     -10.589  11.295  65.307  1.00  0.00    -0.323 C  
HETATM   20  C   UNL     1     -10.342  11.674  66.805  1.00  0.00    -0.257 C  
ENDROOT
BRANCH  11  21
HETATM   21  C   UNL     1      -7.373   8.061  67.130  1.00  0.00    -0.091 C  
HETATM   22  C   UNL     1      -5.531   7.799  68.808  1.00  0.00    -0.027 C  
HETATM   23  C   UNL     1      -6.992   7.735  68.384  1.00  0.00    -0.072 C  
HETATM   24  C   UNL     1      -5.354   8.730  70.007  1.00  0.00    -0.028 C  
HETATM   25  O   UNL     1      -5.589  10.092  69.639  1.00  0.00    -0.037 OA 
HETATM   26  C   UNL     1      -6.279   8.341  71.165  1.00  0.00    -0.036 C  
HETATM   27  H   UNL     1      -5.480  10.671  70.385  1.00  0.00     0.000 HD 
HETATM   28  C   UNL     1      -7.741   8.221  70.720  1.00  0.00    -0.079 C  
HETATM   29  O   UNL     1      -8.505   7.700  71.810  1.00  0.00    -0.105 OA 
HETATM   30  C   UNL     1      -7.874   7.331  69.486  1.00  0.00    -0.118 C  
HETATM   31  H   UNL     1      -9.411   7.625  71.534  1.00  0.00     0.000 HD 
HETATM   32  C   UNL     1      -8.669   6.252  69.401  1.00  0.00    -0.128 C  
ENDBRANCH  11  21
TORSDOF 1
ENDMDL
MODEL      134
REMARK 921   NORMALIZED FREE ENERGY PREDICTED BY IDOCK:   13.33 KCAL/MOL
REMARK 922        TOTAL FREE ENERGY PREDICTED BY IDOCK:   13.67 KCAL/MOL
REMARK 923 INTER-LIGAND FREE ENERGY PREDICTED BY IDOCK:   12.75 KCAL/MOL
REMARK 924 INTRA-LIGAND FREE ENERGY PREDICTED BY IDOCK:    0.92 KCAL/MOL
REMARK 927      BINDING AFFINITY PREDICTED BY RF-SCORE:    0.00 PKD
ROOT
HETATM    1  C   UNL     1      -7.983  11.877  67.072  1.00  0.00    -0.158 C  
HETATM    2  C   UNL     1      -7.955  11.961  68.598  1.00  0.00    -0.101 C  
HETATM    3  C   UNL     1      -8.915  13.064  66.558  1.00  0.00    -0.076 C  
HETATM    4  C   UNL     1      -9.192  13.158  65.054  1.00  0.00     0.908 C  
HETATM    5  C   UNL     1      -9.144  11.137  69.055  1.00  0.00    -0.036 C  
HETATM    6  C   UNL     1      -8.284  14.404  66.897  1.00  0.00    -0.048 C  
HETATM    7  C   UNL     1      -9.621  10.245  67.878  1.00  0.00    -0.161 C  
HETATM    8  C   UNL     1      -8.876  15.423  67.547  1.00  0.00    -0.190 C  
HETATM    9  C   UNL     1      -9.945   8.826  68.378  1.00  0.00    -0.200 C  
HETATM   10  C   UNL     1      -8.161  16.745  67.742  1.00  0.00    -0.190 C  
HETATM   11  C   UNL     1     -10.398   8.444  69.597  1.00  0.00    -0.218 C  
HETATM   12  C   UNL     1      -9.591   7.756  67.379  1.00  0.00    -0.192 C  
HETATM   13  C   UNL     1      -8.797  17.941  66.978  1.00  0.00    -0.256 C  
HETATM   14  C   UNL     1      -7.954  17.019  69.234  1.00  0.00     0.047 C  
HETATM   15  C   UNL     1      -9.030  17.613  65.495  1.00  0.00     0.918 C  
HETATM   16  C   UNL     1      -8.130   7.830  66.935  1.00  0.00    -0.116 C  
HETATM   17  C   UNL     1      -8.749  10.221  65.312  1.00  0.00    -0.186 C  
HETATM   18  C   UNL     1     -10.093  18.491  67.579  1.00  0.00    -0.383 C  
HETATM   19  C   UNL     1      -7.459   9.222  67.143  1.00  0.00    -0.091 C  
HETATM   20  C   UNL     1      -8.455  10.382  66.816  1.00  0.00    -0.125 C  
ENDROOT
BRANCH  11  21
HETATM   21  C   UNL     1     -10.858   9.286  70.688  1.00  0.00    -0.339 C  
HETATM   22  C   UNL     1     -11.998  11.211  71.815  1.00  0.00     0.760 C  
HETATM   23  C   UNL     1     -11.664  10.365  70.594  1.00  0.00    -0.444 C  
HETATM   24  C   UNL     1     -11.594  12.668  71.593  1.00  0.00     2.701 C  
HETATM   25  O   UNL     1     -10.170  12.805  71.550  1.00  0.00     7.071 OA 
HETATM   26  C   UNL     1     -12.205  13.235  70.308  1.00  0.00    -0.391 C  
HETATM   27  H   UNL     1      -9.918  13.711  71.412  1.00  0.00     0.000 HD 
HETATM   28  C   UNL     1     -11.915  12.348  69.091  1.00  0.00    -0.240 C  
HETATM   29  O   UNL     1     -12.651  12.854  67.976  1.00  0.00     0.199 OA 
HETATM   30  C   UNL     1     -12.277  10.890  69.368  1.00  0.00    -0.293 C  
HETATM   31  H   UNL     1     -12.471  12.304  67.222  1.00  0.00     0.000 HD 
HETATM   32  C   UNL     1     -13.107  10.151  68.615  1.00  0.00     4.579 C  
ENDBRANCH  11  21
TORSDOF 1
ENDMDL
MODEL      135
REMARK 921   NORMALIZED FREE ENERGY PREDICTED BY IDOCK:   15.56 KCAL/MOL
REMARK 922        TOTAL FREE ENERGY PREDICTED BY IDOCK:   16.02 KCAL/MOL
REMARK 923 INTER-LIGAND FREE ENERGY PREDICTED BY IDOCK:    8.26 KCAL/MOL
REMARK 924 INTRA-LIGAND FREE ENERGY PREDICTED BY IDOCK:    7.77 KCAL/MOL
REMARK 927      BINDING AFFINITY PREDICTED BY RF-SCORE:    0.00 PKD
ROOT
HETATM    1  C   UNL     1     -11.336   7.620  68.406  1.00  0.00     0.634 C  
HETATM    2  C   UNL     1     -10.113   6.747  68.118  1.00  0.00    -0.182 C  
HETATM    3  C   UNL     1     -10.883   9.135  68.204  1.00  0.00    -0.118 C  
HETATM    4  C   UNL     1     -11.902  10.236  68.520  1.00  0.00     0.227 C  
HETATM    5  C   UNL     1      -9.391   6.640  69.448  1.00  0.00    -0.147 C  
HETATM    6  C   UNL     1     -10.521   9.381  66.749  1.00  0.00    -0.265 C  
HETATM    7  C   UNL     1     -10.357   7.073  70.583  1.00  0.00    -0.223 C  
HETATM    8  C   UNL     1      -9.375   9.920  66.293  1.00  0.00    -0.224 C  
HETATM    9  C   UNL     1     -10.240   6.115  71.782  1.00  0.00    -0.236 C  
HETATM   10  C   UNL     1      -9.176  10.194  64.816  1.00  0.00    -0.291 C  
HETATM   11  C   UNL     1      -9.157   5.413  72.197  1.00  0.00    -0.147 C  
HETATM   12  C   UNL     1     -11.554   5.883  72.479  1.00  0.00    -0.327 C  
HETATM   13  C   UNL     1      -9.074  11.702  64.447  1.00  0.00     0.264 C  
HETATM   14  C   UNL     1      -8.015   9.356  64.274  1.00  0.00    -0.133 C  
HETATM   15  C   UNL     1     -10.232  12.516  65.045  1.00  0.00    -0.301 C  
HETATM   16  C   UNL     1     -12.643   5.392  71.527  1.00  0.00     2.229 C  
HETATM   17  C   UNL     1     -12.854   8.106  70.377  1.00  0.00     0.883 C  
HETATM   18  C   UNL     1      -7.748  12.378  64.807  1.00  0.00     4.538 C  
HETATM   19  C   UNL     1     -12.389   5.724  70.025  1.00  0.00     2.932 C  
HETATM   20  C   UNL     1     -11.764   7.148  69.861  1.00  0.00    -0.038 C  
ENDROOT
BRANCH  11  21
HETATM   21  C   UNL     1      -7.786   5.513  71.725  1.00  0.00    -0.112 C  
HETATM   22  C   UNL     1      -5.785   6.515  70.599  1.00  0.00    -0.023 C  
HETATM   23  C   UNL     1      -7.214   6.577  71.124  1.00  0.00    -0.078 C  
HETATM   24  C   UNL     1      -5.740   6.837  69.106  1.00  0.00    -0.018 C  
HETATM   25  O   UNL     1      -6.357   5.799  68.337  1.00  0.00    -0.037 OA 
HETATM   26  C   UNL     1      -6.415   8.177  68.797  1.00  0.00    -0.053 C  
HETATM   27  H   UNL     1      -6.329   6.000  67.409  1.00  0.00     0.000 HD 
HETATM   28  C   UNL     1      -7.831   8.257  69.377  1.00  0.00    -0.104 C  
HETATM   29  O   UNL     1      -8.323   9.586  69.190  1.00  0.00    -0.113 OA 
HETATM   30  C   UNL     1      -7.848   7.873  70.856  1.00  0.00    -0.088 C  
HETATM   31  H   UNL     1      -9.201   9.636  69.550  1.00  0.00     0.000 HD 
HETATM   32  C   UNL     1      -8.339   8.641  71.842  1.00  0.00    -0.189 C  
ENDBRANCH  11  21
TORSDOF 1
ENDMDL
MODEL      136
REMARK 921   NORMALIZED FREE ENERGY PREDICTED BY IDOCK:   15.68 KCAL/MOL
REMARK 922        TOTAL FREE ENERGY PREDICTED BY IDOCK:   16.16 KCAL/MOL
REMARK 923 INTER-LIGAND FREE ENERGY PREDICTED BY IDOCK:   17.12 KCAL/MOL
REMARK 924 INTRA-LIGAND FREE ENERGY PREDICTED BY IDOCK:   -0.96 KCAL/MOL
REMARK 927      BINDING AFFINITY PREDICTED BY RF-SCORE:    0.00 PKD
ROOT
HETATM    1  C   UNL     1      -9.647  13.821  68.939  1.00  0.00     0.055 C  
HETATM    2  C   UNL     1     -10.893  13.191  68.314  1.00  0.00    -0.274 C  
HETATM    3  C   UNL     1      -8.490  12.727  68.876  1.00  0.00     0.301 C  
HETATM    4  C   UNL     1      -7.144  13.069  69.524  1.00  0.00     0.273 C  
HETATM    5  C   UNL     1     -11.588  12.485  69.464  1.00  0.00    -0.348 C  
HETATM    6  C   UNL     1      -8.134  12.428  67.430  1.00  0.00    -0.177 C  
HETATM    7  C   UNL     1     -11.018  13.022  70.804  1.00  0.00     2.380 C  
HETATM    8  C   UNL     1      -8.082  11.212  66.857  1.00  0.00    -0.150 C  
HETATM    9  C   UNL     1     -12.155  13.261  71.813  1.00  0.00     0.621 C  
HETATM   10  C   UNL     1      -7.623  11.045  65.422  1.00  0.00     0.241 C  
HETATM   11  C   UNL     1     -13.336  12.606  71.923  1.00  0.00    -0.485 C  
HETATM   12  C   UNL     1     -11.915  14.458  72.695  1.00  0.00     0.090 C  
HETATM   13  C   UNL     1      -6.280  10.276  65.260  1.00  0.00    -0.127 C  
HETATM   14  C   UNL     1      -8.757  10.474  64.567  1.00  0.00    -0.190 C  
HETATM   15  C   UNL     1      -5.179  10.849  66.165  1.00  0.00    -0.114 C  
HETATM   16  C   UNL     1     -11.654  15.733  71.895  1.00  0.00    -0.545 C  
HETATM   17  C   UNL     1      -8.959  14.739  71.199  1.00  0.00     3.350 C  
HETATM   18  C   UNL     1      -6.361   8.761  65.467  1.00  0.00    -0.062 C  
HETATM   19  C   UNL     1     -11.165  15.492  70.434  1.00  0.00    -0.356 C  
HETATM   20  C   UNL     1     -10.172  14.286  70.364  1.00  0.00     1.219 C  
ENDROOT
BRANCH  11  21
HETATM   21  C   UNL     1     -13.764  11.402  71.231  1.00  0.00     0.852 C  
HETATM   22  C   UNL     1     -14.047   8.951  70.794  1.00  0.00     0.327 C  
HETATM   23  C   UNL     1     -13.629  10.130  71.664  1.00  0.00    -0.275 C  
HETATM   24  C   UNL     1     -12.871   8.002  70.566  1.00  0.00     0.644 C  
HETATM   25  O   UNL     1     -11.873   8.609  69.739  1.00  0.00    -0.230 OA 
HETATM   26  C   UNL     1     -12.240   7.554  71.889  1.00  0.00    -0.339 C  
HETATM   27  H   UNL     1     -11.142   8.019  69.597  1.00  0.00     0.000 HD 
HETATM   28  C   UNL     1     -11.876   8.743  72.785  1.00  0.00     0.141 C  
HETATM   29  O   UNL     1     -11.451   8.241  74.054  1.00  0.00     1.312 OA 
HETATM   30  C   UNL     1     -13.056   9.701  72.945  1.00  0.00     0.431 C  
HETATM   31  H   UNL     1     -11.226   8.978  74.609  1.00  0.00     0.000 HD 
HETATM   32  C   UNL     1     -13.572  10.091  74.121  1.00  0.00     8.550 C  
ENDBRANCH  11  21
TORSDOF 1
ENDMDL
MODEL      137
REMARK 921   NORMALIZED FREE ENERGY PREDICTED BY IDOCK:   18.25 KCAL/MOL
REMARK 922        TOTAL FREE ENERGY PREDICTED BY IDOCK:   18.87 KCAL/MOL
REMARK 923 INTER-LIGAND FREE ENERGY PREDICTED BY IDOCK:   13.24 KCAL/MOL
REMARK 924 INTRA-LIGAND FREE ENERGY PREDICTED BY IDOCK:    5.63 KCAL/MOL
REMARK 927      BINDING AFFINITY PREDICTED BY RF-SCORE:    0.00 PKD
ROOT
HETATM    1  C   UNL     1      -6.207   6.215  66.980  1.00  0.00    -0.029 C  
HETATM    2  C   UNL     1      -7.234   5.593  67.928  1.00  0.00    -0.072 C  
HETATM    3  C   UNL     1      -6.362   7.797  67.101  1.00  0.00    -0.055 C  
HETATM    4  C   UNL     1      -5.504   8.672  66.181  1.00  0.00    -0.034 C  
HETATM    5  C   UNL     1      -8.499   5.467  67.101  1.00  0.00    -0.106 C  
HETATM    6  C   UNL     1      -5.977   8.252  68.499  1.00  0.00    -0.041 C  
HETATM    7  C   UNL     1      -8.137   5.610  65.599  1.00  0.00    -0.120 C  
HETATM    8  C   UNL     1      -6.718   9.019  69.319  1.00  0.00    -0.049 C  
HETATM    9  C   UNL     1      -8.893   4.563  64.762  1.00  0.00    -0.149 C  
HETATM   10  C   UNL     1      -6.178   9.478  70.658  1.00  0.00    -0.077 C  
HETATM   11  C   UNL     1     -10.108   4.011  65.000  1.00  0.00    -0.203 C  
HETATM   12  C   UNL     1      -8.086   4.043  63.602  1.00  0.00    -0.090 C  
HETATM   13  C   UNL     1      -5.947  11.012  70.770  1.00  0.00    -0.020 C  
HETATM   14  C   UNL     1      -7.030   8.907  71.796  1.00  0.00    -0.035 C  
HETATM   15  C   UNL     1      -5.127  11.555  69.589  1.00  0.00    -0.057 C  
HETATM   16  C   UNL     1      -6.732   3.481  64.036  1.00  0.00    -0.043 C  
HETATM   17  C   UNL     1      -5.743   6.229  64.489  1.00  0.00    -0.022 C  
HETATM   18  C   UNL     1      -7.214  11.857  70.931  1.00  0.00     3.817 C  
HETATM   19  C   UNL     1      -6.223   4.008  65.412  1.00  0.00    -0.027 C  
HETATM   20  C   UNL     1      -6.555   5.526  65.592  1.00  0.00    -0.041 C  
ENDROOT
BRANCH  11  21
HETATM   21  C   UNL     1     -11.083   4.387  66.010  1.00  0.00     0.971 C  
HETATM   22  C   UNL     1     -12.255   5.843  67.679  1.00  0.00     4.830 C  
HETATM   23  C   UNL     1     -11.245   5.608  66.562  1.00  0.00     0.212 C  
HETATM   24  C   UNL     1     -11.569   6.409  68.921  1.00  0.00     0.152 C  
HETATM   25  O   UNL     1     -10.717   5.433  69.528  1.00  0.00    -0.295 OA 
HETATM   26  C   UNL     1     -10.759   7.668  68.595  1.00  0.00    -0.095 C  
HETATM   27  H   UNL     1     -10.290   5.785  70.300  1.00  0.00     0.000 HD 
HETATM   28  C   UNL     1      -9.786   7.443  67.432  1.00  0.00    -0.169 C  
HETATM   29  O   UNL     1      -9.196   8.698  67.087  1.00  0.00    -0.138 OA 
HETATM   30  C   UNL     1     -10.493   6.823  66.228  1.00  0.00     0.277 C  
HETATM   31  H   UNL     1      -8.592   8.558  66.366  1.00  0.00     0.000 HD 
HETATM   32  C   UNL     1     -10.489   7.338  64.988  1.00  0.00     4.949 C  
ENDBRANCH  11  21
TORSDOF 1
ENDMDL
MODEL      138
REMARK 921   NORMALIZED FREE ENERGY PREDICTED BY IDOCK:   19.20 KCAL/MOL
REMARK 922        TOTAL FREE ENERGY PREDICTED BY IDOCK:   19.88 KCAL/MOL
REMARK 923 INTER-LIGAND FREE ENERGY PREDICTED BY IDOCK:   15.18 KCAL/MOL
REMARK 924 INTRA-LIGAND FREE ENERGY PREDICTED BY IDOCK:    4.70 KCAL/MOL
REMARK 927      BINDING AFFINITY PREDICTED BY RF-SCORE:    0.00 PKD
ROOT
HETATM    1  C   UNL     1      -9.539  13.909  67.037  1.00  0.00    -0.254 C  
HETATM    2  C   UNL     1     -10.886  14.387  67.581  1.00  0.00    -0.276 C  
HETATM    3  C   UNL     1      -8.874  13.004  68.169  1.00  0.00    -0.194 C  
HETATM    4  C   UNL     1      -7.462  12.465  67.917  1.00  0.00    -0.120 C  
HETATM    5  C   UNL     1     -10.570  15.668  68.328  1.00  0.00    -0.262 C  
HETATM    6  C   UNL     1      -9.708  11.754  68.391  1.00  0.00    -0.197 C  
HETATM    7  C   UNL     1      -9.167  16.172  67.897  1.00  0.00    -0.200 C  
HETATM    8  C   UNL     1     -10.176  11.308  69.571  1.00  0.00     0.122 C  
HETATM    9  C   UNL     1      -9.187  17.695  67.677  1.00  0.00    -0.245 C  
HETATM   10  C   UNL     1     -10.922   9.992  69.667  1.00  0.00    -0.301 C  
HETATM   11  C   UNL     1      -9.957  18.625  68.293  1.00  0.00    -0.424 C  
HETATM   12  C   UNL     1      -8.296  18.137  66.547  1.00  0.00    -0.288 C  
HETATM   13  C   UNL     1     -10.182   8.889  70.475  1.00  0.00    -0.247 C  
HETATM   14  C   UNL     1     -12.358  10.232  70.142  1.00  0.00    -0.213 C  
HETATM   15  C   UNL     1      -8.732   8.708  70.000  1.00  0.00    -0.141 C  
HETATM   16  C   UNL     1      -8.613  17.419  65.236  1.00  0.00     1.981 C  
HETATM   17  C   UNL     1      -7.357  14.958  66.286  1.00  0.00     2.365 C  
HETATM   18  C   UNL     1     -10.192   9.068  71.996  1.00  0.00    -0.270 C  
HETATM   19  C   UNL     1      -9.362  16.062  65.405  1.00  0.00     0.264 C  
HETATM   20  C   UNL     1      -8.823  15.271  66.641  1.00  0.00    -0.328 C  
ENDROOT
BRANCH  11  21
HETATM   21  C   UNL     1     -10.838  18.450  69.435  1.00  0.00     1.218 C  
HETATM   22  C   UNL     1     -11.745  17.421  71.532  1.00  0.00     2.356 C  
HETATM   23  C   UNL     1     -10.695  17.555  70.436  1.00  0.00     1.157 C  
HETATM   24  C   UNL     1     -12.283  15.992  71.596  1.00  0.00    -0.453 C  
HETATM   25  O   UNL     1     -13.062  15.683  70.436  1.00  0.00    -0.690 OA 
HETATM   26  C   UNL     1     -11.153  14.968  71.746  1.00  0.00    -0.025 C  
HETATM   27  H   UNL     1     -13.396  14.794  70.476  1.00  0.00     0.000 HD 
HETATM   28  C   UNL     1     -10.070  15.145  70.675  1.00  0.00     0.464 C  
HETATM   29  O   UNL     1      -8.983  14.269  70.982  1.00  0.00     2.703 OA 
HETATM   30  C   UNL     1      -9.596  16.596  70.598  1.00  0.00     2.566 C  
HETATM   31  H   UNL     1      -8.312  14.379  70.318  1.00  0.00     0.000 HD 
HETATM   32  C   UNL     1      -8.319  16.992  70.714  1.00  0.00     5.118 C  
ENDBRANCH  11  21
TORSDOF 1
ENDMDL
MODEL      139
REMARK 921   NORMALIZED FREE ENERGY PREDICTED BY IDOCK:   20.18 KCAL/MOL
REMARK 922        TOTAL FREE ENERGY PREDICTED BY IDOCK:   20.92 KCAL/MOL
REMARK 923 INTER-LIGAND FREE ENERGY PREDICTED BY IDOCK:   17.37 KCAL/MOL
REMARK 924 INTRA-LIGAND FREE ENERGY PREDICTED BY IDOCK:    3.55 KCAL/MOL
REMARK 927      BINDING AFFINITY PREDICTED BY RF-SCORE:    0.00 PKD
ROOT
HETATM    1  C   UNL     1      -9.638  14.668  70.205  1.00  0.00     0.964 C  
HETATM    2  C   UNL     1      -8.648  13.635  69.665  1.00  0.00     1.379 C  
HETATM    3  C   UNL     1     -11.095  14.041  70.052  1.00  0.00     0.026 C  
HETATM    4  C   UNL     1     -12.295  14.913  70.439  1.00  0.00    -0.401 C  
HETATM    5  C   UNL     1      -8.549  13.933  68.180  1.00  0.00    -0.180 C  
HETATM    6  C   UNL     1     -11.231  12.818  70.944  1.00  0.00     2.048 C  
HETATM    7  C   UNL     1      -9.123  15.349  67.910  1.00  0.00    -0.178 C  
HETATM    8  C   UNL     1     -11.644  11.595  70.561  1.00  0.00    -0.028 C  
HETATM    9  C   UNL     1      -8.223  16.113  66.923  1.00  0.00    -0.273 C  
HETATM   10  C   UNL     1     -11.822  10.480  71.572  1.00  0.00    -0.111 C  
HETATM   11  C   UNL     1      -7.453  15.615  65.925  1.00  0.00     2.535 C  
HETATM   12  C   UNL     1      -8.142  17.587  67.222  1.00  0.00    -0.219 C  
HETATM   13  C   UNL     1     -13.294  10.018  71.770  1.00  0.00    -0.492 C  
HETATM   14  C   UNL     1     -10.859   9.330  71.265  1.00  0.00    -0.417 C  
HETATM   15  C   UNL     1     -14.236  11.203  72.032  1.00  0.00     1.074 C  
HETATM   16  C   UNL     1      -7.699  17.871  68.656  1.00  0.00    -0.293 C  
HETATM   17  C   UNL     1     -10.356  17.032  69.639  1.00  0.00    -0.070 C  
HETATM   18  C   UNL     1     -13.870   9.159  70.641  1.00  0.00     0.458 C  
HETATM   19  C   UNL     1      -7.927  16.692  69.651  1.00  0.00     0.490 C  
HETATM   20  C   UNL     1      -9.281  15.965  69.360  1.00  0.00    -0.235 C  
ENDROOT
BRANCH  11  21
HETATM   21  C   UNL     1      -7.408  14.254  65.418  1.00  0.00     8.876 C  
HETATM   22  C   UNL     1      -8.227  11.947  64.883  1.00  0.00     1.579 C  
HETATM   23  C   UNL     1      -8.434  13.379  65.361  1.00  0.00     2.666 C  
HETATM   24  C   UNL     1      -8.670  10.949  65.952  1.00  0.00    -0.183 C  
HETATM   25  O   UNL     1      -7.796  10.986  67.084  1.00  0.00    -0.123 OA 
HETATM   26  C   UNL     1     -10.111  11.207  66.404  1.00  0.00    -0.269 C  
HETATM   27  H   UNL     1      -8.071  10.365  67.749  1.00  0.00     0.000 HD 
HETATM   28  C   UNL     1     -10.329  12.664  66.828  1.00  0.00    -0.235 C  
HETATM   29  O   UNL     1     -11.723  12.860  67.076  1.00  0.00    -0.350 OA 
HETATM   30  C   UNL     1      -9.822  13.635  65.763  1.00  0.00    -0.230 C  
HETATM   31  H   UNL     1     -11.858  13.763  67.339  1.00  0.00     0.000 HD 
HETATM   32  C   UNL     1     -10.560  14.602  65.195  1.00  0.00    -0.441 C  
ENDBRANCH  11  21
TORSDOF 1
ENDMDL
MODEL      140
REMARK 921   NORMALIZED FREE ENERGY PREDICTED BY IDOCK:   21.02 KCAL/MOL
REMARK 922        TOTAL FREE ENERGY PREDICTED BY IDOCK:   21.80 KCAL/MOL
REMARK 923 INTER-LIGAND FREE ENERGY PREDICTED BY IDOCK:   22.64 KCAL/MOL
REMARK 924 INTRA-LIGAND FREE ENERGY PREDICTED BY IDOCK:   -0.83 KCAL/MOL
REMARK 927      BINDING AFFINITY PREDICTED BY RF-SCORE:    0.00 PKD
ROOT
HETATM    1  C   UNL     1      -6.751   8.445  72.299  1.00  0.00    -0.097 C  
HETATM    2  C   UNL     1      -6.822   8.473  70.772  1.00  0.00    -0.044 C  
HETATM    3  C   UNL     1      -8.069   7.708  72.812  1.00  0.00    -0.145 C  
HETATM    4  C   UNL     1      -8.298   7.622  74.325  1.00  0.00    -0.278 C  
HETATM    5  C   UNL     1      -7.582   9.744  70.442  1.00  0.00    -0.165 C  
HETATM    6  C   UNL     1      -8.063   6.257  72.361  1.00  0.00    -0.104 C  
HETATM    7  C   UNL     1      -7.599  10.661  71.693  1.00  0.00     4.529 C  
HETATM    8  C   UNL     1      -9.049   5.624  71.701  1.00  0.00    -0.150 C  
HETATM    9  C   UNL     1      -7.326  12.121  71.292  1.00  0.00     6.309 C  
HETATM   10  C   UNL     1      -8.954   4.144  71.388  1.00  0.00    -0.165 C  
HETATM   11  C   UNL     1      -7.630  12.747  70.129  1.00  0.00     2.267 C  
HETATM   12  C   UNL     1      -6.520  12.872  72.319  1.00  0.00     3.770 C  
HETATM   13  C   UNL     1      -9.996   3.260  72.131  1.00  0.00    -0.231 C  
HETATM   14  C   UNL     1      -8.940   3.924  69.873  1.00  0.00    -0.162 C  
HETATM   15  C   UNL     1     -10.012   3.540  73.641  1.00  0.00    -0.170 C  
HETATM   16  C   UNL     1      -5.205  12.172  72.657  1.00  0.00     0.505 C  
HETATM   17  C   UNL     1      -6.691  10.130  74.191  1.00  0.00     1.963 C  
HETATM   18  C   UNL     1     -11.427   3.336  71.591  1.00  0.00     3.138 C  
HETATM   19  C   UNL     1      -5.179  10.648  72.331  1.00  0.00     0.252 C  
HETATM   20  C   UNL     1      -6.551   9.977  72.665  1.00  0.00     1.740 C  
ENDROOT
BRANCH  11  21
HETATM   21  C   UNL     1      -8.441  12.253  69.028  1.00  0.00     0.387 C  
HETATM   22  C   UNL     1     -10.485  11.912  67.621  1.00  0.00    -0.232 C  
HETATM   23  C   UNL     1      -9.726  12.573  68.764  1.00  0.00     0.045 C  
HETATM   24  C   UNL     1     -11.748  11.223  68.135  1.00  0.00    -0.253 C  
HETATM   25  O   UNL     1     -11.422  10.084  68.938  1.00  0.00    -0.467 OA 
HETATM   26  C   UNL     1     -12.629  12.184  68.940  1.00  0.00     0.800 C  
HETATM   27  H   UNL     1     -12.208   9.655  69.258  1.00  0.00     0.000 HD 
HETATM   28  C   UNL     1     -11.845  12.891  70.052  1.00  0.00    -0.286 C  
HETATM   29  O   UNL     1     -12.690  13.882  70.641  1.00  0.00    -0.321 OA 
HETATM   30  C   UNL     1     -10.561  13.518  69.513  1.00  0.00     0.252 C  
HETATM   31  H   UNL     1     -12.204  14.320  71.331  1.00  0.00     0.000 HD 
HETATM   32  C   UNL     1     -10.223  14.811  69.651  1.00  0.00    -0.048 C  
ENDBRANCH  11  21
TORSDOF 1
ENDMDL
MODEL      141
REMARK 921   NORMALIZED FREE ENERGY PREDICTED BY IDOCK:   23.65 KCAL/MOL
REMARK 922        TOTAL FREE ENERGY PREDICTED BY IDOCK:   24.59 KCAL/MOL
REMARK 923 INTER-LIGAND FREE ENERGY PREDICTED BY IDOCK:   20.09 KCAL/MOL
REMARK 924 INTRA-LIGAND FREE ENERGY PREDICTED BY IDOCK:    4.50 KCAL/MOL
REMARK 927      BINDING AFFINITY PREDICTED BY RF-SCORE:    0.00 PKD
ROOT
HETATM    1  C   UNL     1      -6.741   7.841  68.084  1.00  0.00    -0.067 C  
HETATM    2  C   UNL     1      -7.392   6.677  67.335  1.00  0.00    -0.095 C  
HETATM    3  C   UNL     1      -7.019   7.608  69.636  1.00  0.00    -0.052 C  
HETATM    4  C   UNL     1      -6.548   8.687  70.618  1.00  0.00    -0.042 C  
HETATM    5  C   UNL     1      -8.817   7.130  67.080  1.00  0.00    -0.125 C  
HETATM    6  C   UNL     1      -6.310   6.351  70.110  1.00  0.00    -0.039 C  
HETATM    7  C   UNL     1      -8.904   8.665  67.287  1.00  0.00    -0.141 C  
HETATM    8  C   UNL     1      -6.869   5.323  70.775  1.00  0.00    -0.047 C  
HETATM    9  C   UNL     1      -9.750   9.309  66.175  1.00  0.00    -0.349 C  
HETATM   10  C   UNL     1      -6.028   4.164  71.270  1.00  0.00    -0.014 C  
HETATM   11  C   UNL     1     -10.786   8.772  65.485  1.00  0.00     3.278 C  
HETATM   12  C   UNL     1      -9.249  10.670  65.768  1.00  0.00    -0.218 C  
HETATM   13  C   UNL     1      -5.937   4.049  72.819  1.00  0.00    -0.015 C  
HETATM   14  C   UNL     1      -6.464   2.864  70.589  1.00  0.00    -0.027 C  
HETATM   15  C   UNL     1      -5.539   5.383  73.470  1.00  0.00    -0.023 C  
HETATM   16  C   UNL     1      -7.777  10.652  65.357  1.00  0.00    -0.051 C  
HETATM   17  C   UNL     1      -6.993  10.361  68.191  1.00  0.00    -0.073 C  
HETATM   18  C   UNL     1      -7.189   3.506  73.513  1.00  0.00    -0.055 C  
HETATM   19  C   UNL     1      -6.962   9.446  65.915  1.00  0.00    -0.090 C  
HETATM   20  C   UNL     1      -7.388   9.110  67.382  1.00  0.00    -0.084 C  
ENDROOT
BRANCH  11  21
HETATM   21  C   UNL     1     -11.475   7.517  65.732  1.00  0.00     5.675 C  
HETATM   22  C   UNL     1     -12.314   5.543  67.029  1.00  0.00     6.318 C  
HETATM   23  C   UNL     1     -11.642   6.907  66.925  1.00  0.00     0.996 C  
HETATM   24  C   UNL     1     -11.388   4.532  67.703  1.00  0.00     4.016 C  
HETATM   25  O   UNL     1     -10.270   4.221  66.866  1.00  0.00    -0.248 OA 
HETATM   26  C   UNL     1     -10.890   5.040  69.060  1.00  0.00     0.540 C  
HETATM   27  H   UNL     1      -9.694   3.592  67.286  1.00  0.00     0.000 HD 
HETATM   28  C   UNL     1     -10.267   6.437  68.960  1.00  0.00    -0.183 C  
HETATM   29  O   UNL     1      -9.982   6.901  70.282  1.00  0.00    -0.178 OA 
HETATM   30  C   UNL     1     -11.195   7.407  68.230  1.00  0.00     0.274 C  
HETATM   31  H   UNL     1      -9.596   7.768  70.219  1.00  0.00     0.000 HD 
HETATM   32  C   UNL     1     -11.617   8.582  68.724  1.00  0.00     1.207 C  
ENDBRANCH  11  21
TORSDOF 1
ENDMDL
MODEL      142
REMARK 921   NORMALIZED FREE ENERGY PREDICTED BY IDOCK:   24.07 KCAL/MOL
REMARK 922        TOTAL FREE ENERGY PREDICTED BY IDOCK:   25.04 KCAL/MOL
REMARK 923 INTER-LIGAND FREE ENERGY PREDICTED BY IDOCK:   14.02 KCAL/MOL
REMARK 924 INTRA-LIGAND FREE ENERGY PREDICTED BY IDOCK:   11.02 KCAL/MOL
REMARK 927      BINDING AFFINITY PREDICTED BY RF-SCORE:    0.00 PKD
ROOT
HETATM    1  C   UNL     1      -9.545  10.055  66.150  1.00  0.00    -0.265 C  
HETATM    2  C   UNL     1     -10.591   9.687  67.203  1.00  0.00    -0.298 C  
HETATM    3  C   UNL     1      -8.348   9.014  66.300  1.00  0.00    -0.122 C  
HETATM    4  C   UNL     1      -7.111   9.212  65.416  1.00  0.00    -0.081 C  
HETATM    5  C   UNL     1     -10.173  10.446  68.448  1.00  0.00    -0.186 C  
HETATM    6  C   UNL     1      -8.827   7.616  65.948  1.00  0.00    -0.163 C  
HETATM    7  C   UNL     1      -9.167  11.557  68.048  1.00  0.00    -0.175 C  
HETATM    8  C   UNL     1      -8.689   6.512  66.706  1.00  0.00    -0.123 C  
HETATM    9  C   UNL     1      -9.490  12.867  68.788  1.00  0.00     0.110 C  
HETATM   10  C   UNL     1      -9.134   5.156  66.197  1.00  0.00    -0.144 C  
HETATM   11  C   UNL     1     -10.052  13.027  70.011  1.00  0.00     2.222 C  
HETATM   12  C   UNL     1      -9.227  14.093  67.955  1.00  0.00    -0.196 C  
HETATM   13  C   UNL     1      -7.976   4.144  65.962  1.00  0.00    -0.094 C  
HETATM   14  C   UNL     1     -10.256   4.601  67.079  1.00  0.00    -0.174 C  
HETATM   15  C   UNL     1      -6.850   4.750  65.110  1.00  0.00    -0.057 C  
HETATM   16  C   UNL     1      -9.962  14.059  66.615  1.00  0.00    -0.280 C  
HETATM   17  C   UNL     1      -8.051  12.034  65.625  1.00  0.00     1.018 C  
HETATM   18  C   UNL     1      -7.372   3.530  67.228  1.00  0.00    -0.063 C  
HETATM   19  C   UNL     1     -10.373  12.633  66.138  1.00  0.00    -0.273 C  
HETATM   20  C   UNL     1      -9.260  11.585  66.467  1.00  0.00    -0.203 C  
ENDROOT
BRANCH  11  21
HETATM   21  C   UNL     1     -10.337  12.010  71.009  1.00  0.00     5.872 C  
HETATM   22  C   UNL     1     -11.508  10.071  72.081  1.00  0.00     1.080 C  
HETATM   23  C   UNL     1     -11.251  11.021  70.917  1.00  0.00     0.595 C  
HETATM   24  C   UNL     1     -12.977  10.109  72.498  1.00  0.00     0.171 C  
HETATM   25  O   UNL     1     -13.309  11.366  73.096  1.00  0.00     1.148 OA 
HETATM   26  C   UNL     1     -13.909   9.841  71.312  1.00  0.00    -0.101 C  
HETATM   27  H   UNL     1     -14.223  11.390  73.356  1.00  0.00     0.000 HD 
HETATM   28  C   UNL     1     -13.608  10.760  70.123  1.00  0.00     1.152 C  
HETATM   29  O   UNL     1     -14.402  10.338  69.012  1.00  0.00     4.187 OA 
HETATM   30  C   UNL     1     -12.122  10.742  69.769  1.00  0.00    -0.389 C  
HETATM   31  H   UNL     1     -14.215  10.908  68.275  1.00  0.00     0.000 HD 
HETATM   32  C   UNL     1     -11.626  10.455  68.555  1.00  0.00    -0.152 C  
ENDBRANCH  11  21
TORSDOF 1
ENDMDL
MODEL      143
REMARK 921   NORMALIZED FREE ENERGY PREDICTED BY IDOCK:   26.47 KCAL/MOL
REMARK 922        TOTAL FREE ENERGY PREDICTED BY IDOCK:   27.57 KCAL/MOL
REMARK 923 INTER-LIGAND FREE ENERGY PREDICTED BY IDOCK:   28.22 KCAL/MOL
REMARK 924 INTRA-LIGAND FREE ENERGY PREDICTED BY IDOCK:   -0.65 KCAL/MOL
REMARK 927      BINDING AFFINITY PREDICTED BY RF-SCORE:    0.00 PKD
ROOT
HETATM    1  C   UNL     1      -8.646  15.141  67.620  1.00  0.00    -0.180 C  
HETATM    2  C   UNL     1      -9.672  16.223  67.962  1.00  0.00    -0.230 C  
HETATM    3  C   UNL     1      -9.435  13.970  66.879  1.00  0.00    -0.271 C  
HETATM    4  C   UNL     1      -8.654  12.707  66.503  1.00  0.00     0.051 C  
HETATM    5  C   UNL     1     -10.220  15.823  69.319  1.00  0.00    -0.248 C  
HETATM    6  C   UNL     1      -9.983  14.469  65.553  1.00  0.00    -0.373 C  
HETATM    7  C   UNL     1      -9.265  14.783  69.962  1.00  0.00     0.585 C  
HETATM    8  C   UNL     1     -11.257  14.375  65.131  1.00  0.00    -0.359 C  
HETATM    9  C   UNL     1      -9.052  15.098  71.453  1.00  0.00     3.531 C  
HETATM   10  C   UNL     1     -11.655  14.834  63.742  1.00  0.00     0.546 C  
HETATM   11  C   UNL     1      -9.911  15.689  72.320  1.00  0.00     4.612 C  
HETATM   12  C   UNL     1      -7.658  14.787  71.927  1.00  0.00     3.882 C  
HETATM   13  C   UNL     1     -12.118  13.692  62.793  1.00  0.00     1.208 C  
HETATM   14  C   UNL     1     -12.654  15.991  63.834  1.00  0.00     1.260 C  
HETATM   15  C   UNL     1     -11.112  12.531  62.762  1.00  0.00     1.109 C  
HETATM   16  C   UNL     1      -6.586  15.486  71.091  1.00  0.00     1.168 C  
HETATM   17  C   UNL     1      -7.084  13.592  68.878  1.00  0.00    -0.093 C  
HETATM   18  C   UNL     1     -13.517  13.136  63.069  1.00  0.00     2.737 C  
HETATM   19  C   UNL     1      -7.052  15.914  69.667  1.00  0.00    -0.130 C  
HETATM   20  C   UNL     1      -7.985  14.832  69.030  1.00  0.00    -0.152 C  
ENDROOT
BRANCH  11  21
HETATM   21  C   UNL     1     -11.310  16.022  72.113  1.00  0.00    -0.153 C  
HETATM   22  C   UNL     1     -13.709  15.681  71.474  1.00  0.00    -0.431 C  
HETATM   23  C   UNL     1     -12.296  15.178  71.741  1.00  0.00    -0.424 C  
HETATM   24  C   UNL     1     -14.154  15.325  70.057  1.00  0.00     1.895 C  
HETATM   25  O   UNL     1     -13.414  16.068  69.084  1.00  0.00     0.987 OA 
HETATM   26  C   UNL     1     -14.009  13.825  69.779  1.00  0.00     3.977 C  
HETATM   27  H   UNL     1     -13.691  15.847  68.202  1.00  0.00     0.000 HD 
HETATM   28  C   UNL     1     -12.601  13.312  70.104  1.00  0.00    -0.044 C  
HETATM   29  O   UNL     1     -12.597  11.888  69.976  1.00  0.00    -0.065 OA 
HETATM   30  C   UNL     1     -12.166  13.735  71.506  1.00  0.00    -0.175 C  
HETATM   31  H   UNL     1     -11.724  11.571  70.178  1.00  0.00     0.000 HD 
HETATM   32  C   UNL     1     -11.749  12.894  72.465  1.00  0.00     4.000 C  
ENDBRANCH  11  21
TORSDOF 1
ENDMDL
MODEL      144
REMARK 921   NORMALIZED FREE ENERGY PREDICTED BY IDOCK:   26.58 KCAL/MOL
REMARK 922        TOTAL FREE ENERGY PREDICTED BY IDOCK:   27.69 KCAL/MOL
REMARK 923 INTER-LIGAND FREE ENERGY PREDICTED BY IDOCK:   26.06 KCAL/MOL
REMARK 924 INTRA-LIGAND FREE ENERGY PREDICTED BY IDOCK:    1.63 KCAL/MOL
REMARK 927      BINDING AFFINITY PREDICTED BY RF-SCORE:    0.00 PKD
ROOT
HETATM    1  C   UNL     1      -9.508  13.917  67.003  1.00  0.00    -0.256 C  
HETATM    2  C   UNL     1     -10.394  14.985  67.646  1.00  0.00    -0.243 C  
HETATM    3  C   UNL     1      -9.383  12.724  68.052  1.00  0.00    -0.213 C  
HETATM    4  C   UNL     1      -8.466  11.549  67.694  1.00  0.00    -0.135 C  
HETATM    5  C   UNL     1      -9.436  15.863  68.431  1.00  0.00    -0.201 C  
HETATM    6  C   UNL     1     -10.740  12.075  68.267  1.00  0.00    -0.252 C  
HETATM    7  C   UNL     1      -7.989  15.594  67.941  1.00  0.00    -0.151 C  
HETATM    8  C   UNL     1     -11.340  11.857  69.452  1.00  0.00    -0.327 C  
HETATM    9  C   UNL     1      -7.218  16.917  67.790  1.00  0.00    -0.158 C  
HETATM   10  C   UNL     1     -12.659  11.116  69.533  1.00  0.00     0.002 C  
HETATM   11  C   UNL     1      -7.373  18.067  68.491  1.00  0.00    -0.276 C  
HETATM   12  C   UNL     1      -6.258  16.910  66.631  1.00  0.00    -0.206 C  
HETATM   13  C   UNL     1     -12.581   9.735  70.245  1.00  0.00     0.124 C  
HETATM   14  C   UNL     1     -13.747  12.032  70.101  1.00  0.00     3.130 C  
HETATM   15  C   UNL     1     -11.452   8.862  69.678  1.00  0.00     0.256 C  
HETATM   16  C   UNL     1      -6.938  16.552  65.310  1.00  0.00     4.065 C  
HETATM   17  C   UNL     1      -7.121  13.732  66.173  1.00  0.00     4.040 C  
HETATM   18  C   UNL     1     -12.456   9.789  71.770  1.00  0.00    -0.485 C  
HETATM   19  C   UNL     1      -8.280  15.773  65.462  1.00  0.00     2.127 C  
HETATM   20  C   UNL     1      -8.199  14.734  66.627  1.00  0.00     0.092 C  
ENDROOT
BRANCH  11  21
HETATM   21  C   UNL     1      -8.185  18.296  69.675  1.00  0.00     0.839 C  
HETATM   22  C   UNL     1     -10.189  18.960  71.023  1.00  0.00     2.539 C  
HETATM   23  C   UNL     1      -9.482  18.670  69.706  1.00  0.00     0.732 C  
HETATM   24  C   UNL     1     -10.756  20.378  71.034  1.00  0.00     3.405 C  
HETATM   25  O   UNL     1      -9.708  21.351  71.070  1.00  0.00     1.944 OA 
HETATM   26  C   UNL     1     -11.657  20.636  69.821  1.00  0.00     3.615 C  
HETATM   27  H   UNL     1     -10.061  22.234  71.076  1.00  0.00     0.000 HD 
HETATM   28  C   UNL     1     -10.960  20.287  68.501  1.00  0.00     0.824 C  
HETATM   29  O   UNL     1     -11.914  20.398  67.442  1.00  0.00     1.939 OA 
HETATM   30  C   UNL     1     -10.355  18.885  68.546  1.00  0.00    -0.312 C  
HETATM   31  H   UNL     1     -11.482  20.181  66.624  1.00  0.00     0.000 HD 
HETATM   32  C   UNL     1     -10.613  17.910  67.660  1.00  0.00    -0.398 C  
ENDBRANCH  11  21
TORSDOF 1
ENDMDL
MODEL      145
REMARK 921   NORMALIZED FREE ENERGY PREDICTED BY IDOCK:   28.41 KCAL/MOL
REMARK 922        TOTAL FREE ENERGY PREDICTED BY IDOCK:   29.63 KCAL/MOL
REMARK 923 INTER-LIGAND FREE ENERGY PREDICTED BY IDOCK:   -4.12 KCAL/MOL
REMARK 924 INTRA-LIGAND FREE ENERGY PREDICTED BY IDOCK:   33.74 KCAL/MOL
REMARK 927      BINDING AFFINITY PREDICTED BY RF-SCORE:    0.00 PKD
ROOT
HETATM    1  C   UNL     1      -8.495   8.235  69.100  1.00  0.00    -0.127 C  
HETATM    2  C   UNL     1      -7.778   8.683  67.826  1.00  0.00    -0.102 C  
HETATM    3  C   UNL     1      -8.877   6.700  68.904  1.00  0.00    -0.131 C  
HETATM    4  C   UNL     1      -9.693   6.018  70.008  1.00  0.00    -0.202 C  
HETATM    5  C   UNL     1      -8.887   9.146  66.900  1.00  0.00    -0.137 C  
HETATM    6  C   UNL     1      -7.616   5.858  68.809  1.00  0.00    -0.090 C  
HETATM    7  C   UNL     1     -10.178   9.368  67.730  1.00  0.00    -0.273 C  
HETATM    8  C   UNL     1      -7.317   4.978  67.836  1.00  0.00    -0.075 C  
HETATM    9  C   UNL     1     -10.879  10.667  67.295  1.00  0.00    -0.345 C  
HETATM   10  C   UNL     1      -6.062   4.132  67.908  1.00  0.00    -0.032 C  
HETATM   11  C   UNL     1     -10.885  11.253  66.073  1.00  0.00    -0.273 C  
HETATM   12  C   UNL     1     -11.536  11.393  68.440  1.00  0.00    -0.385 C  
HETATM   13  C   UNL     1      -6.320   2.608  68.079  1.00  0.00    -0.029 C  
HETATM   14  C   UNL     1      -5.133   4.463  66.736  1.00  0.00    -0.008 C  
HETATM   15  C   UNL     1      -7.290   2.317  69.234  1.00  0.00    -0.043 C  
HETATM   16  C   UNL     1     -10.564  11.685  69.582  1.00  0.00     0.214 C  
HETATM   17  C   UNL     1     -10.618   8.832  70.350  1.00  0.00    -0.251 C  
HETATM   18  C   UNL     1      -6.804   1.878  66.823  1.00  0.00    -0.039 C  
HETATM   19  C   UNL     1      -9.304  10.767  69.612  1.00  0.00     0.215 C  
HETATM   20  C   UNL     1      -9.670   9.296  69.228  1.00  0.00    -0.169 C  
ENDROOT
BRANCH  11  21
HETATM   21  C   UNL     1     -10.377  10.722  64.819  1.00  0.00    -0.380 C  
HETATM   22  C   UNL     1      -9.029   9.263  63.291  1.00  0.00    -0.081 C  
HETATM   23  C   UNL     1      -9.557   9.661  64.664  1.00  0.00    -0.147 C  
HETATM   24  C   UNL     1      -7.502   9.252  63.280  1.00  0.00    -0.103 C  
HETATM   25  O   UNL     1      -6.976  10.577  63.399  1.00  0.00    -0.311 OA 
HETATM   26  C   UNL     1      -6.935   8.371  64.398  1.00  0.00    -0.073 C  
HETATM   27  H   UNL     1      -6.026  10.570  63.391  1.00  0.00     0.000 HD 
HETATM   28  C   UNL     1      -7.513   8.736  65.769  1.00  0.00    -0.085 C  
HETATM   29  O   UNL     1      -7.064   7.770  66.722  1.00  0.00    -0.076 OA 
HETATM   30  C   UNL     1      -9.039   8.796  65.730  1.00  0.00    -0.267 C  
HETATM   31  H   UNL     1      -7.423   7.997  67.572  1.00  0.00     0.000 HD 
HETATM   32  C   UNL     1      -9.854   8.102  66.541  1.00  0.00    -0.309 C  
ENDBRANCH  11  21
TORSDOF 1
ENDMDL
MODEL      146
REMARK 921   NORMALIZED FREE ENERGY PREDICTED BY IDOCK:   30.01 KCAL/MOL
REMARK 922        TOTAL FREE ENERGY PREDICTED BY IDOCK:   31.32 KCAL/MOL
REMARK 923 INTER-LIGAND FREE ENERGY PREDICTED BY IDOCK:   26.82 KCAL/MOL
REMARK 924 INTRA-LIGAND FREE ENERGY PREDICTED BY IDOCK:    4.50 KCAL/MOL
REMARK 927      BINDING AFFINITY PREDICTED BY RF-SCORE:    0.00 PKD
ROOT
HETATM    1  C   UNL     1      -6.526  10.008  67.121  1.00  0.00    -0.069 C  
HETATM    2  C   UNL     1      -7.139   8.827  66.367  1.00  0.00    -0.083 C  
HETATM    3  C   UNL     1      -6.842   9.787  68.668  1.00  0.00    -0.051 C  
HETATM    4  C   UNL     1      -6.414  10.884  69.650  1.00  0.00    -0.114 C  
HETATM    5  C   UNL     1      -8.564   9.253  66.070  1.00  0.00    -0.158 C  
HETATM    6  C   UNL     1      -6.126   8.546  69.173  1.00  0.00    -0.042 C  
HETATM    7  C   UNL     1      -8.681  10.789  66.258  1.00  0.00    -0.175 C  
HETATM    8  C   UNL     1      -6.686   7.517  69.834  1.00  0.00    -0.046 C  
HETATM    9  C   UNL     1      -9.508  11.408  65.117  1.00  0.00    -0.223 C  
HETATM   10  C   UNL     1      -5.839   6.377  70.364  1.00  0.00    -0.019 C  
HETATM   11  C   UNL     1     -10.516  10.847  64.407  1.00  0.00    -0.403 C  
HETATM   12  C   UNL     1      -9.017  12.772  64.709  1.00  0.00     1.470 C  
HETATM   13  C   UNL     1      -5.787   6.279  71.916  1.00  0.00    -0.036 C  
HETATM   14  C   UNL     1      -6.237   5.063  69.685  1.00  0.00    -0.026 C  
HETATM   15  C   UNL     1      -5.428   7.626  72.562  1.00  0.00    -0.036 C  
HETATM   16  C   UNL     1      -7.535  12.774  64.337  1.00  0.00     8.749 C  
HETATM   17  C   UNL     1      -6.822  12.524  67.194  1.00  0.00    -0.058 C  
HETATM   18  C   UNL     1      -7.048   5.723  72.582  1.00  0.00    -0.085 C  
HETATM   19  C   UNL     1      -6.716  11.587  64.930  1.00  0.00     1.955 C  
HETATM   20  C   UNL     1      -7.175  11.260  66.389  1.00  0.00    -0.052 C  
ENDROOT
BRANCH  11  21
HETATM   21  C   UNL     1     -11.192   9.583  64.649  1.00  0.00     5.616 C  
HETATM   22  C   UNL     1     -12.032   7.610  65.944  1.00  0.00     8.101 C  
HETATM   23  C   UNL     1     -11.380   8.983  65.844  1.00  0.00     3.747 C  
HETATM   24  C   UNL     1     -11.108   6.621  66.654  1.00  0.00     0.063 C  
HETATM   25  O   UNL     1      -9.964   6.319  65.850  1.00  0.00    -0.388 OA 
HETATM   26  C   UNL     1     -10.654   7.150  68.018  1.00  0.00    -0.251 C  
HETATM   27  H   UNL     1      -9.389   5.704  66.291  1.00  0.00     0.000 HD 
HETATM   28  C   UNL     1     -10.052   8.556  67.919  1.00  0.00    -0.207 C  
HETATM   29  O   UNL     1      -9.809   9.039  69.243  1.00  0.00    -0.171 OA 
HETATM   30  C   UNL     1     -10.975   9.504  67.155  1.00  0.00    -0.019 C  
HETATM   31  H   UNL     1      -9.436   9.911  69.181  1.00  0.00     0.000 HD 
HETATM   32  C   UNL     1     -11.429  10.677  67.625  1.00  0.00    -0.169 C  
ENDBRANCH  11  21
TORSDOF 1
ENDMDL
MODEL      147
REMARK 921   NORMALIZED FREE ENERGY PREDICTED BY IDOCK:   31.43 KCAL/MOL
REMARK 922        TOTAL FREE ENERGY PREDICTED BY IDOCK:   32.82 KCAL/MOL
REMARK 923 INTER-LIGAND FREE ENERGY PREDICTED BY IDOCK:   13.47 KCAL/MOL
REMARK 924 INTRA-LIGAND FREE ENERGY PREDICTED BY IDOCK:   19.36 KCAL/MOL
REMARK 927      BINDING AFFINITY PREDICTED BY RF-SCORE:    0.00 PKD
ROOT
HETATM    1  C   UNL     1      -8.291   5.070  70.408  1.00  0.00    -0.100 C  
HETATM    2  C   UNL     1      -9.399   4.377  69.616  1.00  0.00    -0.228 C  
HETATM    3  C   UNL     1      -8.707   6.602  70.547  1.00  0.00    -0.144 C  
HETATM    4  C   UNL     1      -7.718   7.555  71.229  1.00  0.00    -0.085 C  
HETATM    5  C   UNL     1      -9.003   4.549  68.162  1.00  0.00    -0.140 C  
HETATM    6  C   UNL     1      -9.967   6.725  71.387  1.00  0.00    -0.191 C  
HETATM    7  C   UNL     1      -7.507   4.954  68.091  1.00  0.00    -0.074 C  
HETATM    8  C   UNL     1     -11.091   7.382  71.046  1.00  0.00    -0.277 C  
HETATM    9  C   UNL     1      -6.792   4.180  66.969  1.00  0.00    -0.051 C  
HETATM   10  C   UNL     1     -12.248   7.504  72.017  1.00  0.00    -0.314 C  
HETATM   11  C   UNL     1      -7.308   3.717  65.804  1.00  0.00    -0.072 C  
HETATM   12  C   UNL     1      -5.370   3.826  67.313  1.00  0.00    -0.012 C  
HETATM   13  C   UNL     1     -12.527   8.953  72.510  1.00  0.00    -0.344 C  
HETATM   14  C   UNL     1     -13.488   6.804  71.453  1.00  0.00    -0.123 C  
HETATM   15  C   UNL     1     -11.253   9.637  73.027  1.00  0.00     3.739 C  
HETATM   16  C   UNL     1      -5.260   3.054  68.628  1.00  0.00    -0.012 C  
HETATM   17  C   UNL     1      -5.816   5.540  70.127  1.00  0.00    -0.021 C  
HETATM   18  C   UNL     1     -13.212   9.871  71.494  1.00  0.00    -0.501 C  
HETATM   19  C   UNL     1      -6.472   3.238  69.591  1.00  0.00    -0.033 C  
HETATM   20  C   UNL     1      -6.990   4.714  69.569  1.00  0.00    -0.050 C  
ENDROOT
BRANCH  11  21
HETATM   21  C   UNL     1      -8.620   3.978  65.236  1.00  0.00    -0.114 C  
HETATM   22  C   UNL     1     -10.902   4.991  65.030  1.00  0.00     0.535 C  
HETATM   23  C   UNL     1      -9.524   4.881  65.670  1.00  0.00    -0.168 C  
HETATM   24  C   UNL     1     -12.002   4.792  66.072  1.00  0.00     3.775 C  
HETATM   25  O   UNL     1     -12.027   3.440  66.540  1.00  0.00     6.632 OA 
HETATM   26  C   UNL     1     -11.835   5.746  67.259  1.00  0.00     2.477 C  
HETATM   27  H   UNL     1     -12.711   3.316  67.188  1.00  0.00     0.000 HD 
HETATM   28  C   UNL     1     -10.428   5.674  67.863  1.00  0.00    -0.211 C  
HETATM   29  O   UNL     1     -10.305   6.702  68.848  1.00  0.00    -0.170 OA 
HETATM   30  C   UNL     1      -9.354   5.819  66.786  1.00  0.00    -0.140 C  
HETATM   31  H   UNL     1      -9.432   6.657  69.222  1.00  0.00     0.000 HD 
HETATM   32  C   UNL     1      -8.370   6.732  66.804  1.00  0.00    -0.115 C  
ENDBRANCH  11  21
TORSDOF 1
ENDMDL
MODEL      148
REMARK 921   NORMALIZED FREE ENERGY PREDICTED BY IDOCK:   31.97 KCAL/MOL
REMARK 922        TOTAL FREE ENERGY PREDICTED BY IDOCK:   33.39 KCAL/MOL
REMARK 923 INTER-LIGAND FREE ENERGY PREDICTED BY IDOCK:   33.92 KCAL/MOL
REMARK 924 INTRA-LIGAND FREE ENERGY PREDICTED BY IDOCK:   -0.53 KCAL/MOL
REMARK 927      BINDING AFFINITY PREDICTED BY RF-SCORE:    0.00 PKD
ROOT
HETATM    1  C   UNL     1     -12.466   8.759  68.668  1.00  0.00     4.772 C  
HETATM    2  C   UNL     1     -12.648   9.383  67.284  1.00  0.00     9.212 C  
HETATM    3  C   UNL     1     -11.810   9.875  69.598  1.00  0.00     0.047 C  
HETATM    4  C   UNL     1     -11.433   9.482  71.031  1.00  0.00    -0.420 C  
HETATM    5  C   UNL     1     -11.339   9.121  66.564  1.00  0.00     1.867 C  
HETATM    6  C   UNL     1     -12.776  11.034  69.781  1.00  0.00    -0.024 C  
HETATM    7  C   UNL     1     -10.557   8.018  67.325  1.00  0.00    -0.360 C  
HETATM    8  C   UNL     1     -12.509  12.335  69.566  1.00  0.00     0.174 C  
HETATM    9  C   UNL     1      -9.943   7.014  66.333  1.00  0.00    -0.077 C  
HETATM   10  C   UNL     1     -13.539  13.404  69.874  1.00  0.00     2.320 C  
HETATM   11  C   UNL     1      -9.519   7.234  65.065  1.00  0.00     1.357 C  
HETATM   12  C   UNL     1      -9.937   5.601  66.854  1.00  0.00    -0.202 C  
HETATM   13  C   UNL     1     -13.149  14.360  71.037  1.00  0.00    -0.417 C  
HETATM   14  C   UNL     1     -13.937  14.139  68.591  1.00  0.00     8.126 C  
HETATM   15  C   UNL     1     -12.713  13.586  72.291  1.00  0.00    -0.192 C  
HETATM   16  C   UNL     1     -11.326   5.128  67.279  1.00  0.00     1.759 C  
HETATM   17  C   UNL     1     -11.168   6.835  69.686  1.00  0.00    -0.345 C  
HETATM   18  C   UNL     1     -12.084  15.406  70.699  1.00  0.00    -0.412 C  
HETATM   19  C   UNL     1     -12.332   6.275  67.601  1.00  0.00     5.022 C  
HETATM   20  C   UNL     1     -11.623   7.451  68.350  1.00  0.00     0.965 C  
ENDROOT
BRANCH  11  21
HETATM   21  C   UNL     1      -9.377   8.504  64.373  1.00  0.00     1.000 C  
HETATM   22  C   UNL     1      -8.682  10.883  64.004  1.00  0.00     0.001 C  
HETATM   23  C   UNL     1      -8.676   9.579  64.792  1.00  0.00    -0.225 C  
HETATM   24  C   UNL     1      -9.170  12.040  64.875  1.00  0.00     0.319 C  
HETATM   25  O   UNL     1     -10.561  11.902  65.181  1.00  0.00    -0.267 OA 
HETATM   26  C   UNL     1      -8.365  12.150  66.174  1.00  0.00     0.314 C  
HETATM   27  H   UNL     1     -10.865  12.622  65.722  1.00  0.00     0.000 HD 
HETATM   28  C   UNL     1      -8.313  10.819  66.933  1.00  0.00    -0.132 C  
HETATM   29  O   UNL     1      -7.415  10.962  68.036  1.00  0.00    -0.087 OA 
HETATM   30  C   UNL     1      -7.877   9.675  66.020  1.00  0.00    -0.102 C  
HETATM   31  H   UNL     1      -7.383  10.137  68.507  1.00  0.00     0.000 HD 
HETATM   32  C   UNL     1      -6.843   8.853  66.261  1.00  0.00    -0.074 C  
ENDBRANCH  11  21
TORSDOF 1
ENDMDL
MODEL      149
REMARK 921   NORMALIZED FREE ENERGY PREDICTED BY IDOCK:   34.36 KCAL/MOL
REMARK 922        TOTAL FREE ENERGY PREDICTED BY IDOCK:   35.92 KCAL/MOL
REMARK 923 INTER-LIGAND FREE ENERGY PREDICTED BY IDOCK:   22.63 KCAL/MOL
REMARK 924 INTRA-LIGAND FREE ENERGY PREDICTED BY IDOCK:   13.30 KCAL/MOL
REMARK 927      BINDING AFFINITY PREDICTED BY RF-SCORE:    0.00 PKD
ROOT
HETATM    1  C   UNL     1      -7.192  12.081  68.909  1.00  0.00    -0.089 C  
HETATM    2  C   UNL     1      -7.019  13.263  67.955  1.00  0.00    -0.137 C  
HETATM    3  C   UNL     1      -8.655  11.497  68.667  1.00  0.00    -0.109 C  
HETATM    4  C   UNL     1      -9.127  10.350  69.567  1.00  0.00    -0.129 C  
HETATM    5  C   UNL     1      -7.551  14.460  68.719  1.00  0.00    -0.131 C  
HETATM    6  C   UNL     1      -8.762  10.927  67.262  1.00  0.00    -0.131 C  
HETATM    7  C   UNL     1      -7.648  14.095  70.224  1.00  0.00     1.061 C  
HETATM    8  C   UNL     1      -9.705  11.225  66.350  1.00  0.00    -0.238 C  
HETATM    9  C   UNL     1      -7.134  15.258  71.092  1.00  0.00     1.608 C  
HETATM   10  C   UNL     1      -9.749  10.515  65.013  1.00  0.00    -0.351 C  
HETATM   11  C   UNL     1      -7.172  16.587  70.829  1.00  0.00     2.829 C  
HETATM   12  C   UNL     1      -6.411  14.793  72.329  1.00  0.00     1.015 C  
HETATM   13  C   UNL     1     -10.997   9.610  64.804  1.00  0.00     3.437 C  
HETATM   14  C   UNL     1      -9.526  11.515  63.875  1.00  0.00    -0.138 C  
HETATM   15  C   UNL     1     -11.214   8.652  65.985  1.00  0.00     3.258 C  
HETATM   16  C   UNL     1      -5.263  13.836  72.010  1.00  0.00    -0.196 C  
HETATM   17  C   UNL     1      -7.216  11.699  71.415  1.00  0.00     5.551 C  
HETATM   18  C   UNL     1     -12.305  10.352  64.514  1.00  0.00     5.624 C  
HETATM   19  C   UNL     1      -5.378  13.122  70.629  1.00  0.00    -0.151 C  
HETATM   20  C   UNL     1      -6.860  12.725  70.322  1.00  0.00     0.925 C  
ENDROOT
BRANCH  11  21
HETATM   21  C   UNL     1      -7.856  17.269  69.744  1.00  0.00     1.012 C  
HETATM   22  C   UNL     1      -9.408  17.566  67.799  1.00  0.00    -0.257 C  
HETATM   23  C   UNL     1      -8.836  16.766  68.963  1.00  0.00    -0.181 C  
HETATM   24  C   UNL     1      -9.260  16.796  66.488  1.00  0.00    -0.268 C  
HETATM   25  O   UNL     1      -7.886  16.700  66.100  1.00  0.00    -0.308 OA 
HETATM   26  C   UNL     1      -9.868  15.393  66.583  1.00  0.00    -0.269 C  
HETATM   27  H   UNL     1      -7.794  16.221  65.284  1.00  0.00     0.000 HD 
HETATM   28  C   UNL     1      -9.333  14.614  67.790  1.00  0.00    -0.197 C  
HETATM   29  O   UNL     1     -10.065  13.392  67.901  1.00  0.00    -0.226 OA 
HETATM   30  C   UNL     1      -9.443  15.434  69.074  1.00  0.00    -0.236 C  
HETATM   31  H   UNL     1      -9.733  12.909  68.649  1.00  0.00     0.000 HD 
HETATM   32  C   UNL     1     -10.067  15.029  70.191  1.00  0.00     0.046 C  
ENDBRANCH  11  21
TORSDOF 1
ENDMDL
MODEL      150
REMARK 921   NORMALIZED FREE ENERGY PREDICTED BY IDOCK:   34.57 KCAL/MOL
REMARK 922        TOTAL FREE ENERGY PREDICTED BY IDOCK:   36.14 KCAL/MOL
REMARK 923 INTER-LIGAND FREE ENERGY PREDICTED BY IDOCK:    6.26 KCAL/MOL
REMARK 924 INTRA-LIGAND FREE ENERGY PREDICTED BY IDOCK:   29.89 KCAL/MOL
REMARK 927      BINDING AFFINITY PREDICTED BY RF-SCORE:    0.00 PKD
ROOT
HETATM    1  C   UNL     1     -10.686  11.638  68.639  1.00  0.00    -0.246 C  
HETATM    2  C   UNL     1      -9.511  10.800  68.135  1.00  0.00    -0.161 C  
HETATM    3  C   UNL     1     -11.630  10.663  69.474  1.00  0.00    -0.360 C  
HETATM    4  C   UNL     1     -12.943  11.232  70.023  1.00  0.00     0.202 C  
HETATM    5  C   UNL     1      -9.981  10.228  66.811  1.00  0.00    -0.261 C  
HETATM    6  C   UNL     1     -10.901  10.168  70.713  1.00  0.00    -0.241 C  
HETATM    7  C   UNL     1     -11.222  11.026  66.329  1.00  0.00    -0.008 C  
HETATM    8  C   UNL     1     -10.752   8.885  71.091  1.00  0.00    -0.333 C  
HETATM    9  C   UNL     1     -11.120  11.318  64.822  1.00  0.00    -0.200 C  
HETATM   10  C   UNL     1     -10.078   8.531  72.401  1.00  0.00    -0.365 C  
HETATM   11  C   UNL     1     -10.513  10.581  63.860  1.00  0.00     0.077 C  
HETATM   12  C   UNL     1     -11.690  12.659  64.443  1.00  0.00    -0.431 C  
HETATM   13  C   UNL     1     -11.018   7.877  73.454  1.00  0.00     0.065 C  
HETATM   14  C   UNL     1      -8.803   7.724  72.139  1.00  0.00    -0.176 C  
HETATM   15  C   UNL     1     -12.304   8.691  73.657  1.00  0.00     3.181 C  
HETATM   16  C   UNL     1     -11.066  13.806  65.237  1.00  0.00    -0.315 C  
HETATM   17  C   UNL     1     -12.589  12.972  67.628  1.00  0.00     0.796 C  
HETATM   18  C   UNL     1     -11.387   6.415  73.187  1.00  0.00    -0.016 C  
HETATM   19  C   UNL     1     -10.408  13.379  66.584  1.00  0.00    -0.269 C  
HETATM   20  C   UNL     1     -11.255  12.277  67.300  1.00  0.00    -0.358 C  
ENDROOT
BRANCH  11  21
HETATM   21  C   UNL     1      -9.952   9.245  63.971  1.00  0.00     1.785 C  
HETATM   22  C   UNL     1      -9.159   7.144  65.083  1.00  0.00     0.500 C  
HETATM   23  C   UNL     1      -9.851   8.501  65.093  1.00  0.00     1.107 C  
HETATM   24  C   UNL     1      -8.009   7.115  66.089  1.00  0.00    -0.112 C  
HETATM   25  O   UNL     1      -6.939   7.968  65.672  1.00  0.00    -0.061 OA 
HETATM   26  C   UNL     1      -8.475   7.519  67.491  1.00  0.00    -0.119 C  
HETATM   27  H   UNL     1      -6.224   7.950  66.298  1.00  0.00     0.000 HD 
HETATM   28  C   UNL     1      -9.222   8.857  67.487  1.00  0.00    -0.136 C  
HETATM   29  O   UNL     1      -9.761   9.079  68.792  1.00  0.00    -0.154 OA 
HETATM   30  C   UNL     1     -10.326   8.873  66.431  1.00  0.00    -0.189 C  
HETATM   31  H   UNL     1     -10.225   9.908  68.789  1.00  0.00     0.000 HD 
HETATM   32  C   UNL     1     -11.618   9.146  66.677  1.00  0.00     3.056 C  
ENDBRANCH  11  21
TORSDOF 1
ENDMDL
MODEL      151
REMARK 921   NORMALIZED FREE ENERGY PREDICTED BY IDOCK:   35.03 KCAL/MOL
REMARK 922        TOTAL FREE ENERGY PREDICTED BY IDOCK:   36.64 KCAL/MOL
REMARK 923 INTER-LIGAND FREE ENERGY PREDICTED BY IDOCK:   25.58 KCAL/MOL
REMARK 924 INTRA-LIGAND FREE ENERGY PREDICTED BY IDOCK:   11.06 KCAL/MOL
REMARK 927      BINDING AFFINITY PREDICTED BY RF-SCORE:    0.00 PKD
ROOT
HETATM    1  C   UNL     1     -11.049  14.354  70.397  1.00  0.00     0.034 C  
HETATM    2  C   UNL     1      -9.600  14.552  69.951  1.00  0.00     0.610 C  
HETATM    3  C   UNL     1     -11.909  14.098  69.079  1.00  0.00    -0.384 C  
HETATM    4  C   UNL     1     -13.428  13.956  69.232  1.00  0.00     3.077 C  
HETATM    5  C   UNL     1      -9.482  16.037  69.664  1.00  0.00    -0.082 C  
HETATM    6  C   UNL     1     -11.485  12.793  68.427  1.00  0.00    -0.349 C  
HETATM    7  C   UNL     1     -10.683  16.774  70.314  1.00  0.00     0.105 C  
HETATM    8  C   UNL     1     -11.125  12.625  67.141  1.00  0.00    -0.321 C  
HETATM    9  C   UNL     1     -10.212  18.069  71.000  1.00  0.00     3.109 C  
HETATM   10  C   UNL     1     -10.809  11.249  66.592  1.00  0.00    -0.325 C  
HETATM   11  C   UNL     1      -9.172  18.870  70.663  1.00  0.00     2.946 C  
HETATM   12  C   UNL     1     -10.973  18.376  72.262  1.00  0.00     3.245 C  
HETATM   13  C   UNL     1     -11.816  10.733  65.524  1.00  0.00     1.880 C  
HETATM   14  C   UNL     1      -9.350  11.184  66.133  1.00  0.00    -0.227 C  
HETATM   15  C   UNL     1     -13.270  10.854  66.003  1.00  0.00     9.665 C  
HETATM   16  C   UNL     1     -10.942  17.219  73.260  1.00  0.00     2.768 C  
HETATM   17  C   UNL     1     -12.840  15.714  71.567  1.00  0.00    -0.538 C  
HETATM   18  C   UNL     1     -11.689  11.373  64.139  1.00  0.00    -0.036 C  
HETATM   19  C   UNL     1     -10.632  15.827  72.630  1.00  0.00     2.336 C  
HETATM   20  C   UNL     1     -11.335  15.668  71.242  1.00  0.00    -0.451 C  
ENDROOT
BRANCH  11  21
HETATM   21  C   UNL     1      -8.340  18.811  69.473  1.00  0.00     0.450 C  
HETATM   22  C   UNL     1      -7.631  18.139  67.166  1.00  0.00    -0.225 C  
HETATM   23  C   UNL     1      -8.637  18.197  68.308  1.00  0.00    -0.298 C  
HETATM   24  C   UNL     1      -7.345  16.692  66.768  1.00  0.00    -0.248 C  
HETATM   25  O   UNL     1      -6.624  16.009  67.798  1.00  0.00    -0.127 OA 
HETATM   26  C   UNL     1      -8.633  15.928  66.447  1.00  0.00    -0.364 C  
HETATM   27  H   UNL     1      -6.445  15.108  67.551  1.00  0.00     0.000 HD 
HETATM   28  C   UNL     1      -9.665  16.038  67.576  1.00  0.00    -0.228 C  
HETATM   29  O   UNL     1     -10.887  15.443  67.132  1.00  0.00    -0.314 OA 
HETATM   30  C   UNL     1      -9.884  17.493  67.987  1.00  0.00    -0.299 C  
HETATM   31  H   UNL     1     -11.526  15.512  67.832  1.00  0.00     0.000 HD 
HETATM   32  C   UNL     1     -11.076  18.109  68.016  1.00  0.00     0.169 C  
ENDBRANCH  11  21
TORSDOF 1
ENDMDL
MODEL      152
REMARK 921   NORMALIZED FREE ENERGY PREDICTED BY IDOCK:   37.77 KCAL/MOL
REMARK 922        TOTAL FREE ENERGY PREDICTED BY IDOCK:   39.54 KCAL/MOL
REMARK 923 INTER-LIGAND FREE ENERGY PREDICTED BY IDOCK:   40.64 KCAL/MOL
REMARK 924 INTRA-LIGAND FREE ENERGY PREDICTED BY IDOCK:   -1.11 KCAL/MOL
REMARK 927      BINDING AFFINITY PREDICTED BY RF-SCORE:    0.00 PKD
ROOT
HETATM    1  C   UNL     1      -8.506  17.246  69.809  1.00  0.00     1.249 C  
HETATM    2  C   UNL     1      -9.915  17.736  69.476  1.00  0.00     0.160 C  
HETATM    3  C   UNL     1      -7.735  17.070  68.425  1.00  0.00    -0.230 C  
HETATM    4  C   UNL     1      -6.314  16.497  68.464  1.00  0.00    -0.131 C  
HETATM    5  C   UNL     1     -10.725  16.471  69.261  1.00  0.00    -0.331 C  
HETATM    6  C   UNL     1      -7.565  18.420  67.749  1.00  0.00    -0.238 C  
HETATM    7  C   UNL     1      -9.947  15.267  69.855  1.00  0.00    -0.176 C  
HETATM    8  C   UNL     1      -7.912  18.728  66.486  1.00  0.00    -0.294 C  
HETATM    9  C   UNL     1     -10.902  14.339  70.626  1.00  0.00     0.623 C  
HETATM   10  C   UNL     1      -7.604  20.093  65.903  1.00  0.00    -0.272 C  
HETATM   11  C   UNL     1     -12.218  14.105  70.397  1.00  0.00    -0.427 C  
HETATM   12  C   UNL     1     -10.267  13.722  71.844  1.00  0.00     7.191 C  
HETATM   13  C   UNL     1      -6.565  20.081  64.746  1.00  0.00    -0.240 C  
HETATM   14  C   UNL     1      -8.903  20.820  65.545  1.00  0.00     1.024 C  
HETATM   15  C   UNL     1      -5.294  19.305  65.126  1.00  0.00    -0.205 C  
HETATM   16  C   UNL     1      -9.681  14.768  72.791  1.00  0.00     6.216 C  
HETATM   17  C   UNL     1      -7.450  15.220  70.906  1.00  0.00     1.628 C  
HETATM   18  C   UNL     1      -7.084  19.564  63.401  1.00  0.00     3.710 C  
HETATM   19  C   UNL     1      -9.368  16.143  72.126  1.00  0.00     8.004 C  
HETATM   20  C   UNL     1      -8.787  15.952  70.686  1.00  0.00     2.250 C  
ENDROOT
BRANCH  11  21
HETATM   21  C   UNL     1     -13.024  14.535  69.268  1.00  0.00     0.867 C  
HETATM   22  C   UNL     1     -13.790  14.693  66.887  1.00  0.00     6.425 C  
HETATM   23  C   UNL     1     -12.937  14.091  67.996  1.00  0.00     1.944 C  
HETATM   24  C   UNL     1     -12.912  15.237  65.762  1.00  0.00     1.349 C  
HETATM   25  O   UNL     1     -12.176  16.387  66.193  1.00  0.00     1.846 OA 
HETATM   26  C   UNL     1     -11.943  14.173  65.236  1.00  0.00    -0.383 C  
HETATM   27  H   UNL     1     -11.630  16.725  65.492  1.00  0.00     0.000 HD 
HETATM   28  C   UNL     1     -11.128  13.529  66.363  1.00  0.00    -0.302 C  
HETATM   29  O   UNL     1     -10.377  12.443  65.815  1.00  0.00    -0.252 OA 
HETATM   30  C   UNL     1     -12.032  13.048  67.497  1.00  0.00    -0.360 C  
HETATM   31  H   UNL     1      -9.872  12.043  66.514  1.00  0.00     0.000 HD 
HETATM   32  C   UNL     1     -12.058  11.795  67.978  1.00  0.00    -0.003 C  
ENDBRANCH  11  21
TORSDOF 1
ENDMDL
MODEL      153
REMARK 921   NORMALIZED FREE ENERGY PREDICTED BY IDOCK:   40.02 KCAL/MOL
REMARK 922        TOTAL FREE ENERGY PREDICTED BY IDOCK:   41.91 KCAL/MOL
REMARK 923 INTER-LIGAND FREE ENERGY PREDICTED BY IDOCK:   17.14 KCAL/MOL
REMARK 924 INTRA-LIGAND FREE ENERGY PREDICTED BY IDOCK:   24.77 KCAL/MOL
REMARK 927      BINDING AFFINITY PREDICTED BY RF-SCORE:    0.00 PKD
ROOT
HETATM    1  C   UNL     1      -8.268  16.297  68.894  1.00  0.00    -0.231 C  
HETATM    2  C   UNL     1      -9.464  15.440  68.479  1.00  0.00    -0.202 C  
HETATM    3  C   UNL     1      -7.960  17.284  67.680  1.00  0.00    -0.195 C  
HETATM    4  C   UNL     1      -6.738  18.203  67.796  1.00  0.00    -0.204 C  
HETATM    5  C   UNL     1      -8.858  14.253  67.754  1.00  0.00    -0.185 C  
HETATM    6  C   UNL     1      -9.120  18.244  67.483  1.00  0.00    -0.256 C  
HETATM    7  C   UNL     1      -7.344  14.178  68.087  1.00  0.00    -0.130 C  
HETATM    8  C   UNL     1      -9.774  18.477  66.330  1.00  0.00    -0.347 C  
HETATM    9  C   UNL     1      -6.926  12.722  68.362  1.00  0.00    -0.095 C  
HETATM   10  C   UNL     1     -10.860  19.531  66.248  1.00  0.00    -0.430 C  
HETATM   11  C   UNL     1      -7.449  11.584  67.844  1.00  0.00    -0.103 C  
HETATM   12  C   UNL     1      -5.872  12.605  69.430  1.00  0.00    -0.094 C  
HETATM   13  C   UNL     1     -10.512  20.748  65.344  1.00  0.00     0.971 C  
HETATM   14  C   UNL     1     -12.203  18.881  65.902  1.00  0.00     5.604 C  
HETATM   15  C   UNL     1      -9.140  21.345  65.693  1.00  0.00     3.036 C  
HETATM   16  C   UNL     1      -6.284  13.282  70.736  1.00  0.00     0.241 C  
HETATM   17  C   UNL     1      -5.834  15.929  69.501  1.00  0.00    -0.135 C  
HETATM   18  C   UNL     1     -10.577  20.487  63.837  1.00  0.00     5.198 C  
HETATM   19  C   UNL     1      -7.390  14.371  70.582  1.00  0.00     1.098 C  
HETATM   20  C   UNL     1      -7.177  15.208  69.278  1.00  0.00    -0.182 C  
ENDROOT
BRANCH  11  21
HETATM   21  C   UNL     1      -8.420  11.446  66.772  1.00  0.00    -0.165 C  
HETATM   22  C   UNL     1     -10.032  12.163  64.993  1.00  0.00    -0.242 C  
HETATM   23  C   UNL     1      -8.954  12.442  66.033  1.00  0.00     0.106 C  
HETATM   24  C   UNL     1     -11.292  12.977  65.286  1.00  0.00    -0.295 C  
HETATM   25  O   UNL     1     -11.938  12.514  66.476  1.00  0.00    -0.522 OA 
HETATM   26  C   UNL     1     -10.982  14.472  65.416  1.00  0.00    -0.346 C  
HETATM   27  H   UNL     1     -12.721  13.020  66.659  1.00  0.00     0.000 HD 
HETATM   28  C   UNL     1      -9.856  14.742  66.420  1.00  0.00    -0.280 C  
HETATM   29  O   UNL     1      -9.519  16.130  66.360  1.00  0.00    -0.252 OA 
HETATM   30  C   UNL     1      -8.635  13.871  66.133  1.00  0.00     0.724 C  
HETATM   31  H   UNL     1      -8.821  16.297  66.983  1.00  0.00     0.000 HD 
HETATM   32  C   UNL     1      -7.390  14.336  65.938  1.00  0.00     5.053 C  
ENDBRANCH  11  21
TORSDOF 1
ENDMDL
MODEL      154
REMARK 921   NORMALIZED FREE ENERGY PREDICTED BY IDOCK:   46.63 KCAL/MOL
REMARK 922        TOTAL FREE ENERGY PREDICTED BY IDOCK:   48.91 KCAL/MOL
REMARK 923 INTER-LIGAND FREE ENERGY PREDICTED BY IDOCK:   47.69 KCAL/MOL
REMARK 924 INTRA-LIGAND FREE ENERGY PREDICTED BY IDOCK:    1.22 KCAL/MOL
REMARK 927      BINDING AFFINITY PREDICTED BY RF-SCORE:    0.00 PKD
ROOT
HETATM    1  C   UNL     1      -8.844  11.624  66.323  1.00  0.00    -0.164 C  
HETATM    2  C   UNL     1      -8.195  12.589  67.316  1.00  0.00    -0.184 C  
HETATM    3  C   UNL     1     -10.252  12.253  65.918  1.00  0.00    -0.274 C  
HETATM    4  C   UNL     1     -11.161  11.436  64.992  1.00  0.00    -0.159 C  
HETATM    5  C   UNL     1      -8.707  12.150  68.675  1.00  0.00     0.005 C  
HETATM    6  C   UNL     1     -10.043  13.556  65.167  1.00  0.00    -0.278 C  
HETATM    7  C   UNL     1      -9.301  10.722  68.553  1.00  0.00    -0.174 C  
HETATM    8  C   UNL     1     -10.611  14.742  65.455  1.00  0.00    -0.395 C  
HETATM    9  C   UNL     1      -8.867   9.856  69.749  1.00  0.00    -0.229 C  
HETATM   10  C   UNL     1     -10.388  15.950  64.568  1.00  0.00     0.759 C  
HETATM   11  C   UNL     1      -8.591  10.248  71.017  1.00  0.00     2.135 C  
HETATM   12  C   UNL     1      -8.629   8.417  69.376  1.00  0.00    -0.129 C  
HETATM   13  C   UNL     1     -11.660  16.448  63.823  1.00  0.00     1.333 C  
HETATM   14  C   UNL     1      -9.670  17.054  65.348  1.00  0.00     0.456 C  
HETATM   15  C   UNL     1     -12.377  15.305  63.088  1.00  0.00     2.176 C  
HETATM   16  C   UNL     1      -7.626   8.265  68.234  1.00  0.00    -0.101 C  
HETATM   17  C   UNL     1      -9.666   9.227  66.323  1.00  0.00    -0.340 C  
HETATM   18  C   UNL     1     -12.674  17.202  64.687  1.00  0.00     6.142 C  
HETATM   19  C   UNL     1      -7.458   9.536  67.346  1.00  0.00    -0.091 C  
HETATM   20  C   UNL     1      -8.831  10.249  67.117  1.00  0.00    -0.141 C  
ENDROOT
BRANCH  11  21
HETATM   21  C   UNL     1      -8.797  11.554  71.620  1.00  0.00    13.058 C  
HETATM   22  C   UNL     1      -9.917  13.746  72.084  1.00  0.00     9.080 C  
HETATM   23  C   UNL     1      -9.870  12.358  71.459  1.00  0.00    12.825 C  
HETATM   24  C   UNL     1     -10.137  14.815  71.015  1.00  0.00     1.485 C  
HETATM   25  O   UNL     1      -8.990  14.939  70.168  1.00  0.00    -0.275 OA 
HETATM   26  C   UNL     1     -11.376  14.518  70.164  1.00  0.00    -0.250 C  
HETATM   27  H   UNL     1      -9.127  15.604  69.503  1.00  0.00     0.000 HD 
HETATM   28  C   UNL     1     -11.351  13.099  69.585  1.00  0.00    -0.112 C  
HETATM   29  O   UNL     1     -12.606  12.847  68.949  1.00  0.00     0.275 OA 
HETATM   30  C   UNL     1     -11.072  12.061  70.671  1.00  0.00     1.561 C  
HETATM   31  H   UNL     1     -12.590  11.967  68.590  1.00  0.00     0.000 HD 
HETATM   32  C   UNL     1     -11.852  11.002  70.937  1.00  0.00    -0.301 C  
ENDBRANCH  11  21
TORSDOF 1
ENDMDL
MODEL      155
REMARK 921   NORMALIZED FREE ENERGY PREDICTED BY IDOCK:   47.19 KCAL/MOL
REMARK 922        TOTAL FREE ENERGY PREDICTED BY IDOCK:   49.51 KCAL/MOL
REMARK 923 INTER-LIGAND FREE ENERGY PREDICTED BY IDOCK:   49.95 KCAL/MOL
REMARK 924 INTRA-LIGAND FREE ENERGY PREDICTED BY IDOCK:   -0.44 KCAL/MOL
REMARK 927      BINDING AFFINITY PREDICTED BY RF-SCORE:    0.00 PKD
ROOT
HETATM    1  C   UNL     1      -9.170  17.178  67.862  1.00  0.00    -0.241 C  
HETATM    2  C   UNL     1      -8.329  16.142  68.608  1.00  0.00    -0.211 C  
HETATM    3  C   UNL     1     -10.304  17.669  68.869  1.00  0.00    -0.323 C  
HETATM    4  C   UNL     1     -11.353  18.655  68.341  1.00  0.00     1.288 C  
HETATM    5  C   UNL     1      -9.031  14.820  68.357  1.00  0.00    -0.187 C  
HETATM    6  C   UNL     1      -9.676  18.400  70.044  1.00  0.00     1.171 C  
HETATM    7  C   UNL     1     -10.009  14.986  67.164  1.00  0.00    -0.237 C  
HETATM    8  C   UNL     1      -9.888  18.142  71.347  1.00  0.00     5.329 C  
HETATM    9  C   UNL     1      -9.922  13.770  66.226  1.00  0.00    -0.312 C  
HETATM   10  C   UNL     1      -9.266  19.008  72.425  1.00  0.00     7.191 C  
HETATM   11  C   UNL     1      -9.623  12.485  66.537  1.00  0.00    -0.242 C  
HETATM   12  C   UNL     1     -10.094  14.133  64.775  1.00  0.00    -0.200 C  
HETATM   13  C   UNL     1     -10.288  19.829  73.263  1.00  0.00     3.979 C  
HETATM   14  C   UNL     1      -8.306  18.178  73.281  1.00  0.00    12.894 C  
HETATM   15  C   UNL     1     -11.261  20.613  72.369  1.00  0.00    11.824 C  
HETATM   16  C   UNL     1      -9.111  15.211  64.320  1.00  0.00     6.210 C  
HETATM   17  C   UNL     1     -10.656  17.242  65.810  1.00  0.00    -0.198 C  
HETATM   18  C   UNL     1     -11.088  19.027  74.293  1.00  0.00     3.607 C  
HETATM   19  C   UNL     1      -8.523  16.080  65.474  1.00  0.00     1.317 C  
HETATM   20  C   UNL     1      -9.610  16.392  66.554  1.00  0.00    -0.291 C  
ENDROOT
BRANCH  11  21
HETATM   21  C   UNL     1      -9.474  11.890  67.854  1.00  0.00    -0.194 C  
HETATM   22  C   UNL     1      -9.278  10.081  69.577  1.00  0.00    -0.238 C  
HETATM   23  C   UNL     1      -9.339  10.577  68.138  1.00  0.00    -0.150 C  
HETATM   24  C   UNL     1     -10.383   9.061  69.846  1.00  0.00    -0.207 C  
HETATM   25  O   UNL     1     -11.672   9.682  69.828  1.00  0.00    -0.446 OA 
HETATM   26  C   UNL     1     -10.350   7.911  68.834  1.00  0.00    -0.225 C  
HETATM   27  H   UNL     1     -12.360   9.047  69.995  1.00  0.00     0.000 HD 
HETATM   28  C   UNL     1     -10.352   8.418  67.387  1.00  0.00    -0.285 C  
HETATM   29  O   UNL     1     -10.154   7.301  66.516  1.00  0.00    -0.403 OA 
HETATM   30  C   UNL     1      -9.274   9.478  67.168  1.00  0.00    -0.158 C  
HETATM   31  H   UNL     1     -10.155   7.615  65.620  1.00  0.00     0.000 HD 
HETATM   32  C   UNL     1      -8.319   9.416  66.226  1.00  0.00    -0.117 C  
ENDBRANCH  11  21
TORSDOF 1
ENDMDL
MODEL      156
REMARK 921   NORMALIZED FREE ENERGY PREDICTED BY IDOCK:   53.28 KCAL/MOL
REMARK 922        TOTAL FREE ENERGY PREDICTED BY IDOCK:   55.95 KCAL/MOL
REMARK 923 INTER-LIGAND FREE ENERGY PREDICTED BY IDOCK:   56.61 KCAL/MOL
REMARK 924 INTRA-LIGAND FREE ENERGY PREDICTED BY IDOCK:   -0.66 KCAL/MOL
REMARK 927      BINDING AFFINITY PREDICTED BY RF-SCORE:    0.00 PKD
ROOT
HETATM    1  C   UNL     1      -8.138  18.933  68.179  1.00  0.00    -0.333 C  
HETATM    2  C   UNL     1      -7.365  17.761  68.787  1.00  0.00    -0.271 C  
HETATM    3  C   UNL     1      -9.407  19.186  69.110  1.00  0.00    -0.235 C  
HETATM    4  C   UNL     1     -10.412  20.258  68.675  1.00  0.00    -0.116 C  
HETATM    5  C   UNL     1      -7.986  16.524  68.167  1.00  0.00    -0.163 C  
HETATM    6  C   UNL     1      -8.958  19.645  70.487  1.00  0.00     1.712 C  
HETATM    7  C   UNL     1      -8.809  16.942  66.920  1.00  0.00    -0.248 C  
HETATM    8  C   UNL     1      -9.326  19.108  71.665  1.00  0.00     5.018 C  
HETATM    9  C   UNL     1      -8.563  15.961  65.760  1.00  0.00     0.363 C  
HETATM   10  C   UNL     1      -8.875  19.719  72.976  1.00  0.00     4.154 C  
HETATM   11  C   UNL     1      -8.263  14.641  65.822  1.00  0.00     2.437 C  
HETATM   12  C   UNL     1      -8.561  16.632  64.412  1.00  0.00     7.930 C  
HETATM   13  C   UNL     1     -10.022  20.333  73.830  1.00  0.00     6.561 C  
HETATM   14  C   UNL     1      -8.005  18.726  73.751  1.00  0.00     8.121 C  
HETATM   15  C   UNL     1     -10.899  21.289  73.007  1.00  0.00    12.380 C  
HETATM   16  C   UNL     1      -7.564  17.787  64.335  1.00  0.00     6.601 C  
HETATM   17  C   UNL     1      -9.352  19.437  66.012  1.00  0.00    -0.224 C  
HETATM   18  C   UNL     1     -10.920  19.322  74.548  1.00  0.00     4.865 C  
HETATM   19  C   UNL     1      -7.156  18.386  65.716  1.00  0.00    -0.258 C  
HETATM   20  C   UNL     1      -8.382  18.449  66.685  1.00  0.00    -0.280 C  
ENDROOT
BRANCH  11  21
HETATM   21  C   UNL     1      -8.264  13.773  66.988  1.00  0.00    -0.055 C  
HETATM   22  C   UNL     1      -8.984  11.900  68.488  1.00  0.00    -0.115 C  
HETATM   23  C   UNL     1      -9.022  12.671  67.175  1.00  0.00    -0.205 C  
HETATM   24  C   UNL     1     -10.378  11.814  69.107  1.00  0.00     0.024 C  
HETATM   25  O   UNL     1     -10.819  13.098  69.561  1.00  0.00    -0.454 OA 
HETATM   26  C   UNL     1     -11.400  11.236  68.123  1.00  0.00    -0.372 C  
HETATM   27  H   UNL     1     -11.687  13.045  69.946  1.00  0.00     0.000 HD 
HETATM   28  C   UNL     1     -11.393  11.980  66.782  1.00  0.00    -0.339 C  
HETATM   29  O   UNL     1     -12.247  11.282  65.873  1.00  0.00     0.552 OA 
HETATM   30  C   UNL     1      -9.977  12.097  66.220  1.00  0.00    -0.249 C  
HETATM   31  H   UNL     1     -12.242  11.743  65.042  1.00  0.00     0.000 HD 
HETATM   32  C   UNL     1      -9.600  11.682  65.000  1.00  0.00    -0.187 C  
ENDBRANCH  11  21
TORSDOF 1
ENDMDL
MODEL      157
REMARK 921   NORMALIZED FREE ENERGY PREDICTED BY IDOCK:   58.61 KCAL/MOL
REMARK 922        TOTAL FREE ENERGY PREDICTED BY IDOCK:   61.59 KCAL/MOL
REMARK 923 INTER-LIGAND FREE ENERGY PREDICTED BY IDOCK:   62.04 KCAL/MOL
REMARK 924 INTRA-LIGAND FREE ENERGY PREDICTED BY IDOCK:   -0.44 KCAL/MOL
REMARK 927      BINDING AFFINITY PREDICTED BY RF-SCORE:    0.00 PKD
ROOT
HETATM    1  C   UNL     1      -7.299  18.713  68.207  1.00  0.00    -0.294 C  
HETATM    2  C   UNL     1      -6.507  17.575  68.854  1.00  0.00    -0.213 C  
HETATM    3  C   UNL     1      -8.605  18.933  69.094  1.00  0.00    -0.048 C  
HETATM    4  C   UNL     1      -9.631  19.966  68.614  1.00  0.00    -0.348 C  
HETATM    5  C   UNL     1      -7.065  16.310  68.230  1.00  0.00    -0.138 C  
HETATM    6  C   UNL     1      -8.217  19.423  70.479  1.00  0.00     1.913 C  
HETATM    7  C   UNL     1      -7.861  16.686  66.953  1.00  0.00    -0.261 C  
HETATM    8  C   UNL     1      -8.604  18.887  71.651  1.00  0.00     7.434 C  
HETATM    9  C   UNL     1      -7.545  15.701  65.814  1.00  0.00     2.841 C  
HETATM   10  C   UNL     1      -8.217  19.529  72.968  1.00  0.00     4.786 C  
HETATM   11  C   UNL     1      -7.203  14.392  65.902  1.00  0.00     5.416 C  
HETATM   12  C   UNL     1      -7.522  16.356  64.458  1.00  0.00     9.838 C  
HETATM   13  C   UNL     1      -9.410  20.112  73.777  1.00  0.00     6.101 C  
HETATM   14  C   UNL     1      -7.339  18.575  73.784  1.00  0.00     8.570 C  
HETATM   15  C   UNL     1     -10.292  21.029  72.915  1.00  0.00     7.224 C  
HETATM   16  C   UNL     1      -6.563  17.543  64.398  1.00  0.00     4.439 C  
HETATM   17  C   UNL     1      -8.459  19.151  65.997  1.00  0.00    -0.129 C  
HETATM   18  C   UNL     1     -10.296  19.080  74.480  1.00  0.00     4.549 C  
HETATM   19  C   UNL     1      -6.220  18.171  65.784  1.00  0.00    -0.289 C  
HETATM   20  C   UNL     1      -7.478  18.204  66.713  1.00  0.00    -0.242 C  
ENDROOT
BRANCH  11  21
HETATM   21  C   UNL     1      -7.213  13.538  67.078  1.00  0.00     0.397 C  
HETATM   22  C   UNL     1      -7.093  11.420  68.411  1.00  0.00    -0.079 C  
HETATM   23  C   UNL     1      -6.963  12.212  67.116  1.00  0.00    -0.117 C  
HETATM   24  C   UNL     1      -8.089  10.273  68.248  1.00  0.00    -0.107 C  
HETATM   25  O   UNL     1      -9.423  10.768  68.099  1.00  0.00    -0.150 OA 
HETATM   26  C   UNL     1      -7.734   9.381  67.054  1.00  0.00    -0.091 C  
HETATM   27  H   UNL     1     -10.043  10.055  67.998  1.00  0.00     0.000 HD 
HETATM   28  C   UNL     1      -7.548  10.190  65.766  1.00  0.00    -0.134 C  
HETATM   29  O   UNL     1      -7.062   9.313  64.747  1.00  0.00    -0.091 OA 
HETATM   30  C   UNL     1      -6.591  11.361  65.979  1.00  0.00     0.219 C  
HETATM   31  H   UNL     1      -6.946   9.815  63.948  1.00  0.00     0.000 HD 
HETATM   32  C   UNL     1      -5.487  11.591  65.251  1.00  0.00     1.041 C  
ENDBRANCH  11  21
TORSDOF 1
ENDMDL
MODEL      158
REMARK 921   NORMALIZED FREE ENERGY PREDICTED BY IDOCK:   59.59 KCAL/MOL
REMARK 922        TOTAL FREE ENERGY PREDICTED BY IDOCK:   62.63 KCAL/MOL
REMARK 923 INTER-LIGAND FREE ENERGY PREDICTED BY IDOCK:   63.17 KCAL/MOL
REMARK 924 INTRA-LIGAND FREE ENERGY PREDICTED BY IDOCK:   -0.54 KCAL/MOL
REMARK 927      BINDING AFFINITY PREDICTED BY RF-SCORE:    0.00 PKD
ROOT
HETATM    1  C   UNL     1      -7.706  15.610  70.902  1.00  0.00     2.434 C  
HETATM    2  C   UNL     1      -8.897  15.113  71.723  1.00  0.00     5.007 C  
HETATM    3  C   UNL     1      -8.300  16.407  69.656  1.00  0.00     0.414 C  
HETATM    4  C   UNL     1      -7.314  16.940  68.611  1.00  0.00    -0.222 C  
HETATM    5  C   UNL     1      -9.253  13.769  71.117  1.00  0.00     7.355 C  
HETATM    6  C   UNL     1      -9.032  17.649  70.135  1.00  0.00     2.494 C  
HETATM    7  C   UNL     1      -8.066  13.278  70.246  1.00  0.00     3.365 C  
HETATM    8  C   UNL     1     -10.290  18.005  69.817  1.00  0.00     0.643 C  
HETATM    9  C   UNL     1      -7.811  11.779  70.482  1.00  0.00     3.916 C  
HETATM   10  C   UNL     1     -10.873  19.321  70.291  1.00  0.00     2.380 C  
HETATM   11  C   UNL     1      -8.702  10.815  70.817  1.00  0.00     3.210 C  
HETATM   12  C   UNL     1      -6.350  11.415  70.425  1.00  0.00     0.046 C  
HETATM   13  C   UNL     1     -11.170  20.342  69.155  1.00  0.00     1.826 C  
HETATM   14  C   UNL     1     -12.071  19.069  71.210  1.00  0.00    12.762 C  
HETATM   15  C   UNL     1      -9.959  20.536  68.229  1.00  0.00    -0.156 C  
HETATM   16  C   UNL     1      -5.503  12.244  71.390  1.00  0.00     0.069 C  
HETATM   17  C   UNL     1      -5.779  14.588  69.611  1.00  0.00    -0.099 C  
HETATM   18  C   UNL     1     -12.407  20.039  68.306  1.00  0.00     4.523 C  
HETATM   19  C   UNL     1      -6.149  13.595  71.823  1.00  0.00     0.569 C  
HETATM   20  C   UNL     1      -6.894  14.273  70.626  1.00  0.00     0.410 C  
ENDROOT
BRANCH  11  21
HETATM   21  C   UNL     1     -10.151  10.911  70.874  1.00  0.00     2.715 C  
HETATM   22  C   UNL     1     -12.488  10.370  71.598  1.00  0.00    -0.471 C  
HETATM   23  C   UNL     1     -10.974  10.237  71.705  1.00  0.00     1.464 C  
HETATM   24  C   UNL     1     -13.137   9.005  71.373  1.00  0.00    -0.284 C  
HETATM   25  O   UNL     1     -12.818   8.491  70.077  1.00  0.00     0.669 OA 
HETATM   26  C   UNL     1     -12.717   7.995  72.446  1.00  0.00    -0.177 C  
HETATM   27  H   UNL     1     -13.222   7.642  69.937  1.00  0.00     0.000 HD 
HETATM   28  C   UNL     1     -11.193   7.908  72.590  1.00  0.00    -0.398 C  
HETATM   29  O   UNL     1     -10.891   7.076  73.713  1.00  0.00    -0.525 OA 
HETATM   30  C   UNL     1     -10.571   9.294  72.755  1.00  0.00     1.688 C  
HETATM   31  H   UNL     1      -9.947   7.023  73.802  1.00  0.00     0.000 HD 
HETATM   32  C   UNL     1      -9.774   9.660  73.772  1.00  0.00     7.541 C  
ENDBRANCH  11  21
TORSDOF 1
ENDMDL
MODEL      159
REMARK 921   NORMALIZED FREE ENERGY PREDICTED BY IDOCK:   62.98 KCAL/MOL
REMARK 922        TOTAL FREE ENERGY PREDICTED BY IDOCK:   66.22 KCAL/MOL
REMARK 923 INTER-LIGAND FREE ENERGY PREDICTED BY IDOCK:   52.67 KCAL/MOL
REMARK 924 INTRA-LIGAND FREE ENERGY PREDICTED BY IDOCK:   13.55 KCAL/MOL
REMARK 927      BINDING AFFINITY PREDICTED BY RF-SCORE:    0.00 PKD
ROOT
HETATM    1  C   UNL     1      -8.740  13.695  69.806  1.00  0.00     1.757 C  
HETATM    2  C   UNL     1     -10.238  13.690  69.500  1.00  0.00     0.497 C  
HETATM    3  C   UNL     1      -8.490  12.585  70.922  1.00  0.00     9.251 C  
HETATM    4  C   UNL     1      -7.070  12.440  71.483  1.00  0.00     6.067 C  
HETATM    5  C   UNL     1     -10.841  14.656  70.502  1.00  0.00     0.117 C  
HETATM    6  C   UNL     1      -8.804  11.207  70.366  1.00  0.00     2.917 C  
HETATM    7  C   UNL     1      -9.710  15.529  71.106  1.00  0.00     1.869 C  
HETATM    8  C   UNL     1      -9.621  10.292  70.918  1.00  0.00     1.326 C  
HETATM    9  C   UNL     1     -10.156  16.999  71.198  1.00  0.00     3.247 C  
HETATM   10  C   UNL     1      -9.779   8.915  70.305  1.00  0.00    -0.212 C  
HETATM   11  C   UNL     1     -11.406  17.490  71.378  1.00  0.00     2.077 C  
HETATM   12  C   UNL     1      -9.035  17.971  70.939  1.00  0.00     5.931 C  
HETATM   13  C   UNL     1      -9.230   7.752  71.180  1.00  0.00    -0.158 C  
HETATM   14  C   UNL     1     -11.225   8.701  69.848  1.00  0.00    -0.045 C  
HETATM   15  C   UNL     1      -7.793   8.023  71.655  1.00  0.00    -0.116 C  
HETATM   16  C   UNL     1      -8.342  17.722  69.601  1.00  0.00     0.977 C  
HETATM   17  C   UNL     1      -7.033  15.325  70.731  1.00  0.00     0.777 C  
HETATM   18  C   UNL     1     -10.093   7.373  72.386  1.00  0.00    -0.228 C  
HETATM   19  C   UNL     1      -8.525  16.281  69.034  1.00  0.00    -0.244 C  
HETATM   20  C   UNL     1      -8.466  15.215  70.177  1.00  0.00     0.589 C  
ENDROOT
BRANCH  11  21
HETATM   21  C   UNL     1     -12.621  16.761  71.702  1.00  0.00     2.043 C  
HETATM   22  C   UNL     1     -14.052  14.825  72.396  1.00  0.00    -0.548 C  
HETATM   23  C   UNL     1     -12.704  15.502  72.182  1.00  0.00    -0.486 C  
HETATM   24  C   UNL     1     -14.136  13.522  71.604  1.00  0.00     0.115 C  
HETATM   25  O   UNL     1     -14.183  13.778  70.196  1.00  0.00     1.606 OA 
HETATM   26  C   UNL     1     -12.962  12.590  71.920  1.00  0.00    -0.406 C  
HETATM   27  H   UNL     1     -14.235  12.967  69.703  1.00  0.00     0.000 HD 
HETATM   28  C   UNL     1     -11.609  13.294  71.759  1.00  0.00     2.340 C  
HETATM   29  O   UNL     1     -10.583  12.415  72.227  1.00  0.00     8.698 OA 
HETATM   30  C   UNL     1     -11.580  14.620  72.517  1.00  0.00     0.154 C  
HETATM   31  H   UNL     1      -9.745  12.852  72.128  1.00  0.00     0.000 HD 
HETATM   32  C   UNL     1     -10.662  14.956  73.437  1.00  0.00     2.756 C  
ENDBRANCH  11  21
TORSDOF 1
ENDMDL
MODEL      160
REMARK 921   NORMALIZED FREE ENERGY PREDICTED BY IDOCK:   65.16 KCAL/MOL
REMARK 922        TOTAL FREE ENERGY PREDICTED BY IDOCK:   68.52 KCAL/MOL
REMARK 923 INTER-LIGAND FREE ENERGY PREDICTED BY IDOCK:   68.24 KCAL/MOL
REMARK 924 INTRA-LIGAND FREE ENERGY PREDICTED BY IDOCK:    0.28 KCAL/MOL
REMARK 927      BINDING AFFINITY PREDICTED BY RF-SCORE:    0.00 PKD
ROOT
HETATM    1  C   UNL     1      -7.299  18.713  68.207  1.00  0.00    -0.294 C  
HETATM    2  C   UNL     1      -6.507  17.575  68.854  1.00  0.00    -0.213 C  
HETATM    3  C   UNL     1      -8.605  18.933  69.094  1.00  0.00    -0.048 C  
HETATM    4  C   UNL     1      -9.631  19.966  68.614  1.00  0.00    -0.348 C  
HETATM    5  C   UNL     1      -7.065  16.310  68.230  1.00  0.00    -0.138 C  
HETATM    6  C   UNL     1      -8.217  19.423  70.479  1.00  0.00     1.913 C  
HETATM    7  C   UNL     1      -7.861  16.686  66.953  1.00  0.00    -0.261 C  
HETATM    8  C   UNL     1      -8.604  18.887  71.651  1.00  0.00     7.434 C  
HETATM    9  C   UNL     1      -7.545  15.701  65.814  1.00  0.00     2.841 C  
HETATM   10  C   UNL     1      -8.217  19.529  72.968  1.00  0.00     4.786 C  
HETATM   11  C   UNL     1      -7.203  14.392  65.902  1.00  0.00     5.416 C  
HETATM   12  C   UNL     1      -7.522  16.356  64.458  1.00  0.00     9.838 C  
HETATM   13  C   UNL     1      -9.410  20.112  73.777  1.00  0.00     6.101 C  
HETATM   14  C   UNL     1      -7.339  18.575  73.784  1.00  0.00     8.570 C  
HETATM   15  C   UNL     1     -10.292  21.029  72.915  1.00  0.00     7.224 C  
HETATM   16  C   UNL     1      -6.563  17.543  64.398  1.00  0.00     4.439 C  
HETATM   17  C   UNL     1      -8.459  19.151  65.997  1.00  0.00    -0.129 C  
HETATM   18  C   UNL     1     -10.296  19.080  74.480  1.00  0.00     4.549 C  
HETATM   19  C   UNL     1      -6.220  18.171  65.784  1.00  0.00    -0.289 C  
HETATM   20  C   UNL     1      -7.478  18.204  66.713  1.00  0.00    -0.242 C  
ENDROOT
BRANCH  11  21
HETATM   21  C   UNL     1      -7.213  13.538  67.078  1.00  0.00     0.397 C  
HETATM   22  C   UNL     1      -8.049  12.548  69.223  1.00  0.00     0.670 C  
HETATM   23  C   UNL     1      -8.207  13.420  67.984  1.00  0.00    -0.161 C  
HETATM   24  C   UNL     1      -8.262  13.368  70.494  1.00  0.00     4.540 C  
HETATM   25  O   UNL     1      -7.198  14.305  70.686  1.00  0.00    -0.102 OA 
HETATM   26  C   UNL     1      -9.603  14.107  70.472  1.00  0.00     2.646 C  
HETATM   27  H   UNL     1      -7.330  14.815  71.477  1.00  0.00     0.000 HD 
HETATM   28  C   UNL     1      -9.782  14.938  69.196  1.00  0.00    -0.183 C  
HETATM   29  O   UNL     1     -11.114  15.458  69.178  1.00  0.00    -0.236 OA 
HETATM   30  C   UNL     1      -9.506  14.103  67.947  1.00  0.00    -0.211 C  
HETATM   31  H   UNL     1     -11.224  15.973  68.386  1.00  0.00     0.000 HD 
HETATM   32  C   UNL     1     -10.361  13.948  66.924  1.00  0.00    -0.266 C  
ENDBRANCH  11  21
TORSDOF 1
ENDMDL
MODEL      161
REMARK 921   NORMALIZED FREE ENERGY PREDICTED BY IDOCK:   68.71 KCAL/MOL
REMARK 922        TOTAL FREE ENERGY PREDICTED BY IDOCK:   72.28 KCAL/MOL
REMARK 923 INTER-LIGAND FREE ENERGY PREDICTED BY IDOCK:   57.49 KCAL/MOL
REMARK 924 INTRA-LIGAND FREE ENERGY PREDICTED BY IDOCK:   14.79 KCAL/MOL
REMARK 927      BINDING AFFINITY PREDICTED BY RF-SCORE:    0.00 PKD
ROOT
HETATM    1  C   UNL     1      -9.603  14.744  70.480  1.00  0.00     1.218 C  
HETATM    2  C   UNL     1      -9.391  14.869  68.970  1.00  0.00    -0.179 C  
HETATM    3  C   UNL     1     -10.516  13.460  70.717  1.00  0.00     3.572 C  
HETATM    4  C   UNL     1     -10.961  13.151  72.151  1.00  0.00     6.712 C  
HETATM    5  C   UNL     1     -10.566  15.695  68.481  1.00  0.00    -0.256 C  
HETATM    6  C   UNL     1      -9.772  12.206  70.289  1.00  0.00     3.855 C  
HETATM    7  C   UNL     1     -11.229  16.399  69.695  1.00  0.00    -0.257 C  
HETATM    8  C   UNL     1     -10.223  11.261  69.444  1.00  0.00     0.019 C  
HETATM    9  C   UNL     1     -11.575  17.857  69.347  1.00  0.00     3.077 C  
HETATM   10  C   UNL     1      -9.414  10.009  69.170  1.00  0.00    -0.214 C  
HETATM   11  C   UNL     1     -11.905  18.381  68.141  1.00  0.00     2.550 C  
HETATM   12  C   UNL     1     -11.403  18.796  70.512  1.00  0.00     4.936 C  
HETATM   13  C   UNL     1     -10.063   8.694  69.689  1.00  0.00    -0.201 C  
HETATM   14  C   UNL     1      -9.019   9.949  67.692  1.00  0.00    -0.133 C  
HETATM   15  C   UNL     1     -10.487   8.808  71.162  1.00  0.00    -0.315 C  
HETATM   16  C   UNL     1     -10.002  18.726  71.119  1.00  0.00     3.302 C  
HETATM   17  C   UNL     1     -10.665  16.113  72.330  1.00  0.00     2.077 C  
HETATM   18  C   UNL     1     -11.245   8.175  68.867  1.00  0.00     0.421 C  
HETATM   19  C   UNL     1      -9.231  17.405  70.817  1.00  0.00     4.813 C  
HETATM   20  C   UNL     1     -10.188  16.169  70.867  1.00  0.00     1.118 C  
ENDROOT
BRANCH  11  21
HETATM   21  C   UNL     1     -12.183  17.676  66.901  1.00  0.00     4.044 C  
HETATM   22  C   UNL     1     -11.729  16.277  64.872  1.00  0.00     0.282 C  
HETATM   23  C   UNL     1     -11.332  16.889  66.210  1.00  0.00     0.810 C  
HETATM   24  C   UNL     1     -10.751  16.691  63.774  1.00  0.00     3.641 C  
HETATM   25  O   UNL     1     -10.869  18.086  63.479  1.00  0.00     5.368 OA 
HETATM   26  C   UNL     1      -9.303  16.365  64.154  1.00  0.00     6.876 C  
HETATM   27  H   UNL     1     -10.261  18.344  62.796  1.00  0.00     0.000 HD 
HETATM   28  C   UNL     1      -8.926  16.933  65.527  1.00  0.00     0.697 C  
HETATM   29  O   UNL     1      -7.627  16.449  65.876  1.00  0.00     0.160 OA 
HETATM   30  C   UNL     1      -9.955  16.549  66.589  1.00  0.00    -0.284 C  
HETATM   31  H   UNL     1      -7.394  16.802  66.727  1.00  0.00     0.000 HD 
HETATM   32  C   UNL     1      -9.670  15.919  67.740  1.00  0.00    -0.220 C  
ENDBRANCH  11  21
TORSDOF 1
ENDMDL
MODEL      162
REMARK 921   NORMALIZED FREE ENERGY PREDICTED BY IDOCK:   68.94 KCAL/MOL
REMARK 922        TOTAL FREE ENERGY PREDICTED BY IDOCK:   72.53 KCAL/MOL
REMARK 923 INTER-LIGAND FREE ENERGY PREDICTED BY IDOCK:   73.61 KCAL/MOL
REMARK 924 INTRA-LIGAND FREE ENERGY PREDICTED BY IDOCK:   -1.08 KCAL/MOL
REMARK 927      BINDING AFFINITY PREDICTED BY RF-SCORE:    0.00 PKD
ROOT
HETATM    1  C   UNL     1      -6.399  10.667  64.732  1.00  0.00     0.069 C  
HETATM    2  C   UNL     1      -7.078  10.755  63.365  1.00  0.00     0.289 C  
HETATM    3  C   UNL     1      -7.182   9.559  65.570  1.00  0.00    -0.091 C  
HETATM    4  C   UNL     1      -6.761   9.331  67.026  1.00  0.00    -0.076 C  
HETATM    5  C   UNL     1      -8.188  11.772  63.548  1.00  0.00     1.473 C  
HETATM    6  C   UNL     1      -7.007   8.196  64.922  1.00  0.00    -0.074 C  
HETATM    7  C   UNL     1      -7.925  12.578  64.847  1.00  0.00     3.916 C  
HETATM    8  C   UNL     1      -7.990   7.344  64.580  1.00  0.00    -0.122 C  
HETATM    9  C   UNL     1      -8.196  14.075  64.614  1.00  0.00     8.339 C  
HETATM   10  C   UNL     1      -7.674   5.972  64.020  1.00  0.00    -0.105 C  
HETATM   11  C   UNL     1      -9.081  14.649  63.762  1.00  0.00     9.101 C  
HETATM   12  C   UNL     1      -7.255  14.969  65.378  1.00  0.00     8.382 C  
HETATM   13  C   UNL     1      -8.086   4.788  64.942  1.00  0.00    -0.105 C  
HETATM   14  C   UNL     1      -8.212   5.845  62.592  1.00  0.00    -0.089 C  
HETATM   15  C   UNL     1      -7.565   4.972  66.376  1.00  0.00    -0.088 C  
HETATM   16  C   UNL     1      -5.788  14.656  65.089  1.00  0.00    14.988 C  
HETATM   17  C   UNL     1      -5.998  12.196  66.713  1.00  0.00     0.121 C  
HETATM   18  C   UNL     1      -9.585   4.483  64.989  1.00  0.00    -0.150 C  
HETATM   19  C   UNL     1      -5.527  13.222  64.536  1.00  0.00    13.388 C  
HETATM   20  C   UNL     1      -6.446  12.171  65.240  1.00  0.00     3.994 C  
ENDROOT
BRANCH  11  21
HETATM   21  C   UNL     1     -10.118  14.004  62.974  1.00  0.00     6.742 C  
HETATM   22  C   UNL     1     -12.304  12.879  62.488  1.00  0.00     1.693 C  
HETATM   23  C   UNL     1     -11.342  13.628  63.403  1.00  0.00     0.505 C  
HETATM   24  C   UNL     1     -12.711  11.543  63.107  1.00  0.00     0.306 C  
HETATM   25  O   UNL     1     -11.607  10.634  63.140  1.00  0.00     0.358 OA 
HETATM   26  C   UNL     1     -13.274  11.722  64.521  1.00  0.00     1.116 C  
HETATM   27  H   UNL     1     -11.860   9.802  63.525  1.00  0.00     0.000 HD 
HETATM   28  C   UNL     1     -12.328  12.526  65.420  1.00  0.00    -0.359 C  
HETATM   29  O   UNL     1     -12.993  12.788  66.658  1.00  0.00     0.520 OA 
HETATM   30  C   UNL     1     -11.895  13.828  64.747  1.00  0.00    -0.413 C  
HETATM   31  H   UNL     1     -12.406  13.287  67.215  1.00  0.00     0.000 HD 
HETATM   32  C   UNL     1     -12.037  15.051  65.282  1.00  0.00    -0.018 C  
ENDBRANCH  11  21
TORSDOF 1
ENDMDL
MODEL      163
REMARK 921   NORMALIZED FREE ENERGY PREDICTED BY IDOCK:   72.75 KCAL/MOL
REMARK 922        TOTAL FREE ENERGY PREDICTED BY IDOCK:   76.56 KCAL/MOL
REMARK 923 INTER-LIGAND FREE ENERGY PREDICTED BY IDOCK:   72.68 KCAL/MOL
REMARK 924 INTRA-LIGAND FREE ENERGY PREDICTED BY IDOCK:    3.87 KCAL/MOL
REMARK 927      BINDING AFFINITY PREDICTED BY RF-SCORE:    0.00 PKD
ROOT
HETATM    1  C   UNL     1     -10.878  14.230  70.429  1.00  0.00     0.375 C  
HETATM    2  C   UNL     1      -9.753  15.112  70.971  1.00  0.00     1.586 C  
HETATM    3  C   UNL     1     -11.238  14.776  68.975  1.00  0.00    -0.286 C  
HETATM    4  C   UNL     1     -12.409  14.122  68.234  1.00  0.00    -0.027 C  
HETATM    5  C   UNL     1     -10.460  16.268  71.653  1.00  0.00     1.962 C  
HETATM    6  C   UNL     1     -10.058  14.580  68.038  1.00  0.00    -0.226 C  
HETATM    7  C   UNL     1     -11.945  15.885  71.884  1.00  0.00    -0.588 C  
HETATM    8  C   UNL     1      -9.486  15.524  67.270  1.00  0.00    -0.218 C  
HETATM    9  C   UNL     1     -12.399  16.320  73.289  1.00  0.00    -0.615 C  
HETATM   10  C   UNL     1      -8.367  15.175  66.308  1.00  0.00     0.255 C  
HETATM   11  C   UNL     1     -11.964  17.370  74.028  1.00  0.00     0.282 C  
HETATM   12  C   UNL     1     -13.373  15.358  73.916  1.00  0.00     0.284 C  
HETATM   13  C   UNL     1      -8.735  15.337  64.805  1.00  0.00     4.782 C  
HETATM   14  C   UNL     1      -7.083  15.909  66.702  1.00  0.00     0.163 C  
HETATM   15  C   UNL     1     -10.051  14.624  64.458  1.00  0.00     0.452 C  
HETATM   16  C   UNL     1     -12.835  13.928  73.964  1.00  0.00     2.667 C  
HETATM   17  C   UNL     1     -13.271  13.672  71.052  1.00  0.00    -0.190 C  
HETATM   18  C   UNL     1      -8.795  16.779  64.295  1.00  0.00     8.300 C  
HETATM   19  C   UNL     1     -11.701  13.628  72.937  1.00  0.00     2.445 C  
HETATM   20  C   UNL     1     -11.979  14.333  71.569  1.00  0.00    -0.228 C  
ENDROOT
BRANCH  11  21
HETATM   21  C   UNL     1     -11.085  18.452  73.621  1.00  0.00     2.057 C  
HETATM   22  C   UNL     1      -9.947  20.064  72.076  1.00  0.00     3.036 C  
HETATM   23  C   UNL     1     -10.978  18.986  72.385  1.00  0.00     4.160 C  
HETATM   24  C   UNL     1      -9.025  19.624  70.941  1.00  0.00     2.377 C  
HETATM   25  O   UNL     1      -8.176  18.549  71.355  1.00  0.00     6.398 OA 
HETATM   26  C   UNL     1      -9.817  19.205  69.698  1.00  0.00     0.159 C  
HETATM   27  H   UNL     1      -7.602  18.275  70.648  1.00  0.00     0.000 HD 
HETATM   28  C   UNL     1     -10.892  18.162  70.025  1.00  0.00     1.786 C  
HETATM   29  O   UNL     1     -11.688  17.950  68.856  1.00  0.00     1.092 OA 
HETATM   30  C   UNL     1     -11.759  18.608  71.201  1.00  0.00     7.691 C  
HETATM   31  H   UNL     1     -12.354  17.304  69.060  1.00  0.00     0.000 HD 
HETATM   32  C   UNL     1     -13.098  18.705  71.173  1.00  0.00    22.754 C  
ENDBRANCH  11  21
TORSDOF 1
ENDMDL
MODEL      164
REMARK 921   NORMALIZED FREE ENERGY PREDICTED BY IDOCK:   78.10 KCAL/MOL
REMARK 922        TOTAL FREE ENERGY PREDICTED BY IDOCK:   82.22 KCAL/MOL
REMARK 923 INTER-LIGAND FREE ENERGY PREDICTED BY IDOCK:   83.33 KCAL/MOL
REMARK 924 INTRA-LIGAND FREE ENERGY PREDICTED BY IDOCK:   -1.11 KCAL/MOL
REMARK 927      BINDING AFFINITY PREDICTED BY RF-SCORE:    0.00 PKD
ROOT
HETATM    1  C   UNL     1      -7.644  14.791  63.979  1.00  0.00    18.695 C  
HETATM    2  C   UNL     1      -9.166  14.854  63.840  1.00  0.00     7.960 C  
HETATM    3  C   UNL     1      -7.295  13.378  64.629  1.00  0.00    13.023 C  
HETATM    4  C   UNL     1      -5.828  13.087  64.966  1.00  0.00    10.117 C  
HETATM    5  C   UNL     1      -9.654  15.416  65.162  1.00  0.00     0.149 C  
HETATM    6  C   UNL     1      -7.679  12.258  63.677  1.00  0.00     4.639 C  
HETATM    7  C   UNL     1      -8.457  16.062  65.908  1.00  0.00     0.136 C  
HETATM    8  C   UNL     1      -8.447  11.193  63.969  1.00  0.00     0.339 C  
HETATM    9  C   UNL     1      -8.875  17.406  66.530  1.00  0.00    -0.290 C  
HETATM   10  C   UNL     1      -8.682  10.097  62.949  1.00  0.00    -0.209 C  
HETATM   11  C   UNL     1     -10.095  17.780  66.988  1.00  0.00    -0.337 C  
HETATM   12  C   UNL     1      -7.775  18.435  66.503  1.00  0.00    -0.278 C  
HETATM   13  C   UNL     1      -8.060   8.721  63.325  1.00  0.00    -0.170 C  
HETATM   14  C   UNL     1     -10.168  10.014  62.593  1.00  0.00     1.088 C  
HETATM   15  C   UNL     1      -6.580   8.851  63.719  1.00  0.00    -0.088 C  
HETATM   16  C   UNL     1      -7.223  18.663  65.096  1.00  0.00     0.565 C  
HETATM   17  C   UNL     1      -5.835  16.058  65.223  1.00  0.00     7.009 C  
HETATM   18  C   UNL     1      -8.801   7.941  64.414  1.00  0.00     0.533 C  
HETATM   19  C   UNL     1      -7.479  17.491  64.101  1.00  0.00     8.971 C  
HETATM   20  C   UNL     1      -7.318  16.106  64.809  1.00  0.00     8.931 C  
ENDROOT
BRANCH  11  21
HETATM   21  C   UNL     1     -11.279  16.957  67.166  1.00  0.00     0.294 C  
HETATM   22  C   UNL     1     -12.773  15.230  68.199  1.00  0.00     1.282 C  
HETATM   23  C   UNL     1     -11.522  16.099  68.181  1.00  0.00    -0.220 C  
HETATM   24  C   UNL     1     -12.403  13.750  68.285  1.00  0.00     0.063 C  
HETATM   25  O   UNL     1     -11.781  13.304  67.076  1.00  0.00    -0.347 OA 
HETATM   26  C   UNL     1     -11.481  13.465  69.475  1.00  0.00    -0.308 C  
HETATM   27  H   UNL     1     -11.551  12.383  67.130  1.00  0.00     0.000 HD 
HETATM   28  C   UNL     1     -10.253  14.383  69.484  1.00  0.00     0.104 C  
HETATM   29  O   UNL     1      -9.537  14.169  70.702  1.00  0.00     1.621 OA 
HETATM   30  C   UNL     1     -10.655  15.850  69.338  1.00  0.00    -0.263 C  
HETATM   31  H   UNL     1      -8.776  14.738  70.708  1.00  0.00     0.000 HD 
HETATM   32  C   UNL     1     -10.309  16.827  70.191  1.00  0.00     0.316 C  
ENDBRANCH  11  21
TORSDOF 1
ENDMDL
MODEL      165
REMARK 921   NORMALIZED FREE ENERGY PREDICTED BY IDOCK:   83.63 KCAL/MOL
REMARK 922        TOTAL FREE ENERGY PREDICTED BY IDOCK:   88.08 KCAL/MOL
REMARK 923 INTER-LIGAND FREE ENERGY PREDICTED BY IDOCK:   89.13 KCAL/MOL
REMARK 924 INTRA-LIGAND FREE ENERGY PREDICTED BY IDOCK:   -1.04 KCAL/MOL
REMARK 927      BINDING AFFINITY PREDICTED BY RF-SCORE:    0.00 PKD
ROOT
HETATM    1  C   UNL     1     -10.826  10.269  64.985  1.00  0.00     0.588 C  
HETATM    2  C   UNL     1      -9.519  10.377  64.199  1.00  0.00    -0.353 C  
HETATM    3  C   UNL     1     -10.450  10.386  66.530  1.00  0.00    -0.262 C  
HETATM    4  C   UNL     1     -11.576  10.218  67.556  1.00  0.00     0.521 C  
HETATM    5  C   UNL     1      -9.000   8.954  64.112  1.00  0.00     0.126 C  
HETATM    6  C   UNL     1      -9.890  11.767  66.826  1.00  0.00    -0.218 C  
HETATM    7  C   UNL     1     -10.152   7.974  64.460  1.00  0.00     4.467 C  
HETATM    8  C   UNL     1      -8.727  12.039  67.447  1.00  0.00    -0.170 C  
HETATM    9  C   UNL     1     -10.154   6.781  63.488  1.00  0.00     6.055 C  
HETATM   10  C   UNL     1      -8.326  13.466  67.761  1.00  0.00    -0.178 C  
HETATM   11  C   UNL     1      -9.102   6.212  62.850  1.00  0.00     0.822 C  
HETATM   12  C   UNL     1     -11.540   6.293  63.159  1.00  0.00    10.608 C  
HETATM   13  C   UNL     1      -8.270  13.801  69.280  1.00  0.00     0.465 C  
HETATM   14  C   UNL     1      -7.043  13.833  67.011  1.00  0.00     0.541 C  
HETATM   15  C   UNL     1      -9.556  13.379  70.006  1.00  0.00     2.630 C  
HETATM   16  C   UNL     1     -12.438   7.404  62.618  1.00  0.00    17.384 C  
HETATM   17  C   UNL     1     -12.653   8.547  65.334  1.00  0.00    17.353 C  
HETATM   18  C   UNL     1      -7.061  13.238  70.032  1.00  0.00     0.747 C  
HETATM   19  C   UNL     1     -11.983   8.847  62.994  1.00  0.00    17.192 C  
HETATM   20  C   UNL     1     -11.436   8.901  64.458  1.00  0.00    11.318 C  
ENDROOT
BRANCH  11  21
HETATM   21  C   UNL     1      -7.685   6.470  63.047  1.00  0.00    -0.094 C  
HETATM   22  C   UNL     1      -5.429   6.339  64.130  1.00  0.00    -0.018 C  
HETATM   23  C   UNL     1      -6.884   5.912  63.979  1.00  0.00    -0.049 C  
HETATM   24  C   UNL     1      -5.154   6.835  65.548  1.00  0.00    -0.022 C  
HETATM   25  O   UNL     1      -5.827   8.072  65.800  1.00  0.00    -0.037 OA 
HETATM   26  C   UNL     1      -5.567   5.800  66.600  1.00  0.00    -0.013 C  
HETATM   27  H   UNL     1      -5.655   8.381  66.683  1.00  0.00     0.000 HD 
HETATM   28  C   UNL     1      -7.013   5.330  66.408  1.00  0.00    -0.067 C  
HETATM   29  O   UNL     1      -7.265   4.255  67.317  1.00  0.00    -0.066 OA 
HETATM   30  C   UNL     1      -7.270   4.896  64.966  1.00  0.00    -0.064 C  
HETATM   31  H   UNL     1      -8.161   3.964  67.197  1.00  0.00     0.000 HD 
HETATM   32  C   UNL     1      -7.751   3.697  64.600  1.00  0.00    -0.081 C  
ENDBRANCH  11  21
TORSDOF 1
ENDMDL
MODEL      166
REMARK 921   NORMALIZED FREE ENERGY PREDICTED BY IDOCK:   87.83 KCAL/MOL
REMARK 922        TOTAL FREE ENERGY PREDICTED BY IDOCK:   92.52 KCAL/MOL
REMARK 923 INTER-LIGAND FREE ENERGY PREDICTED BY IDOCK:   93.64 KCAL/MOL
REMARK 924 INTRA-LIGAND FREE ENERGY PREDICTED BY IDOCK:   -1.12 KCAL/MOL
REMARK 927      BINDING AFFINITY PREDICTED BY RF-SCORE:    0.00 PKD
ROOT
HETATM    1  C   UNL     1      -9.966  10.041  65.906  1.00  0.00    -0.339 C  
HETATM    2  C   UNL     1      -8.539   9.571  65.622  1.00  0.00    -0.154 C  
HETATM    3  C   UNL     1     -10.116  10.142  67.490  1.00  0.00    -0.244 C  
HETATM    4  C   UNL     1     -11.493  10.509  68.057  1.00  0.00    -0.230 C  
HETATM    5  C   UNL     1      -8.617   8.057  65.646  1.00  0.00    -0.167 C  
HETATM    6  C   UNL     1      -9.199  11.225  68.031  1.00  0.00    -0.160 C  
HETATM    7  C   UNL     1     -10.103   7.626  65.525  1.00  0.00     1.675 C  
HETATM    8  C   UNL     1      -8.304  11.087  69.026  1.00  0.00    -0.089 C  
HETATM    9  C   UNL     1     -10.242   6.442  64.552  1.00  0.00     4.096 C  
HETATM   10  C   UNL     1      -7.511  12.275  69.533  1.00  0.00     0.523 C  
HETATM   11  C   UNL     1      -9.345   5.461  64.285  1.00  0.00     0.507 C  
HETATM   12  C   UNL     1     -11.510   6.493  63.741  1.00  0.00    13.293 C  
HETATM   13  C   UNL     1      -7.843  12.696  70.994  1.00  0.00     7.490 C  
HETATM   14  C   UNL     1      -6.016  12.056  69.289  1.00  0.00    -0.081 C  
HETATM   15  C   UNL     1      -9.355  12.863  71.212  1.00  0.00    12.943 C  
HETATM   16  C   UNL     1     -11.668   7.810  62.983  1.00  0.00    20.588 C  
HETATM   17  C   UNL     1     -12.320   9.185  65.516  1.00  0.00    12.854 C  
HETATM   18  C   UNL     1      -7.277  11.784  72.085  1.00  0.00     9.132 C  
HETATM   19  C   UNL     1     -10.843   8.997  63.567  1.00  0.00     8.326 C  
HETATM   20  C   UNL     1     -10.844   8.969  65.131  1.00  0.00     4.052 C  
ENDROOT
BRANCH  11  21
HETATM   21  C   UNL     1      -8.095   5.175  64.969  1.00  0.00    -0.117 C  
HETATM   22  C   UNL     1      -6.578   4.406  66.809  1.00  0.00    -0.050 C  
HETATM   23  C   UNL     1      -7.950   4.566  66.165  1.00  0.00    -0.099 C  
HETATM   24  C   UNL     1      -6.550   5.052  68.193  1.00  0.00    -0.049 C  
HETATM   25  O   UNL     1      -6.640   6.477  68.098  1.00  0.00    -0.053 OA 
HETATM   26  C   UNL     1      -7.677   4.523  69.087  1.00  0.00    -0.059 C  
HETATM   27  H   UNL     1      -6.623   6.879  68.959  1.00  0.00     0.000 HD 
HETATM   28  C   UNL     1      -9.048   4.633  68.410  1.00  0.00    -0.120 C  
HETATM   29  O   UNL     1     -10.013   3.973  69.234  1.00  0.00    -0.103 OA 
HETATM   30  C   UNL     1      -9.025   4.029  67.007  1.00  0.00    -0.143 C  
HETATM   31  H   UNL     1     -10.863   4.041  68.814  1.00  0.00     0.000 HD 
HETATM   32  C   UNL     1      -9.857   3.069  66.572  1.00  0.00     0.419 C  
ENDBRANCH  11  21
TORSDOF 1
ENDMDL
MODEL      167
REMARK 921   NORMALIZED FREE ENERGY PREDICTED BY IDOCK:   88.25 KCAL/MOL
REMARK 922        TOTAL FREE ENERGY PREDICTED BY IDOCK:   92.97 KCAL/MOL
REMARK 923 INTER-LIGAND FREE ENERGY PREDICTED BY IDOCK:   91.34 KCAL/MOL
REMARK 924 INTRA-LIGAND FREE ENERGY PREDICTED BY IDOCK:    1.63 KCAL/MOL
REMARK 927      BINDING AFFINITY PREDICTED BY RF-SCORE:    0.00 PKD
ROOT
HETATM    1  C   UNL     1      -8.747  15.408  67.646  1.00  0.00    -0.174 C  
HETATM    2  C   UNL     1      -9.416  16.641  68.255  1.00  0.00    -0.230 C  
HETATM    3  C   UNL     1      -9.842  14.683  66.743  1.00  0.00    -0.262 C  
HETATM    4  C   UNL     1      -9.459  13.355  66.081  1.00  0.00    -0.156 C  
HETATM    5  C   UNL     1     -10.050  16.144  69.540  1.00  0.00    -0.241 C  
HETATM    6  C   UNL     1     -10.228  15.575  65.575  1.00  0.00    -0.415 C  
HETATM    7  C   UNL     1      -9.433  14.769  69.908  1.00  0.00     0.366 C  
HETATM    8  C   UNL     1     -11.477  15.931  65.224  1.00  0.00     0.078 C  
HETATM    9  C   UNL     1      -9.133  14.702  71.416  1.00  0.00     4.264 C  
HETATM   10  C   UNL     1     -11.731  16.756  63.978  1.00  0.00     1.492 C  
HETATM   11  C   UNL     1      -9.781  15.321  72.433  1.00  0.00     5.026 C  
HETATM   12  C   UNL     1      -7.885  13.922  71.733  1.00  0.00     6.746 C  
HETATM   13  C   UNL     1     -12.507  16.008  62.856  1.00  0.00     5.722 C  
HETATM   14  C   UNL     1     -12.355  18.103  64.354  1.00  0.00     8.816 C  
HETATM   15  C   UNL     1     -11.878  14.643  62.538  1.00  0.00     4.451 C  
HETATM   16  C   UNL     1      -6.661  14.446  70.983  1.00  0.00     0.385 C  
HETATM   17  C   UNL     1      -7.692  13.260  68.481  1.00  0.00    -0.120 C  
HETATM   18  C   UNL     1     -14.006  15.823  63.105  1.00  0.00     6.551 C  
HETATM   19  C   UNL     1      -6.989  15.269  69.701  1.00  0.00    -0.188 C  
HETATM   20  C   UNL     1      -8.197  14.646  68.926  1.00  0.00    -0.145 C  
ENDROOT
BRANCH  11  21
HETATM   21  C   UNL     1     -11.026  16.069  72.382  1.00  0.00     0.956 C  
HETATM   22  C   UNL     1     -12.531  18.064  72.194  1.00  0.00     8.168 C  
HETATM   23  C   UNL     1     -11.167  17.389  72.131  1.00  0.00     1.694 C  
HETATM   24  C   UNL     1     -12.519  19.216  73.197  1.00  0.00    12.211 C  
HETATM   25  O   UNL     1     -12.396  18.730  74.537  1.00  0.00     2.434 OA 
HETATM   26  C   UNL     1     -11.391  20.211  72.904  1.00  0.00    10.239 C  
HETATM   27  H   UNL     1     -12.390  19.447  75.161  1.00  0.00     0.000 HD 
HETATM   28  C   UNL     1     -10.029  19.518  72.784  1.00  0.00     3.655 C  
HETATM   29  O   UNL     1      -9.067  20.482  72.350  1.00  0.00     0.471 OA 
HETATM   30  C   UNL     1     -10.091  18.336  71.818  1.00  0.00     5.087 C  
HETATM   31  H   UNL     1      -8.223  20.053  72.276  1.00  0.00     0.000 HD 
HETATM   32  C   UNL     1      -9.290  18.176  70.752  1.00  0.00     4.454 C  
ENDBRANCH  11  21
TORSDOF 1
ENDMDL
MODEL      168
REMARK 921   NORMALIZED FREE ENERGY PREDICTED BY IDOCK:   90.71 KCAL/MOL
REMARK 922        TOTAL FREE ENERGY PREDICTED BY IDOCK:   95.57 KCAL/MOL
REMARK 923 INTER-LIGAND FREE ENERGY PREDICTED BY IDOCK:   94.79 KCAL/MOL
REMARK 924 INTRA-LIGAND FREE ENERGY PREDICTED BY IDOCK:    0.78 KCAL/MOL
REMARK 927      BINDING AFFINITY PREDICTED BY RF-SCORE:    0.00 PKD
ROOT
HETATM    1  C   UNL     1      -8.131  15.680  71.258  1.00  0.00     4.042 C  
HETATM    2  C   UNL     1      -9.099  14.692  71.910  1.00  0.00     5.729 C  
HETATM    3  C   UNL     1      -9.014  16.838  70.610  1.00  0.00     3.800 C  
HETATM    4  C   UNL     1      -8.292  17.924  69.805  1.00  0.00     1.296 C  
HETATM    5  C   UNL     1      -9.456  13.713  70.808  1.00  0.00     5.526 C  
HETATM    6  C   UNL     1      -9.737  17.612  71.700  1.00  0.00     7.285 C  
HETATM    7  C   UNL     1      -8.424  13.849  69.658  1.00  0.00     1.047 C  
HETATM    8  C   UNL     1     -11.057  17.867  71.753  1.00  0.00     2.663 C  
HETATM    9  C   UNL     1      -8.010  12.459  69.142  1.00  0.00     0.399 C  
HETATM   10  C   UNL     1     -11.640  18.731  72.853  1.00  0.00     4.954 C  
HETATM   11  C   UNL     1      -8.741  11.318  69.113  1.00  0.00     0.120 C  
HETATM   12  C   UNL     1      -6.563  12.392  68.728  1.00  0.00    -0.088 C  
HETATM   13  C   UNL     1     -12.230  20.086  72.365  1.00  0.00    17.466 C  
HETATM   14  C   UNL     1     -12.617  17.916  73.705  1.00  0.00     2.888 C  
HETATM   15  C   UNL     1     -11.238  20.855  71.478  1.00  0.00     9.408 C  
HETATM   16  C   UNL     1      -5.615  12.836  69.842  1.00  0.00    -0.114 C  
HETATM   17  C   UNL     1      -6.413  15.646  69.394  1.00  0.00    -0.156 C  
HETATM   18  C   UNL     1     -13.579  19.995  71.647  1.00  0.00    27.231 C  
HETATM   19  C   UNL     1      -6.271  13.739  70.930  1.00  0.00     0.048 C  
HETATM   20  C   UNL     1      -7.283  14.746  70.292  1.00  0.00     0.269 C  
ENDROOT
BRANCH  11  21
HETATM   21  C   UNL     1     -10.155  11.150  69.403  1.00  0.00     0.009 C  
HETATM   22  C   UNL     1     -12.601  11.696  69.434  1.00  0.00     0.257 C  
HETATM   23  C   UNL     1     -11.166  11.941  68.983  1.00  0.00    -0.316 C  
HETATM   24  C   UNL     1     -13.171  12.935  70.124  1.00  0.00     1.068 C  
HETATM   25  O   UNL     1     -12.527  13.166  71.381  1.00  0.00    -0.299 OA 
HETATM   26  C   UNL     1     -13.043  14.181  69.243  1.00  0.00     1.419 C  
HETATM   27  H   UNL     1     -12.882  13.936  71.810  1.00  0.00     0.000 HD 
HETATM   28  C   UNL     1     -11.609  14.390  68.743  1.00  0.00    -0.315 C  
HETATM   29  O   UNL     1     -11.609  15.468  67.804  1.00  0.00    -0.302 OA 
HETATM   30  C   UNL     1     -11.050  13.116  68.112  1.00  0.00    -0.284 C  
HETATM   31  H   UNL     1     -10.720  15.597  67.495  1.00  0.00     0.000 HD 
HETATM   32  C   UNL     1     -10.543  13.034  66.872  1.00  0.00    -0.260 C  
ENDBRANCH  11  21
TORSDOF 1
ENDMDL
MODEL      169
REMARK 921   NORMALIZED FREE ENERGY PREDICTED BY IDOCK:   90.83 KCAL/MOL
REMARK 922        TOTAL FREE ENERGY PREDICTED BY IDOCK:   95.70 KCAL/MOL
REMARK 923 INTER-LIGAND FREE ENERGY PREDICTED BY IDOCK:   96.81 KCAL/MOL
REMARK 924 INTRA-LIGAND FREE ENERGY PREDICTED BY IDOCK:   -1.11 KCAL/MOL
REMARK 927      BINDING AFFINITY PREDICTED BY RF-SCORE:    0.00 PKD
ROOT
HETATM    1  C   UNL     1      -7.199  17.079  70.461  1.00  0.00     2.470 C  
HETATM    2  C   UNL     1      -8.678  17.454  70.365  1.00  0.00     3.612 C  
HETATM    3  C   UNL     1      -6.799  16.403  69.074  1.00  0.00    -0.198 C  
HETATM    4  C   UNL     1      -5.378  15.846  68.932  1.00  0.00    -0.104 C  
HETATM    5  C   UNL     1      -9.424  16.217  70.828  1.00  0.00     2.275 C  
HETATM    6  C   UNL     1      -6.905  17.420  67.950  1.00  0.00    -0.184 C  
HETATM    7  C   UNL     1      -8.435  15.283  71.575  1.00  0.00     4.432 C  
HETATM    8  C   UNL     1      -7.585  17.268  66.799  1.00  0.00    -0.270 C  
HETATM    9  C   UNL     1      -9.092  14.714  72.846  1.00  0.00     8.429 C  
HETATM   10  C   UNL     1      -7.536  18.328  65.718  1.00  0.00    -0.126 C  
HETATM   11  C   UNL     1     -10.401  14.448  73.071  1.00  0.00     5.161 C  
HETATM   12  C   UNL     1      -8.122  14.554  73.987  1.00  0.00     8.572 C  
HETATM   13  C   UNL     1      -6.830  17.879  64.406  1.00  0.00     3.851 C  
HETATM   14  C   UNL     1      -8.932  18.914  65.487  1.00  0.00     1.000 C  
HETATM   15  C   UNL     1      -5.452  17.257  64.682  1.00  0.00     2.360 C  
HETATM   16  C   UNL     1      -7.389  15.853  74.319  1.00  0.00    10.412 C  
HETATM   17  C   UNL     1      -5.755  15.549  71.875  1.00  0.00     0.650 C  
HETATM   18  C   UNL     1      -7.638  16.932  63.516  1.00  0.00    17.704 C  
HETATM   19  C   UNL     1      -7.356  16.894  73.158  1.00  0.00    12.788 C  
HETATM   20  C   UNL     1      -7.153  16.189  71.776  1.00  0.00     5.244 C  
ENDROOT
BRANCH  11  21
HETATM   21  C   UNL     1     -11.499  14.469  72.120  1.00  0.00     0.454 C  
HETATM   22  C   UNL     1     -12.868  13.779  70.137  1.00  0.00    -0.017 C  
HETATM   23  C   UNL     1     -11.720  13.588  71.120  1.00  0.00     0.503 C  
HETATM   24  C   UNL     1     -12.349  13.839  68.702  1.00  0.00     0.021 C  
HETATM   25  O   UNL     1     -11.598  15.036  68.476  1.00  0.00    -0.302 OA 
HETATM   26  C   UNL     1     -11.488  12.618  68.360  1.00  0.00    -0.350 C  
HETATM   27  H   UNL     1     -11.275  15.073  67.583  1.00  0.00     0.000 HD 
HETATM   28  C   UNL     1     -10.370  12.397  69.385  1.00  0.00     0.465 C  
HETATM   29  O   UNL     1      -9.723  11.157  69.088  1.00  0.00    -0.374 OA 
HETATM   30  C   UNL     1     -10.916  12.400  70.812  1.00  0.00     2.564 C  
HETATM   31  H   UNL     1      -9.030  11.020  69.724  1.00  0.00     0.000 HD 
HETATM   32  C   UNL     1     -10.738  11.410  71.702  1.00  0.00     5.768 C  
ENDBRANCH  11  21
TORSDOF 1
ENDMDL
MODEL      170
REMARK 921   NORMALIZED FREE ENERGY PREDICTED BY IDOCK:  101.77 KCAL/MOL
REMARK 922        TOTAL FREE ENERGY PREDICTED BY IDOCK:  107.27 KCAL/MOL
REMARK 923 INTER-LIGAND FREE ENERGY PREDICTED BY IDOCK:  107.62 KCAL/MOL
REMARK 924 INTRA-LIGAND FREE ENERGY PREDICTED BY IDOCK:   -0.34 KCAL/MOL
REMARK 927      BINDING AFFINITY PREDICTED BY RF-SCORE:    0.00 PKD
ROOT
HETATM    1  C   UNL     1      -7.534  18.472  67.343  1.00  0.00    -0.223 C  
HETATM    2  C   UNL     1      -7.564  16.946  67.445  1.00  0.00    -0.185 C  
HETATM    3  C   UNL     1      -8.804  19.016  68.139  1.00  0.00    -0.353 C  
HETATM    4  C   UNL     1      -9.068  20.526  68.120  1.00  0.00     0.029 C  
HETATM    5  C   UNL     1      -8.412  16.496  66.270  1.00  0.00    -0.363 C  
HETATM    6  C   UNL     1      -8.671  18.688  69.617  1.00  0.00     0.761 C  
HETATM    7  C   UNL     1      -8.535  17.666  65.259  1.00  0.00     1.990 C  
HETATM    8  C   UNL     1      -9.586  18.061  70.379  1.00  0.00     2.552 C  
HETATM    9  C   UNL     1      -8.367  17.151  63.819  1.00  0.00    15.021 C  
HETATM   10  C   UNL     1      -9.367  17.875  71.867  1.00  0.00    10.622 C  
HETATM   11  C   UNL     1      -8.687  15.934  63.316  1.00  0.00    19.712 C  
HETATM   12  C   UNL     1      -7.652  18.129  62.924  1.00  0.00    16.597 C  
HETATM   13  C   UNL     1     -10.357  18.666  72.769  1.00  0.00     4.186 C  
HETATM   14  C   UNL     1      -9.293  16.384  72.207  1.00  0.00     9.607 C  
HETATM   15  C   UNL     1     -10.437  20.147  72.369  1.00  0.00     4.669 C  
HETATM   16  C   UNL     1      -6.295  18.552  63.486  1.00  0.00     3.078 C  
HETATM   17  C   UNL     1      -7.659  20.218  65.511  1.00  0.00    -0.058 C  
HETATM   18  C   UNL     1     -11.774  18.092  72.851  1.00  0.00     2.584 C  
HETATM   19  C   UNL     1      -6.141  18.354  65.025  1.00  0.00    -0.152 C  
HETATM   20  C   UNL     1      -7.465  18.713  65.775  1.00  0.00    -0.139 C  
ENDROOT
BRANCH  11  21
HETATM   21  C   UNL     1      -9.425  14.861  63.961  1.00  0.00     5.479 C  
HETATM   22  C   UNL     1     -11.256  13.764  65.273  1.00  0.00    -0.311 C  
HETATM   23  C   UNL     1     -10.633  14.955  64.556  1.00  0.00    -0.020 C  
HETATM   24  C   UNL     1     -11.560  14.106  66.730  1.00  0.00    -0.391 C  
HETATM   25  O   UNL     1     -10.353  14.272  67.482  1.00  0.00    -0.246 OA 
HETATM   26  C   UNL     1     -12.418  15.369  66.848  1.00  0.00     1.261 C  
HETATM   27  H   UNL     1     -10.542  14.485  68.389  1.00  0.00     0.000 HD 
HETATM   28  C   UNL     1     -11.816  16.549  66.077  1.00  0.00     1.658 C  
HETATM   29  O   UNL     1     -12.752  17.630  66.100  1.00  0.00     6.302 OA 
HETATM   30  C   UNL     1     -11.472  16.156  64.641  1.00  0.00    -0.225 C  
HETATM   31  H   UNL     1     -12.378  18.361  65.622  1.00  0.00     0.000 HD 
HETATM   32  C   UNL     1     -11.915  16.793  63.545  1.00  0.00     4.179 C  
ENDBRANCH  11  21
TORSDOF 1
ENDMDL
MODEL      171
REMARK 921   NORMALIZED FREE ENERGY PREDICTED BY IDOCK:  109.80 KCAL/MOL
REMARK 922        TOTAL FREE ENERGY PREDICTED BY IDOCK:  115.78 KCAL/MOL
REMARK 923 INTER-LIGAND FREE ENERGY PREDICTED BY IDOCK:  116.76 KCAL/MOL
REMARK 924 INTRA-LIGAND FREE ENERGY PREDICTED BY IDOCK:   -0.99 KCAL/MOL
REMARK 927      BINDING AFFINITY PREDICTED BY RF-SCORE:    0.00 PKD
ROOT
HETATM    1  C   UNL     1     -13.764   9.213  68.745  1.00  0.00    10.065 C  
HETATM    2  C   UNL     1     -12.872   7.999  68.486  1.00  0.00     8.144 C  
HETATM    3  C   UNL     1     -13.246  10.383  67.794  1.00  0.00     9.166 C  
HETATM    4  C   UNL     1     -13.914  11.757  67.918  1.00  0.00    12.457 C  
HETATM    5  C   UNL     1     -11.703   8.166  69.438  1.00  0.00     0.932 C  
HETATM    6  C   UNL     1     -13.460  10.004  66.338  1.00  0.00    17.928 C  
HETATM    7  C   UNL     1     -12.081   9.207  70.524  1.00  0.00    -0.014 C  
HETATM    8  C   UNL     1     -12.531  10.021  65.365  1.00  0.00     8.997 C  
HETATM    9  C   UNL     1     -11.619   8.728  71.911  1.00  0.00    -0.432 C  
HETATM   10  C   UNL     1     -12.899   9.704  63.930  1.00  0.00    13.295 C  
HETATM   11  C   UNL     1     -10.555   7.948  72.222  1.00  0.00    -0.331 C  
HETATM   12  C   UNL     1     -12.568   9.116  73.014  1.00  0.00     0.656 C  
HETATM   13  C   UNL     1     -12.767  10.904  62.950  1.00  0.00     2.654 C  
HETATM   14  C   UNL     1     -12.158   8.449  63.458  1.00  0.00    22.522 C  
HETATM   15  C   UNL     1     -13.485  12.156  63.477  1.00  0.00     0.702 C  
HETATM   16  C   UNL     1     -13.996   8.641  72.750  1.00  0.00    -0.167 C  
HETATM   17  C   UNL     1     -14.309  10.741  70.693  1.00  0.00     3.168 C  
HETATM   18  C   UNL     1     -11.335  11.277  62.557  1.00  0.00     1.427 C  
HETATM   19  C   UNL     1     -14.317   8.352  71.251  1.00  0.00    -0.333 C  
HETATM   20  C   UNL     1     -13.638   9.406  70.317  1.00  0.00     0.932 C  
ENDROOT
BRANCH  11  21
HETATM   21  C   UNL     1      -9.480   7.504  71.350  1.00  0.00    -0.159 C  
HETATM   22  C   UNL     1      -7.309   7.604  70.104  1.00  0.00    -0.076 C  
HETATM   23  C   UNL     1      -8.315   8.143  71.113  1.00  0.00    -0.134 C  
HETATM   24  C   UNL     1      -7.013   8.644  69.025  1.00  0.00    -0.064 C  
HETATM   25  O   UNL     1      -8.152   8.854  68.185  1.00  0.00    -0.105 OA 
HETATM   26  C   UNL     1      -6.568   9.979  69.632  1.00  0.00    -0.062 C  
HETATM   27  H   UNL     1      -7.968   9.501  67.514  1.00  0.00     0.000 HD 
HETATM   28  C   UNL     1      -7.555  10.488  70.690  1.00  0.00     1.161 C  
HETATM   29  O   UNL     1      -6.990  11.640  71.319  1.00  0.00     1.654 OA 
HETATM   30  C   UNL     1      -7.873   9.405  71.719  1.00  0.00     0.654 C  
HETATM   31  H   UNL     1      -7.601  11.955  71.975  1.00  0.00     0.000 HD 
HETATM   32  C   UNL     1      -7.728   9.543  73.046  1.00  0.00     2.127 C  
ENDBRANCH  11  21
TORSDOF 1
ENDMDL
