MODEL        1
REMARK 921   NORMALIZED FREE ENERGY PREDICTED BY IDOCK:   -6.88 KCAL/MOL
REMARK 922        TOTAL FREE ENERGY PREDICTED BY IDOCK:   -8.32 KCAL/MOL
REMARK 923 INTER-LIGAND FREE ENERGY PREDICTED BY IDOCK:   -8.09 KCAL/MOL
REMARK 924 INTRA-LIGAND FREE ENERGY PREDICTED BY IDOCK:   -0.24 KCAL/MOL
REMARK 927      BINDING AFFINITY PREDICTED BY RF-SCORE:    0.00 PKD
ROOT
HETATM    1  C   UNL     1     -11.902  11.956  69.654  1.00  0.00    -0.406 C  
HETATM    2  C   UNL     1     -12.320  14.209  70.618  1.00  0.00    -0.435 A  
HETATM    3  C   UNL     1     -11.999  13.296  69.489  1.00  0.00    -0.366 C  
HETATM    4  C   UNL     1     -11.628  13.848  68.167  1.00  0.00    -0.370 A  
HETATM    5  C   UNL     1     -13.503  13.978  71.348  1.00  0.00    -0.360 A  
HETATM    6  C   UNL     1     -12.383  13.597  67.014  1.00  0.00    -0.277 A  
HETATM    7  C   UNL     1     -13.864  14.785  72.427  1.00  0.00    -0.578 A  
HETATM    8  C   UNL     1     -12.045  14.215  65.810  1.00  0.00    -0.433 A  
HETATM    9  C   UNL     1     -13.065  15.867  72.772  1.00  0.00    -0.580 A  
HETATM   10  C   UNL     1     -11.924  16.150  72.021  1.00  0.00    -0.607 A  
HETATM   11  C   UNL     1     -10.956  15.085  65.751  1.00  0.00    -0.351 A  
HETATM   12  C   UNL     1     -10.198  15.336  66.896  1.00  0.00    -0.268 A  
HETATM   13  C   UNL     1     -10.528  14.717  68.109  1.00  0.00    -0.239 A  
HETATM   14  C   UNL     1      -9.742  14.969  69.372  1.00  0.00    -0.153 C  
HETATM   15  O   UNL     1     -10.429  15.814  70.295  1.00  0.00    -0.308 OA 
HETATM   16  C   UNL     1     -11.543  15.338  70.942  1.00  0.00    -0.343 A  
ENDROOT
BRANCH   1  17
HETATM   17  C   UNL     1     -12.104  11.181  70.937  1.00  0.00    -0.427 C  
BRANCH  17  18
HETATM   18  C   UNL     1     -11.455   9.782  70.967  1.00  0.00    -0.383 C  
BRANCH  18  19
HETATM   19  N   UNL     1     -12.229   8.719  71.636  1.00  0.00    -0.319 NA 
HETATM   20  C   UNL     1     -11.455   8.043  72.678  1.00  0.00    -0.402 C  
HETATM   21  C   UNL     1     -13.447   9.291  72.217  1.00  0.00    -0.482 C  
ENDBRANCH  18  19
ENDBRANCH  17  18
ENDBRANCH   1  17
TORSDOF 3
ENDMDL
MODEL        2
REMARK 921   NORMALIZED FREE ENERGY PREDICTED BY IDOCK:   -6.80 KCAL/MOL
REMARK 922        TOTAL FREE ENERGY PREDICTED BY IDOCK:   -8.23 KCAL/MOL
REMARK 923 INTER-LIGAND FREE ENERGY PREDICTED BY IDOCK:   -8.02 KCAL/MOL
REMARK 924 INTRA-LIGAND FREE ENERGY PREDICTED BY IDOCK:   -0.21 KCAL/MOL
REMARK 927      BINDING AFFINITY PREDICTED BY RF-SCORE:    0.00 PKD
ROOT
HETATM    1  C   UNL     1     -11.434  11.347  68.437  1.00  0.00    -0.367 C  
HETATM    2  C   UNL     1     -12.084  12.494  70.544  1.00  0.00    -0.361 A  
HETATM    3  C   UNL     1     -11.442  11.385  69.790  1.00  0.00    -0.376 C  
HETATM    4  C   UNL     1     -10.915  10.203  70.508  1.00  0.00    -0.380 A  
HETATM    5  C   UNL     1     -11.666  13.813  70.275  1.00  0.00    -0.271 A  
HETATM    6  C   UNL     1      -9.561   9.849  70.472  1.00  0.00    -0.035 A  
HETATM    7  C   UNL     1     -12.230  14.905  70.934  1.00  0.00    -0.389 A  
HETATM    8  C   UNL     1      -9.097   8.781  71.240  1.00  0.00    -0.300 A  
HETATM    9  C   UNL     1     -13.199  14.695  71.907  1.00  0.00    -0.436 A  
HETATM   10  C   UNL     1     -13.579  13.392  72.231  1.00  0.00    -0.703 A  
HETATM   11  C   UNL     1      -9.981   8.063  72.046  1.00  0.00    -0.275 A  
HETATM   12  C   UNL     1     -11.333   8.409  72.082  1.00  0.00    -0.437 A  
HETATM   13  C   UNL     1     -11.808   9.478  71.312  1.00  0.00    -0.450 A  
HETATM   14  C   UNL     1     -13.259   9.891  71.331  1.00  0.00    -0.400 C  
HETATM   15  O   UNL     1     -13.486  11.092  72.068  1.00  0.00    -0.376 OA 
HETATM   16  C   UNL     1     -13.029  12.286  71.566  1.00  0.00    -0.289 A  
ENDROOT
BRANCH   1  17
HETATM   17  C   UNL     1     -12.028  12.370  67.494  1.00  0.00    -0.253 C  
BRANCH  17  18
HETATM   18  C   UNL     1     -11.672  12.175  66.006  1.00  0.00    -0.321 C  
BRANCH  18  19
HETATM   19  N   UNL     1     -12.608  12.764  65.030  1.00  0.00    -0.640 NA 
HETATM   20  C   UNL     1     -12.509  14.223  64.979  1.00  0.00    -0.400 C  
HETATM   21  C   UNL     1     -12.346  12.204  63.700  1.00  0.00    -0.568 C  
ENDBRANCH  18  19
ENDBRANCH  17  18
ENDBRANCH   1  17
TORSDOF 3
ENDMDL
MODEL        3
REMARK 921   NORMALIZED FREE ENERGY PREDICTED BY IDOCK:   -6.79 KCAL/MOL
REMARK 922        TOTAL FREE ENERGY PREDICTED BY IDOCK:   -8.22 KCAL/MOL
REMARK 923 INTER-LIGAND FREE ENERGY PREDICTED BY IDOCK:   -7.77 KCAL/MOL
REMARK 924 INTRA-LIGAND FREE ENERGY PREDICTED BY IDOCK:   -0.44 KCAL/MOL
REMARK 927      BINDING AFFINITY PREDICTED BY RF-SCORE:    0.00 PKD
ROOT
HETATM    1  C   UNL     1     -10.169  15.500  69.393  1.00  0.00    -0.262 C  
HETATM    2  C   UNL     1     -11.483  14.124  67.793  1.00  0.00    -0.352 A  
HETATM    3  C   UNL     1     -11.263  14.749  69.124  1.00  0.00    -0.287 C  
HETATM    4  C   UNL     1     -12.173  14.443  70.250  1.00  0.00    -0.397 A  
HETATM    5  C   UNL     1     -11.487  14.958  66.656  1.00  0.00    -0.297 A  
HETATM    6  C   UNL     1     -12.939  15.431  70.882  1.00  0.00    -0.539 A  
HETATM    7  C   UNL     1     -11.675  14.443  65.374  1.00  0.00    -0.362 A  
HETATM    8  C   UNL     1     -13.851  15.077  71.877  1.00  0.00    -0.575 A  
HETATM    9  C   UNL     1     -11.904  13.083  65.208  1.00  0.00    -0.413 A  
HETATM   10  C   UNL     1     -11.968  12.252  66.327  1.00  0.00    -0.307 A  
HETATM   11  C   UNL     1     -14.002  13.740  72.245  1.00  0.00    -0.672 A  
HETATM   12  C   UNL     1     -13.237  12.752  71.622  1.00  0.00    -0.410 A  
HETATM   13  C   UNL     1     -12.317  13.098  70.624  1.00  0.00    -0.405 A  
HETATM   14  C   UNL     1     -11.479  12.060  69.918  1.00  0.00    -0.162 C  
HETATM   15  O   UNL     1     -11.927  11.795  68.588  1.00  0.00    -0.354 OA 
HETATM   16  C   UNL     1     -11.766  12.756  67.620  1.00  0.00    -0.367 A  
ENDROOT
BRANCH   1  17
HETATM   17  C   UNL     1      -9.040  15.837  68.444  1.00  0.00    -0.188 C  
BRANCH  17  18
HETATM   18  C   UNL     1      -8.813  17.342  68.202  1.00  0.00    -0.253 C  
BRANCH  18  19
HETATM   19  N   UNL     1     -10.025  18.173  68.078  1.00  0.00    -0.326 NA 
HETATM   20  C   UNL     1      -9.936  19.404  68.864  1.00  0.00    -0.445 C  
HETATM   21  C   UNL     1     -10.252  18.502  66.667  1.00  0.00    -0.399 C  
ENDBRANCH  18  19
ENDBRANCH  17  18
ENDBRANCH   1  17
TORSDOF 3
ENDMDL
MODEL        4
REMARK 921   NORMALIZED FREE ENERGY PREDICTED BY IDOCK:   -6.61 KCAL/MOL
REMARK 922        TOTAL FREE ENERGY PREDICTED BY IDOCK:   -8.01 KCAL/MOL
REMARK 923 INTER-LIGAND FREE ENERGY PREDICTED BY IDOCK:   -7.77 KCAL/MOL
REMARK 924 INTRA-LIGAND FREE ENERGY PREDICTED BY IDOCK:   -0.23 KCAL/MOL
REMARK 927      BINDING AFFINITY PREDICTED BY RF-SCORE:    0.00 PKD
ROOT
HETATM    1  C   UNL     1     -10.592  16.839  69.402  1.00  0.00    -0.318 C  
HETATM    2  C   UNL     1     -10.259  16.086  67.056  1.00  0.00    -0.282 A  
HETATM    3  C   UNL     1      -9.948  16.961  68.218  1.00  0.00    -0.282 C  
HETATM    4  C   UNL     1      -9.016  18.100  68.063  1.00  0.00    -0.289 A  
HETATM    5  C   UNL     1     -10.168  14.690  67.229  1.00  0.00    -0.241 A  
HETATM    6  C   UNL     1      -7.820  18.190  68.785  1.00  0.00    -0.268 A  
HETATM    7  C   UNL     1     -10.456  13.806  66.189  1.00  0.00    -0.297 A  
HETATM    8  C   UNL     1      -6.930  19.236  68.536  1.00  0.00    -0.329 A  
HETATM    9  C   UNL     1     -10.804  14.305  64.941  1.00  0.00    -0.429 A  
HETATM   10  C   UNL     1     -10.837  15.684  64.733  1.00  0.00    -0.377 A  
HETATM   11  C   UNL     1      -7.231  20.194  67.568  1.00  0.00    -0.320 A  
HETATM   12  C   UNL     1      -8.425  20.112  66.849  1.00  0.00    -0.376 A  
HETATM   13  C   UNL     1      -9.325  19.067  67.094  1.00  0.00    -0.345 A  
HETATM   14  C   UNL     1     -10.620  18.935  66.331  1.00  0.00    -0.387 C  
HETATM   15  O   UNL     1     -10.588  17.892  65.357  1.00  0.00    -0.656 OA 
HETATM   16  C   UNL     1     -10.563  16.584  65.774  1.00  0.00    -0.296 A  
ENDROOT
BRANCH   1  17
HETATM   17  C   UNL     1     -11.674  15.841  69.751  1.00  0.00    -0.355 C  
BRANCH  17  18
HETATM   18  C   UNL     1     -11.748  15.447  71.240  1.00  0.00    -0.380 C  
BRANCH  18  19
HETATM   19  N   UNL     1     -12.908  15.959  71.993  1.00  0.00    -0.437 NA 
HETATM   20  C   UNL     1     -14.108  15.147  71.782  1.00  0.00    -0.548 C  
HETATM   21  C   UNL     1     -12.585  16.002  73.422  1.00  0.00    -0.561 C  
ENDBRANCH  18  19
ENDBRANCH  17  18
ENDBRANCH   1  17
TORSDOF 3
ENDMDL
MODEL        5
REMARK 921   NORMALIZED FREE ENERGY PREDICTED BY IDOCK:   -6.61 KCAL/MOL
REMARK 922        TOTAL FREE ENERGY PREDICTED BY IDOCK:   -8.00 KCAL/MOL
REMARK 923 INTER-LIGAND FREE ENERGY PREDICTED BY IDOCK:   -7.60 KCAL/MOL
REMARK 924 INTRA-LIGAND FREE ENERGY PREDICTED BY IDOCK:   -0.40 KCAL/MOL
REMARK 927      BINDING AFFINITY PREDICTED BY RF-SCORE:    0.00 PKD
ROOT
HETATM    1  C   UNL     1     -10.245  15.533  69.649  1.00  0.00    -0.289 C  
HETATM    2  C   UNL     1     -11.437  14.120  67.987  1.00  0.00    -0.342 A  
HETATM    3  C   UNL     1     -11.309  14.763  69.322  1.00  0.00    -0.317 C  
HETATM    4  C   UNL     1     -12.282  14.455  70.393  1.00  0.00    -0.404 A  
HETATM    5  C   UNL     1     -11.382  14.942  66.843  1.00  0.00    -0.338 A  
HETATM    6  C   UNL     1     -13.100  15.438  70.964  1.00  0.00    -0.565 A  
HETATM    7  C   UNL     1     -11.483  14.410  65.558  1.00  0.00    -0.340 A  
HETATM    8  C   UNL     1     -14.067  15.081  71.905  1.00  0.00    -0.627 A  
HETATM    9  C   UNL     1     -11.682  13.046  65.393  1.00  0.00    -0.401 A  
HETATM   10  C   UNL     1     -11.803  12.226  66.515  1.00  0.00    -0.378 A  
HETATM   11  C   UNL     1     -14.222  13.747  72.279  1.00  0.00    -0.563 A  
HETATM   12  C   UNL     1     -13.406  12.763  71.715  1.00  0.00    -0.436 A  
HETATM   13  C   UNL     1     -12.430  13.112  70.772  1.00  0.00    -0.389 A  
HETATM   14  C   UNL     1     -11.536  12.080  70.132  1.00  0.00    -0.143 C  
HETATM   15  O   UNL     1     -11.896  11.793  68.780  1.00  0.00    -0.306 OA 
HETATM   16  C   UNL     1     -11.689  12.746  67.813  1.00  0.00    -0.359 A  
ENDROOT
BRANCH   1  17
HETATM   17  C   UNL     1      -9.064  15.876  68.768  1.00  0.00    -0.219 C  
BRANCH  17  18
HETATM   18  C   UNL     1      -8.826  17.383  68.548  1.00  0.00    -0.277 C  
BRANCH  18  19
HETATM   19  N   UNL     1      -8.611  17.812  67.153  1.00  0.00    -0.228 NA 
HETATM   20  C   UNL     1      -8.240  16.697  66.281  1.00  0.00    -0.330 C  
HETATM   21  C   UNL     1      -9.827  18.454  66.645  1.00  0.00    -0.353 C  
ENDBRANCH  18  19
ENDBRANCH  17  18
ENDBRANCH   1  17
TORSDOF 3
ENDMDL
MODEL        6
REMARK 921   NORMALIZED FREE ENERGY PREDICTED BY IDOCK:   -6.58 KCAL/MOL
REMARK 922        TOTAL FREE ENERGY PREDICTED BY IDOCK:   -7.97 KCAL/MOL
REMARK 923 INTER-LIGAND FREE ENERGY PREDICTED BY IDOCK:   -7.53 KCAL/MOL
REMARK 924 INTRA-LIGAND FREE ENERGY PREDICTED BY IDOCK:   -0.44 KCAL/MOL
REMARK 927      BINDING AFFINITY PREDICTED BY RF-SCORE:    0.00 PKD
ROOT
HETATM    1  C   UNL     1      -9.653  15.385  68.108  1.00  0.00    -0.203 C  
HETATM    2  C   UNL     1     -11.411  14.229  66.785  1.00  0.00    -0.380 A  
HETATM    3  C   UNL     1     -10.865  14.786  68.052  1.00  0.00    -0.261 C  
HETATM    4  C   UNL     1     -11.578  14.568  69.330  1.00  0.00    -0.339 A  
HETATM    5  C   UNL     1     -11.522  15.086  65.672  1.00  0.00    -0.248 A  
HETATM    6  C   UNL     1     -12.077  15.627  70.097  1.00  0.00    -0.400 A  
HETATM    7  C   UNL     1     -12.014  14.632  64.449  1.00  0.00    -0.454 A  
HETATM    8  C   UNL     1     -12.822  15.366  71.248  1.00  0.00    -0.519 A  
HETATM    9  C   UNL     1     -12.444  13.318  64.327  1.00  0.00    -0.337 A  
HETATM   10  C   UNL     1     -12.402  12.472  65.435  1.00  0.00    -0.426 A  
HETATM   11  C   UNL     1     -13.072  14.050  71.635  1.00  0.00    -0.435 A  
HETATM   12  C   UNL     1     -12.573  12.990  70.876  1.00  0.00    -0.364 A  
HETATM   13  C   UNL     1     -11.821  13.242  69.721  1.00  0.00    -0.394 A  
HETATM   14  C   UNL     1     -11.273  12.126  68.867  1.00  0.00    -0.269 C  
HETATM   15  O   UNL     1     -11.994  11.954  67.647  1.00  0.00    -0.575 OA 
HETATM   16  C   UNL     1     -11.896  12.912  66.668  1.00  0.00    -0.395 A  
ENDROOT
BRANCH   1  17
HETATM   17  C   UNL     1      -8.690  15.601  66.961  1.00  0.00    -0.256 C  
BRANCH  17  18
HETATM   18  C   UNL     1      -8.601  17.051  66.443  1.00  0.00    -0.276 C  
BRANCH  18  19
HETATM   19  N   UNL     1      -9.469  18.037  67.112  1.00  0.00    -0.258 NA 
HETATM   20  C   UNL     1      -8.700  19.080  67.793  1.00  0.00    -0.298 C  
HETATM   21  C   UNL     1     -10.368  18.647  66.128  1.00  0.00    -0.443 C  
ENDBRANCH  18  19
ENDBRANCH  17  18
ENDBRANCH   1  17
TORSDOF 3
ENDMDL
MODEL        7
REMARK 921   NORMALIZED FREE ENERGY PREDICTED BY IDOCK:   -6.48 KCAL/MOL
REMARK 922        TOTAL FREE ENERGY PREDICTED BY IDOCK:   -7.86 KCAL/MOL
REMARK 923 INTER-LIGAND FREE ENERGY PREDICTED BY IDOCK:   -7.55 KCAL/MOL
REMARK 924 INTRA-LIGAND FREE ENERGY PREDICTED BY IDOCK:   -0.31 KCAL/MOL
REMARK 927      BINDING AFFINITY PREDICTED BY RF-SCORE:    0.00 PKD
ROOT
HETATM    1  C   UNL     1     -12.022  14.070  68.962  1.00  0.00    -0.392 C  
HETATM    2  C   UNL     1     -10.388  15.641  67.940  1.00  0.00    -0.259 A  
HETATM    3  C   UNL     1     -11.333  14.493  67.876  1.00  0.00    -0.329 C  
HETATM    4  C   UNL     1     -11.436  13.681  66.644  1.00  0.00    -0.365 A  
HETATM    5  C   UNL     1     -10.873  16.879  68.406  1.00  0.00    -0.347 A  
HETATM    6  C   UNL     1     -12.627  13.578  65.915  1.00  0.00    -0.454 A  
HETATM    7  C   UNL     1     -10.044  17.996  68.505  1.00  0.00    -0.399 A  
HETATM    8  C   UNL     1     -12.649  12.875  64.709  1.00  0.00    -0.493 A  
HETATM    9  C   UNL     1      -8.719  17.906  68.099  1.00  0.00    -0.268 A  
HETATM   10  C   UNL     1      -8.239  16.706  67.574  1.00  0.00    -0.180 A  
HETATM   11  C   UNL     1     -11.486  12.274  64.229  1.00  0.00    -0.429 A  
HETATM   12  C   UNL     1     -10.297  12.369  64.954  1.00  0.00    -0.319 A  
HETATM   13  C   UNL     1     -10.265  13.071  66.167  1.00  0.00    -0.288 A  
HETATM   14  C   UNL     1      -9.000  13.208  66.976  1.00  0.00    -0.228 C  
HETATM   15  O   UNL     1      -8.421  14.510  66.887  1.00  0.00    -0.211 OA 
HETATM   16  C   UNL     1      -9.058  15.571  67.483  1.00  0.00    -0.193 A  
ENDROOT
BRANCH   1  17
HETATM   17  C   UNL     1     -11.976  14.658  70.355  1.00  0.00    -0.375 C  
BRANCH  17  18
HETATM   18  C   UNL     1     -13.285  15.319  70.832  1.00  0.00    -0.450 C  
BRANCH  18  19
HETATM   19  N   UNL     1     -13.814  14.856  72.129  1.00  0.00    -0.424 NA 
HETATM   20  C   UNL     1     -13.640  13.415  72.316  1.00  0.00    -0.605 C  
HETATM   21  C   UNL     1     -13.148  15.580  73.216  1.00  0.00    -0.543 C  
ENDBRANCH  18  19
ENDBRANCH  17  18
ENDBRANCH   1  17
TORSDOF 3
ENDMDL
MODEL        8
REMARK 921   NORMALIZED FREE ENERGY PREDICTED BY IDOCK:   -6.45 KCAL/MOL
REMARK 922        TOTAL FREE ENERGY PREDICTED BY IDOCK:   -7.81 KCAL/MOL
REMARK 923 INTER-LIGAND FREE ENERGY PREDICTED BY IDOCK:   -7.45 KCAL/MOL
REMARK 924 INTRA-LIGAND FREE ENERGY PREDICTED BY IDOCK:   -0.36 KCAL/MOL
REMARK 927      BINDING AFFINITY PREDICTED BY RF-SCORE:    0.00 PKD
ROOT
HETATM    1  C   UNL     1     -10.349  14.994  69.215  1.00  0.00    -0.249 C  
HETATM    2  C   UNL     1     -11.663  13.788  67.484  1.00  0.00    -0.410 A  
HETATM    3  C   UNL     1     -11.346  14.137  68.894  1.00  0.00    -0.308 C  
HETATM    4  C   UNL     1     -12.023  13.434  70.006  1.00  0.00    -0.407 A  
HETATM    5  C   UNL     1     -11.959  14.835  66.588  1.00  0.00    -0.199 A  
HETATM    6  C   UNL     1     -12.827  14.105  70.935  1.00  0.00    -0.404 A  
HETATM    7  C   UNL     1     -12.255  14.587  65.248  1.00  0.00    -0.321 A  
HETATM    8  C   UNL     1     -13.519  13.385  71.909  1.00  0.00    -0.526 A  
HETATM    9  C   UNL     1     -12.300  13.278  64.786  1.00  0.00    -0.454 A  
HETATM   10  C   UNL     1     -12.073  12.226  65.673  1.00  0.00    -0.306 A  
HETATM   11  C   UNL     1     -13.413  11.996  71.960  1.00  0.00    -0.364 A  
HETATM   12  C   UNL     1     -12.609  11.321  71.039  1.00  0.00    -0.495 A  
HETATM   13  C   UNL     1     -11.908  12.036  70.059  1.00  0.00    -0.392 A  
HETATM   14  C   UNL     1     -11.038  11.345  69.038  1.00  0.00    -0.243 C  
HETATM   15  O   UNL     1     -11.632  11.300  67.741  1.00  0.00    -0.463 OA 
HETATM   16  C   UNL     1     -11.761  12.462  67.020  1.00  0.00    -0.353 A  
ENDROOT
BRANCH   1  17
HETATM   17  C   UNL     1      -9.435  15.727  68.257  1.00  0.00    -0.200 C  
BRANCH  17  18
HETATM   18  C   UNL     1      -9.425  17.262  68.404  1.00  0.00    -0.283 C  
BRANCH  18  19
HETATM   19  N   UNL     1     -10.373  18.005  67.553  1.00  0.00    -0.369 NA 
HETATM   20  C   UNL     1     -10.497  19.407  67.955  1.00  0.00    -0.421 C  
HETATM   21  C   UNL     1      -9.941  17.927  66.154  1.00  0.00    -0.283 C  
ENDBRANCH  18  19
ENDBRANCH  17  18
ENDBRANCH   1  17
TORSDOF 3
ENDMDL
MODEL        9
REMARK 921   NORMALIZED FREE ENERGY PREDICTED BY IDOCK:   -6.29 KCAL/MOL
REMARK 922        TOTAL FREE ENERGY PREDICTED BY IDOCK:   -7.63 KCAL/MOL
REMARK 923 INTER-LIGAND FREE ENERGY PREDICTED BY IDOCK:   -7.36 KCAL/MOL
REMARK 924 INTRA-LIGAND FREE ENERGY PREDICTED BY IDOCK:   -0.27 KCAL/MOL
REMARK 927      BINDING AFFINITY PREDICTED BY RF-SCORE:    0.00 PKD
ROOT
HETATM    1  C   UNL     1     -10.633  14.717  68.665  1.00  0.00    -0.252 C  
HETATM    2  C   UNL     1     -10.959  14.373  66.224  1.00  0.00    -0.318 A  
HETATM    3  C   UNL     1     -10.182  14.856  67.396  1.00  0.00    -0.234 C  
HETATM    4  C   UNL     1      -8.945  15.644  67.196  1.00  0.00    -0.232 A  
HETATM    5  C   UNL     1     -11.339  13.016  66.189  1.00  0.00    -0.349 A  
HETATM    6  C   UNL     1      -7.696  15.203  67.649  1.00  0.00    -0.186 A  
HETATM    7  C   UNL     1     -12.079  12.493  65.129  1.00  0.00    -0.503 A  
HETATM    8  C   UNL     1      -6.547  15.937  67.355  1.00  0.00    -0.222 A  
HETATM    9  C   UNL     1     -12.420  13.312  64.061  1.00  0.00    -0.329 A  
HETATM   10  C   UNL     1     -11.998  14.641  64.048  1.00  0.00    -0.194 A  
HETATM   11  C   UNL     1      -6.639  17.111  66.608  1.00  0.00    -0.272 A  
HETATM   12  C   UNL     1      -7.882  17.559  66.157  1.00  0.00    -0.281 A  
HETATM   13  C   UNL     1      -9.042  16.830  66.451  1.00  0.00    -0.321 A  
HETATM   14  C   UNL     1     -10.403  17.272  65.973  1.00  0.00    -0.305 C  
HETATM   15  O   UNL     1     -10.894  16.486  64.887  1.00  0.00    -0.684 OA 
HETATM   16  C   UNL     1     -11.265  15.183  65.114  1.00  0.00    -0.389 A  
ENDROOT
BRANCH   1  17
HETATM   17  C   UNL     1     -11.928  14.069  69.104  1.00  0.00    -0.400 C  
BRANCH  17  18
HETATM   18  C   UNL     1     -12.221  14.147  70.616  1.00  0.00    -0.362 C  
BRANCH  18  19
HETATM   19  N   UNL     1     -12.916  15.360  71.084  1.00  0.00    -0.450 NA 
HETATM   20  C   UNL     1     -14.221  15.058  71.674  1.00  0.00    -0.555 C  
HETATM   21  C   UNL     1     -12.079  16.058  72.064  1.00  0.00    -0.525 C  
ENDBRANCH  18  19
ENDBRANCH  17  18
ENDBRANCH   1  17
TORSDOF 3
ENDMDL
MODEL       10
REMARK 921   NORMALIZED FREE ENERGY PREDICTED BY IDOCK:   -6.26 KCAL/MOL
REMARK 922        TOTAL FREE ENERGY PREDICTED BY IDOCK:   -7.59 KCAL/MOL
REMARK 923 INTER-LIGAND FREE ENERGY PREDICTED BY IDOCK:   -7.34 KCAL/MOL
REMARK 924 INTRA-LIGAND FREE ENERGY PREDICTED BY IDOCK:   -0.25 KCAL/MOL
REMARK 927      BINDING AFFINITY PREDICTED BY RF-SCORE:    0.00 PKD
ROOT
HETATM    1  C   UNL     1     -11.863  11.890  69.549  1.00  0.00    -0.395 C  
HETATM    2  C   UNL     1     -12.291  14.135  70.525  1.00  0.00    -0.434 A  
HETATM    3  C   UNL     1     -11.965  13.230  69.391  1.00  0.00    -0.356 C  
HETATM    4  C   UNL     1     -11.594  13.792  68.073  1.00  0.00    -0.368 A  
HETATM    5  C   UNL     1     -13.474  13.895  71.252  1.00  0.00    -0.268 A  
HETATM    6  C   UNL     1     -12.345  13.544  66.918  1.00  0.00    -0.289 A  
HETATM    7  C   UNL     1     -13.840  14.694  72.335  1.00  0.00    -0.580 A  
HETATM    8  C   UNL     1     -12.008  14.171  65.718  1.00  0.00    -0.410 A  
HETATM    9  C   UNL     1     -13.046  15.777  72.688  1.00  0.00    -0.579 A  
HETATM   10  C   UNL     1     -11.905  16.069  71.940  1.00  0.00    -0.619 A  
HETATM   11  C   UNL     1     -10.923  15.045  65.666  1.00  0.00    -0.357 A  
HETATM   12  C   UNL     1     -10.168  15.292  66.814  1.00  0.00    -0.273 A  
HETATM   13  C   UNL     1     -10.497  14.665  68.023  1.00  0.00    -0.236 A  
HETATM   14  C   UNL     1      -9.714  14.913  69.288  1.00  0.00    -0.143 C  
HETATM   15  O   UNL     1     -10.406  15.749  70.215  1.00  0.00    -0.286 OA 
HETATM   16  C   UNL     1     -11.519  15.265  70.858  1.00  0.00    -0.339 A  
ENDROOT
BRANCH   1  17
HETATM   17  C   UNL     1     -12.063  11.106  70.827  1.00  0.00    -0.458 C  
BRANCH  17  18
HETATM   18  C   UNL     1     -11.106   9.912  71.022  1.00  0.00    -0.331 C  
BRANCH  18  19
HETATM   19  N   UNL     1     -10.712   9.186  69.800  1.00  0.00    -0.228 NA 
HETATM   20  C   UNL     1      -9.300   9.381  69.471  1.00  0.00    -0.180 C  
HETATM   21  C   UNL     1     -10.988   7.756  69.969  1.00  0.00    -0.214 C  
ENDBRANCH  18  19
ENDBRANCH  17  18
ENDBRANCH   1  17
TORSDOF 3
ENDMDL
MODEL       11
REMARK 921   NORMALIZED FREE ENERGY PREDICTED BY IDOCK:   -6.26 KCAL/MOL
REMARK 922        TOTAL FREE ENERGY PREDICTED BY IDOCK:   -7.59 KCAL/MOL
REMARK 923 INTER-LIGAND FREE ENERGY PREDICTED BY IDOCK:   -7.23 KCAL/MOL
REMARK 924 INTRA-LIGAND FREE ENERGY PREDICTED BY IDOCK:   -0.36 KCAL/MOL
REMARK 927      BINDING AFFINITY PREDICTED BY RF-SCORE:    0.00 PKD
ROOT
HETATM    1  C   UNL     1     -11.386  14.101  68.243  1.00  0.00    -0.319 C  
HETATM    2  C   UNL     1     -11.308  12.434  66.401  1.00  0.00    -0.392 A  
HETATM    3  C   UNL     1     -11.319  12.811  67.839  1.00  0.00    -0.339 C  
HETATM    4  C   UNL     1     -11.107  11.781  68.881  1.00  0.00    -0.297 A  
HETATM    5  C   UNL     1     -12.369  12.878  65.586  1.00  0.00    -0.482 A  
HETATM    6  C   UNL     1     -12.077  11.486  69.847  1.00  0.00    -0.389 A  
HETATM    7  C   UNL     1     -12.421  12.574  64.226  1.00  0.00    -0.520 A  
HETATM    8  C   UNL     1     -11.867  10.443  70.750  1.00  0.00    -0.466 A  
HETATM    9  C   UNL     1     -11.430  11.783  63.662  1.00  0.00    -0.524 A  
HETATM   10  C   UNL     1     -10.407  11.280  64.466  1.00  0.00    -0.381 A  
HETATM   11  C   UNL     1     -10.693   9.693  70.693  1.00  0.00    -0.388 A  
HETATM   12  C   UNL     1      -9.721   9.986  69.734  1.00  0.00    -0.259 A  
HETATM   13  C   UNL     1      -9.921  11.033  68.825  1.00  0.00    -0.215 A  
HETATM   14  C   UNL     1      -8.902  11.376  67.767  1.00  0.00    -0.143 C  
HETATM   15  O   UNL     1      -9.293  10.953  66.461  1.00  0.00    -0.167 OA 
HETATM   16  C   UNL     1     -10.335  11.590  65.832  1.00  0.00    -0.247 A  
ENDROOT
BRANCH   1  17
HETATM   17  C   UNL     1     -11.471  15.327  67.361  1.00  0.00    -0.246 C  
BRANCH  17  18
HETATM   18  C   UNL     1     -10.115  15.914  66.920  1.00  0.00    -0.266 C  
BRANCH  18  19
HETATM   19  N   UNL     1     -10.123  16.712  65.679  1.00  0.00    -0.561 NA 
HETATM   20  C   UNL     1     -11.100  16.217  64.708  1.00  0.00    -0.281 C  
HETATM   21  C   UNL     1     -10.410  18.114  65.999  1.00  0.00    -0.353 C  
ENDBRANCH  18  19
ENDBRANCH  17  18
ENDBRANCH   1  17
TORSDOF 3
ENDMDL
MODEL       12
REMARK 921   NORMALIZED FREE ENERGY PREDICTED BY IDOCK:   -6.18 KCAL/MOL
REMARK 922        TOTAL FREE ENERGY PREDICTED BY IDOCK:   -7.50 KCAL/MOL
REMARK 923 INTER-LIGAND FREE ENERGY PREDICTED BY IDOCK:   -7.09 KCAL/MOL
REMARK 924 INTRA-LIGAND FREE ENERGY PREDICTED BY IDOCK:   -0.41 KCAL/MOL
REMARK 927      BINDING AFFINITY PREDICTED BY RF-SCORE:    0.00 PKD
ROOT
HETATM    1  C   UNL     1     -11.987  12.364  67.782  1.00  0.00    -0.252 C  
HETATM    2  C   UNL     1      -9.991  13.657  68.506  1.00  0.00    -0.208 A  
HETATM    3  C   UNL     1     -11.355  13.103  68.723  1.00  0.00    -0.333 C  
HETATM    4  C   UNL     1     -12.125  13.472  69.931  1.00  0.00    -0.408 A  
HETATM    5  C   UNL     1      -8.953  12.763  68.174  1.00  0.00    -0.199 A  
HETATM    6  C   UNL     1     -12.535  12.523  70.874  1.00  0.00    -0.361 A  
HETATM    7  C   UNL     1      -7.652  13.210  67.944  1.00  0.00    -0.147 A  
HETATM    8  C   UNL     1     -13.178  12.932  72.043  1.00  0.00    -0.549 A  
HETATM    9  C   UNL     1      -7.355  14.559  68.083  1.00  0.00    -0.129 A  
HETATM   10  C   UNL     1      -8.356  15.449  68.474  1.00  0.00    -0.151 A  
HETATM   11  C   UNL     1     -13.414  14.287  72.274  1.00  0.00    -0.552 A  
HETATM   12  C   UNL     1     -13.011  15.238  71.334  1.00  0.00    -0.503 A  
HETATM   13  C   UNL     1     -12.367  14.836  70.157  1.00  0.00    -0.381 A  
HETATM   14  C   UNL     1     -11.906  15.831  69.121  1.00  0.00    -0.354 C  
HETATM   15  O   UNL     1     -10.492  16.027  69.129  1.00  0.00    -0.218 OA 
HETATM   16  C   UNL     1      -9.671  15.015  68.694  1.00  0.00    -0.219 A  
ENDROOT
BRANCH   1  17
HETATM   17  C   UNL     1     -11.454  11.973  66.421  1.00  0.00    -0.417 C  
BRANCH  17  18
HETATM   18  C   UNL     1     -12.170  12.629  65.222  1.00  0.00    -0.475 C  
BRANCH  18  19
HETATM   19  N   UNL     1     -11.306  13.309  64.240  1.00  0.00    -0.379 NA 
HETATM   20  C   UNL     1     -10.436  14.306  64.864  1.00  0.00    -0.430 C  
HETATM   21  C   UNL     1     -10.493  12.316  63.531  1.00  0.00    -0.424 C  
ENDBRANCH  18  19
ENDBRANCH  17  18
ENDBRANCH   1  17
TORSDOF 3
ENDMDL
MODEL       13
REMARK 921   NORMALIZED FREE ENERGY PREDICTED BY IDOCK:   -6.15 KCAL/MOL
REMARK 922        TOTAL FREE ENERGY PREDICTED BY IDOCK:   -7.46 KCAL/MOL
REMARK 923 INTER-LIGAND FREE ENERGY PREDICTED BY IDOCK:   -7.17 KCAL/MOL
REMARK 924 INTRA-LIGAND FREE ENERGY PREDICTED BY IDOCK:   -0.29 KCAL/MOL
REMARK 927      BINDING AFFINITY PREDICTED BY RF-SCORE:    0.00 PKD
ROOT
HETATM    1  C   UNL     1     -10.608  16.074  65.412  1.00  0.00    -0.428 C  
HETATM    2  C   UNL     1      -8.826  15.491  67.044  1.00  0.00    -0.255 A  
HETATM    3  C   UNL     1      -9.759  16.451  66.397  1.00  0.00    -0.308 C  
HETATM    4  C   UNL     1      -9.681  17.894  66.713  1.00  0.00    -0.314 A  
HETATM    5  C   UNL     1      -9.366  14.330  67.634  1.00  0.00    -0.201 A  
HETATM    6  C   UNL     1     -10.748  18.591  67.293  1.00  0.00    -0.417 A  
HETATM    7  C   UNL     1      -8.553  13.379  68.249  1.00  0.00    -0.169 A  
HETATM    8  C   UNL     1     -10.593  19.929  67.658  1.00  0.00    -0.483 A  
HETATM    9  C   UNL     1      -7.182  13.591  68.321  1.00  0.00    -0.111 A  
HETATM   10  C   UNL     1      -6.638  14.765  67.801  1.00  0.00    -0.188 A  
HETATM   11  C   UNL     1      -9.376  20.575  67.446  1.00  0.00    -0.511 A  
HETATM   12  C   UNL     1      -8.309  19.887  66.864  1.00  0.00    -0.366 A  
HETATM   13  C   UNL     1      -8.456  18.544  66.492  1.00  0.00    -0.291 A  
HETATM   14  C   UNL     1      -7.327  17.761  65.871  1.00  0.00    -0.199 C  
HETATM   15  O   UNL     1      -6.731  16.831  66.776  1.00  0.00    -0.198 OA 
HETATM   16  C   UNL     1      -7.443  15.723  67.167  1.00  0.00    -0.224 A  
ENDROOT
BRANCH   1  17
HETATM   17  C   UNL     1     -10.769  14.687  64.831  1.00  0.00    -0.447 C  
BRANCH  17  18
HETATM   18  C   UNL     1     -12.174  14.364  64.283  1.00  0.00    -0.423 C  
BRANCH  18  19
HETATM   19  N   UNL     1     -12.705  13.025  64.598  1.00  0.00    -0.709 NA 
HETATM   20  C   UNL     1     -12.599  12.105  63.464  1.00  0.00    -0.506 C  
HETATM   21  C   UNL     1     -11.989  12.473  65.752  1.00  0.00    -0.420 C  
ENDBRANCH  18  19
ENDBRANCH  17  18
ENDBRANCH   1  17
TORSDOF 3
ENDMDL
MODEL       14
REMARK 921   NORMALIZED FREE ENERGY PREDICTED BY IDOCK:   -6.13 KCAL/MOL
REMARK 922        TOTAL FREE ENERGY PREDICTED BY IDOCK:   -7.44 KCAL/MOL
REMARK 923 INTER-LIGAND FREE ENERGY PREDICTED BY IDOCK:   -7.13 KCAL/MOL
REMARK 924 INTRA-LIGAND FREE ENERGY PREDICTED BY IDOCK:   -0.31 KCAL/MOL
REMARK 927      BINDING AFFINITY PREDICTED BY RF-SCORE:    0.00 PKD
ROOT
HETATM    1  C   UNL     1     -10.208  10.929  68.549  1.00  0.00    -0.197 C  
HETATM    2  C   UNL     1     -11.869  12.275  69.817  1.00  0.00    -0.388 A  
HETATM    3  C   UNL     1     -11.181  11.870  68.562  1.00  0.00    -0.308 C  
HETATM    4  C   UNL     1     -11.442  12.599  67.301  1.00  0.00    -0.402 A  
HETATM    5  C   UNL     1     -12.500  11.275  70.585  1.00  0.00    -0.439 A  
HETATM    6  C   UNL     1     -11.990  11.971  66.176  1.00  0.00    -0.105 A  
HETATM    7  C   UNL     1     -13.155  11.577  71.778  1.00  0.00    -0.503 A  
HETATM    8  C   UNL     1     -12.304  12.721  65.041  1.00  0.00    -0.559 A  
HETATM    9  C   UNL     1     -13.226  12.896  72.208  1.00  0.00    -0.519 A  
HETATM   10  C   UNL     1     -12.663  13.907  71.428  1.00  0.00    -0.445 A  
HETATM   11  C   UNL     1     -12.073  14.096  65.026  1.00  0.00    -0.428 A  
HETATM   12  C   UNL     1     -11.523  14.726  66.144  1.00  0.00    -0.311 A  
HETATM   13  C   UNL     1     -11.202  13.981  67.286  1.00  0.00    -0.328 A  
HETATM   14  C   UNL     1     -10.617  14.624  68.518  1.00  0.00    -0.245 C  
HETATM   15  O   UNL     1     -11.559  14.746  69.584  1.00  0.00    -0.270 OA 
HETATM   16  C   UNL     1     -11.990  13.615  70.233  1.00  0.00    -0.327 A  
ENDROOT
BRANCH   1  17
HETATM   17  C   UNL     1      -9.679  10.149  69.732  1.00  0.00    -0.232 C  
BRANCH  17  18
HETATM   18  C   UNL     1     -10.007   8.642  69.724  1.00  0.00    -0.190 C  
BRANCH  18  19
HETATM   19  N   UNL     1     -11.052   8.197  70.665  1.00  0.00    -0.253 NA 
HETATM   20  C   UNL     1     -11.441   6.804  70.441  1.00  0.00    -0.365 C  
HETATM   21  C   UNL     1     -10.575   8.362  72.041  1.00  0.00    -0.317 C  
ENDBRANCH  18  19
ENDBRANCH  17  18
ENDBRANCH   1  17
TORSDOF 3
ENDMDL
MODEL       15
REMARK 921   NORMALIZED FREE ENERGY PREDICTED BY IDOCK:   -6.06 KCAL/MOL
REMARK 922        TOTAL FREE ENERGY PREDICTED BY IDOCK:   -7.36 KCAL/MOL
REMARK 923 INTER-LIGAND FREE ENERGY PREDICTED BY IDOCK:   -6.79 KCAL/MOL
REMARK 924 INTRA-LIGAND FREE ENERGY PREDICTED BY IDOCK:   -0.57 KCAL/MOL
REMARK 927      BINDING AFFINITY PREDICTED BY RF-SCORE:    0.00 PKD
ROOT
HETATM    1  C   UNL     1      -8.205  16.029  68.832  1.00  0.00    -0.223 C  
HETATM    2  C   UNL     1      -9.782  17.522  67.622  1.00  0.00    -0.275 A  
HETATM    3  C   UNL     1      -9.385  16.207  68.193  1.00  0.00    -0.201 C  
HETATM    4  C   UNL     1     -10.214  15.007  67.946  1.00  0.00    -0.228 A  
HETATM    5  C   UNL     1      -9.809  18.641  68.479  1.00  0.00    -0.427 A  
HETATM    6  C   UNL     1     -10.824  14.294  68.986  1.00  0.00    -0.274 A  
HETATM    7  C   UNL     1     -10.160  19.907  68.013  1.00  0.00    -0.572 A  
HETATM    8  C   UNL     1     -11.672  13.224  68.696  1.00  0.00    -0.376 A  
HETATM    9  C   UNL     1     -10.530  20.072  66.685  1.00  0.00    -0.519 A  
HETATM   10  C   UNL     1     -10.571  18.965  65.838  1.00  0.00    -0.438 A  
HETATM   11  C   UNL     1     -11.915  12.863  67.371  1.00  0.00    -0.360 A  
HETATM   12  C   UNL     1     -11.306  13.568  66.330  1.00  0.00    -0.335 A  
HETATM   13  C   UNL     1     -10.451  14.642  66.612  1.00  0.00    -0.278 A  
HETATM   14  C   UNL     1      -9.782  15.436  65.518  1.00  0.00    -0.283 C  
HETATM   15  O   UNL     1     -10.371  16.723  65.326  1.00  0.00    -0.622 OA 
HETATM   16  C   UNL     1     -10.207  17.688  66.290  1.00  0.00    -0.362 A  
ENDROOT
BRANCH   1  17
HETATM   17  C   UNL     1      -7.140  17.073  69.084  1.00  0.00    -0.221 C  
BRANCH  17  18
HETATM   18  C   UNL     1      -6.174  17.322  67.908  1.00  0.00    -0.148 C  
BRANCH  18  19
HETATM   19  N   UNL     1      -5.937  18.732  67.547  1.00  0.00    -0.178 NA 
HETATM   20  C   UNL     1      -6.681  19.130  66.351  1.00  0.00    -0.201 C  
HETATM   21  C   UNL     1      -6.310  19.596  68.671  1.00  0.00    -0.269 C  
ENDBRANCH  18  19
ENDBRANCH  17  18
ENDBRANCH   1  17
TORSDOF 3
ENDMDL
MODEL       16
REMARK 921   NORMALIZED FREE ENERGY PREDICTED BY IDOCK:   -6.06 KCAL/MOL
REMARK 922        TOTAL FREE ENERGY PREDICTED BY IDOCK:   -7.35 KCAL/MOL
REMARK 923 INTER-LIGAND FREE ENERGY PREDICTED BY IDOCK:   -7.06 KCAL/MOL
REMARK 924 INTRA-LIGAND FREE ENERGY PREDICTED BY IDOCK:   -0.29 KCAL/MOL
REMARK 927      BINDING AFFINITY PREDICTED BY RF-SCORE:    0.00 PKD
ROOT
HETATM    1  C   UNL     1     -11.657  12.629  67.428  1.00  0.00    -0.421 C  
HETATM    2  C   UNL     1      -9.917  13.914  68.653  1.00  0.00    -0.189 A  
HETATM    3  C   UNL     1     -11.164  13.105  68.595  1.00  0.00    -0.314 C  
HETATM    4  C   UNL     1     -11.988  12.919  69.810  1.00  0.00    -0.365 A  
HETATM    5  C   UNL     1      -8.739  13.366  68.108  1.00  0.00    -0.179 A  
HETATM    6  C   UNL     1     -12.227  11.656  70.364  1.00  0.00    -0.434 A  
HETATM    7  C   UNL     1      -7.535  14.070  68.115  1.00  0.00    -0.131 A  
HETATM    8  C   UNL     1     -12.933  11.541  71.562  1.00  0.00    -0.485 A  
HETATM    9  C   UNL     1      -7.478  15.325  68.706  1.00  0.00    -0.135 A  
HETATM   10  C   UNL     1      -8.618  15.857  69.308  1.00  0.00    -0.247 A  
HETATM   11  C   UNL     1     -13.402  12.683  72.211  1.00  0.00    -0.527 A  
HETATM   12  C   UNL     1     -13.169  13.945  71.660  1.00  0.00    -0.446 A  
HETATM   13  C   UNL     1     -12.464  14.070  70.456  1.00  0.00    -0.429 A  
HETATM   14  C   UNL     1     -12.182  15.415  69.834  1.00  0.00    -0.334 C  
HETATM   15  O   UNL     1     -10.824  15.826  69.988  1.00  0.00    -0.286 OA 
HETATM   16  C   UNL     1      -9.839  15.165  69.295  1.00  0.00    -0.230 A  
ENDROOT
BRANCH   1  17
HETATM   17  C   UNL     1     -11.063  12.807  66.048  1.00  0.00    -0.315 C  
BRANCH  17  18
HETATM   18  C   UNL     1     -10.677  11.500  65.326  1.00  0.00    -0.279 C  
BRANCH  18  19
HETATM   19  N   UNL     1     -11.028  11.418  63.896  1.00  0.00    -0.386 NA 
HETATM   20  C   UNL     1     -11.927  12.497  63.483  1.00  0.00    -0.543 C  
HETATM   21  C   UNL     1      -9.806  11.456  63.088  1.00  0.00    -0.388 C  
ENDBRANCH  18  19
ENDBRANCH  17  18
ENDBRANCH   1  17
TORSDOF 3
ENDMDL
MODEL       17
REMARK 921   NORMALIZED FREE ENERGY PREDICTED BY IDOCK:   -6.05 KCAL/MOL
REMARK 922        TOTAL FREE ENERGY PREDICTED BY IDOCK:   -7.35 KCAL/MOL
REMARK 923 INTER-LIGAND FREE ENERGY PREDICTED BY IDOCK:   -7.03 KCAL/MOL
REMARK 924 INTRA-LIGAND FREE ENERGY PREDICTED BY IDOCK:   -0.32 KCAL/MOL
REMARK 927      BINDING AFFINITY PREDICTED BY RF-SCORE:    0.00 PKD
ROOT
HETATM    1  C   UNL     1     -10.330  15.922  65.333  1.00  0.00    -0.399 C  
HETATM    2  C   UNL     1     -10.664  15.801  67.794  1.00  0.00    -0.307 A  
HETATM    3  C   UNL     1     -10.343  16.534  66.540  1.00  0.00    -0.307 C  
HETATM    4  C   UNL     1      -9.880  17.939  66.597  1.00  0.00    -0.342 A  
HETATM    5  C   UNL     1     -11.892  15.112  67.868  1.00  0.00    -0.192 A  
HETATM    6  C   UNL     1     -10.592  18.985  65.998  1.00  0.00    -0.499 A  
HETATM    7  C   UNL     1     -12.257  14.392  69.005  1.00  0.00    -0.233 A  
HETATM    8  C   UNL     1     -10.164  20.303  66.159  1.00  0.00    -0.417 A  
HETATM    9  C   UNL     1     -11.415  14.382  70.109  1.00  0.00    -0.280 A  
HETATM   10  C   UNL     1     -10.226  15.110  70.078  1.00  0.00    -0.149 A  
HETATM   11  C   UNL     1      -9.026  20.582  66.916  1.00  0.00    -0.328 A  
HETATM   12  C   UNL     1      -8.309  19.542  67.512  1.00  0.00    -0.333 A  
HETATM   13  C   UNL     1      -8.730  18.215  67.354  1.00  0.00    -0.245 A  
HETATM   14  C   UNL     1      -7.992  17.064  67.989  1.00  0.00    -0.195 C  
HETATM   15  O   UNL     1      -8.672  16.524  69.122  1.00  0.00    -0.232 OA 
HETATM   16  C   UNL     1      -9.841  15.826  68.935  1.00  0.00    -0.224 A  
ENDROOT
BRANCH   1  17
HETATM   17  C   UNL     1     -10.635  14.469  65.046  1.00  0.00    -0.458 C  
BRANCH  17  18
HETATM   18  C   UNL     1     -11.977  14.208  64.333  1.00  0.00    -0.457 C  
BRANCH  18  19
HETATM   19  N   UNL     1     -12.602  12.895  64.579  1.00  0.00    -0.656 NA 
HETATM   20  C   UNL     1     -12.559  12.031  63.398  1.00  0.00    -0.469 C  
HETATM   21  C   UNL     1     -11.928  12.234  65.701  1.00  0.00    -0.306 C  
ENDBRANCH  18  19
ENDBRANCH  17  18
ENDBRANCH   1  17
TORSDOF 3
ENDMDL
MODEL       18
REMARK 921   NORMALIZED FREE ENERGY PREDICTED BY IDOCK:   -5.98 KCAL/MOL
REMARK 922        TOTAL FREE ENERGY PREDICTED BY IDOCK:   -7.27 KCAL/MOL
REMARK 923 INTER-LIGAND FREE ENERGY PREDICTED BY IDOCK:   -6.98 KCAL/MOL
REMARK 924 INTRA-LIGAND FREE ENERGY PREDICTED BY IDOCK:   -0.28 KCAL/MOL
REMARK 927      BINDING AFFINITY PREDICTED BY RF-SCORE:    0.00 PKD
ROOT
HETATM    1  C   UNL     1     -12.154  13.802  68.668  1.00  0.00    -0.333 C  
HETATM    2  C   UNL     1      -9.713  13.974  68.229  1.00  0.00    -0.225 A  
HETATM    3  C   UNL     1     -11.123  13.799  67.790  1.00  0.00    -0.288 C  
HETATM    4  C   UNL     1     -11.429  13.465  66.382  1.00  0.00    -0.359 A  
HETATM    5  C   UNL     1      -9.383  15.126  68.972  1.00  0.00    -0.219 A  
HETATM    6  C   UNL     1     -12.194  14.306  65.564  1.00  0.00    -0.408 A  
HETATM    7  C   UNL     1      -8.085  15.352  69.427  1.00  0.00    -0.249 A  
HETATM    8  C   UNL     1     -12.376  13.992  64.216  1.00  0.00    -0.393 A  
HETATM    9  C   UNL     1      -7.079  14.448  69.113  1.00  0.00    -0.127 A  
HETATM   10  C   UNL     1      -7.374  13.335  68.324  1.00  0.00    -0.113 A  
HETATM   11  C   UNL     1     -11.798  12.841  63.681  1.00  0.00    -0.603 A  
HETATM   12  C   UNL     1     -11.039  11.996  64.494  1.00  0.00    -0.384 A  
HETATM   13  C   UNL     1     -10.852  12.302  65.848  1.00  0.00    -0.306 A  
HETATM   14  C   UNL     1     -10.030  11.423  66.757  1.00  0.00    -0.208 C  
HETATM   15  O   UNL     1      -8.752  11.980  67.064  1.00  0.00    -0.175 OA 
HETATM   16  C   UNL     1      -8.678  13.088  67.872  1.00  0.00    -0.189 A  
ENDROOT
BRANCH   1  17
HETATM   17  C   UNL     1     -12.072  13.989  70.167  1.00  0.00    -0.419 C  
BRANCH  17  18
HETATM   18  C   UNL     1     -12.917  15.149  70.731  1.00  0.00    -0.414 C  
BRANCH  18  19
HETATM   19  N   UNL     1     -13.816  14.816  71.851  1.00  0.00    -0.400 NA 
HETATM   20  C   UNL     1     -13.713  13.411  72.246  1.00  0.00    -0.607 C  
HETATM   21  C   UNL     1     -13.510  15.676  72.998  1.00  0.00    -0.562 C  
ENDBRANCH  18  19
ENDBRANCH  17  18
ENDBRANCH   1  17
TORSDOF 3
ENDMDL
MODEL       19
REMARK 921   NORMALIZED FREE ENERGY PREDICTED BY IDOCK:   -5.96 KCAL/MOL
REMARK 922        TOTAL FREE ENERGY PREDICTED BY IDOCK:   -7.25 KCAL/MOL
REMARK 923 INTER-LIGAND FREE ENERGY PREDICTED BY IDOCK:   -6.99 KCAL/MOL
REMARK 924 INTRA-LIGAND FREE ENERGY PREDICTED BY IDOCK:   -0.26 KCAL/MOL
REMARK 927      BINDING AFFINITY PREDICTED BY RF-SCORE:    0.00 PKD
ROOT
HETATM    1  C   UNL     1      -9.375  15.091  68.236  1.00  0.00    -0.192 C  
HETATM    2  C   UNL     1     -11.219  14.161  66.853  1.00  0.00    -0.326 A  
HETATM    3  C   UNL     1     -10.647  14.637  68.140  1.00  0.00    -0.237 C  
HETATM    4  C   UNL     1     -11.414  14.490  69.396  1.00  0.00    -0.323 A  
HETATM    5  C   UNL     1     -11.200  15.036  65.748  1.00  0.00    -0.318 A  
HETATM    6  C   UNL     1     -11.808  15.592  70.165  1.00  0.00    -0.378 A  
HETATM    7  C   UNL     1     -11.707  14.656  64.507  1.00  0.00    -0.410 A  
HETATM    8  C   UNL     1     -12.610  15.407  71.292  1.00  0.00    -0.477 A  
HETATM    9  C   UNL     1     -12.282  13.401  64.356  1.00  0.00    -0.444 A  
HETATM   10  C   UNL     1     -12.369  12.545  65.454  1.00  0.00    -0.426 A  
HETATM   11  C   UNL     1     -13.020  14.124  71.655  1.00  0.00    -0.423 A  
HETATM   12  C   UNL     1     -12.627  13.021  70.895  1.00  0.00    -0.364 A  
HETATM   13  C   UNL     1     -11.819  13.197  69.763  1.00  0.00    -0.386 A  
HETATM   14  C   UNL     1     -11.381  12.034  68.909  1.00  0.00    -0.278 C  
HETATM   15  O   UNL     1     -12.084  11.960  67.668  1.00  0.00    -0.568 OA 
HETATM   16  C   UNL     1     -11.849  12.910  66.704  1.00  0.00    -0.395 A  
ENDROOT
BRANCH   1  17
HETATM   17  C   UNL     1      -8.363  15.206  67.118  1.00  0.00    -0.247 C  
BRANCH  17  18
HETATM   18  C   UNL     1      -7.398  16.404  67.226  1.00  0.00    -0.175 C  
BRANCH  18  19
HETATM   19  N   UNL     1      -5.969  16.113  67.006  1.00  0.00    -0.337 NA 
HETATM   20  C   UNL     1      -5.145  17.322  67.045  1.00  0.00    -0.150 C  
HETATM   21  C   UNL     1      -5.501  15.162  68.019  1.00  0.00    -0.134 C  
ENDBRANCH  18  19
ENDBRANCH  17  18
ENDBRANCH   1  17
TORSDOF 3
ENDMDL
MODEL       20
REMARK 921   NORMALIZED FREE ENERGY PREDICTED BY IDOCK:   -5.85 KCAL/MOL
REMARK 922        TOTAL FREE ENERGY PREDICTED BY IDOCK:   -7.12 KCAL/MOL
REMARK 923 INTER-LIGAND FREE ENERGY PREDICTED BY IDOCK:   -6.70 KCAL/MOL
REMARK 924 INTRA-LIGAND FREE ENERGY PREDICTED BY IDOCK:   -0.42 KCAL/MOL
REMARK 927      BINDING AFFINITY PREDICTED BY RF-SCORE:    0.00 PKD
ROOT
HETATM    1  C   UNL     1      -9.699  11.337  67.825  1.00  0.00    -0.184 C  
HETATM    2  C   UNL     1     -11.498  12.359  69.202  1.00  0.00    -0.358 A  
HETATM    3  C   UNL     1     -10.792  12.130  67.913  1.00  0.00    -0.254 C  
HETATM    4  C   UNL     1     -11.184  12.888  66.705  1.00  0.00    -0.342 A  
HETATM    5  C   UNL     1     -11.965  11.237  69.917  1.00  0.00    -0.440 A  
HETATM    6  C   UNL     1     -11.667  12.258  65.552  1.00  0.00    -0.433 A  
HETATM    7  C   UNL     1     -12.625  11.373  71.137  1.00  0.00    -0.490 A  
HETATM    8  C   UNL     1     -12.111  13.022  64.472  1.00  0.00    -0.468 A  
HETATM    9  C   UNL     1     -12.867  12.641  71.649  1.00  0.00    -0.367 A  
HETATM   10  C   UNL     1     -12.470  13.765  70.925  1.00  0.00    -0.451 A  
HETATM   11  C   UNL     1     -12.074  14.415  64.538  1.00  0.00    -0.498 A  
HETATM   12  C   UNL     1     -11.588  15.048  65.684  1.00  0.00    -0.188 A  
HETATM   13  C   UNL     1     -11.138  14.289  66.772  1.00  0.00    -0.316 A  
HETATM   14  C   UNL     1     -10.617  14.934  68.032  1.00  0.00    -0.248 C  
HETATM   15  O   UNL     1     -11.540  14.859  69.118  1.00  0.00    -0.275 OA 
HETATM   16  C   UNL     1     -11.793  13.642  69.703  1.00  0.00    -0.335 A  
ENDROOT
BRANCH   1  17
HETATM   17  C   UNL     1      -9.037  10.570  68.949  1.00  0.00    -0.180 C  
BRANCH  17  18
HETATM   18  C   UNL     1      -9.048   9.036  68.791  1.00  0.00    -0.137 C  
BRANCH  18  19
HETATM   19  N   UNL     1     -10.358   8.418  68.515  1.00  0.00    -0.209 NA 
HETATM   20  C   UNL     1     -10.362   7.667  67.259  1.00  0.00    -0.297 C  
HETATM   21  C   UNL     1     -10.724   7.530  69.623  1.00  0.00    -0.230 C  
ENDBRANCH  18  19
ENDBRANCH  17  18
ENDBRANCH   1  17
TORSDOF 3
ENDMDL
MODEL       21
REMARK 921   NORMALIZED FREE ENERGY PREDICTED BY IDOCK:   -5.77 KCAL/MOL
REMARK 922        TOTAL FREE ENERGY PREDICTED BY IDOCK:   -7.02 KCAL/MOL
REMARK 923 INTER-LIGAND FREE ENERGY PREDICTED BY IDOCK:   -6.61 KCAL/MOL
REMARK 924 INTRA-LIGAND FREE ENERGY PREDICTED BY IDOCK:   -0.42 KCAL/MOL
REMARK 927      BINDING AFFINITY PREDICTED BY RF-SCORE:    0.00 PKD
ROOT
HETATM    1  C   UNL     1      -9.436  10.851  68.536  1.00  0.00    -0.185 C  
HETATM    2  C   UNL     1     -11.560  10.997  69.820  1.00  0.00    -0.401 A  
HETATM    3  C   UNL     1     -10.718  11.277  68.626  1.00  0.00    -0.241 C  
HETATM    4  C   UNL     1     -11.218  12.166  67.554  1.00  0.00    -0.357 A  
HETATM    5  C   UNL     1     -11.731   9.655  70.216  1.00  0.00    -0.213 A  
HETATM    6  C   UNL     1     -11.402  11.720  66.240  1.00  0.00    -0.350 A  
HETATM    7  C   UNL     1     -12.496   9.316  71.331  1.00  0.00    -0.418 A  
HETATM    8  C   UNL     1     -11.964  12.571  65.286  1.00  0.00    -0.490 A  
HETATM    9  C   UNL     1     -13.140  10.314  72.051  1.00  0.00    -0.529 A  
HETATM   10  C   UNL     1     -13.035  11.641  71.636  1.00  0.00    -0.483 A  
HETATM   11  C   UNL     1     -12.342  13.865  65.640  1.00  0.00    -0.511 A  
HETATM   12  C   UNL     1     -12.157  14.316  66.948  1.00  0.00    -0.440 A  
HETATM   13  C   UNL     1     -11.591  13.471  67.912  1.00  0.00    -0.377 A  
HETATM   14  C   UNL     1     -11.384  13.914  69.338  1.00  0.00    -0.258 C  
HETATM   15  O   UNL     1     -12.327  13.340  70.243  1.00  0.00    -0.315 OA 
HETATM   16  C   UNL     1     -12.256  11.997  70.525  1.00  0.00    -0.325 A  
ENDROOT
BRANCH   1  17
HETATM   17  C   UNL     1      -8.670  10.046  69.562  1.00  0.00    -0.205 C  
BRANCH  17  18
HETATM   18  C   UNL     1      -7.902   8.831  69.003  1.00  0.00    -0.096 C  
BRANCH  18  19
HETATM   19  N   UNL     1      -8.382   7.504  69.429  1.00  0.00    -0.130 NA 
HETATM   20  C   UNL     1      -8.772   7.482  70.839  1.00  0.00    -0.142 C  
HETATM   21  C   UNL     1      -9.520   7.103  68.595  1.00  0.00    -0.140 C  
ENDBRANCH  18  19
ENDBRANCH  17  18
ENDBRANCH   1  17
TORSDOF 3
ENDMDL
MODEL       22
REMARK 921   NORMALIZED FREE ENERGY PREDICTED BY IDOCK:   -5.76 KCAL/MOL
REMARK 922        TOTAL FREE ENERGY PREDICTED BY IDOCK:   -7.01 KCAL/MOL
REMARK 923 INTER-LIGAND FREE ENERGY PREDICTED BY IDOCK:   -6.49 KCAL/MOL
REMARK 924 INTRA-LIGAND FREE ENERGY PREDICTED BY IDOCK:   -0.52 KCAL/MOL
REMARK 927      BINDING AFFINITY PREDICTED BY RF-SCORE:    0.00 PKD
ROOT
HETATM    1  C   UNL     1      -8.538  12.897  66.795  1.00  0.00    -0.071 C  
HETATM    2  C   UNL     1     -10.560  13.186  65.379  1.00  0.00    -0.311 A  
HETATM    3  C   UNL     1      -9.480  13.707  66.259  1.00  0.00    -0.209 C  
HETATM    4  C   UNL     1      -9.493  15.120  66.697  1.00  0.00    -0.285 A  
HETATM    5  C   UNL     1     -10.192  12.462  64.227  1.00  0.00    -0.358 A  
HETATM    6  C   UNL     1      -8.464  16.012  66.371  1.00  0.00    -0.363 A  
HETATM    7  C   UNL     1     -11.148  11.933  63.361  1.00  0.00    -0.463 A  
HETATM    8  C   UNL     1      -8.566  17.357  66.728  1.00  0.00    -0.284 A  
HETATM    9  C   UNL     1     -12.496  12.154  63.611  1.00  0.00    -0.658 A  
HETATM   10  C   UNL     1     -12.878  12.922  64.710  1.00  0.00    -0.359 A  
HETATM   11  C   UNL     1      -9.693  17.817  67.409  1.00  0.00    -0.284 A  
HETATM   12  C   UNL     1     -10.720  16.931  67.740  1.00  0.00    -0.315 A  
HETATM   13  C   UNL     1     -10.625  15.578  67.389  1.00  0.00    -0.292 A  
HETATM   14  C   UNL     1     -11.717  14.590  67.717  1.00  0.00    -0.374 C  
HETATM   15  O   UNL     1     -12.495  14.222  66.579  1.00  0.00    -0.428 OA 
HETATM   16  C   UNL     1     -11.926  13.448  65.597  1.00  0.00    -0.401 A  
ENDROOT
BRANCH   1  17
HETATM   17  C   UNL     1      -8.404  11.402  66.601  1.00  0.00    -0.172 C  
BRANCH  17  18
HETATM   18  C   UNL     1      -9.130  10.536  67.650  1.00  0.00    -0.142 C  
BRANCH  18  19
HETATM   19  N   UNL     1     -10.504  10.120  67.315  1.00  0.00    -0.240 NA 
HETATM   20  C   UNL     1     -10.637   8.665  67.226  1.00  0.00    -0.238 C  
HETATM   21  C   UNL     1     -11.434  10.641  68.323  1.00  0.00    -0.245 C  
ENDBRANCH  18  19
ENDBRANCH  17  18
ENDBRANCH   1  17
TORSDOF 3
ENDMDL
MODEL       23
REMARK 921   NORMALIZED FREE ENERGY PREDICTED BY IDOCK:   -5.72 KCAL/MOL
REMARK 922        TOTAL FREE ENERGY PREDICTED BY IDOCK:   -6.96 KCAL/MOL
REMARK 923 INTER-LIGAND FREE ENERGY PREDICTED BY IDOCK:   -6.74 KCAL/MOL
REMARK 924 INTRA-LIGAND FREE ENERGY PREDICTED BY IDOCK:   -0.23 KCAL/MOL
REMARK 927      BINDING AFFINITY PREDICTED BY RF-SCORE:    0.00 PKD
ROOT
HETATM    1  C   UNL     1     -11.841  11.666  68.350  1.00  0.00    -0.346 C  
HETATM    2  C   UNL     1     -11.156  14.055  68.300  1.00  0.00    -0.275 A  
HETATM    3  C   UNL     1     -11.527  12.775  67.640  1.00  0.00    -0.387 C  
HETATM    4  C   UNL     1     -11.419  12.636  66.170  1.00  0.00    -0.413 A  
HETATM    5  C   UNL     1     -12.061  14.617  69.223  1.00  0.00    -0.307 A  
HETATM    6  C   UNL     1     -12.530  12.367  65.362  1.00  0.00    -0.181 A  
HETATM    7  C   UNL     1     -11.777  15.808  69.889  1.00  0.00    -0.365 A  
HETATM    8  C   UNL     1     -12.393  12.338  63.974  1.00  0.00    -0.569 A  
HETATM    9  C   UNL     1     -10.596  16.484  69.614  1.00  0.00    -0.302 A  
HETATM   10  C   UNL     1      -9.717  15.977  68.657  1.00  0.00    -0.217 A  
HETATM   11  C   UNL     1     -11.150  12.575  63.388  1.00  0.00    -0.419 A  
HETATM   12  C   UNL     1     -10.037  12.839  64.190  1.00  0.00    -0.260 A  
HETATM   13  C   UNL     1     -10.165  12.868  65.585  1.00  0.00    -0.295 A  
HETATM   14  C   UNL     1      -8.991  13.160  66.486  1.00  0.00    -0.059 C  
HETATM   15  O   UNL     1      -9.032  14.473  67.046  1.00  0.00    -0.217 OA 
HETATM   16  C   UNL     1      -9.984  14.772  67.989  1.00  0.00    -0.218 A  
ENDROOT
BRANCH   1  17
HETATM   17  C   UNL     1     -11.885  11.531  69.856  1.00  0.00    -0.430 C  
BRANCH  17  18
HETATM   18  C   UNL     1     -11.348  10.197  70.412  1.00  0.00    -0.326 C  
BRANCH  18  19
HETATM   19  N   UNL     1     -11.939   9.735  71.681  1.00  0.00    -0.396 NA 
HETATM   20  C   UNL     1     -13.379   9.497  71.568  1.00  0.00    -0.393 C  
HETATM   21  C   UNL     1     -11.267   8.507  72.117  1.00  0.00    -0.362 C  
ENDBRANCH  18  19
ENDBRANCH  17  18
ENDBRANCH   1  17
TORSDOF 3
ENDMDL
MODEL       24
REMARK 921   NORMALIZED FREE ENERGY PREDICTED BY IDOCK:   -5.71 KCAL/MOL
REMARK 922        TOTAL FREE ENERGY PREDICTED BY IDOCK:   -6.95 KCAL/MOL
REMARK 923 INTER-LIGAND FREE ENERGY PREDICTED BY IDOCK:   -6.70 KCAL/MOL
REMARK 924 INTRA-LIGAND FREE ENERGY PREDICTED BY IDOCK:   -0.26 KCAL/MOL
REMARK 927      BINDING AFFINITY PREDICTED BY RF-SCORE:    0.00 PKD
ROOT
HETATM    1  C   UNL     1     -11.662  12.432  68.297  1.00  0.00    -0.398 C  
HETATM    2  C   UNL     1     -10.353  11.620  66.346  1.00  0.00    -0.266 A  
HETATM    3  C   UNL     1     -10.914  12.700  67.202  1.00  0.00    -0.296 C  
HETATM    4  C   UNL     1     -10.791  14.116  66.790  1.00  0.00    -0.296 A  
HETATM    5  C   UNL     1      -9.537  10.644  66.952  1.00  0.00    -0.200 A  
HETATM    6  C   UNL     1     -10.100  15.060  67.560  1.00  0.00    -0.228 A  
HETATM    7  C   UNL     1      -8.986   9.595  66.217  1.00  0.00    -0.184 A  
HETATM    8  C   UNL     1      -9.932  16.361  67.084  1.00  0.00    -0.260 A  
HETATM    9  C   UNL     1      -9.208   9.526  64.848  1.00  0.00    -0.284 A  
HETATM   10  C   UNL     1      -9.960  10.519  64.219  1.00  0.00    -0.398 A  
HETATM   11  C   UNL     1     -10.452  16.724  65.842  1.00  0.00    -0.311 A  
HETATM   12  C   UNL     1     -11.147  15.788  65.073  1.00  0.00    -0.380 A  
HETATM   13  C   UNL     1     -11.322  14.480  65.543  1.00  0.00    -0.335 A  
HETATM   14  C   UNL     1     -12.056  13.436  64.739  1.00  0.00    -0.406 C  
HETATM   15  O   UNL     1     -11.182  12.475  64.146  1.00  0.00    -0.330 OA 
HETATM   16  C   UNL     1     -10.532  11.571  64.950  1.00  0.00    -0.291 A  
ENDROOT
BRANCH   1  17
HETATM   17  C   UNL     1     -12.034  11.067  68.834  1.00  0.00    -0.332 C  
BRANCH  17  18
HETATM   18  C   UNL     1     -11.820  10.877  70.349  1.00  0.00    -0.357 C  
BRANCH  18  19
HETATM   19  N   UNL     1     -13.039  10.797  71.175  1.00  0.00    -0.340 NA 
HETATM   20  C   UNL     1     -13.030   9.633  72.064  1.00  0.00    -0.428 C  
HETATM   21  C   UNL     1     -13.176  12.023  71.967  1.00  0.00    -0.375 C  
ENDBRANCH  18  19
ENDBRANCH  17  18
ENDBRANCH   1  17
TORSDOF 3
ENDMDL
MODEL       25
REMARK 921   NORMALIZED FREE ENERGY PREDICTED BY IDOCK:   -5.64 KCAL/MOL
REMARK 922        TOTAL FREE ENERGY PREDICTED BY IDOCK:   -6.86 KCAL/MOL
REMARK 923 INTER-LIGAND FREE ENERGY PREDICTED BY IDOCK:   -6.62 KCAL/MOL
REMARK 924 INTRA-LIGAND FREE ENERGY PREDICTED BY IDOCK:   -0.24 KCAL/MOL
REMARK 927      BINDING AFFINITY PREDICTED BY RF-SCORE:    0.00 PKD
ROOT
HETATM    1  C   UNL     1      -9.890  10.959  67.972  1.00  0.00    -0.185 C  
HETATM    2  C   UNL     1     -11.685  12.000  69.340  1.00  0.00    -0.402 A  
HETATM    3  C   UNL     1     -10.959  11.784  68.060  1.00  0.00    -0.274 C  
HETATM    4  C   UNL     1     -11.300  12.588  66.865  1.00  0.00    -0.383 A  
HETATM    5  C   UNL     1     -12.203  10.875  70.012  1.00  0.00    -0.422 A  
HETATM    6  C   UNL     1     -11.779  12.006  65.685  1.00  0.00    -0.312 A  
HETATM    7  C   UNL     1     -12.884  10.998  71.222  1.00  0.00    -0.528 A  
HETATM    8  C   UNL     1     -12.174  12.815  64.618  1.00  0.00    -0.510 A  
HETATM    9  C   UNL     1     -13.097  12.258  71.765  1.00  0.00    -0.449 A  
HETATM   10  C   UNL     1     -12.649  13.388  71.082  1.00  0.00    -0.430 A  
HETATM   11  C   UNL     1     -12.094  14.203  64.725  1.00  0.00    -0.454 A  
HETATM   12  C   UNL     1     -11.614  14.788  65.898  1.00  0.00    -0.286 A  
HETATM   13  C   UNL     1     -11.212  13.985  66.974  1.00  0.00    -0.325 A  
HETATM   14  C   UNL     1     -10.697  14.577  68.262  1.00  0.00    -0.240 C  
HETATM   15  O   UNL     1     -11.646  14.501  69.326  1.00  0.00    -0.267 OA 
HETATM   16  C   UNL     1     -11.949  13.277  69.871  1.00  0.00    -0.330 A  
ENDROOT
BRANCH   1  17
HETATM   17  C   UNL     1      -9.278  10.140  69.086  1.00  0.00    -0.204 C  
BRANCH  17  18
HETATM   18  C   UNL     1      -7.765  10.349  69.300  1.00  0.00    -0.140 C  
BRANCH  18  19
HETATM   19  N   UNL     1      -7.272  10.185  70.680  1.00  0.00    -0.298 NA 
HETATM   20  C   UNL     1      -7.373   8.800  71.143  1.00  0.00    -0.097 C  
HETATM   21  C   UNL     1      -5.879  10.633  70.760  1.00  0.00    -0.084 C  
ENDBRANCH  18  19
ENDBRANCH  17  18
ENDBRANCH   1  17
TORSDOF 3
ENDMDL
MODEL       26
REMARK 921   NORMALIZED FREE ENERGY PREDICTED BY IDOCK:   -5.62 KCAL/MOL
REMARK 922        TOTAL FREE ENERGY PREDICTED BY IDOCK:   -6.84 KCAL/MOL
REMARK 923 INTER-LIGAND FREE ENERGY PREDICTED BY IDOCK:   -6.50 KCAL/MOL
REMARK 924 INTRA-LIGAND FREE ENERGY PREDICTED BY IDOCK:   -0.34 KCAL/MOL
REMARK 927      BINDING AFFINITY PREDICTED BY RF-SCORE:    0.00 PKD
ROOT
HETATM    1  C   UNL     1     -10.735  12.633  68.885  1.00  0.00    -0.201 C  
HETATM    2  C   UNL     1     -10.244  10.515  67.680  1.00  0.00    -0.234 A  
HETATM    3  C   UNL     1     -10.828  11.284  68.811  1.00  0.00    -0.252 C  
HETATM    4  C   UNL     1     -11.407  10.576  69.974  1.00  0.00    -0.392 A  
HETATM    5  C   UNL     1     -10.640  10.849  66.369  1.00  0.00    -0.289 A  
HETATM    6  C   UNL     1     -12.755  10.703  70.330  1.00  0.00    -0.340 A  
HETATM    7  C   UNL     1     -10.126  10.180  65.259  1.00  0.00    -0.344 A  
HETATM    8  C   UNL     1     -13.275   9.943  71.379  1.00  0.00    -0.487 A  
HETATM    9  C   UNL     1      -9.233   9.133  65.442  1.00  0.00    -0.266 A  
HETATM   10  C   UNL     1      -8.879   8.745  66.734  1.00  0.00    -0.147 A  
HETATM   11  C   UNL     1     -12.454   9.055  72.073  1.00  0.00    -0.460 A  
HETATM   12  C   UNL     1     -11.108   8.927  71.724  1.00  0.00    -0.433 A  
HETATM   13  C   UNL     1     -10.576   9.688  70.675  1.00  0.00    -0.386 A  
HETATM   14  C   UNL     1      -9.131   9.573  70.259  1.00  0.00    -0.253 C  
HETATM   15  O   UNL     1      -8.959   8.853  69.038  1.00  0.00    -0.135 OA 
HETATM   16  C   UNL     1      -9.377   9.419  67.859  1.00  0.00    -0.129 A  
ENDROOT
BRANCH   1  17
HETATM   17  C   UNL     1     -10.073  13.556  67.887  1.00  0.00    -0.248 C  
BRANCH  17  18
HETATM   18  C   UNL     1     -10.938  14.743  67.416  1.00  0.00    -0.313 C  
BRANCH  18  19
HETATM   19  N   UNL     1     -11.287  14.767  65.983  1.00  0.00    -0.343 NA 
HETATM   20  C   UNL     1     -10.292  14.079  65.159  1.00  0.00    -0.400 C  
HETATM   21  C   UNL     1     -12.602  14.150  65.788  1.00  0.00    -0.447 C  
ENDBRANCH  18  19
ENDBRANCH  17  18
ENDBRANCH   1  17
TORSDOF 3
ENDMDL
MODEL       27
REMARK 921   NORMALIZED FREE ENERGY PREDICTED BY IDOCK:   -5.61 KCAL/MOL
REMARK 922        TOTAL FREE ENERGY PREDICTED BY IDOCK:   -6.83 KCAL/MOL
REMARK 923 INTER-LIGAND FREE ENERGY PREDICTED BY IDOCK:   -6.44 KCAL/MOL
REMARK 924 INTRA-LIGAND FREE ENERGY PREDICTED BY IDOCK:   -0.39 KCAL/MOL
REMARK 927      BINDING AFFINITY PREDICTED BY RF-SCORE:    0.00 PKD
ROOT
HETATM    1  C   UNL     1      -8.991  12.251  67.673  1.00  0.00    -0.181 C  
HETATM    2  C   UNL     1     -10.542  12.758  65.797  1.00  0.00    -0.295 A  
HETATM    3  C   UNL     1      -9.614  13.161  66.888  1.00  0.00    -0.248 C  
HETATM    4  C   UNL     1      -9.460  14.589  67.245  1.00  0.00    -0.218 A  
HETATM    5  C   UNL     1     -10.062  11.882  64.803  1.00  0.00    -0.295 A  
HETATM    6  C   UNL     1      -8.234  15.257  67.139  1.00  0.00    -0.250 A  
HETATM    7  C   UNL     1     -10.876  11.452  63.756  1.00  0.00    -0.468 A  
HETATM    8  C   UNL     1      -8.160  16.626  67.398  1.00  0.00    -0.187 A  
HETATM    9  C   UNL     1     -12.178  11.923  63.661  1.00  0.00    -0.586 A  
HETATM   10  C   UNL     1     -12.651  12.840  64.600  1.00  0.00    -0.491 A  
HETATM   11  C   UNL     1      -9.306  17.332  67.765  1.00  0.00    -0.250 A  
HETATM   12  C   UNL     1     -10.530  16.670  67.877  1.00  0.00    -0.322 A  
HETATM   13  C   UNL     1     -10.614  15.295  67.621  1.00  0.00    -0.270 A  
HETATM   14  C   UNL     1     -11.918  14.543  67.720  1.00  0.00    -0.310 C  
HETATM   15  O   UNL     1     -12.469  14.215  66.444  1.00  0.00    -0.461 OA 
HETATM   16  C   UNL     1     -11.847  13.270  65.666  1.00  0.00    -0.380 A  
ENDROOT
BRANCH   1  17
HETATM   17  C   UNL     1      -9.101  10.745  67.584  1.00  0.00    -0.148 C  
BRANCH  17  18
HETATM   18  C   UNL     1     -10.325  10.134  68.294  1.00  0.00    -0.186 C  
BRANCH  18  19
HETATM   19  N   UNL     1     -10.610  10.634  69.652  1.00  0.00    -0.238 NA 
HETATM   20  C   UNL     1     -11.989  11.106  69.791  1.00  0.00    -0.357 C  
HETATM   21  C   UNL     1     -10.348   9.574  70.630  1.00  0.00    -0.302 C  
ENDBRANCH  18  19
ENDBRANCH  17  18
ENDBRANCH   1  17
TORSDOF 3
ENDMDL
MODEL       28
REMARK 921   NORMALIZED FREE ENERGY PREDICTED BY IDOCK:   -5.60 KCAL/MOL
REMARK 922        TOTAL FREE ENERGY PREDICTED BY IDOCK:   -6.82 KCAL/MOL
REMARK 923 INTER-LIGAND FREE ENERGY PREDICTED BY IDOCK:   -6.56 KCAL/MOL
REMARK 924 INTRA-LIGAND FREE ENERGY PREDICTED BY IDOCK:   -0.26 KCAL/MOL
REMARK 927      BINDING AFFINITY PREDICTED BY RF-SCORE:    0.00 PKD
ROOT
HETATM    1  C   UNL     1     -11.596  12.701  67.972  1.00  0.00    -0.394 C  
HETATM    2  C   UNL     1     -10.361  11.861  65.984  1.00  0.00    -0.268 A  
HETATM    3  C   UNL     1     -10.893  12.953  66.843  1.00  0.00    -0.278 C  
HETATM    4  C   UNL     1     -10.793  14.363  66.404  1.00  0.00    -0.314 A  
HETATM    5  C   UNL     1      -9.518  10.899  66.575  1.00  0.00    -0.210 A  
HETATM    6  C   UNL     1     -10.076  15.322  67.129  1.00  0.00    -0.240 A  
HETATM    7  C   UNL     1      -8.991   9.840  65.836  1.00  0.00    -0.189 A  
HETATM    8  C   UNL     1      -9.933  16.615  66.625  1.00  0.00    -0.290 A  
HETATM    9  C   UNL     1      -9.266   9.746  64.478  1.00  0.00    -0.310 A  
HETATM   10  C   UNL     1     -10.047  10.725  63.863  1.00  0.00    -0.397 A  
HETATM   11  C   UNL     1     -10.504  16.956  65.399  1.00  0.00    -0.172 A  
HETATM   12  C   UNL     1     -11.223  16.004  64.673  1.00  0.00    -0.340 A  
HETATM   13  C   UNL     1     -11.374  14.703  65.173  1.00  0.00    -0.375 A  
HETATM   14  C   UNL     1     -12.134  13.643  64.416  1.00  0.00    -0.427 C  
HETATM   15  O   UNL     1     -11.280  12.675  63.805  1.00  0.00    -0.403 OA 
HETATM   16  C   UNL     1     -10.594  11.788  64.598  1.00  0.00    -0.308 A  
ENDROOT
BRANCH   1  17
HETATM   17  C   UNL     1     -11.940  11.344  68.547  1.00  0.00    -0.295 C  
BRANCH  17  18
HETATM   18  C   UNL     1     -11.304  11.031  69.916  1.00  0.00    -0.287 C  
BRANCH  18  19
HETATM   19  N   UNL     1     -11.884   9.898  70.660  1.00  0.00    -0.291 NA 
HETATM   20  C   UNL     1     -10.941   9.325  71.622  1.00  0.00    -0.363 C  
HETATM   21  C   UNL     1     -13.096  10.339  71.358  1.00  0.00    -0.414 C  
ENDBRANCH  18  19
ENDBRANCH  17  18
ENDBRANCH   1  17
TORSDOF 3
ENDMDL
MODEL       29
REMARK 921   NORMALIZED FREE ENERGY PREDICTED BY IDOCK:   -5.59 KCAL/MOL
REMARK 922        TOTAL FREE ENERGY PREDICTED BY IDOCK:   -6.80 KCAL/MOL
REMARK 923 INTER-LIGAND FREE ENERGY PREDICTED BY IDOCK:   -6.39 KCAL/MOL
REMARK 924 INTRA-LIGAND FREE ENERGY PREDICTED BY IDOCK:   -0.42 KCAL/MOL
REMARK 927      BINDING AFFINITY PREDICTED BY RF-SCORE:    0.00 PKD
ROOT
HETATM    1  C   UNL     1     -10.749  16.485  67.627  1.00  0.00    -0.311 C  
HETATM    2  C   UNL     1      -8.678  15.132  67.382  1.00  0.00    -0.205 A  
HETATM    3  C   UNL     1     -10.100  15.438  67.068  1.00  0.00    -0.249 C  
HETATM    4  C   UNL     1     -10.895  14.507  66.237  1.00  0.00    -0.317 A  
HETATM    5  C   UNL     1      -7.717  16.142  67.174  1.00  0.00    -0.229 A  
HETATM    6  C   UNL     1     -11.449  14.889  65.009  1.00  0.00    -0.379 A  
HETATM    7  C   UNL     1      -6.368  15.933  67.456  1.00  0.00    -0.198 A  
HETATM    8  C   UNL     1     -12.112  13.949  64.219  1.00  0.00    -0.477 A  
HETATM    9  C   UNL     1      -5.946  14.693  67.916  1.00  0.00    -0.151 A  
HETATM   10  C   UNL     1      -6.874  13.662  68.067  1.00  0.00    -0.138 A  
HETATM   11  C   UNL     1     -12.225  12.627  64.650  1.00  0.00    -0.519 A  
HETATM   12  C   UNL     1     -11.678  12.242  65.876  1.00  0.00    -0.451 A  
HETATM   13  C   UNL     1     -11.013  13.179  66.677  1.00  0.00    -0.301 A  
HETATM   14  C   UNL     1     -10.399  12.802  68.002  1.00  0.00    -0.229 C  
HETATM   15  O   UNL     1      -8.975  12.715  67.951  1.00  0.00    -0.173 OA 
HETATM   16  C   UNL     1      -8.236  13.863  67.800  1.00  0.00    -0.173 A  
ENDROOT
BRANCH   1  17
HETATM   17  C   UNL     1     -10.183  17.490  68.606  1.00  0.00    -0.373 C  
BRANCH  17  18
HETATM   18  C   UNL     1     -10.159  18.949  68.109  1.00  0.00    -0.388 C  
BRANCH  18  19
HETATM   19  N   UNL     1      -9.514  19.182  66.803  1.00  0.00    -0.316 NA 
HETATM   20  C   UNL     1     -10.415  19.828  65.847  1.00  0.00    -0.486 C  
HETATM   21  C   UNL     1      -8.316  20.007  66.989  1.00  0.00    -0.323 C  
ENDBRANCH  18  19
ENDBRANCH  17  18
ENDBRANCH   1  17
TORSDOF 3
ENDMDL
MODEL       30
REMARK 921   NORMALIZED FREE ENERGY PREDICTED BY IDOCK:   -5.58 KCAL/MOL
REMARK 922        TOTAL FREE ENERGY PREDICTED BY IDOCK:   -6.79 KCAL/MOL
REMARK 923 INTER-LIGAND FREE ENERGY PREDICTED BY IDOCK:   -6.50 KCAL/MOL
REMARK 924 INTRA-LIGAND FREE ENERGY PREDICTED BY IDOCK:   -0.29 KCAL/MOL
REMARK 927      BINDING AFFINITY PREDICTED BY RF-SCORE:    0.00 PKD
ROOT
HETATM    1  C   UNL     1     -10.376  15.343  69.936  1.00  0.00    -0.298 C  
HETATM    2  C   UNL     1      -9.461  17.136  68.477  1.00  0.00    -0.282 A  
HETATM    3  C   UNL     1      -9.510  15.734  68.972  1.00  0.00    -0.247 C  
HETATM    4  C   UNL     1      -8.501  14.750  68.521  1.00  0.00    -0.159 A  
HETATM    5  C   UNL     1     -10.647  17.708  67.973  1.00  0.00    -0.379 A  
HETATM    6  C   UNL     1      -8.850  13.593  67.814  1.00  0.00    -0.190 A  
HETATM    7  C   UNL     1     -10.681  19.020  67.503  1.00  0.00    -0.532 A  
HETATM    8  C   UNL     1      -7.854  12.743  67.331  1.00  0.00    -0.172 A  
HETATM    9  C   UNL     1      -9.516  19.775  67.491  1.00  0.00    -0.456 A  
HETATM   10  C   UNL     1      -8.320  19.205  67.926  1.00  0.00    -0.333 A  
HETATM   11  C   UNL     1      -6.510  13.044  67.550  1.00  0.00    -0.159 A  
HETATM   12  C   UNL     1      -6.157  14.194  68.259  1.00  0.00    -0.118 A  
HETATM   13  C   UNL     1      -7.149  15.052  68.751  1.00  0.00    -0.114 A  
HETATM   14  C   UNL     1      -6.811  16.310  69.511  1.00  0.00    -0.188 C  
HETATM   15  O   UNL     1      -7.000  17.495  68.738  1.00  0.00    -0.217 OA 
HETATM   16  C   UNL     1      -8.275  17.891  68.415  1.00  0.00    -0.300 A  
ENDROOT
BRANCH   1  17
HETATM   17  C   UNL     1     -11.404  16.201  70.639  1.00  0.00    -0.394 C  
BRANCH  17  18
HETATM   18  C   UNL     1     -12.805  15.570  70.772  1.00  0.00    -0.458 C  
BRANCH  18  19
HETATM   19  N   UNL     1     -13.343  15.461  72.141  1.00  0.00    -0.406 NA 
HETATM   20  C   UNL     1     -13.614  14.074  72.521  1.00  0.00    -0.566 C  
HETATM   21  C   UNL     1     -12.398  16.059  73.089  1.00  0.00    -0.531 C  
ENDBRANCH  18  19
ENDBRANCH  17  18
ENDBRANCH   1  17
TORSDOF 3
ENDMDL
MODEL       31
REMARK 921   NORMALIZED FREE ENERGY PREDICTED BY IDOCK:   -5.56 KCAL/MOL
REMARK 922        TOTAL FREE ENERGY PREDICTED BY IDOCK:   -6.77 KCAL/MOL
REMARK 923 INTER-LIGAND FREE ENERGY PREDICTED BY IDOCK:   -6.48 KCAL/MOL
REMARK 924 INTRA-LIGAND FREE ENERGY PREDICTED BY IDOCK:   -0.28 KCAL/MOL
REMARK 927      BINDING AFFINITY PREDICTED BY RF-SCORE:    0.00 PKD
ROOT
HETATM    1  C   UNL     1     -10.876  12.682  68.290  1.00  0.00    -0.261 C  
HETATM    2  C   UNL     1     -10.235  12.308  65.918  1.00  0.00    -0.274 A  
HETATM    3  C   UNL     1     -10.319  13.142  67.146  1.00  0.00    -0.247 C  
HETATM    4  C   UNL     1      -9.923  14.568  67.106  1.00  0.00    -0.252 A  
HETATM    5  C   UNL     1      -9.591  11.057  66.004  1.00  0.00    -0.249 A  
HETATM    6  C   UNL     1      -8.875  15.073  67.884  1.00  0.00    -0.171 A  
HETATM    7  C   UNL     1      -9.484  10.214  64.898  1.00  0.00    -0.349 A  
HETATM    8  C   UNL     1      -8.479  16.404  67.743  1.00  0.00    -0.172 A  
HETATM    9  C   UNL     1      -9.985  10.626  63.670  1.00  0.00    -0.364 A  
HETATM   10  C   UNL     1     -10.568  11.888  63.551  1.00  0.00    -0.507 A  
HETATM   11  C   UNL     1      -9.126  17.233  66.827  1.00  0.00    -0.269 A  
HETATM   12  C   UNL     1     -10.175  16.735  66.052  1.00  0.00    -0.361 A  
HETATM   13  C   UNL     1     -10.582  15.401  66.189  1.00  0.00    -0.321 A  
HETATM   14  C   UNL     1     -11.703  14.820  65.364  1.00  0.00    -0.289 C  
HETATM   15  O   UNL     1     -11.240  13.955  64.327  1.00  0.00    -0.354 OA 
HETATM   16  C   UNL     1     -10.695  12.739  64.659  1.00  0.00    -0.337 A  
ENDROOT
BRANCH   1  17
HETATM   17  C   UNL     1     -11.469  11.310  68.526  1.00  0.00    -0.372 C  
BRANCH  17  18
HETATM   18  C   UNL     1     -10.804  10.492  69.652  1.00  0.00    -0.274 C  
BRANCH  18  19
HETATM   19  N   UNL     1     -11.541  10.419  70.927  1.00  0.00    -0.350 NA 
HETATM   20  C   UNL     1     -12.990  10.498  70.735  1.00  0.00    -0.330 C  
HETATM   21  C   UNL     1     -11.200   9.172  71.619  1.00  0.00    -0.377 C  
ENDBRANCH  18  19
ENDBRANCH  17  18
ENDBRANCH   1  17
TORSDOF 3
ENDMDL
MODEL       32
REMARK 921   NORMALIZED FREE ENERGY PREDICTED BY IDOCK:   -5.48 KCAL/MOL
REMARK 922        TOTAL FREE ENERGY PREDICTED BY IDOCK:   -6.68 KCAL/MOL
REMARK 923 INTER-LIGAND FREE ENERGY PREDICTED BY IDOCK:   -6.17 KCAL/MOL
REMARK 924 INTRA-LIGAND FREE ENERGY PREDICTED BY IDOCK:   -0.51 KCAL/MOL
REMARK 927      BINDING AFFINITY PREDICTED BY RF-SCORE:    0.00 PKD
ROOT
HETATM    1  C   UNL     1      -7.620  15.382  67.317  1.00  0.00    -0.246 C  
HETATM    2  C   UNL     1      -9.982  14.984  66.650  1.00  0.00    -0.266 A  
HETATM    3  C   UNL     1      -8.844  15.872  67.011  1.00  0.00    -0.240 C  
HETATM    4  C   UNL     1      -9.061  17.325  67.191  1.00  0.00    -0.234 A  
HETATM    5  C   UNL     1      -9.814  14.088  65.575  1.00  0.00    -0.229 A  
HETATM    6  C   UNL     1      -8.420  18.280  66.393  1.00  0.00    -0.266 A  
HETATM    7  C   UNL     1     -10.831  13.217  65.187  1.00  0.00    -0.321 A  
HETATM    8  C   UNL     1      -8.729  19.633  66.540  1.00  0.00    -0.402 A  
HETATM    9  C   UNL     1     -12.054  13.254  65.843  1.00  0.00    -0.493 A  
HETATM   10  C   UNL     1     -12.260  14.179  66.866  1.00  0.00    -0.400 A  
HETATM   11  C   UNL     1      -9.675  20.037  67.481  1.00  0.00    -0.539 A  
HETATM   12  C   UNL     1     -10.314  19.089  68.283  1.00  0.00    -0.415 A  
HETATM   13  C   UNL     1     -10.009  17.728  68.144  1.00  0.00    -0.342 A  
HETATM   14  C   UNL     1     -10.684  16.671  68.982  1.00  0.00    -0.343 C  
HETATM   15  O   UNL     1     -11.657  15.921  68.254  1.00  0.00    -0.355 OA 
HETATM   16  C   UNL     1     -11.241  15.050  67.277  1.00  0.00    -0.338 A  
ENDROOT
BRANCH   1  17
HETATM   17  C   UNL     1      -7.199  13.929  67.334  1.00  0.00    -0.113 C  
BRANCH  17  18
HETATM   18  C   UNL     1      -7.691  13.117  68.549  1.00  0.00    -0.117 C  
BRANCH  18  19
HETATM   19  N   UNL     1      -8.231  11.776  68.261  1.00  0.00    -0.151 NA 
HETATM   20  C   UNL     1      -9.681  11.709  68.453  1.00  0.00    -0.199 C  
HETATM   21  C   UNL     1      -7.897  11.397  66.885  1.00  0.00    -0.158 C  
ENDBRANCH  18  19
ENDBRANCH  17  18
ENDBRANCH   1  17
TORSDOF 3
ENDMDL
MODEL       33
REMARK 921   NORMALIZED FREE ENERGY PREDICTED BY IDOCK:   -5.45 KCAL/MOL
REMARK 922        TOTAL FREE ENERGY PREDICTED BY IDOCK:   -6.64 KCAL/MOL
REMARK 923 INTER-LIGAND FREE ENERGY PREDICTED BY IDOCK:   -6.18 KCAL/MOL
REMARK 924 INTRA-LIGAND FREE ENERGY PREDICTED BY IDOCK:   -0.46 KCAL/MOL
REMARK 927      BINDING AFFINITY PREDICTED BY RF-SCORE:    0.00 PKD
ROOT
HETATM    1  C   UNL     1      -8.340  12.789  67.048  1.00  0.00    -0.123 C  
HETATM    2  C   UNL     1      -9.957  11.336  68.255  1.00  0.00    -0.201 A  
HETATM    3  C   UNL     1      -9.490  12.076  67.052  1.00  0.00    -0.199 C  
HETATM    4  C   UNL     1     -10.356  12.173  65.856  1.00  0.00    -0.286 A  
HETATM    5  C   UNL     1      -9.090  10.385  68.831  1.00  0.00    -0.175 A  
HETATM    6  C   UNL     1      -9.974  11.654  64.613  1.00  0.00    -0.291 A  
HETATM    7  C   UNL     1      -9.453   9.662  69.966  1.00  0.00    -0.277 A  
HETATM    8  C   UNL     1     -10.864  11.688  63.538  1.00  0.00    -0.497 A  
HETATM    9  C   UNL     1     -10.710   9.847  70.526  1.00  0.00    -0.382 A  
HETATM   10  C   UNL     1     -11.605  10.737  69.932  1.00  0.00    -0.410 A  
HETATM   11  C   UNL     1     -12.135  12.239  63.699  1.00  0.00    -0.648 A  
HETATM   12  C   UNL     1     -12.519  12.762  64.935  1.00  0.00    -0.563 A  
HETATM   13  C   UNL     1     -11.632  12.735  66.019  1.00  0.00    -0.432 A  
HETATM   14  C   UNL     1     -12.011  13.279  67.374  1.00  0.00    -0.335 C  
HETATM   15  O   UNL     1     -12.282  12.254  68.330  1.00  0.00    -0.315 OA 
HETATM   16  C   UNL     1     -11.247  11.481  68.798  1.00  0.00    -0.249 A  
ENDROOT
BRANCH   1  17
HETATM   17  C   UNL     1      -7.364  12.947  68.193  1.00  0.00    -0.119 C  
BRANCH  17  18
HETATM   18  C   UNL     1      -7.491  14.263  68.987  1.00  0.00    -0.102 C  
BRANCH  18  19
HETATM   19  N   UNL     1      -8.523  15.208  68.523  1.00  0.00    -0.153 NA 
HETATM   20  C   UNL     1      -9.545  15.457  69.540  1.00  0.00    -0.257 C  
HETATM   21  C   UNL     1      -7.891  16.473  68.136  1.00  0.00    -0.168 C  
ENDBRANCH  18  19
ENDBRANCH  17  18
ENDBRANCH   1  17
TORSDOF 3
ENDMDL
MODEL       34
REMARK 921   NORMALIZED FREE ENERGY PREDICTED BY IDOCK:   -5.44 KCAL/MOL
REMARK 922        TOTAL FREE ENERGY PREDICTED BY IDOCK:   -6.64 KCAL/MOL
REMARK 923 INTER-LIGAND FREE ENERGY PREDICTED BY IDOCK:   -6.34 KCAL/MOL
REMARK 924 INTRA-LIGAND FREE ENERGY PREDICTED BY IDOCK:   -0.30 KCAL/MOL
REMARK 927      BINDING AFFINITY PREDICTED BY RF-SCORE:    0.00 PKD
ROOT
HETATM    1  C   UNL     1     -11.397  10.722  67.998  1.00  0.00    -0.378 C  
HETATM    2  C   UNL     1      -9.070  11.225  67.284  1.00  0.00    -0.156 A  
HETATM    3  C   UNL     1     -10.546  11.353  67.156  1.00  0.00    -0.279 C  
HETATM    4  C   UNL     1     -11.134  12.067  66.001  1.00  0.00    -0.364 A  
HETATM    5  C   UNL     1      -8.474  11.564  68.516  1.00  0.00    -0.143 A  
HETATM    6  C   UNL     1     -11.921  13.215  66.154  1.00  0.00    -0.478 A  
HETATM    7  C   UNL     1      -7.098  11.458  68.714  1.00  0.00    -0.102 A  
HETATM    8  C   UNL     1     -12.376  13.905  65.030  1.00  0.00    -0.452 A  
HETATM    9  C   UNL     1      -6.283  11.048  67.667  1.00  0.00    -0.052 A  
HETATM   10  C   UNL     1      -6.847  10.770  66.422  1.00  0.00    -0.135 A  
HETATM   11  C   UNL     1     -12.048  13.453  63.752  1.00  0.00    -0.516 A  
HETATM   12  C   UNL     1     -11.268  12.306  63.593  1.00  0.00    -0.539 A  
HETATM   13  C   UNL     1     -10.809  11.605  64.716  1.00  0.00    -0.367 A  
HETATM   14  C   UNL     1      -9.955  10.369  64.589  1.00  0.00    -0.338 C  
HETATM   15  O   UNL     1      -8.584  10.605  64.910  1.00  0.00    -0.178 OA 
HETATM   16  C   UNL     1      -8.232  10.859  66.213  1.00  0.00    -0.165 A  
ENDROOT
BRANCH   1  17
HETATM   17  C   UNL     1     -11.030   9.832  69.165  1.00  0.00    -0.205 C  
BRANCH  17  18
HETATM   18  C   UNL     1     -11.370  10.402  70.557  1.00  0.00    -0.341 C  
BRANCH  18  19
HETATM   19  N   UNL     1     -12.803  10.530  70.877  1.00  0.00    -0.385 NA 
HETATM   20  C   UNL     1     -13.294   9.410  71.682  1.00  0.00    -0.404 C  
HETATM   21  C   UNL     1     -13.036  11.790  71.589  1.00  0.00    -0.362 C  
ENDBRANCH  18  19
ENDBRANCH  17  18
ENDBRANCH   1  17
TORSDOF 3
ENDMDL
MODEL       35
REMARK 921   NORMALIZED FREE ENERGY PREDICTED BY IDOCK:   -5.40 KCAL/MOL
REMARK 922        TOTAL FREE ENERGY PREDICTED BY IDOCK:   -6.58 KCAL/MOL
REMARK 923 INTER-LIGAND FREE ENERGY PREDICTED BY IDOCK:   -6.17 KCAL/MOL
REMARK 924 INTRA-LIGAND FREE ENERGY PREDICTED BY IDOCK:   -0.41 KCAL/MOL
REMARK 927      BINDING AFFINITY PREDICTED BY RF-SCORE:    0.00 PKD
ROOT
HETATM    1  C   UNL     1     -11.501  12.515  67.514  1.00  0.00    -0.397 C  
HETATM    2  C   UNL     1      -9.859  13.975  68.677  1.00  0.00    -0.191 A  
HETATM    3  C   UNL     1     -11.075  13.118  68.648  1.00  0.00    -0.304 C  
HETATM    4  C   UNL     1     -11.945  13.019  69.841  1.00  0.00    -0.381 A  
HETATM    5  C   UNL     1      -8.641  13.421  68.236  1.00  0.00    -0.169 A  
HETATM    6  C   UNL     1     -12.167  11.806  70.505  1.00  0.00    -0.438 A  
HETATM    7  C   UNL     1      -7.463  14.166  68.223  1.00  0.00    -0.125 A  
HETATM    8  C   UNL     1     -12.920  11.780  71.679  1.00  0.00    -0.467 A  
HETATM    9  C   UNL     1      -7.473  15.473  68.691  1.00  0.00    -0.131 A  
HETATM   10  C   UNL     1      -8.655  16.018  69.192  1.00  0.00    -0.247 A  
HETATM   11  C   UNL     1     -13.454  12.961  72.194  1.00  0.00    -0.619 A  
HETATM   12  C   UNL     1     -13.239  14.173  71.533  1.00  0.00    -0.423 A  
HETATM   13  C   UNL     1     -12.487  14.208  70.352  1.00  0.00    -0.424 A  
HETATM   14  C   UNL     1     -12.222  15.497  69.614  1.00  0.00    -0.270 C  
HETATM   15  O   UNL     1     -10.886  15.970  69.783  1.00  0.00    -0.283 OA 
HETATM   16  C   UNL     1      -9.850  15.283  69.197  1.00  0.00    -0.239 A  
ENDROOT
BRANCH   1  17
HETATM   17  C   UNL     1     -10.853  12.582  66.148  1.00  0.00    -0.304 C  
BRANCH  17  18
HETATM   18  C   UNL     1     -10.198  11.271  65.667  1.00  0.00    -0.253 C  
BRANCH  18  19
HETATM   19  N   UNL     1      -9.833  10.302  66.716  1.00  0.00    -0.189 NA 
HETATM   20  C   UNL     1     -10.411   8.979  66.473  1.00  0.00    -0.193 C  
HETATM   21  C   UNL     1      -8.373  10.196  66.798  1.00  0.00    -0.122 C  
ENDBRANCH  18  19
ENDBRANCH  17  18
ENDBRANCH   1  17
TORSDOF 3
ENDMDL
MODEL       36
REMARK 921   NORMALIZED FREE ENERGY PREDICTED BY IDOCK:   -5.34 KCAL/MOL
REMARK 922        TOTAL FREE ENERGY PREDICTED BY IDOCK:   -6.51 KCAL/MOL
REMARK 923 INTER-LIGAND FREE ENERGY PREDICTED BY IDOCK:   -6.09 KCAL/MOL
REMARK 924 INTRA-LIGAND FREE ENERGY PREDICTED BY IDOCK:   -0.42 KCAL/MOL
REMARK 927      BINDING AFFINITY PREDICTED BY RF-SCORE:    0.00 PKD
ROOT
HETATM    1  C   UNL     1      -8.783  11.614  66.769  1.00  0.00    -0.189 C  
HETATM    2  C   UNL     1     -10.805  11.749  68.209  1.00  0.00    -0.259 A  
HETATM    3  C   UNL     1     -10.112  11.836  66.896  1.00  0.00    -0.231 C  
HETATM    4  C   UNL     1     -10.839  12.319  65.701  1.00  0.00    -0.321 A  
HETATM    5  C   UNL     1     -10.698  10.549  68.941  1.00  0.00    -0.253 A  
HETATM    6  C   UNL     1     -11.027  11.520  64.567  1.00  0.00    -0.367 A  
HETATM    7  C   UNL     1     -11.310  10.397  70.185  1.00  0.00    -0.397 A  
HETATM    8  C   UNL     1     -11.800  11.988  63.503  1.00  0.00    -0.587 A  
HETATM    9  C   UNL     1     -12.076  11.431  70.704  1.00  0.00    -0.469 A  
HETATM   10  C   UNL     1     -12.246  12.602  69.965  1.00  0.00    -0.267 A  
HETATM   11  C   UNL     1     -12.386  13.251  63.566  1.00  0.00    -0.442 A  
HETATM   12  C   UNL     1     -12.198  14.054  64.693  1.00  0.00    -0.460 A  
HETATM   13  C   UNL     1     -11.422  13.595  65.765  1.00  0.00    -0.326 A  
HETATM   14  C   UNL     1     -11.204  14.426  67.005  1.00  0.00    -0.328 C  
HETATM   15  O   UNL     1     -11.961  13.965  68.124  1.00  0.00    -0.355 OA 
HETATM   16  C   UNL     1     -11.625  12.773  68.719  1.00  0.00    -0.312 A  
ENDROOT
BRANCH   1  17
HETATM   17  C   UNL     1      -7.813  11.241  67.868  1.00  0.00    -0.116 C  
BRANCH  17  18
HETATM   18  C   UNL     1      -7.121   9.874  67.698  1.00  0.00    -0.087 C  
BRANCH  18  19
HETATM   19  N   UNL     1      -8.010   8.708  67.542  1.00  0.00    -0.105 NA 
HETATM   20  C   UNL     1      -7.649   7.887  66.385  1.00  0.00    -0.091 C  
HETATM   21  C   UNL     1      -7.967   7.893  68.760  1.00  0.00    -0.124 C  
ENDBRANCH  18  19
ENDBRANCH  17  18
ENDBRANCH   1  17
TORSDOF 3
ENDMDL
MODEL       37
REMARK 921   NORMALIZED FREE ENERGY PREDICTED BY IDOCK:   -5.33 KCAL/MOL
REMARK 922        TOTAL FREE ENERGY PREDICTED BY IDOCK:   -6.50 KCAL/MOL
REMARK 923 INTER-LIGAND FREE ENERGY PREDICTED BY IDOCK:   -6.12 KCAL/MOL
REMARK 924 INTRA-LIGAND FREE ENERGY PREDICTED BY IDOCK:   -0.38 KCAL/MOL
REMARK 927      BINDING AFFINITY PREDICTED BY RF-SCORE:    0.00 PKD
ROOT
HETATM    1  C   UNL     1      -9.225  11.257  66.889  1.00  0.00    -0.184 C  
HETATM    2  C   UNL     1     -11.109  12.080  68.287  1.00  0.00    -0.290 A  
HETATM    3  C   UNL     1     -10.437  11.852  66.980  1.00  0.00    -0.253 C  
HETATM    4  C   UNL     1     -11.018  12.409  65.738  1.00  0.00    -0.333 A  
HETATM    5  C   UNL     1     -11.331  10.969  69.126  1.00  0.00    -0.348 A  
HETATM    6  C   UNL     1     -11.436  11.594  64.678  1.00  0.00    -0.249 A  
HETATM    7  C   UNL     1     -11.944  11.106  70.371  1.00  0.00    -0.469 A  
HETATM    8  C   UNL     1     -12.062  12.161  63.567  1.00  0.00    -0.649 A  
HETATM    9  C   UNL     1     -12.385  12.355  70.785  1.00  0.00    -0.377 A  
HETATM   10  C   UNL     1     -12.232  13.455  69.941  1.00  0.00    -0.337 A  
HETATM   11  C   UNL     1     -12.273  13.538  63.509  1.00  0.00    -0.410 A  
HETATM   12  C   UNL     1     -11.853  14.355  64.561  1.00  0.00    -0.463 A  
HETATM   13  C   UNL     1     -11.221  13.796  65.679  1.00  0.00    -0.306 A  
HETATM   14  C   UNL     1     -10.763  14.642  66.841  1.00  0.00    -0.294 C  
HETATM   15  O   UNL     1     -11.604  14.513  67.988  1.00  0.00    -0.303 OA 
HETATM   16  C   UNL     1     -11.604  13.334  68.692  1.00  0.00    -0.327 A  
ENDROOT
BRANCH   1  17
HETATM   17  C   UNL     1      -8.382  10.730  68.030  1.00  0.00    -0.120 C  
BRANCH  17  18
HETATM   18  C   UNL     1      -7.529  11.788  68.759  1.00  0.00    -0.109 C  
BRANCH  18  19
HETATM   19  N   UNL     1      -7.042  12.912  67.938  1.00  0.00    -0.110 NA 
HETATM   20  C   UNL     1      -6.886  14.141  68.717  1.00  0.00    -0.101 C  
HETATM   21  C   UNL     1      -5.761  12.550  67.323  1.00  0.00    -0.083 C  
ENDBRANCH  18  19
ENDBRANCH  17  18
ENDBRANCH   1  17
TORSDOF 3
ENDMDL
MODEL       38
REMARK 921   NORMALIZED FREE ENERGY PREDICTED BY IDOCK:   -5.32 KCAL/MOL
REMARK 922        TOTAL FREE ENERGY PREDICTED BY IDOCK:   -6.49 KCAL/MOL
REMARK 923 INTER-LIGAND FREE ENERGY PREDICTED BY IDOCK:   -6.23 KCAL/MOL
REMARK 924 INTRA-LIGAND FREE ENERGY PREDICTED BY IDOCK:   -0.26 KCAL/MOL
REMARK 927      BINDING AFFINITY PREDICTED BY RF-SCORE:    0.00 PKD
ROOT
HETATM    1  C   UNL     1      -9.868  10.872  67.958  1.00  0.00    -0.185 C  
HETATM    2  C   UNL     1     -10.782  12.214  66.076  1.00  0.00    -0.308 A  
HETATM    3  C   UNL     1     -10.011  12.067  67.340  1.00  0.00    -0.200 C  
HETATM    4  C   UNL     1      -9.497  13.264  68.042  1.00  0.00    -0.219 A  
HETATM    5  C   UNL     1     -10.409  11.422  64.971  1.00  0.00    -0.342 A  
HETATM    6  C   UNL     1      -8.129  13.476  68.253  1.00  0.00    -0.155 A  
HETATM    7  C   UNL     1     -11.092  11.496  63.758  1.00  0.00    -0.471 A  
HETATM    8  C   UNL     1      -7.689  14.664  68.837  1.00  0.00    -0.141 A  
HETATM    9  C   UNL     1     -12.139  12.396  63.613  1.00  0.00    -0.648 A  
HETATM   10  C   UNL     1     -12.481  13.234  64.675  1.00  0.00    -0.408 A  
HETATM   11  C   UNL     1      -8.609  15.643  69.212  1.00  0.00    -0.262 A  
HETATM   12  C   UNL     1      -9.974  15.434  69.008  1.00  0.00    -0.229 A  
HETATM   13  C   UNL     1     -10.426  14.243  68.425  1.00  0.00    -0.249 A  
HETATM   14  C   UNL     1     -11.891  13.983  68.177  1.00  0.00    -0.367 C  
HETATM   15  O   UNL     1     -12.252  14.103  66.801  1.00  0.00    -0.447 OA 
HETATM   16  C   UNL     1     -11.811  13.159  65.906  1.00  0.00    -0.406 A  
ENDROOT
BRANCH   1  17
HETATM   17  C   UNL     1     -10.418   9.539  67.502  1.00  0.00    -0.336 C  
BRANCH  17  18
HETATM   18  C   UNL     1     -10.407   8.424  68.568  1.00  0.00    -0.200 C  
BRANCH  18  19
HETATM   19  N   UNL     1      -9.944   7.098  68.119  1.00  0.00    -0.147 NA 
HETATM   20  C   UNL     1     -10.942   6.410  67.299  1.00  0.00    -0.392 C  
HETATM   21  C   UNL     1      -8.697   7.244  67.362  1.00  0.00    -0.121 C  
ENDBRANCH  18  19
ENDBRANCH  17  18
ENDBRANCH   1  17
TORSDOF 3
ENDMDL
MODEL       39
REMARK 921   NORMALIZED FREE ENERGY PREDICTED BY IDOCK:   -5.32 KCAL/MOL
REMARK 922        TOTAL FREE ENERGY PREDICTED BY IDOCK:   -6.49 KCAL/MOL
REMARK 923 INTER-LIGAND FREE ENERGY PREDICTED BY IDOCK:   -6.20 KCAL/MOL
REMARK 924 INTRA-LIGAND FREE ENERGY PREDICTED BY IDOCK:   -0.29 KCAL/MOL
REMARK 927      BINDING AFFINITY PREDICTED BY RF-SCORE:    0.00 PKD
ROOT
HETATM    1  C   UNL     1     -11.172  10.347  68.664  1.00  0.00    -0.305 C  
HETATM    2  C   UNL     1     -12.037  11.364  70.761  1.00  0.00    -0.433 A  
HETATM    3  C   UNL     1     -11.202  10.384  70.016  1.00  0.00    -0.385 C  
HETATM    4  C   UNL     1     -10.486   9.312  70.743  1.00  0.00    -0.343 A  
HETATM    5  C   UNL     1     -11.853  12.736  70.494  1.00  0.00    -0.142 A  
HETATM    6  C   UNL     1      -9.090   9.200  70.723  1.00  0.00    -0.313 A  
HETATM    7  C   UNL     1     -12.606  13.713  71.143  1.00  0.00    -0.452 A  
HETATM    8  C   UNL     1      -8.456   8.229  71.500  1.00  0.00    -0.179 A  
HETATM    9  C   UNL     1     -13.534  13.337  72.105  1.00  0.00    -0.655 A  
HETATM   10  C   UNL     1     -13.685  11.989  72.429  1.00  0.00     0.081 A  
HETATM   11  C   UNL     1      -9.211   7.369  72.297  1.00  0.00    -0.162 A  
HETATM   12  C   UNL     1     -10.603   7.473  72.317  1.00  0.00    -0.280 A  
HETATM   13  C   UNL     1     -11.248   8.443  71.539  1.00  0.00    -0.328 A  
HETATM   14  C   UNL     1     -12.749   8.596  71.540  1.00  0.00    -0.316 C  
HETATM   15  O   UNL     1     -13.190   9.740  72.272  1.00  0.00    -0.437 OA 
HETATM   16  C   UNL     1     -12.943  10.995  71.773  1.00  0.00    -0.438 A  
ENDROOT
BRANCH   1  17
HETATM   17  C   UNL     1     -11.924  11.251  67.711  1.00  0.00    -0.014 C  
BRANCH  17  18
HETATM   18  C   UNL     1     -11.052  11.972  66.665  1.00  0.00    -0.310 C  
BRANCH  18  19
HETATM   19  N   UNL     1     -10.669  11.183  65.479  1.00  0.00    -0.224 NA 
HETATM   20  C   UNL     1     -11.075  11.828  64.230  1.00  0.00    -0.355 C  
HETATM   21  C   UNL     1      -9.218  10.972  65.478  1.00  0.00    -0.213 C  
ENDBRANCH  18  19
ENDBRANCH  17  18
ENDBRANCH   1  17
TORSDOF 3
ENDMDL
MODEL       40
REMARK 921   NORMALIZED FREE ENERGY PREDICTED BY IDOCK:   -5.29 KCAL/MOL
REMARK 922        TOTAL FREE ENERGY PREDICTED BY IDOCK:   -6.46 KCAL/MOL
REMARK 923 INTER-LIGAND FREE ENERGY PREDICTED BY IDOCK:   -6.15 KCAL/MOL
REMARK 924 INTRA-LIGAND FREE ENERGY PREDICTED BY IDOCK:   -0.31 KCAL/MOL
REMARK 927      BINDING AFFINITY PREDICTED BY RF-SCORE:    0.00 PKD
ROOT
HETATM    1  C   UNL     1     -10.829  11.425  67.143  1.00  0.00    -0.316 C  
HETATM    2  C   UNL     1      -9.366  13.039  68.341  1.00  0.00    -0.149 A  
HETATM    3  C   UNL     1     -10.502  12.081  68.281  1.00  0.00    -0.218 C  
HETATM    4  C   UNL     1     -11.410  11.930  69.440  1.00  0.00    -0.327 A  
HETATM    5  C   UNL     1      -8.087  12.582  67.960  1.00  0.00    -0.164 A  
HETATM    6  C   UNL     1     -11.556  10.714  70.120  1.00  0.00    -0.414 A  
HETATM    7  C   UNL     1      -6.977  13.424  67.978  1.00  0.00    -0.127 A  
HETATM    8  C   UNL     1     -12.353  10.645  71.263  1.00  0.00    -0.488 A  
HETATM    9  C   UNL     1      -7.116  14.734  68.418  1.00  0.00    -0.114 A  
HETATM   10  C   UNL     1      -8.359  15.185  68.860  1.00  0.00    -0.190 A  
HETATM   11  C   UNL     1     -13.005  11.786  71.732  1.00  0.00    -0.466 A  
HETATM   12  C   UNL     1     -12.866  12.999  71.055  1.00  0.00    -0.281 A  
HETATM   13  C   UNL     1     -12.070  13.078  69.904  1.00  0.00    -0.347 A  
HETATM   14  C   UNL     1     -11.884  14.371  69.151  1.00  0.00    -0.323 C  
HETATM   15  O   UNL     1     -10.601  14.959  69.362  1.00  0.00    -0.244 OA 
HETATM   16  C   UNL     1      -9.488  14.352  68.833  1.00  0.00    -0.107 A  
ENDROOT
BRANCH   1  17
HETATM   17  C   UNL     1     -10.133  11.523  65.804  1.00  0.00    -0.278 C  
BRANCH  17  18
HETATM   18  C   UNL     1     -10.528  12.742  64.946  1.00  0.00    -0.321 C  
BRANCH  18  19
HETATM   19  N   UNL     1     -11.001  12.452  63.580  1.00  0.00    -0.460 NA 
HETATM   20  C   UNL     1     -10.256  11.357  62.957  1.00  0.00    -0.263 C  
HETATM   21  C   UNL     1     -12.429  12.123  63.614  1.00  0.00    -0.549 C  
ENDBRANCH  18  19
ENDBRANCH  17  18
ENDBRANCH   1  17
TORSDOF 3
ENDMDL
MODEL       41
REMARK 921   NORMALIZED FREE ENERGY PREDICTED BY IDOCK:   -5.29 KCAL/MOL
REMARK 922        TOTAL FREE ENERGY PREDICTED BY IDOCK:   -6.45 KCAL/MOL
REMARK 923 INTER-LIGAND FREE ENERGY PREDICTED BY IDOCK:   -6.17 KCAL/MOL
REMARK 924 INTRA-LIGAND FREE ENERGY PREDICTED BY IDOCK:   -0.27 KCAL/MOL
REMARK 927      BINDING AFFINITY PREDICTED BY RF-SCORE:    0.00 PKD
ROOT
HETATM    1  C   UNL     1      -9.971  15.746  67.319  1.00  0.00    -0.238 C  
HETATM    2  C   UNL     1     -10.924  14.679  69.352  1.00  0.00    -0.279 A  
HETATM    3  C   UNL     1     -10.082  14.665  68.126  1.00  0.00    -0.224 C  
HETATM    4  C   UNL     1      -9.452  13.406  67.669  1.00  0.00    -0.216 A  
HETATM    5  C   UNL     1     -10.673  15.669  70.323  1.00  0.00    -0.354 A  
HETATM    6  C   UNL     1      -8.063  13.258  67.573  1.00  0.00    -0.187 A  
HETATM    7  C   UNL     1     -11.428  15.753  71.492  1.00  0.00    -0.504 A  
HETATM    8  C   UNL     1      -7.515  12.023  67.227  1.00  0.00    -0.158 A  
HETATM    9  C   UNL     1     -12.426  14.818  71.732  1.00  0.00    -0.410 A  
HETATM   10  C   UNL     1     -12.647  13.792  70.813  1.00  0.00    -0.410 A  
HETATM   11  C   UNL     1      -8.348  10.933  66.976  1.00  0.00    -0.132 A  
HETATM   12  C   UNL     1      -9.734  11.076  67.066  1.00  0.00    -0.208 A  
HETATM   13  C   UNL     1     -10.294  12.313  67.411  1.00  0.00    -0.219 A  
HETATM   14  C   UNL     1     -11.785  12.508  67.530  1.00  0.00    -0.374 C  
HETATM   15  O   UNL     1     -12.228  12.596  68.885  1.00  0.00    -0.181 OA 
HETATM   16  C   UNL     1     -11.904  13.706  69.627  1.00  0.00    -0.335 A  
ENDROOT
BRANCH   1  17
HETATM   17  C   UNL     1     -10.629  17.095  67.509  1.00  0.00    -0.323 C  
BRANCH  17  18
HETATM   18  C   UNL     1      -9.966  18.261  66.749  1.00  0.00    -0.352 C  
BRANCH  18  19
HETATM   19  N   UNL     1      -9.392  19.337  67.578  1.00  0.00    -0.301 NA 
HETATM   20  C   UNL     1      -9.600  20.661  66.990  1.00  0.00    -0.344 C  
HETATM   21  C   UNL     1      -9.985  19.293  68.919  1.00  0.00    -0.427 C  
ENDBRANCH  18  19
ENDBRANCH  17  18
ENDBRANCH   1  17
TORSDOF 3
ENDMDL
MODEL       42
REMARK 921   NORMALIZED FREE ENERGY PREDICTED BY IDOCK:   -5.26 KCAL/MOL
REMARK 922        TOTAL FREE ENERGY PREDICTED BY IDOCK:   -6.42 KCAL/MOL
REMARK 923 INTER-LIGAND FREE ENERGY PREDICTED BY IDOCK:   -6.13 KCAL/MOL
REMARK 924 INTRA-LIGAND FREE ENERGY PREDICTED BY IDOCK:   -0.29 KCAL/MOL
REMARK 927      BINDING AFFINITY PREDICTED BY RF-SCORE:    0.00 PKD
ROOT
HETATM    1  C   UNL     1     -10.707   9.835  67.107  1.00  0.00    -0.273 C  
HETATM    2  C   UNL     1      -9.669  10.701  65.021  1.00  0.00    -0.336 A  
HETATM    3  C   UNL     1     -10.372  10.883  66.319  1.00  0.00    -0.306 C  
HETATM    4  C   UNL     1     -10.862  12.220  66.720  1.00  0.00    -0.291 A  
HETATM    5  C   UNL     1      -8.443  10.006  65.018  1.00  0.00    -0.167 A  
HETATM    6  C   UNL     1     -10.401  12.870  67.872  1.00  0.00    -0.233 A  
HETATM    7  C   UNL     1      -7.732   9.786  63.838  1.00  0.00    -0.136 A  
HETATM    8  C   UNL     1     -10.824  14.169  68.157  1.00  0.00    -0.258 A  
HETATM    9  C   UNL     1      -8.217  10.295  62.641  1.00  0.00    -0.170 A  
HETATM   10  C   UNL     1      -9.396  11.041  62.634  1.00  0.00    -0.348 A  
HETATM   11  C   UNL     1     -11.705  14.823  67.296  1.00  0.00    -0.366 A  
HETATM   12  C   UNL     1     -12.171  14.178  66.149  1.00  0.00    -0.465 A  
HETATM   13  C   UNL     1     -11.755  12.873  65.856  1.00  0.00    -0.449 A  
HETATM   14  C   UNL     1     -12.225  12.145  64.621  1.00  0.00    -0.298 C  
HETATM   15  O   UNL     1     -11.222  12.061  63.609  1.00  0.00    -0.386 OA 
HETATM   16  C   UNL     1     -10.127  11.257  63.811  1.00  0.00    -0.361 A  
ENDROOT
BRANCH   1  17
HETATM   17  C   UNL     1     -10.432   8.371  66.841  1.00  0.00    -0.359 C  
BRANCH  17  18
HETATM   18  C   UNL     1      -9.803   7.596  68.016  1.00  0.00    -0.161 C  
BRANCH  18  19
HETATM   19  N   UNL     1     -10.670   7.373  69.188  1.00  0.00    -0.200 NA 
HETATM   20  C   UNL     1     -10.879   5.950  69.459  1.00  0.00    -0.372 C  
HETATM   21  C   UNL     1     -10.080   8.019  70.365  1.00  0.00    -0.194 C  
ENDBRANCH  18  19
ENDBRANCH  17  18
ENDBRANCH   1  17
TORSDOF 3
ENDMDL
MODEL       43
REMARK 921   NORMALIZED FREE ENERGY PREDICTED BY IDOCK:   -5.26 KCAL/MOL
REMARK 922        TOTAL FREE ENERGY PREDICTED BY IDOCK:   -6.42 KCAL/MOL
REMARK 923 INTER-LIGAND FREE ENERGY PREDICTED BY IDOCK:   -6.21 KCAL/MOL
REMARK 924 INTRA-LIGAND FREE ENERGY PREDICTED BY IDOCK:   -0.21 KCAL/MOL
REMARK 927      BINDING AFFINITY PREDICTED BY RF-SCORE:    0.00 PKD
ROOT
HETATM    1  C   UNL     1     -11.942  14.141  68.095  1.00  0.00    -0.367 C  
HETATM    2  C   UNL     1      -9.595  14.637  67.442  1.00  0.00    -0.215 A  
HETATM    3  C   UNL     1     -10.946  14.072  67.181  1.00  0.00    -0.303 C  
HETATM    4  C   UNL     1     -11.197  13.278  65.958  1.00  0.00    -0.316 A  
HETATM    5  C   UNL     1      -9.497  15.999  67.791  1.00  0.00    -0.217 A  
HETATM    6  C   UNL     1     -12.130  13.673  64.991  1.00  0.00    -0.418 A  
HETATM    7  C   UNL     1      -8.267  16.596  68.062  1.00  0.00    -0.185 A  
HETATM    8  C   UNL     1     -12.264  12.941  63.810  1.00  0.00    -0.555 A  
HETATM    9  C   UNL     1      -7.102  15.849  67.949  1.00  0.00    -0.147 A  
HETATM   10  C   UNL     1      -7.173  14.517  67.543  1.00  0.00    -0.210 A  
HETATM   11  C   UNL     1     -11.470  11.815  63.591  1.00  0.00    -0.524 A  
HETATM   12  C   UNL     1     -10.542  11.415  64.554  1.00  0.00    -0.390 A  
HETATM   13  C   UNL     1     -10.402  12.142  65.743  1.00  0.00    -0.289 A  
HETATM   14  C   UNL     1      -9.403  11.751  66.804  1.00  0.00    -0.194 C  
HETATM   15  O   UNL     1      -8.263  12.608  66.838  1.00  0.00    -0.145 OA 
HETATM   16  C   UNL     1      -8.406  13.900  67.281  1.00  0.00    -0.185 A  
ENDROOT
BRANCH   1  17
HETATM   17  C   UNL     1     -11.878  14.780  69.465  1.00  0.00    -0.366 C  
BRANCH  17  18
HETATM   18  C   UNL     1     -13.053  14.439  70.404  1.00  0.00    -0.056 C  
BRANCH  18  19
HETATM   19  N   UNL     1     -12.755  13.508  71.508  1.00  0.00    -0.346 NA 
HETATM   20  C   UNL     1     -13.806  13.503  72.526  1.00  0.00    -0.519 C  
HETATM   21  C   UNL     1     -12.578  12.154  70.973  1.00  0.00    -0.263 C  
ENDBRANCH  18  19
ENDBRANCH  17  18
ENDBRANCH   1  17
TORSDOF 3
ENDMDL
MODEL       44
REMARK 921   NORMALIZED FREE ENERGY PREDICTED BY IDOCK:   -5.21 KCAL/MOL
REMARK 922        TOTAL FREE ENERGY PREDICTED BY IDOCK:   -6.36 KCAL/MOL
REMARK 923 INTER-LIGAND FREE ENERGY PREDICTED BY IDOCK:   -6.14 KCAL/MOL
REMARK 924 INTRA-LIGAND FREE ENERGY PREDICTED BY IDOCK:   -0.21 KCAL/MOL
REMARK 927      BINDING AFFINITY PREDICTED BY RF-SCORE:    0.00 PKD
ROOT
HETATM    1  C   UNL     1     -11.741  13.688  68.174  1.00  0.00    -0.392 C  
HETATM    2  C   UNL     1      -9.941  15.060  67.146  1.00  0.00    -0.237 A  
HETATM    3  C   UNL     1     -10.773  13.831  67.239  1.00  0.00    -0.286 C  
HETATM    4  C   UNL     1     -10.464  12.656  66.394  1.00  0.00    -0.267 A  
HETATM    5  C   UNL     1     -10.595  16.300  66.996  1.00  0.00    -0.284 A  
HETATM    6  C   UNL     1     -11.372  12.151  65.455  1.00  0.00    -0.393 A  
HETATM    7  C   UNL     1      -9.882  17.495  66.914  1.00  0.00    -0.302 A  
HETATM    8  C   UNL     1     -10.998  11.100  64.617  1.00  0.00    -0.238 A  
HETATM    9  C   UNL     1      -8.494  17.469  66.940  1.00  0.00    -0.261 A  
HETATM   10  C   UNL     1      -7.828  16.247  67.024  1.00  0.00    -0.253 A  
HETATM   11  C   UNL     1      -9.720  10.549  64.713  1.00  0.00    -0.365 A  
HETATM   12  C   UNL     1      -8.812  11.046  65.650  1.00  0.00    -0.187 A  
HETATM   13  C   UNL     1      -9.179  12.100  66.498  1.00  0.00    -0.216 A  
HETATM   14  C   UNL     1      -8.226  12.673  67.516  1.00  0.00    -0.178 C  
HETATM   15  O   UNL     1      -7.702  13.945  67.134  1.00  0.00    -0.127 OA 
HETATM   16  C   UNL     1      -8.533  15.038  67.121  1.00  0.00    -0.218 A  
ENDROOT
BRANCH   1  17
HETATM   17  C   UNL     1     -12.145  14.696  69.228  1.00  0.00    -0.307 C  
BRANCH  17  18
HETATM   18  C   UNL     1     -12.658  14.093  70.551  1.00  0.00    -0.342 C  
BRANCH  18  19
HETATM   19  N   UNL     1     -13.145  15.052  71.559  1.00  0.00    -0.343 NA 
HETATM   20  C   UNL     1     -13.639  14.385  72.765  1.00  0.00    -0.431 C  
HETATM   21  C   UNL     1     -12.067  15.981  71.913  1.00  0.00    -0.514 C  
ENDBRANCH  18  19
ENDBRANCH  17  18
ENDBRANCH   1  17
TORSDOF 3
ENDMDL
MODEL       45
REMARK 921   NORMALIZED FREE ENERGY PREDICTED BY IDOCK:   -5.16 KCAL/MOL
REMARK 922        TOTAL FREE ENERGY PREDICTED BY IDOCK:   -6.30 KCAL/MOL
REMARK 923 INTER-LIGAND FREE ENERGY PREDICTED BY IDOCK:   -6.08 KCAL/MOL
REMARK 924 INTRA-LIGAND FREE ENERGY PREDICTED BY IDOCK:   -0.22 KCAL/MOL
REMARK 927      BINDING AFFINITY PREDICTED BY RF-SCORE:    0.00 PKD
ROOT
HETATM    1  C   UNL     1     -10.012   9.888  69.251  1.00  0.00    -0.217 C  
HETATM    2  C   UNL     1     -11.589   8.859  70.874  1.00  0.00    -0.331 A  
HETATM    3  C   UNL     1     -10.257   8.979  70.225  1.00  0.00    -0.235 C  
HETATM    4  C   UNL     1      -9.190   7.999  70.526  1.00  0.00    -0.154 A  
HETATM    5  C   UNL     1     -12.143  10.005  71.480  1.00  0.00    -0.475 A  
HETATM    6  C   UNL     1      -7.973   8.375  71.107  1.00  0.00    -0.127 A  
HETATM    7  C   UNL     1     -13.393   9.971  72.098  1.00  0.00    -0.469 A  
HETATM    8  C   UNL     1      -7.036   7.402  71.457  1.00  0.00    -0.066 A  
HETATM    9  C   UNL     1     -14.097   8.776  72.157  1.00  0.00    -0.519 A  
HETATM   10  C   UNL     1     -13.537   7.618  71.620  1.00  0.00    -0.431 A  
HETATM   11  C   UNL     1      -7.310   6.053  71.229  1.00  0.00    -0.080 A  
HETATM   12  C   UNL     1      -8.520   5.673  70.645  1.00  0.00    -0.126 A  
HETATM   13  C   UNL     1      -9.465   6.644  70.288  1.00  0.00    -0.166 A  
HETATM   14  C   UNL     1     -10.789   6.275  69.666  1.00  0.00    -0.339 C  
HETATM   15  O   UNL     1     -11.883   6.393  70.575  1.00  0.00    -0.374 OA 
HETATM   16  C   UNL     1     -12.287   7.641  70.983  1.00  0.00    -0.208 A  
ENDROOT
BRANCH   1  17
HETATM   17  C   UNL     1     -10.984  10.900  68.686  1.00  0.00    -0.274 C  
BRANCH  17  18
HETATM   18  C   UNL     1     -10.616  11.457  67.296  1.00  0.00    -0.227 C  
BRANCH  18  19
HETATM   19  N   UNL     1     -11.723  12.035  66.511  1.00  0.00    -0.575 NA 
HETATM   20  C   UNL     1     -12.034  13.405  66.918  1.00  0.00    -0.385 C  
HETATM   21  C   UNL     1     -11.380  12.008  65.086  1.00  0.00    -0.304 C  
ENDBRANCH  18  19
ENDBRANCH  17  18
ENDBRANCH   1  17
TORSDOF 3
ENDMDL
MODEL       46
REMARK 921   NORMALIZED FREE ENERGY PREDICTED BY IDOCK:   -5.15 KCAL/MOL
REMARK 922        TOTAL FREE ENERGY PREDICTED BY IDOCK:   -6.29 KCAL/MOL
REMARK 923 INTER-LIGAND FREE ENERGY PREDICTED BY IDOCK:   -6.02 KCAL/MOL
REMARK 924 INTRA-LIGAND FREE ENERGY PREDICTED BY IDOCK:   -0.27 KCAL/MOL
REMARK 927      BINDING AFFINITY PREDICTED BY RF-SCORE:    0.00 PKD
ROOT
HETATM    1  C   UNL     1     -11.057  11.542  69.651  1.00  0.00    -0.211 C  
HETATM    2  C   UNL     1     -10.011   9.680  68.378  1.00  0.00    -0.178 A  
HETATM    3  C   UNL     1     -10.701  10.238  69.572  1.00  0.00    -0.280 C  
HETATM    4  C   UNL     1     -10.889   9.405  70.780  1.00  0.00    -0.372 A  
HETATM    5  C   UNL     1     -10.627   9.831  67.119  1.00  0.00    -0.298 A  
HETATM    6  C   UNL     1     -12.159   9.085  71.276  1.00  0.00    -0.375 A  
HETATM    7  C   UNL     1     -10.034   9.345  65.955  1.00  0.00    -0.327 A  
HETATM    8  C   UNL     1     -12.286   8.220  72.364  1.00  0.00    -0.385 A  
HETATM    9  C   UNL     1      -8.829   8.660  66.032  1.00  0.00    -0.213 A  
HETATM   10  C   UNL     1      -8.237   8.444  67.276  1.00  0.00    -0.112 A  
HETATM   11  C   UNL     1     -11.150   7.673  72.960  1.00  0.00    -0.437 A  
HETATM   12  C   UNL     1      -9.881   7.993  72.472  1.00  0.00    -0.330 A  
HETATM   13  C   UNL     1      -9.743   8.863  71.382  1.00  0.00    -0.370 A  
HETATM   14  C   UNL     1      -8.393   9.225  70.817  1.00  0.00    -0.186 C  
HETATM   15  O   UNL     1      -8.115   8.574  69.577  1.00  0.00    -0.107 OA 
HETATM   16  C   UNL     1      -8.815   8.941  68.454  1.00  0.00    -0.134 A  
ENDROOT
BRANCH   1  17
HETATM   17  C   UNL     1     -10.846  12.609  68.600  1.00  0.00    -0.281 C  
BRANCH  17  18
HETATM   18  C   UNL     1     -12.072  13.497  68.311  1.00  0.00    -0.260 C  
BRANCH  18  19
HETATM   19  N   UNL     1     -11.966  14.397  67.147  1.00  0.00    -0.414 NA 
HETATM   20  C   UNL     1     -10.659  15.053  67.072  1.00  0.00    -0.293 C  
HETATM   21  C   UNL     1     -12.211  13.639  65.917  1.00  0.00    -0.461 C  
ENDBRANCH  18  19
ENDBRANCH  17  18
ENDBRANCH   1  17
TORSDOF 3
ENDMDL
MODEL       47
REMARK 921   NORMALIZED FREE ENERGY PREDICTED BY IDOCK:   -5.10 KCAL/MOL
REMARK 922        TOTAL FREE ENERGY PREDICTED BY IDOCK:   -6.23 KCAL/MOL
REMARK 923 INTER-LIGAND FREE ENERGY PREDICTED BY IDOCK:   -5.68 KCAL/MOL
REMARK 924 INTRA-LIGAND FREE ENERGY PREDICTED BY IDOCK:   -0.55 KCAL/MOL
REMARK 927      BINDING AFFINITY PREDICTED BY RF-SCORE:    0.00 PKD
ROOT
HETATM    1  C   UNL     1     -12.036   9.571  71.032  1.00  0.00    -0.398 C  
HETATM    2  C   UNL     1      -9.718   9.529  70.137  1.00  0.00    -0.289 A  
HETATM    3  C   UNL     1     -11.058  10.153  70.299  1.00  0.00    -0.384 C  
HETATM    4  C   UNL     1     -11.412  11.369  69.533  1.00  0.00    -0.381 A  
HETATM    5  C   UNL     1      -8.983   9.214  71.298  1.00  0.00    -0.207 A  
HETATM    6  C   UNL     1     -11.735  12.578  70.160  1.00  0.00    -0.255 A  
HETATM    7  C   UNL     1      -7.725   8.617  71.225  1.00  0.00    -0.141 A  
HETATM    8  C   UNL     1     -11.970  13.721  69.394  1.00  0.00    -0.397 A  
HETATM    9  C   UNL     1      -7.158   8.360  69.984  1.00  0.00    -0.047 A  
HETATM   10  C   UNL     1      -7.842   8.724  68.824  1.00  0.00    -0.101 A  
HETATM   11  C   UNL     1     -11.884  13.661  68.003  1.00  0.00    -0.397 A  
HETATM   12  C   UNL     1     -11.566  12.456  67.373  1.00  0.00    -0.433 A  
HETATM   13  C   UNL     1     -11.331  11.303  68.134  1.00  0.00    -0.372 A  
HETATM   14  C   UNL     1     -10.975   9.985  67.493  1.00  0.00    -0.212 C  
HETATM   15  O   UNL     1      -9.595   9.649  67.641  1.00  0.00    -0.139 OA 
HETATM   16  C   UNL     1      -9.114   9.312  68.883  1.00  0.00    -0.139 A  
ENDROOT
BRANCH   1  17
HETATM   17  C   UNL     1     -11.951   8.265  71.791  1.00  0.00    -0.364 C  
BRANCH  17  18
HETATM   18  C   UNL     1     -12.113   6.995  70.932  1.00  0.00    -0.357 C  
BRANCH  18  19
HETATM   19  N   UNL     1     -11.124   5.925  71.157  1.00  0.00    -0.264 NA 
HETATM   20  C   UNL     1     -10.113   5.874  70.101  1.00  0.00    -0.202 C  
HETATM   21  C   UNL     1     -10.473   6.124  72.456  1.00  0.00    -0.201 C  
ENDBRANCH  18  19
ENDBRANCH  17  18
ENDBRANCH   1  17
TORSDOF 3
ENDMDL
MODEL       48
REMARK 921   NORMALIZED FREE ENERGY PREDICTED BY IDOCK:   -5.10 KCAL/MOL
REMARK 922        TOTAL FREE ENERGY PREDICTED BY IDOCK:   -6.23 KCAL/MOL
REMARK 923 INTER-LIGAND FREE ENERGY PREDICTED BY IDOCK:   -5.93 KCAL/MOL
REMARK 924 INTRA-LIGAND FREE ENERGY PREDICTED BY IDOCK:   -0.30 KCAL/MOL
REMARK 927      BINDING AFFINITY PREDICTED BY RF-SCORE:    0.00 PKD
ROOT
HETATM    1  C   UNL     1     -11.049  10.320  67.972  1.00  0.00    -0.336 C  
HETATM    2  C   UNL     1      -8.845  11.231  67.272  1.00  0.00    -0.150 A  
HETATM    3  C   UNL     1     -10.317  11.080  67.125  1.00  0.00    -0.259 C  
HETATM    4  C   UNL     1     -11.010  11.647  65.947  1.00  0.00    -0.334 A  
HETATM    5  C   UNL     1      -8.341  11.701  68.502  1.00  0.00    -0.140 A  
HETATM    6  C   UNL     1     -11.998  12.632  66.064  1.00  0.00    -0.478 A  
HETATM    7  C   UNL     1      -6.972  11.857  68.717  1.00  0.00    -0.104 A  
HETATM    8  C   UNL     1     -12.555  13.202  64.918  1.00  0.00    -0.468 A  
HETATM    9  C   UNL     1      -6.080  11.582  67.690  1.00  0.00    -0.062 A  
HETATM   10  C   UNL     1      -6.564  11.178  66.446  1.00  0.00    -0.108 A  
HETATM   11  C   UNL     1     -12.130  12.791  63.655  1.00  0.00    -0.624 A  
HETATM   12  C   UNL     1     -11.148  11.806  63.532  1.00  0.00    -0.503 A  
HETATM   13  C   UNL     1     -10.585  11.226  64.677  1.00  0.00    -0.392 A  
HETATM   14  C   UNL     1      -9.514  10.168  64.589  1.00  0.00    -0.297 C  
HETATM   15  O   UNL     1      -8.216  10.661  64.919  1.00  0.00    -0.148 OA 
HETATM   16  C   UNL     1      -7.937  11.004  66.220  1.00  0.00    -0.148 A  
ENDROOT
BRANCH   1  17
HETATM   17  C   UNL     1     -10.541   9.539  69.164  1.00  0.00    -0.237 C  
BRANCH  17  18
HETATM   18  C   UNL     1     -11.155   9.940  70.521  1.00  0.00    -0.332 C  
BRANCH  18  19
HETATM   19  N   UNL     1     -11.494   8.834  71.435  1.00  0.00    -0.276 NA 
HETATM   20  C   UNL     1     -11.870   7.616  70.716  1.00  0.00    -0.205 C  
HETATM   21  C   UNL     1     -10.354   8.557  72.314  1.00  0.00    -0.332 C  
ENDBRANCH  18  19
ENDBRANCH  17  18
ENDBRANCH   1  17
TORSDOF 3
ENDMDL
MODEL       49
REMARK 921   NORMALIZED FREE ENERGY PREDICTED BY IDOCK:   -5.10 KCAL/MOL
REMARK 922        TOTAL FREE ENERGY PREDICTED BY IDOCK:   -6.23 KCAL/MOL
REMARK 923 INTER-LIGAND FREE ENERGY PREDICTED BY IDOCK:   -5.96 KCAL/MOL
REMARK 924 INTRA-LIGAND FREE ENERGY PREDICTED BY IDOCK:   -0.27 KCAL/MOL
REMARK 927      BINDING AFFINITY PREDICTED BY RF-SCORE:    0.00 PKD
ROOT
HETATM    1  C   UNL     1      -8.704  12.600  67.270  1.00  0.00    -0.198 C  
HETATM    2  C   UNL     1     -10.520  13.031  65.628  1.00  0.00    -0.291 A  
HETATM    3  C   UNL     1      -9.529  13.472  66.646  1.00  0.00    -0.271 C  
HETATM    4  C   UNL     1      -9.519  14.876  67.115  1.00  0.00    -0.231 A  
HETATM    5  C   UNL     1     -10.053  12.310  64.510  1.00  0.00    -0.280 A  
HETATM    6  C   UNL     1      -8.412  15.714  66.940  1.00  0.00    -0.286 A  
HETATM    7  C   UNL     1     -10.923  11.853  63.522  1.00  0.00    -0.505 A  
HETATM    8  C   UNL     1      -8.485  17.056  67.316  1.00  0.00    -0.210 A  
HETATM    9  C   UNL     1     -12.278  12.144  63.612  1.00  0.00    -0.663 A  
HETATM   10  C   UNL     1     -12.749  12.911  64.677  1.00  0.00    -0.403 A  
HETATM   11  C   UNL     1      -9.660  17.565  67.868  1.00  0.00    -0.277 A  
HETATM   12  C   UNL     1     -10.766  16.732  68.049  1.00  0.00    -0.355 A  
HETATM   13  C   UNL     1     -10.702  15.383  67.676  1.00  0.00    -0.292 A  
HETATM   14  C   UNL     1     -11.876  14.452  67.845  1.00  0.00    -0.349 C  
HETATM   15  O   UNL     1     -12.529  14.151  66.611  1.00  0.00    -0.426 OA 
HETATM   16  C   UNL     1     -11.886  13.365  65.685  1.00  0.00    -0.370 A  
ENDROOT
BRANCH   1  17
HETATM   17  C   UNL     1      -8.629  11.104  67.054  1.00  0.00    -0.147 C  
BRANCH  17  18
HETATM   18  C   UNL     1      -7.225  10.560  66.722  1.00  0.00    -0.114 C  
BRANCH  18  19
HETATM   19  N   UNL     1      -7.126   9.696  65.531  1.00  0.00    -0.094 NA 
HETATM   20  C   UNL     1      -6.041  10.106  64.638  1.00  0.00    -0.128 C  
HETATM   21  C   UNL     1      -6.923   8.305  65.950  1.00  0.00    -0.064 C  
ENDBRANCH  18  19
ENDBRANCH  17  18
ENDBRANCH   1  17
TORSDOF 3
ENDMDL
MODEL       50
REMARK 921   NORMALIZED FREE ENERGY PREDICTED BY IDOCK:   -5.06 KCAL/MOL
REMARK 922        TOTAL FREE ENERGY PREDICTED BY IDOCK:   -6.18 KCAL/MOL
REMARK 923 INTER-LIGAND FREE ENERGY PREDICTED BY IDOCK:   -5.95 KCAL/MOL
REMARK 924 INTRA-LIGAND FREE ENERGY PREDICTED BY IDOCK:   -0.23 KCAL/MOL
REMARK 927      BINDING AFFINITY PREDICTED BY RF-SCORE:    0.00 PKD
ROOT
HETATM    1  C   UNL     1      -9.219   9.038  71.359  1.00  0.00    -0.293 C  
HETATM    2  C   UNL     1     -10.068   8.422  69.105  1.00  0.00    -0.206 A  
HETATM    3  C   UNL     1     -10.260   8.754  70.542  1.00  0.00    -0.240 C  
HETATM    4  C   UNL     1     -11.600   8.639  71.161  1.00  0.00    -0.330 A  
HETATM    5  C   UNL     1      -9.379   9.345  68.293  1.00  0.00    -0.140 A  
HETATM    6  C   UNL     1     -12.264   9.740  71.715  1.00  0.00    -0.449 A  
HETATM    7  C   UNL     1      -9.151   9.098  66.940  1.00  0.00    -0.163 A  
HETATM    8  C   UNL     1     -13.564   9.599  72.202  1.00  0.00    -0.471 A  
HETATM    9  C   UNL     1      -9.644   7.936  66.362  1.00  0.00    -0.251 A  
HETATM   10  C   UNL     1     -10.384   7.041  67.135  1.00  0.00    -0.351 A  
HETATM   11  C   UNL     1     -14.204   8.362  72.139  1.00  0.00    -0.486 A  
HETATM   12  C   UNL     1     -13.545   7.260  71.592  1.00  0.00    -0.435 A  
HETATM   13  C   UNL     1     -12.239   7.391  71.102  1.00  0.00    -0.357 A  
HETATM   14  C   UNL     1     -11.495   6.228  70.493  1.00  0.00    -0.338 C  
HETATM   15  O   UNL     1     -11.406   6.309  69.071  1.00  0.00    -0.390 OA 
HETATM   16  C   UNL     1     -10.609   7.271  68.500  1.00  0.00    -0.175 A  
ENDROOT
BRANCH   1  17
HETATM   17  C   UNL     1      -7.754   9.082  70.984  1.00  0.00    -0.153 C  
BRANCH  17  18
HETATM   18  C   UNL     1      -6.802   8.382  71.975  1.00  0.00    -0.089 C  
BRANCH  18  19
HETATM   19  N   UNL     1      -6.724   8.965  73.327  1.00  0.00    -0.332 NA 
HETATM   20  C   UNL     1      -7.408   8.142  74.325  1.00  0.00    -0.188 C  
HETATM   21  C   UNL     1      -5.318   9.137  73.707  1.00  0.00    -0.113 C  
ENDBRANCH  18  19
ENDBRANCH  17  18
ENDBRANCH   1  17
TORSDOF 3
ENDMDL
MODEL       51
REMARK 921   NORMALIZED FREE ENERGY PREDICTED BY IDOCK:   -5.04 KCAL/MOL
REMARK 922        TOTAL FREE ENERGY PREDICTED BY IDOCK:   -6.17 KCAL/MOL
REMARK 923 INTER-LIGAND FREE ENERGY PREDICTED BY IDOCK:   -5.64 KCAL/MOL
REMARK 924 INTRA-LIGAND FREE ENERGY PREDICTED BY IDOCK:   -0.53 KCAL/MOL
REMARK 927      BINDING AFFINITY PREDICTED BY RF-SCORE:    0.00 PKD
ROOT
HETATM    1  C   UNL     1      -9.276   9.077  71.298  1.00  0.00    -0.314 C  
HETATM    2  C   UNL     1     -10.106   8.326  69.078  1.00  0.00    -0.208 A  
HETATM    3  C   UNL     1     -10.311   8.755  70.487  1.00  0.00    -0.241 C  
HETATM    4  C   UNL     1     -11.660   8.698  71.094  1.00  0.00    -0.330 A  
HETATM    5  C   UNL     1      -9.394   9.185  68.216  1.00  0.00    -0.141 A  
HETATM    6  C   UNL     1     -12.315   9.842  71.566  1.00  0.00    -0.504 A  
HETATM    7  C   UNL     1      -9.152   8.846  66.886  1.00  0.00    -0.163 A  
HETATM    8  C   UNL     1     -13.623   9.751  72.044  1.00  0.00    -0.436 A  
HETATM    9  C   UNL     1      -9.654   7.655  66.379  1.00  0.00    -0.223 A  
HETATM   10  C   UNL     1     -10.416   6.823  67.199  1.00  0.00    -0.364 A  
HETATM   11  C   UNL     1     -14.280   8.521  72.053  1.00  0.00    -0.535 A  
HETATM   12  C   UNL     1     -13.630   7.376  71.588  1.00  0.00    -0.449 A  
HETATM   13  C   UNL     1     -12.316   7.458  71.109  1.00  0.00    -0.349 A  
HETATM   14  C   UNL     1     -11.581   6.248  70.588  1.00  0.00    -0.281 C  
HETATM   15  O   UNL     1     -11.473   6.233  69.164  1.00  0.00    -0.394 OA 
HETATM   16  C   UNL     1     -10.655   7.145  68.543  1.00  0.00    -0.187 A  
ENDROOT
BRANCH   1  17
HETATM   17  C   UNL     1      -7.806   9.077  70.941  1.00  0.00    -0.172 C  
BRANCH  17  18
HETATM   18  C   UNL     1      -7.075   7.739  71.169  1.00  0.00    -0.050 C  
BRANCH  18  19
HETATM   19  N   UNL     1      -7.909   6.609  71.618  1.00  0.00    -0.101 NA 
HETATM   20  C   UNL     1      -7.950   5.526  70.634  1.00  0.00    -0.103 C  
HETATM   21  C   UNL     1      -7.399   6.099  72.894  1.00  0.00    -0.093 C  
ENDBRANCH  18  19
ENDBRANCH  17  18
ENDBRANCH   1  17
TORSDOF 3
ENDMDL
MODEL       52
REMARK 921   NORMALIZED FREE ENERGY PREDICTED BY IDOCK:   -5.04 KCAL/MOL
REMARK 922        TOTAL FREE ENERGY PREDICTED BY IDOCK:   -6.16 KCAL/MOL
REMARK 923 INTER-LIGAND FREE ENERGY PREDICTED BY IDOCK:   -5.86 KCAL/MOL
REMARK 924 INTRA-LIGAND FREE ENERGY PREDICTED BY IDOCK:   -0.31 KCAL/MOL
REMARK 927      BINDING AFFINITY PREDICTED BY RF-SCORE:    0.00 PKD
ROOT
HETATM    1  C   UNL     1     -10.945   5.795  70.018  1.00  0.00    -0.382 C  
HETATM    2  C   UNL     1      -9.852   6.367  72.176  1.00  0.00    -0.170 A  
HETATM    3  C   UNL     1     -10.945   6.496  71.175  1.00  0.00    -0.314 C  
HETATM    4  C   UNL     1     -12.000   7.518  71.353  1.00  0.00    -0.336 A  
HETATM    5  C   UNL     1      -9.557   5.084  72.681  1.00  0.00    -0.165 A  
HETATM    6  C   UNL     1     -13.351   7.179  71.496  1.00  0.00    -0.413 A  
HETATM    7  C   UNL     1      -8.539   4.883  73.612  1.00  0.00    -0.104 A  
HETATM    8  C   UNL     1     -14.297   8.173  71.755  1.00  0.00    -0.582 A  
HETATM    9  C   UNL     1      -7.820   5.971  74.089  1.00  0.00    -0.100 A  
HETATM   10  C   UNL     1      -8.140   7.255  73.649  1.00  0.00    -0.145 A  
HETATM   11  C   UNL     1     -13.899   9.504  71.871  1.00  0.00    -0.338 A  
HETATM   12  C   UNL     1     -12.553   9.848  71.725  1.00  0.00    -0.506 A  
HETATM   13  C   UNL     1     -11.597   8.858  71.463  1.00  0.00    -0.388 A  
HETATM   14  C   UNL     1     -10.133   9.185  71.309  1.00  0.00    -0.318 C  
HETATM   15  O   UNL     1      -9.355   8.804  72.444  1.00  0.00    -0.331 OA 
HETATM   16  C   UNL     1      -9.152   7.470  72.702  1.00  0.00    -0.150 A  
ENDROOT
BRANCH   1  17
HETATM   17  C   UNL     1      -9.906   4.796  69.558  1.00  0.00    -0.292 C  
BRANCH  17  18
HETATM   18  C   UNL     1      -9.378   5.010  68.125  1.00  0.00    -0.126 C  
BRANCH  18  19
HETATM   19  N   UNL     1     -10.295   5.684  67.187  1.00  0.00    -0.220 NA 
HETATM   20  C   UNL     1      -9.779   6.980  66.743  1.00  0.00    -0.184 C  
HETATM   21  C   UNL     1     -10.531   4.821  66.026  1.00  0.00    -0.292 C  
ENDBRANCH  18  19
ENDBRANCH  17  18
ENDBRANCH   1  17
TORSDOF 3
ENDMDL
MODEL       53
REMARK 921   NORMALIZED FREE ENERGY PREDICTED BY IDOCK:   -5.02 KCAL/MOL
REMARK 922        TOTAL FREE ENERGY PREDICTED BY IDOCK:   -6.14 KCAL/MOL
REMARK 923 INTER-LIGAND FREE ENERGY PREDICTED BY IDOCK:   -5.90 KCAL/MOL
REMARK 924 INTRA-LIGAND FREE ENERGY PREDICTED BY IDOCK:   -0.25 KCAL/MOL
REMARK 927      BINDING AFFINITY PREDICTED BY RF-SCORE:    0.00 PKD
ROOT
HETATM    1  C   UNL     1      -9.195   9.990  69.586  1.00  0.00    -0.236 C  
HETATM    2  C   UNL     1     -11.508   9.821  70.481  1.00  0.00    -0.370 A  
HETATM    3  C   UNL     1     -10.517  10.252  69.459  1.00  0.00    -0.268 C  
HETATM    4  C   UNL     1     -10.935  11.117  68.334  1.00  0.00    -0.277 A  
HETATM    5  C   UNL     1     -11.572   8.452  70.813  1.00  0.00    -0.252 A  
HETATM    6  C   UNL     1     -10.832  10.708  66.999  1.00  0.00    -0.298 A  
HETATM    7  C   UNL     1     -12.467   7.975  71.770  1.00  0.00    -0.355 A  
HETATM    8  C   UNL     1     -11.326  11.523  65.979  1.00  0.00    -0.184 A  
HETATM    9  C   UNL     1     -13.347   8.855  72.385  1.00  0.00    -0.488 A  
HETATM   10  C   UNL     1     -13.343  10.202  72.022  1.00  0.00    -0.492 A  
HETATM   11  C   UNL     1     -11.923  12.745  66.287  1.00  0.00    -0.460 A  
HETATM   12  C   UNL     1     -12.024  13.160  67.616  1.00  0.00    -0.363 A  
HETATM   13  C   UNL     1     -11.528  12.350  68.647  1.00  0.00    -0.348 A  
HETATM   14  C   UNL     1     -11.627  12.755  70.096  1.00  0.00    -0.052 C  
HETATM   15  O   UNL     1     -12.630  12.032  70.809  1.00  0.00    -0.303 OA 
HETATM   16  C   UNL     1     -12.438  10.697  71.072  1.00  0.00    -0.413 A  
ENDROOT
BRANCH   1  17
HETATM   17  C   UNL     1      -8.519   9.243  70.715  1.00  0.00    -0.244 C  
BRANCH  17  18
HETATM   18  C   UNL     1      -6.999   9.042  70.552  1.00  0.00    -0.069 C  
BRANCH  18  19
HETATM   19  N   UNL     1      -6.139   9.782  71.493  1.00  0.00    -0.280 NA 
HETATM   20  C   UNL     1      -5.349   8.888  72.341  1.00  0.00    -0.059 C  
HETATM   21  C   UNL     1      -5.245  10.672  70.746  1.00  0.00    -0.087 C  
ENDBRANCH  18  19
ENDBRANCH  17  18
ENDBRANCH   1  17
TORSDOF 3
ENDMDL
MODEL       54
REMARK 921   NORMALIZED FREE ENERGY PREDICTED BY IDOCK:   -5.02 KCAL/MOL
REMARK 922        TOTAL FREE ENERGY PREDICTED BY IDOCK:   -6.13 KCAL/MOL
REMARK 923 INTER-LIGAND FREE ENERGY PREDICTED BY IDOCK:   -5.91 KCAL/MOL
REMARK 924 INTRA-LIGAND FREE ENERGY PREDICTED BY IDOCK:   -0.22 KCAL/MOL
REMARK 927      BINDING AFFINITY PREDICTED BY RF-SCORE:    0.00 PKD
ROOT
HETATM    1  C   UNL     1     -10.901  10.467  66.494  1.00  0.00    -0.128 C  
HETATM    2  C   UNL     1      -8.694  10.426  67.637  1.00  0.00    -0.118 A  
HETATM    3  C   UNL     1      -9.995   9.813  67.257  1.00  0.00    -0.242 C  
HETATM    4  C   UNL     1     -10.401   8.512  67.833  1.00  0.00    -0.281 A  
HETATM    5  C   UNL     1      -7.846  10.883  66.608  1.00  0.00    -0.145 A  
HETATM    6  C   UNL     1     -10.627   7.382  67.037  1.00  0.00    -0.414 A  
HETATM    7  C   UNL     1      -6.616  11.479  66.888  1.00  0.00    -0.138 A  
HETATM    8  C   UNL     1     -10.918   6.154  67.634  1.00  0.00    -0.400 A  
HETATM    9  C   UNL     1      -6.192  11.593  68.205  1.00  0.00    -0.046 A  
HETATM   10  C   UNL     1      -6.989  11.088  69.232  1.00  0.00    -0.116 A  
HETATM   11  C   UNL     1     -10.983   6.050  69.024  1.00  0.00    -0.409 A  
HETATM   12  C   UNL     1     -10.763   7.175  69.821  1.00  0.00    -0.257 A  
HETATM   13  C   UNL     1     -10.473   8.412  69.231  1.00  0.00    -0.223 A  
HETATM   14  C   UNL     1     -10.217   9.648  70.056  1.00  0.00    -0.255 C  
HETATM   15  O   UNL     1      -8.838  10.012  70.100  1.00  0.00    -0.165 OA 
HETATM   16  C   UNL     1      -8.234  10.499  68.966  1.00  0.00    -0.145 A  
ENDROOT
BRANCH   1  17
HETATM   17  C   UNL     1     -10.764  11.855  65.907  1.00  0.00    -0.326 C  
BRANCH  17  18
HETATM   18  C   UNL     1     -12.030  12.731  65.991  1.00  0.00    -0.432 C  
BRANCH  18  19
HETATM   19  N   UNL     1     -12.602  13.176  64.707  1.00  0.00    -0.644 NA 
HETATM   20  C   UNL     1     -12.184  14.534  64.356  1.00  0.00    -0.458 C  
HETATM   21  C   UNL     1     -12.206  12.246  63.645  1.00  0.00    -0.567 C  
ENDBRANCH  18  19
ENDBRANCH  17  18
ENDBRANCH   1  17
TORSDOF 3
ENDMDL
MODEL       55
REMARK 921   NORMALIZED FREE ENERGY PREDICTED BY IDOCK:   -5.01 KCAL/MOL
REMARK 922        TOTAL FREE ENERGY PREDICTED BY IDOCK:   -6.12 KCAL/MOL
REMARK 923 INTER-LIGAND FREE ENERGY PREDICTED BY IDOCK:   -5.80 KCAL/MOL
REMARK 924 INTRA-LIGAND FREE ENERGY PREDICTED BY IDOCK:   -0.32 KCAL/MOL
REMARK 927      BINDING AFFINITY PREDICTED BY RF-SCORE:    0.00 PKD
ROOT
HETATM    1  C   UNL     1     -10.420   5.817  70.677  1.00  0.00    -0.331 C  
HETATM    2  C   UNL     1     -12.123   7.615  70.895  1.00  0.00    -0.226 A  
HETATM    3  C   UNL     1     -11.015   6.927  70.180  1.00  0.00    -0.322 C  
HETATM    4  C   UNL     1     -10.427   7.528  68.963  1.00  0.00    -0.216 A  
HETATM    5  C   UNL     1     -13.269   6.865  71.230  1.00  0.00    -0.237 A  
HETATM    6  C   UNL     1     -10.465   6.885  67.720  1.00  0.00    -0.279 A  
HETATM    7  C   UNL     1     -14.343   7.438  71.910  1.00  0.00    -0.520 A  
HETATM    8  C   UNL     1      -9.979   7.534  66.583  1.00  0.00    -0.270 A  
HETATM    9  C   UNL     1     -14.308   8.788  72.234  1.00  0.00    -0.468 A  
HETATM   10  C   UNL     1     -13.210   9.561  71.854  1.00  0.00    -0.524 A  
HETATM   11  C   UNL     1      -9.456   8.823  66.683  1.00  0.00    -0.263 A  
HETATM   12  C   UNL     1      -9.413   9.467  67.921  1.00  0.00    -0.150 A  
HETATM   13  C   UNL     1      -9.895   8.823  69.068  1.00  0.00    -0.183 A  
HETATM   14  C   UNL     1      -9.876   9.486  70.422  1.00  0.00    -0.271 C  
HETATM   15  O   UNL     1     -11.167   9.926  70.844  1.00  0.00    -0.315 OA 
HETATM   16  C   UNL     1     -12.117   8.993  71.183  1.00  0.00    -0.287 A  
ENDROOT
BRANCH   1  17
HETATM   17  C   UNL     1     -10.758   5.103  71.967  1.00  0.00    -0.236 C  
BRANCH  17  18
HETATM   18  C   UNL     1      -9.545   4.614  72.785  1.00  0.00    -0.134 C  
BRANCH  18  19
HETATM   19  N   UNL     1      -9.238   5.372  74.012  1.00  0.00    -0.121 NA 
HETATM   20  C   UNL     1      -7.917   5.999  73.960  1.00  0.00    -0.103 C  
HETATM   21  C   UNL     1     -10.264   6.398  74.224  1.00  0.00    -0.344 C  
ENDBRANCH  18  19
ENDBRANCH  17  18
ENDBRANCH   1  17
TORSDOF 3
ENDMDL
MODEL       56
REMARK 921   NORMALIZED FREE ENERGY PREDICTED BY IDOCK:   -4.99 KCAL/MOL
REMARK 922        TOTAL FREE ENERGY PREDICTED BY IDOCK:   -6.11 KCAL/MOL
REMARK 923 INTER-LIGAND FREE ENERGY PREDICTED BY IDOCK:   -5.85 KCAL/MOL
REMARK 924 INTRA-LIGAND FREE ENERGY PREDICTED BY IDOCK:   -0.26 KCAL/MOL
REMARK 927      BINDING AFFINITY PREDICTED BY RF-SCORE:    0.00 PKD
ROOT
HETATM    1  C   UNL     1     -11.683  13.440  66.917  1.00  0.00    -0.434 C  
HETATM    2  C   UNL     1      -9.453  14.507  66.653  1.00  0.00    -0.301 A  
HETATM    3  C   UNL     1     -10.435  13.419  66.394  1.00  0.00    -0.286 C  
HETATM    4  C   UNL     1     -10.019  12.198  65.670  1.00  0.00    -0.271 A  
HETATM    5  C   UNL     1      -9.820  15.828  66.328  1.00  0.00    -0.320 A  
HETATM    6  C   UNL     1     -10.595  11.821  64.450  1.00  0.00    -0.368 A  
HETATM    7  C   UNL     1      -8.958  16.901  66.553  1.00  0.00    -0.303 A  
HETATM    8  C   UNL     1     -10.104  10.712  63.760  1.00  0.00    -0.336 A  
HETATM    9  C   UNL     1      -7.691  16.666  67.071  1.00  0.00    -0.235 A  
HETATM   10  C   UNL     1      -7.287  15.358  67.338  1.00  0.00    -0.244 A  
HETATM   11  C   UNL     1      -9.041   9.976  64.282  1.00  0.00    -0.296 A  
HETATM   12  C   UNL     1      -8.467  10.345  65.500  1.00  0.00    -0.171 A  
HETATM   13  C   UNL     1      -8.954  11.456  66.202  1.00  0.00    -0.207 A  
HETATM   14  C   UNL     1      -8.355  11.894  67.515  1.00  0.00    -0.158 C  
HETATM   15  O   UNL     1      -7.548  13.066  67.395  1.00  0.00    -0.154 OA 
HETATM   16  C   UNL     1      -8.150  14.272  67.130  1.00  0.00    -0.129 A  
ENDROOT
BRANCH   1  17
HETATM   17  C   UNL     1     -12.284  14.514  67.797  1.00  0.00    -0.148 C  
BRANCH  17  18
HETATM   18  C   UNL     1     -12.030  14.343  69.308  1.00  0.00    -0.324 C  
BRANCH  18  19
HETATM   19  N   UNL     1     -12.447  15.464  70.170  1.00  0.00    -0.364 NA 
HETATM   20  C   UNL     1     -13.400  15.047  71.199  1.00  0.00    -0.445 C  
HETATM   21  C   UNL     1     -11.266  16.062  70.802  1.00  0.00    -0.352 C  
ENDBRANCH  18  19
ENDBRANCH  17  18
ENDBRANCH   1  17
TORSDOF 3
ENDMDL
MODEL       57
REMARK 921   NORMALIZED FREE ENERGY PREDICTED BY IDOCK:   -4.99 KCAL/MOL
REMARK 922        TOTAL FREE ENERGY PREDICTED BY IDOCK:   -6.10 KCAL/MOL
REMARK 923 INTER-LIGAND FREE ENERGY PREDICTED BY IDOCK:   -5.71 KCAL/MOL
REMARK 924 INTRA-LIGAND FREE ENERGY PREDICTED BY IDOCK:   -0.39 KCAL/MOL
REMARK 927      BINDING AFFINITY PREDICTED BY RF-SCORE:    0.00 PKD
ROOT
HETATM    1  C   UNL     1      -8.949   9.757  70.155  1.00  0.00    -0.235 C  
HETATM    2  C   UNL     1     -10.246   8.053  68.893  1.00  0.00    -0.220 A  
HETATM    3  C   UNL     1     -10.128   9.146  69.895  1.00  0.00    -0.219 C  
HETATM    4  C   UNL     1     -11.283   9.499  70.751  1.00  0.00    -0.383 A  
HETATM    5  C   UNL     1      -9.819   8.307  67.574  1.00  0.00    -0.231 A  
HETATM    6  C   UNL     1     -11.873  10.768  70.722  1.00  0.00    -0.443 A  
HETATM    7  C   UNL     1      -9.887   7.328  66.584  1.00  0.00    -0.257 A  
HETATM    8  C   UNL     1     -13.017  11.024  71.479  1.00  0.00    -0.553 A  
HETATM    9  C   UNL     1     -10.424   6.083  66.885  1.00  0.00    -0.344 A  
HETATM   10  C   UNL     1     -10.911   5.834  68.168  1.00  0.00    -0.249 A  
HETATM   11  C   UNL     1     -13.575  10.016  72.266  1.00  0.00    -0.282 A  
HETATM   12  C   UNL     1     -12.988   8.750  72.302  1.00  0.00    -0.462 A  
HETATM   13  C   UNL     1     -11.837   8.485  71.547  1.00  0.00    -0.353 A  
HETATM   14  C   UNL     1     -11.178   7.128  71.549  1.00  0.00    -0.245 C  
HETATM   15  O   UNL     1     -11.419   6.391  70.350  1.00  0.00    -0.361 OA 
HETATM   16  C   UNL     1     -10.835   6.806  69.177  1.00  0.00    -0.258 A  
ENDROOT
BRANCH   1  17
HETATM   17  C   UNL     1      -7.613   9.473  69.505  1.00  0.00    -0.096 C  
BRANCH  17  18
HETATM   18  C   UNL     1      -7.123  10.547  68.514  1.00  0.00    -0.075 C  
BRANCH  18  19
HETATM   19  N   UNL     1      -8.123  11.542  68.083  1.00  0.00    -0.138 NA 
HETATM   20  C   UNL     1      -7.699  12.913  68.370  1.00  0.00    -0.133 C  
HETATM   21  C   UNL     1      -8.377  11.392  66.647  1.00  0.00    -0.172 C  
ENDBRANCH  18  19
ENDBRANCH  17  18
ENDBRANCH   1  17
TORSDOF 3
ENDMDL
MODEL       58
REMARK 921   NORMALIZED FREE ENERGY PREDICTED BY IDOCK:   -4.92 KCAL/MOL
REMARK 922        TOTAL FREE ENERGY PREDICTED BY IDOCK:   -6.02 KCAL/MOL
REMARK 923 INTER-LIGAND FREE ENERGY PREDICTED BY IDOCK:   -5.70 KCAL/MOL
REMARK 924 INTRA-LIGAND FREE ENERGY PREDICTED BY IDOCK:   -0.32 KCAL/MOL
REMARK 927      BINDING AFFINITY PREDICTED BY RF-SCORE:    0.00 PKD
ROOT
HETATM    1  C   UNL     1     -10.683   8.183  70.036  1.00  0.00    -0.243 C  
HETATM    2  C   UNL     1     -10.479   9.943  68.293  1.00  0.00    -0.246 A  
HETATM    3  C   UNL     1     -10.462   8.526  68.746  1.00  0.00    -0.208 C  
HETATM    4  C   UNL     1     -10.054   7.452  67.815  1.00  0.00    -0.232 A  
HETATM    5  C   UNL     1     -11.634  10.711  68.546  1.00  0.00    -0.279 A  
HETATM    6  C   UNL     1     -10.918   6.414  67.447  1.00  0.00    -0.463 A  
HETATM    7  C   UNL     1     -11.719  12.048  68.161  1.00  0.00    -0.398 A  
HETATM    8  C   UNL     1     -10.518   5.476  66.493  1.00  0.00    -0.331 A  
HETATM    9  C   UNL     1     -10.662  12.635  67.479  1.00  0.00    -0.247 A  
HETATM   10  C   UNL     1      -9.536  11.873  67.164  1.00  0.00    -0.192 A  
HETATM   11  C   UNL     1      -9.257   5.571  65.906  1.00  0.00    -0.158 A  
HETATM   12  C   UNL     1      -8.389   6.601  66.272  1.00  0.00    -0.125 A  
HETATM   13  C   UNL     1      -8.781   7.546  67.230  1.00  0.00    -0.121 A  
HETATM   14  C   UNL     1      -7.879   8.680  67.646  1.00  0.00    -0.103 C  
HETATM   15  O   UNL     1      -8.280   9.938  67.103  1.00  0.00    -0.119 OA 
HETATM   16  C   UNL     1      -9.433  10.530  67.557  1.00  0.00    -0.149 A  
ENDROOT
BRANCH   1  17
HETATM   17  C   UNL     1     -10.984   9.115  71.189  1.00  0.00    -0.390 C  
BRANCH  17  18
HETATM   18  C   UNL     1     -11.928   8.544  72.266  1.00  0.00    -0.385 C  
BRANCH  18  19
HETATM   19  N   UNL     1     -13.198   9.265  72.469  1.00  0.00    -0.418 NA 
HETATM   20  C   UNL     1     -13.195  10.583  71.833  1.00  0.00    -0.420 C  
HETATM   21  C   UNL     1     -14.307   8.463  71.941  1.00  0.00    -0.473 C  
ENDBRANCH  18  19
ENDBRANCH  17  18
ENDBRANCH   1  17
TORSDOF 3
ENDMDL
MODEL       59
REMARK 921   NORMALIZED FREE ENERGY PREDICTED BY IDOCK:   -4.91 KCAL/MOL
REMARK 922        TOTAL FREE ENERGY PREDICTED BY IDOCK:   -6.00 KCAL/MOL
REMARK 923 INTER-LIGAND FREE ENERGY PREDICTED BY IDOCK:   -5.79 KCAL/MOL
REMARK 924 INTRA-LIGAND FREE ENERGY PREDICTED BY IDOCK:   -0.21 KCAL/MOL
REMARK 927      BINDING AFFINITY PREDICTED BY RF-SCORE:    0.00 PKD
ROOT
HETATM    1  C   UNL     1     -10.796  12.562  69.030  1.00  0.00    -0.183 C  
HETATM    2  C   UNL     1     -10.780  13.421  66.698  1.00  0.00    -0.282 A  
HETATM    3  C   UNL     1     -10.139  12.756  67.863  1.00  0.00    -0.231 C  
HETATM    4  C   UNL     1      -8.699  12.416  67.827  1.00  0.00    -0.176 A  
HETATM    5  C   UNL     1     -11.984  12.882  66.201  1.00  0.00    -0.491 A  
HETATM    6  C   UNL     1      -8.241  11.097  67.929  1.00  0.00    -0.121 A  
HETATM    7  C   UNL     1     -12.649  13.458  65.119  1.00  0.00    -0.495 A  
HETATM    8  C   UNL     1      -6.880  10.818  67.796  1.00  0.00    -0.073 A  
HETATM    9  C   UNL     1     -12.099  14.565  64.486  1.00  0.00    -0.501 A  
HETATM   10  C   UNL     1     -10.876  15.073  64.923  1.00  0.00    -0.430 A  
HETATM   11  C   UNL     1      -5.974  11.852  67.562  1.00  0.00    -0.099 A  
HETATM   12  C   UNL     1      -6.425  13.170  67.465  1.00  0.00    -0.154 A  
HETATM   13  C   UNL     1      -7.789  13.460  67.600  1.00  0.00    -0.174 A  
HETATM   14  C   UNL     1      -8.319  14.867  67.490  1.00  0.00    -0.180 C  
HETATM   15  O   UNL     1      -8.992  15.114  66.256  1.00  0.00    -0.289 OA 
HETATM   16  C   UNL     1     -10.204  14.512  66.019  1.00  0.00    -0.315 A  
ENDROOT
BRANCH   1  17
HETATM   17  C   UNL     1     -12.225  12.948  69.346  1.00  0.00    -0.145 C  
BRANCH  17  18
HETATM   18  C   UNL     1     -12.489  13.342  70.813  1.00  0.00    -0.341 C  
BRANCH  18  19
HETATM   19  N   UNL     1     -12.551  14.787  71.099  1.00  0.00    -0.313 NA 
HETATM   20  C   UNL     1     -12.211  15.599  69.929  1.00  0.00    -0.294 C  
HETATM   21  C   UNL     1     -13.895  15.137  71.569  1.00  0.00    -0.508 C  
ENDBRANCH  18  19
ENDBRANCH  17  18
ENDBRANCH   1  17
TORSDOF 3
ENDMDL
MODEL       60
REMARK 921   NORMALIZED FREE ENERGY PREDICTED BY IDOCK:   -4.89 KCAL/MOL
REMARK 922        TOTAL FREE ENERGY PREDICTED BY IDOCK:   -5.98 KCAL/MOL
REMARK 923 INTER-LIGAND FREE ENERGY PREDICTED BY IDOCK:   -5.65 KCAL/MOL
REMARK 924 INTRA-LIGAND FREE ENERGY PREDICTED BY IDOCK:   -0.33 KCAL/MOL
REMARK 927      BINDING AFFINITY PREDICTED BY RF-SCORE:    0.00 PKD
ROOT
HETATM    1  C   UNL     1     -10.289  10.094  67.575  1.00  0.00    -0.279 C  
HETATM    2  C   UNL     1      -9.604   9.915  65.192  1.00  0.00    -0.367 A  
HETATM    3  C   UNL     1      -9.955   9.326  66.511  1.00  0.00    -0.344 C  
HETATM    4  C   UNL     1      -9.806   7.872  66.741  1.00  0.00    -0.318 A  
HETATM    5  C   UNL     1     -10.535  10.776  64.576  1.00  0.00    -0.351 A  
HETATM    6  C   UNL     1     -10.895   7.051  67.062  1.00  0.00    -0.413 A  
HETATM    7  C   UNL     1     -10.270  11.374  63.345  1.00  0.00    -0.457 A  
HETATM    8  C   UNL     1     -10.719   5.671  67.177  1.00  0.00    -0.316 A  
HETATM    9  C   UNL     1      -9.082  11.091  62.685  1.00  0.00    -0.375 A  
HETATM   10  C   UNL     1      -8.177  10.192  63.248  1.00  0.00    -0.162 A  
HETATM   11  C   UNL     1      -9.460   5.107  66.974  1.00  0.00    -0.143 A  
HETATM   12  C   UNL     1      -8.370   5.921  66.659  1.00  0.00    -0.110 A  
HETATM   13  C   UNL     1      -8.536   7.308  66.543  1.00  0.00    -0.134 A  
HETATM   14  C   UNL     1      -7.389   8.222  66.193  1.00  0.00    -0.077 C  
HETATM   15  O   UNL     1      -7.446   8.697  64.848  1.00  0.00    -0.087 OA 
HETATM   16  C   UNL     1      -8.424   9.594  64.493  1.00  0.00    -0.178 A  
ENDROOT
BRANCH   1  17
HETATM   17  C   UNL     1     -10.375  11.604  67.616  1.00  0.00    -0.210 C  
BRANCH  17  18
HETATM   18  C   UNL     1     -11.781  12.173  67.895  1.00  0.00    -0.336 C  
BRANCH  18  19
HETATM   19  N   UNL     1     -12.005  13.577  67.504  1.00  0.00    -0.362 NA 
HETATM   20  C   UNL     1     -11.854  14.498  68.632  1.00  0.00    -0.320 C  
HETATM   21  C   UNL     1     -11.069  13.944  66.436  1.00  0.00    -0.309 C  
ENDBRANCH  18  19
ENDBRANCH  17  18
ENDBRANCH   1  17
TORSDOF 3
ENDMDL
MODEL       61
REMARK 921   NORMALIZED FREE ENERGY PREDICTED BY IDOCK:   -4.81 KCAL/MOL
REMARK 922        TOTAL FREE ENERGY PREDICTED BY IDOCK:   -5.90 KCAL/MOL
REMARK 923 INTER-LIGAND FREE ENERGY PREDICTED BY IDOCK:   -5.63 KCAL/MOL
REMARK 924 INTRA-LIGAND FREE ENERGY PREDICTED BY IDOCK:   -0.26 KCAL/MOL
REMARK 927      BINDING AFFINITY PREDICTED BY RF-SCORE:    0.00 PKD
ROOT
HETATM    1  C   UNL     1      -8.800  15.478  66.556  1.00  0.00    -0.348 C  
HETATM    2  C   UNL     1     -10.466  14.787  68.267  1.00  0.00    -0.241 A  
HETATM    3  C   UNL     1      -9.520  14.501  67.155  1.00  0.00    -0.236 C  
HETATM    4  C   UNL     1      -9.450  13.144  66.567  1.00  0.00    -0.246 A  
HETATM    5  C   UNL     1      -9.972  15.447  69.410  1.00  0.00    -0.272 A  
HETATM    6  C   UNL     1      -8.280  12.376  66.600  1.00  0.00     0.054 A  
HETATM    7  C   UNL     1     -10.800  15.759  70.487  1.00  0.00    -0.319 A  
HETATM    8  C   UNL     1      -8.290  11.067  66.116  1.00  0.00    -0.163 A  
HETATM    9  C   UNL     1     -12.136  15.380  70.458  1.00  0.00    -0.411 A  
HETATM   10  C   UNL     1     -12.628  14.669  69.363  1.00  0.00     0.022 A  
HETATM   11  C   UNL     1      -9.464  10.522  65.598  1.00  0.00    -0.259 A  
HETATM   12  C   UNL     1     -10.633  11.285  65.559  1.00  0.00    -0.306 A  
HETATM   13  C   UNL     1     -10.632  12.601  66.040  1.00  0.00    -0.294 A  
HETATM   14  C   UNL     1     -11.875  13.456  66.026  1.00  0.00    -0.383 C  
HETATM   15  O   UNL     1     -12.459  13.609  67.320  1.00  0.00    -0.232 OA 
HETATM   16  C   UNL     1     -11.808  14.361  68.267  1.00  0.00    -0.326 A  
ENDROOT
BRANCH   1  17
HETATM   17  C   UNL     1      -8.808  16.952  66.894  1.00  0.00    -0.248 C  
BRANCH  17  18
HETATM   18  C   UNL     1      -9.989  17.753  66.308  1.00  0.00    -0.318 C  
BRANCH  18  19
HETATM   19  N   UNL     1     -10.030  19.189  66.639  1.00  0.00    -0.348 NA 
HETATM   20  C   UNL     1     -10.526  19.431  67.995  1.00  0.00    -0.399 C  
HETATM   21  C   UNL     1      -8.690  19.766  66.492  1.00  0.00    -0.360 C  
ENDBRANCH  18  19
ENDBRANCH  17  18
ENDBRANCH   1  17
TORSDOF 3
ENDMDL
MODEL       62
REMARK 921   NORMALIZED FREE ENERGY PREDICTED BY IDOCK:   -4.77 KCAL/MOL
REMARK 922        TOTAL FREE ENERGY PREDICTED BY IDOCK:   -5.85 KCAL/MOL
REMARK 923 INTER-LIGAND FREE ENERGY PREDICTED BY IDOCK:   -5.53 KCAL/MOL
REMARK 924 INTRA-LIGAND FREE ENERGY PREDICTED BY IDOCK:   -0.31 KCAL/MOL
REMARK 927      BINDING AFFINITY PREDICTED BY RF-SCORE:    0.00 PKD
ROOT
HETATM    1  C   UNL     1     -11.422  10.419  69.366  1.00  0.00    -0.292 C  
HETATM    2  C   UNL     1      -9.151  10.655  68.384  1.00  0.00    -0.156 A  
HETATM    3  C   UNL     1     -10.575  11.059  68.527  1.00  0.00    -0.218 C  
HETATM    4  C   UNL     1     -11.150  12.091  67.636  1.00  0.00    -0.319 A  
HETATM    5  C   UNL     1      -8.348  10.618  69.542  1.00  0.00    -0.013 A  
HETATM    6  C   UNL     1     -11.664  13.298  68.126  1.00  0.00    -0.397 A  
HETATM    7  C   UNL     1      -7.008  10.237  69.488  1.00  0.00    -0.096 A  
HETATM    8  C   UNL     1     -12.109  14.279  67.238  1.00  0.00    -0.390 A  
HETATM    9  C   UNL     1      -6.432   9.925  68.264  1.00  0.00    -0.055 A  
HETATM   10  C   UNL     1      -7.193  10.019  67.099  1.00  0.00    -0.090 A  
HETATM   11  C   UNL     1     -12.044  14.059  65.862  1.00  0.00    -0.448 A  
HETATM   12  C   UNL     1     -11.536  12.855  65.369  1.00  0.00    -0.386 A  
HETATM   13  C   UNL     1     -11.089  11.864  66.252  1.00  0.00    -0.364 A  
HETATM   14  C   UNL     1     -10.524  10.555  65.761  1.00  0.00    -0.143 C  
HETATM   15  O   UNL     1      -9.104  10.479  65.889  1.00  0.00    -0.158 OA 
HETATM   16  C   UNL     1      -8.546  10.386  67.141  1.00  0.00    -0.130 A  
ENDROOT
BRANCH   1  17
HETATM   17  C   UNL     1     -11.097   9.252  70.273  1.00  0.00    -0.289 C  
BRANCH  17  18
HETATM   18  C   UNL     1     -11.528   9.423  71.743  1.00  0.00    -0.343 C  
BRANCH  18  19
HETATM   19  N   UNL     1     -12.539   8.473  72.241  1.00  0.00    -0.377 NA 
HETATM   20  C   UNL     1     -13.871   9.073  72.322  1.00  0.00    -0.484 C  
HETATM   21  C   UNL     1     -12.579   7.296  71.367  1.00  0.00    -0.388 C  
ENDBRANCH  18  19
ENDBRANCH  17  18
ENDBRANCH   1  17
TORSDOF 3
ENDMDL
MODEL       63
REMARK 921   NORMALIZED FREE ENERGY PREDICTED BY IDOCK:   -4.74 KCAL/MOL
REMARK 922        TOTAL FREE ENERGY PREDICTED BY IDOCK:   -5.81 KCAL/MOL
REMARK 923 INTER-LIGAND FREE ENERGY PREDICTED BY IDOCK:   -5.53 KCAL/MOL
REMARK 924 INTRA-LIGAND FREE ENERGY PREDICTED BY IDOCK:   -0.27 KCAL/MOL
REMARK 927      BINDING AFFINITY PREDICTED BY RF-SCORE:    0.00 PKD
ROOT
HETATM    1  C   UNL     1     -10.409  10.090  66.924  1.00  0.00    -0.297 C  
HETATM    2  C   UNL     1     -10.435   8.685  68.974  1.00  0.00    -0.216 A  
HETATM    3  C   UNL     1      -9.969   9.002  67.598  1.00  0.00    -0.252 C  
HETATM    4  C   UNL     1      -9.112   8.045  66.863  1.00  0.00    -0.182 A  
HETATM    5  C   UNL     1     -10.272   9.662  69.976  1.00  0.00    -0.296 A  
HETATM    6  C   UNL     1      -7.818   8.373  66.440  1.00  0.00    -0.098 A  
HETATM    7  C   UNL     1     -10.695   9.442  71.286  1.00  0.00    -0.421 A  
HETATM    8  C   UNL     1      -7.016   7.407  65.833  1.00  0.00    -0.061 A  
HETATM    9  C   UNL     1     -11.255   8.219  71.630  1.00  0.00    -0.330 A  
HETATM   10  C   UNL     1     -11.366   7.216  70.667  1.00  0.00    -0.327 A  
HETATM   11  C   UNL     1      -7.499   6.112  65.646  1.00  0.00    -0.082 A  
HETATM   12  C   UNL     1      -8.791   5.781  66.061  1.00  0.00    -0.150 A  
HETATM   13  C   UNL     1      -9.605   6.745  66.670  1.00  0.00    -0.211 A  
HETATM   14  C   UNL     1     -11.001   6.426  67.143  1.00  0.00    -0.399 C  
HETATM   15  O   UNL     1     -11.093   6.307  68.563  1.00  0.00    -0.334 OA 
HETATM   16  C   UNL     1     -10.958   7.430  69.342  1.00  0.00    -0.108 A  
ENDROOT
BRANCH   1  17
HETATM   17  C   UNL     1     -11.387  11.133  67.418  1.00  0.00    -0.329 C  
BRANCH  17  18
HETATM   18  C   UNL     1     -10.912  12.594  67.284  1.00  0.00    -0.256 C  
BRANCH  18  19
HETATM   19  N   UNL     1     -11.811  13.508  66.557  1.00  0.00    -0.377 NA 
HETATM   20  C   UNL     1     -11.125  14.721  66.110  1.00  0.00    -0.339 C  
HETATM   21  C   UNL     1     -12.389  12.813  65.403  1.00  0.00    -0.470 C  
ENDBRANCH  18  19
ENDBRANCH  17  18
ENDBRANCH   1  17
TORSDOF 3
ENDMDL
MODEL       64
REMARK 921   NORMALIZED FREE ENERGY PREDICTED BY IDOCK:   -4.73 KCAL/MOL
REMARK 922        TOTAL FREE ENERGY PREDICTED BY IDOCK:   -5.80 KCAL/MOL
REMARK 923 INTER-LIGAND FREE ENERGY PREDICTED BY IDOCK:   -5.41 KCAL/MOL
REMARK 924 INTRA-LIGAND FREE ENERGY PREDICTED BY IDOCK:   -0.39 KCAL/MOL
REMARK 927      BINDING AFFINITY PREDICTED BY RF-SCORE:    0.00 PKD
ROOT
HETATM    1  C   UNL     1      -8.436   9.274  70.709  1.00  0.00    -0.244 C  
HETATM    2  C   UNL     1      -9.688   7.289  69.889  1.00  0.00    -0.174 A  
HETATM    3  C   UNL     1      -9.616   8.653  70.478  1.00  0.00    -0.210 C  
HETATM    4  C   UNL     1     -10.843   9.317  70.970  1.00  0.00    -0.385 A  
HETATM    5  C   UNL     1      -9.059   7.064  68.647  1.00  0.00    -0.132 A  
HETATM    6  C   UNL     1     -11.310  10.521  70.429  1.00  0.00    -0.411 A  
HETATM    7  C   UNL     1      -9.074   5.810  68.039  1.00  0.00    -0.110 A  
HETATM    8  C   UNL     1     -12.522  11.059  70.863  1.00  0.00    -0.509 A  
HETATM    9  C   UNL     1      -9.755   4.762  68.643  1.00  0.00    -0.223 A  
HETATM   10  C   UNL     1     -10.437   4.981  69.840  1.00  0.00    -0.214 A  
HETATM   11  C   UNL     1     -13.271  10.400  71.838  1.00  0.00    -0.535 A  
HETATM   12  C   UNL     1     -12.808   9.201  72.384  1.00  0.00    -0.438 A  
HETATM   13  C   UNL     1     -11.591   8.654  71.956  1.00  0.00    -0.440 A  
HETATM   14  C   UNL     1     -11.061   7.356  72.513  1.00  0.00    -0.304 C  
HETATM   15  O   UNL     1     -11.195   6.265  71.602  1.00  0.00    -0.262 OA 
HETATM   16  C   UNL     1     -10.418   6.235  70.470  1.00  0.00    -0.221 A  
ENDROOT
BRANCH   1  17
HETATM   17  C   UNL     1      -7.052   8.738  70.415  1.00  0.00    -0.048 C  
BRANCH  17  18
HETATM   18  C   UNL     1      -6.312   8.132  71.625  1.00  0.00    -0.045 C  
BRANCH  18  19
HETATM   19  N   UNL     1      -6.627   8.718  72.941  1.00  0.00    -0.295 NA 
HETATM   20  C   UNL     1      -7.212   7.738  73.858  1.00  0.00    -0.122 C  
HETATM   21  C   UNL     1      -5.408   9.281  73.531  1.00  0.00    -0.088 C  
ENDBRANCH  18  19
ENDBRANCH  17  18
ENDBRANCH   1  17
TORSDOF 3
ENDMDL
MODEL       65
REMARK 921   NORMALIZED FREE ENERGY PREDICTED BY IDOCK:   -4.73 KCAL/MOL
REMARK 922        TOTAL FREE ENERGY PREDICTED BY IDOCK:   -5.79 KCAL/MOL
REMARK 923 INTER-LIGAND FREE ENERGY PREDICTED BY IDOCK:   -5.34 KCAL/MOL
REMARK 924 INTRA-LIGAND FREE ENERGY PREDICTED BY IDOCK:   -0.45 KCAL/MOL
REMARK 927      BINDING AFFINITY PREDICTED BY RF-SCORE:    0.00 PKD
ROOT
HETATM    1  C   UNL     1     -11.270  15.220  66.338  1.00  0.00    -0.224 C  
HETATM    2  C   UNL     1     -11.281  15.593  68.795  1.00  0.00    -0.332 A  
HETATM    3  C   UNL     1     -10.899  15.963  67.406  1.00  0.00    -0.291 C  
HETATM    4  C   UNL     1      -9.967  17.087  67.165  1.00  0.00    -0.281 A  
HETATM    5  C   UNL     1     -12.649  15.428  69.090  1.00  0.00     0.201 A  
HETATM    6  C   UNL     1     -10.341  18.223  66.437  1.00  0.00    -0.418 A  
HETATM    7  C   UNL     1     -13.083  15.069  70.366  1.00  0.00    -0.222 A  
HETATM    8  C   UNL     1      -9.457  19.297  66.316  1.00  0.00    -0.387 A  
HETATM    9  C   UNL     1     -12.154  14.909  71.386  1.00  0.00    -0.392 A  
HETATM   10  C   UNL     1     -10.801  15.131  71.129  1.00  0.00    -0.075 A  
HETATM   11  C   UNL     1      -8.201  19.241  66.919  1.00  0.00    -0.296 A  
HETATM   12  C   UNL     1      -7.822  18.108  67.642  1.00  0.00    -0.224 A  
HETATM   13  C   UNL     1      -8.701  17.024  67.767  1.00  0.00    -0.222 A  
HETATM   14  C   UNL     1      -8.335  15.787  68.549  1.00  0.00    -0.175 C  
HETATM   15  O   UNL     1      -8.998  15.710  69.811  1.00  0.00    -0.222 OA 
HETATM   16  C   UNL     1     -10.351  15.477  69.846  1.00  0.00    -0.312 A  
ENDROOT
BRANCH   1  17
HETATM   17  C   UNL     1     -12.105  13.959  66.351  1.00  0.00    -0.489 C  
BRANCH  17  18
HETATM   18  C   UNL     1     -11.368  12.690  66.826  1.00  0.00    -0.320 C  
BRANCH  18  19
HETATM   19  N   UNL     1      -9.930  12.613  66.508  1.00  0.00    -0.245 NA 
HETATM   20  C   UNL     1      -9.117  12.316  67.689  1.00  0.00    -0.184 C  
HETATM   21  C   UNL     1      -9.708  11.588  65.484  1.00  0.00    -0.230 C  
ENDBRANCH  18  19
ENDBRANCH  17  18
ENDBRANCH   1  17
TORSDOF 3
ENDMDL
MODEL       66
REMARK 921   NORMALIZED FREE ENERGY PREDICTED BY IDOCK:   -4.72 KCAL/MOL
REMARK 922        TOTAL FREE ENERGY PREDICTED BY IDOCK:   -5.78 KCAL/MOL
REMARK 923 INTER-LIGAND FREE ENERGY PREDICTED BY IDOCK:   -5.59 KCAL/MOL
REMARK 924 INTRA-LIGAND FREE ENERGY PREDICTED BY IDOCK:   -0.19 KCAL/MOL
REMARK 927      BINDING AFFINITY PREDICTED BY RF-SCORE:    0.00 PKD
ROOT
HETATM    1  C   UNL     1     -10.722  12.147  67.082  1.00  0.00    -0.267 C  
HETATM    2  C   UNL     1     -11.287  11.582  69.436  1.00  0.00    -0.355 A  
HETATM    3  C   UNL     1     -10.361  11.615  68.273  1.00  0.00    -0.212 C  
HETATM    4  C   UNL     1      -9.053  10.926  68.343  1.00  0.00    -0.164 A  
HETATM    5  C   UNL     1     -11.841  12.799  69.883  1.00  0.00    -0.371 A  
HETATM    6  C   UNL     1      -7.839  11.613  68.220  1.00  0.00    -0.136 A  
HETATM    7  C   UNL     1     -12.726  12.846  70.959  1.00  0.00    -0.338 A  
HETATM    8  C   UNL     1      -6.632  10.934  68.386  1.00  0.00    -0.058 A  
HETATM    9  C   UNL     1     -13.044  11.677  71.638  1.00  0.00    -0.456 A  
HETATM   10  C   UNL     1     -12.455  10.473  71.251  1.00  0.00    -0.524 A  
HETATM   11  C   UNL     1      -6.631   9.569  68.674  1.00  0.00    -0.052 A  
HETATM   12  C   UNL     1      -7.838   8.878  68.793  1.00  0.00    -0.101 A  
HETATM   13  C   UNL     1      -9.056   9.551  68.625  1.00  0.00    -0.132 A  
HETATM   14  C   UNL     1     -10.382   8.845  68.756  1.00  0.00    -0.211 C  
HETATM   15  O   UNL     1     -11.057   9.151  69.976  1.00  0.00    -0.235 OA 
HETATM   16  C   UNL     1     -11.575  10.410  70.161  1.00  0.00    -0.312 A  
ENDROOT
BRANCH   1  17
HETATM   17  C   UNL     1     -12.050  12.784  66.735  1.00  0.00    -0.290 C  
BRANCH  17  18
HETATM   18  C   UNL     1     -11.958  14.160  66.046  1.00  0.00    -0.413 C  
BRANCH  18  19
HETATM   19  N   UNL     1     -12.380  14.213  64.635  1.00  0.00    -0.580 NA 
HETATM   20  C   UNL     1     -12.128  15.521  64.029  1.00  0.00     0.074 C  
HETATM   21  C   UNL     1     -11.681  13.172  63.874  1.00  0.00    -0.456 C  
ENDBRANCH  18  19
ENDBRANCH  17  18
ENDBRANCH   1  17
TORSDOF 3
ENDMDL
MODEL       67
REMARK 921   NORMALIZED FREE ENERGY PREDICTED BY IDOCK:   -4.71 KCAL/MOL
REMARK 922        TOTAL FREE ENERGY PREDICTED BY IDOCK:   -5.77 KCAL/MOL
REMARK 923 INTER-LIGAND FREE ENERGY PREDICTED BY IDOCK:   -5.27 KCAL/MOL
REMARK 924 INTRA-LIGAND FREE ENERGY PREDICTED BY IDOCK:   -0.51 KCAL/MOL
REMARK 927      BINDING AFFINITY PREDICTED BY RF-SCORE:    0.00 PKD
ROOT
HETATM    1  C   UNL     1     -10.359  15.629  68.451  1.00  0.00    -0.231 C  
HETATM    2  C   UNL     1      -7.888  15.866  68.592  1.00  0.00    -0.164 A  
HETATM    3  C   UNL     1      -9.258  16.415  68.400  1.00  0.00    -0.217 C  
HETATM    4  C   UNL     1      -9.445  17.826  67.998  1.00  0.00    -0.281 A  
HETATM    5  C   UNL     1      -7.613  15.156  69.778  1.00  0.00    -0.094 A  
HETATM    6  C   UNL     1     -10.131  18.746  68.800  1.00  0.00    -0.407 A  
HETATM    7  C   UNL     1      -6.357  14.603  70.022  1.00  0.00    -0.165 A  
HETATM    8  C   UNL     1     -10.201  20.088  68.421  1.00  0.00    -0.510 A  
HETATM    9  C   UNL     1      -5.335  14.786  69.099  1.00  0.00    -0.092 A  
HETATM   10  C   UNL     1      -5.570  15.541  67.950  1.00  0.00    -0.151 A  
HETATM   11  C   UNL     1      -9.589  20.514  67.243  1.00  0.00    -0.580 A  
HETATM   12  C   UNL     1      -8.908  19.600  66.436  1.00  0.00    -0.419 A  
HETATM   13  C   UNL     1      -8.834  18.251  66.808  1.00  0.00    -0.283 A  
HETATM   14  C   UNL     1      -8.100  17.233  65.972  1.00  0.00    -0.151 C  
HETATM   15  O   UNL     1      -6.848  16.846  66.539  1.00  0.00    -0.222 OA 
HETATM   16  C   UNL     1      -6.834  16.090  67.686  1.00  0.00    -0.159 A  
ENDROOT
BRANCH   1  17
HETATM   17  C   UNL     1     -10.403  14.139  68.711  1.00  0.00    -0.230 C  
BRANCH  17  18
HETATM   18  C   UNL     1     -10.626  13.261  67.464  1.00  0.00    -0.246 C  
BRANCH  18  19
HETATM   19  N   UNL     1      -9.468  13.099  66.566  1.00  0.00    -0.255 NA 
HETATM   20  C   UNL     1      -8.296  12.566  67.263  1.00  0.00    -0.185 C  
HETATM   21  C   UNL     1      -9.828  12.211  65.456  1.00  0.00    -0.221 C  
ENDBRANCH  18  19
ENDBRANCH  17  18
ENDBRANCH   1  17
TORSDOF 3
ENDMDL
MODEL       68
REMARK 921   NORMALIZED FREE ENERGY PREDICTED BY IDOCK:   -4.67 KCAL/MOL
REMARK 922        TOTAL FREE ENERGY PREDICTED BY IDOCK:   -5.73 KCAL/MOL
REMARK 923 INTER-LIGAND FREE ENERGY PREDICTED BY IDOCK:   -5.14 KCAL/MOL
REMARK 924 INTRA-LIGAND FREE ENERGY PREDICTED BY IDOCK:   -0.59 KCAL/MOL
REMARK 927      BINDING AFFINITY PREDICTED BY RF-SCORE:    0.00 PKD
ROOT
HETATM    1  C   UNL     1     -11.146   6.090  71.632  1.00  0.00    -0.333 C  
HETATM    2  C   UNL     1      -9.276   7.415  72.596  1.00  0.00    -0.185 A  
HETATM    3  C   UNL     1     -10.646   7.283  72.031  1.00  0.00    -0.236 C  
HETATM    4  C   UNL     1     -11.455   8.490  71.749  1.00  0.00    -0.378 A  
HETATM    5  C   UNL     1      -8.940   6.633  73.720  1.00  0.00    -0.160 A  
HETATM    6  C   UNL     1     -12.680   8.732  72.381  1.00  0.00    -0.433 A  
HETATM    7  C   UNL     1      -7.673   6.694  74.298  1.00  0.00    -0.106 A  
HETATM    8  C   UNL     1     -13.360   9.928  72.152  1.00  0.00    -0.498 A  
HETATM    9  C   UNL     1      -6.726   7.571  73.785  1.00  0.00    -0.085 A  
HETATM   10  C   UNL     1      -7.061   8.399  72.714  1.00  0.00    -0.104 A  
HETATM   11  C   UNL     1     -12.822  10.886  71.293  1.00  0.00    -0.536 A  
HETATM   12  C   UNL     1     -11.602  10.648  70.657  1.00  0.00    -0.432 A  
HETATM   13  C   UNL     1     -10.913   9.448  70.879  1.00  0.00    -0.391 A  
HETATM   14  C   UNL     1      -9.588   9.157  70.220  1.00  0.00    -0.213 C  
HETATM   15  O   UNL     1      -8.483   9.270  71.118  1.00  0.00    -0.294 OA 
HETATM   16  C   UNL     1      -8.328   8.338  72.115  1.00  0.00    -0.174 A  
ENDROOT
BRANCH   1  17
HETATM   17  C   UNL     1     -10.455   4.746  71.696  1.00  0.00    -0.163 C  
BRANCH  17  18
HETATM   18  C   UNL     1      -9.890   4.234  70.356  1.00  0.00    -0.198 C  
BRANCH  18  19
HETATM   19  N   UNL     1      -8.425   4.299  70.198  1.00  0.00    -0.065 NA 
HETATM   20  C   UNL     1      -7.984   5.574  69.632  1.00  0.00    -0.093 C  
HETATM   21  C   UNL     1      -7.783   4.087  71.499  1.00  0.00    -0.065 C  
ENDBRANCH  18  19
ENDBRANCH  17  18
ENDBRANCH   1  17
TORSDOF 3
ENDMDL
MODEL       69
REMARK 921   NORMALIZED FREE ENERGY PREDICTED BY IDOCK:   -4.67 KCAL/MOL
REMARK 922        TOTAL FREE ENERGY PREDICTED BY IDOCK:   -5.72 KCAL/MOL
REMARK 923 INTER-LIGAND FREE ENERGY PREDICTED BY IDOCK:   -5.55 KCAL/MOL
REMARK 924 INTRA-LIGAND FREE ENERGY PREDICTED BY IDOCK:   -0.18 KCAL/MOL
REMARK 927      BINDING AFFINITY PREDICTED BY RF-SCORE:    0.00 PKD
ROOT
HETATM    1  C   UNL     1     -11.238  10.931  69.348  1.00  0.00    -0.335 C  
HETATM    2  C   UNL     1     -10.730  13.283  68.722  1.00  0.00    -0.253 A  
HETATM    3  C   UNL     1     -10.725  11.818  68.464  1.00  0.00    -0.251 C  
HETATM    4  C   UNL     1     -10.019  11.272  67.283  1.00  0.00    -0.208 A  
HETATM    5  C   UNL     1     -11.963  13.909  68.992  1.00  0.00    -0.402 A  
HETATM    6  C   UNL     1     -10.686  10.568  66.273  1.00  0.00    -0.139 A  
HETATM    7  C   UNL     1     -12.045  15.276  69.256  1.00  0.00    -0.280 A  
HETATM    8  C   UNL     1      -9.993  10.154  65.135  1.00  0.00    -0.379 A  
HETATM    9  C   UNL     1     -10.895  16.052  69.214  1.00  0.00    -0.300 A  
HETATM   10  C   UNL     1      -9.675  15.462  68.886  1.00  0.00    -0.220 A  
HETATM   11  C   UNL     1      -8.634  10.441  65.001  1.00  0.00    -0.190 A  
HETATM   12  C   UNL     1      -7.963  11.139  66.007  1.00  0.00    -0.041 A  
HETATM   13  C   UNL     1      -8.651  11.556  67.155  1.00  0.00    -0.155 A  
HETATM   14  C   UNL     1      -7.966  12.321  68.260  1.00  0.00    -0.163 C  
HETATM   15  O   UNL     1      -8.307  13.708  68.270  1.00  0.00    -0.155 OA 
HETATM   16  C   UNL     1      -9.577  14.085  68.632  1.00  0.00    -0.159 A  
ENDROOT
BRANCH   1  17
HETATM   17  C   UNL     1     -11.886  11.244  70.679  1.00  0.00    -0.368 C  
BRANCH  17  18
HETATM   18  C   UNL     1     -13.158  10.432  70.996  1.00  0.00    -0.362 C  
BRANCH  18  19
HETATM   19  N   UNL     1     -13.050   9.452  72.093  1.00  0.00    -0.425 NA 
HETATM   20  C   UNL     1     -14.001   8.349  71.946  1.00  0.00    -0.421 C  
HETATM   21  C   UNL     1     -11.683   8.924  72.145  1.00  0.00    -0.341 C  
ENDBRANCH  18  19
ENDBRANCH  17  18
ENDBRANCH   1  17
TORSDOF 3
ENDMDL
MODEL       70
REMARK 921   NORMALIZED FREE ENERGY PREDICTED BY IDOCK:   -4.55 KCAL/MOL
REMARK 922        TOTAL FREE ENERGY PREDICTED BY IDOCK:   -5.58 KCAL/MOL
REMARK 923 INTER-LIGAND FREE ENERGY PREDICTED BY IDOCK:   -5.32 KCAL/MOL
REMARK 924 INTRA-LIGAND FREE ENERGY PREDICTED BY IDOCK:   -0.26 KCAL/MOL
REMARK 927      BINDING AFFINITY PREDICTED BY RF-SCORE:    0.00 PKD
ROOT
HETATM    1  C   UNL     1      -9.889  15.963  67.479  1.00  0.00    -0.230 C  
HETATM    2  C   UNL     1      -8.294  14.060  67.600  1.00  0.00    -0.191 A  
HETATM    3  C   UNL     1      -9.500  14.738  67.054  1.00  0.00    -0.241 C  
HETATM    4  C   UNL     1     -10.403  14.020  66.127  1.00  0.00    -0.301 A  
HETATM    5  C   UNL     1      -7.059  14.735  67.527  1.00  0.00    -0.209 A  
HETATM    6  C   UNL     1     -10.632  14.460  64.818  1.00  0.00    -0.417 A  
HETATM    7  C   UNL     1      -5.887  14.168  68.028  1.00  0.00    -0.138 A  
HETATM    8  C   UNL     1     -11.418  13.698  63.952  1.00  0.00    -0.215 A  
HETATM    9  C   UNL     1      -5.922  12.893  68.577  1.00  0.00    -0.067 A  
HETATM   10  C   UNL     1      -7.123  12.184  68.600  1.00  0.00    -0.103 A  
HETATM   11  C   UNL     1     -11.976  12.497  64.389  1.00  0.00    -0.476 A  
HETATM   12  C   UNL     1     -11.755  12.056  65.695  1.00  0.00    -0.312 A  
HETATM   13  C   UNL     1     -10.969  12.816  66.572  1.00  0.00    -0.291 A  
HETATM   14  C   UNL     1     -10.696  12.370  67.987  1.00  0.00    -0.223 C  
HETATM   15  O   UNL     1      -9.369  11.874  68.167  1.00  0.00    -0.180 OA 
HETATM   16  C   UNL     1      -8.311  12.749  68.112  1.00  0.00    -0.172 A  
ENDROOT
BRANCH   1  17
HETATM   17  C   UNL     1      -9.203  16.828  68.514  1.00  0.00    -0.243 C  
BRANCH  17  18
HETATM   18  C   UNL     1      -8.439  18.043  67.951  1.00  0.00    -0.252 C  
BRANCH  18  19
HETATM   19  N   UNL     1      -9.217  18.970  67.109  1.00  0.00    -0.288 NA 
HETATM   20  C   UNL     1     -10.363  19.536  67.821  1.00  0.00    -0.452 C  
HETATM   21  C   UNL     1      -8.346  20.051  66.636  1.00  0.00    -0.317 C  
ENDBRANCH  18  19
ENDBRANCH  17  18
ENDBRANCH   1  17
TORSDOF 3
ENDMDL
MODEL       71
REMARK 921   NORMALIZED FREE ENERGY PREDICTED BY IDOCK:   -4.53 KCAL/MOL
REMARK 922        TOTAL FREE ENERGY PREDICTED BY IDOCK:   -5.56 KCAL/MOL
REMARK 923 INTER-LIGAND FREE ENERGY PREDICTED BY IDOCK:   -5.31 KCAL/MOL
REMARK 924 INTRA-LIGAND FREE ENERGY PREDICTED BY IDOCK:   -0.25 KCAL/MOL
REMARK 927      BINDING AFFINITY PREDICTED BY RF-SCORE:    0.00 PKD
ROOT
HETATM    1  C   UNL     1      -8.812  10.730  65.953  1.00  0.00    -0.191 C  
HETATM    2  C   UNL     1     -10.300  10.125  67.851  1.00  0.00    -0.234 A  
HETATM    3  C   UNL     1      -9.989  10.877  66.606  1.00  0.00    -0.250 C  
HETATM    4  C   UNL     1     -10.911  11.928  66.121  1.00  0.00    -0.334 A  
HETATM    5  C   UNL     1     -10.225   8.718  67.817  1.00  0.00    -0.285 A  
HETATM    6  C   UNL     1     -11.549  11.846  64.877  1.00  0.00    -0.290 A  
HETATM    7  C   UNL     1     -10.490   7.947  68.948  1.00  0.00    -0.205 A  
HETATM    8  C   UNL     1     -12.480  12.816  64.505  1.00  0.00    -0.501 A  
HETATM    9  C   UNL     1     -10.877   8.568  70.128  1.00  0.00    -0.238 A  
HETATM   10  C   UNL     1     -11.019   9.955  70.162  1.00  0.00    -0.356 A  
HETATM   11  C   UNL     1     -12.778  13.868  65.370  1.00  0.00    -0.525 A  
HETATM   12  C   UNL     1     -12.142  13.957  66.609  1.00  0.00    -0.485 A  
HETATM   13  C   UNL     1     -11.203  12.990  66.991  1.00  0.00    -0.325 A  
HETATM   14  C   UNL     1     -10.502  13.042  68.325  1.00  0.00    -0.250 C  
HETATM   15  O   UNL     1     -10.997  12.076  69.252  1.00  0.00    -0.211 OA 
HETATM   16  C   UNL     1     -10.741  10.744  69.036  1.00  0.00    -0.228 A  
ENDROOT
BRANCH   1  17
HETATM   17  C   UNL     1      -7.667   9.819  66.336  1.00  0.00    -0.102 C  
BRANCH  17  18
HETATM   18  C   UNL     1      -6.652   9.533  65.210  1.00  0.00    -0.082 C  
BRANCH  18  19
HETATM   19  N   UNL     1      -6.817   8.255  64.494  1.00  0.00    -0.068 NA 
HETATM   20  C   UNL     1      -5.537   7.592  64.241  1.00  0.00    -0.033 C  
HETATM   21  C   UNL     1      -7.689   7.367  65.269  1.00  0.00    -0.113 C  
ENDBRANCH  18  19
ENDBRANCH  17  18
ENDBRANCH   1  17
TORSDOF 3
ENDMDL
MODEL       72
REMARK 921   NORMALIZED FREE ENERGY PREDICTED BY IDOCK:   -4.52 KCAL/MOL
REMARK 922        TOTAL FREE ENERGY PREDICTED BY IDOCK:   -5.55 KCAL/MOL
REMARK 923 INTER-LIGAND FREE ENERGY PREDICTED BY IDOCK:   -4.95 KCAL/MOL
REMARK 924 INTRA-LIGAND FREE ENERGY PREDICTED BY IDOCK:   -0.60 KCAL/MOL
REMARK 927      BINDING AFFINITY PREDICTED BY RF-SCORE:    0.00 PKD
ROOT
HETATM    1  C   UNL     1      -7.670  10.197  65.257  1.00  0.00    -0.144 C  
HETATM    2  C   UNL     1      -9.437   8.721  66.194  1.00  0.00    -0.315 A  
HETATM    3  C   UNL     1      -8.982   9.928  65.453  1.00  0.00    -0.220 C  
HETATM    4  C   UNL     1      -9.959  10.956  65.033  1.00  0.00    -0.356 A  
HETATM    5  C   UNL     1      -9.004   7.458  65.742  1.00  0.00    -0.061 A  
HETATM    6  C   UNL     1     -10.171  11.278  63.687  1.00  0.00    -0.446 A  
HETATM    7  C   UNL     1      -9.380   6.283  66.392  1.00  0.00    -0.176 A  
HETATM    8  C   UNL     1     -11.170  12.188  63.335  1.00  0.00    -0.494 A  
HETATM    9  C   UNL     1     -10.232   6.346  67.487  1.00  0.00    -0.211 A  
HETATM   10  C   UNL     1     -10.722   7.582  67.909  1.00  0.00    -0.200 A  
HETATM   11  C   UNL     1     -11.958  12.778  64.323  1.00  0.00    -0.473 A  
HETATM   12  C   UNL     1     -11.748  12.463  65.667  1.00  0.00    -0.468 A  
HETATM   13  C   UNL     1     -10.746  11.553  66.030  1.00  0.00    -0.332 A  
HETATM   14  C   UNL     1     -10.493  11.177  67.468  1.00  0.00    -0.204 C  
HETATM   15  O   UNL     1     -10.974   9.873  67.796  1.00  0.00    -0.282 OA 
HETATM   16  C   UNL     1     -10.340   8.773  67.273  1.00  0.00    -0.290 A  
ENDROOT
BRANCH   1  17
HETATM   17  C   UNL     1      -6.491   9.365  65.713  1.00  0.00    -0.069 C  
BRANCH  17  18
HETATM   18  C   UNL     1      -5.707   9.939  66.910  1.00  0.00    -0.050 C  
BRANCH  18  19
HETATM   19  N   UNL     1      -5.995   9.340  68.226  1.00  0.00    -0.045 NA 
HETATM   20  C   UNL     1      -7.152   9.959  68.875  1.00  0.00    -0.071 C  
HETATM   21  C   UNL     1      -6.227   7.901  68.069  1.00  0.00    -0.046 C  
ENDBRANCH  18  19
ENDBRANCH  17  18
ENDBRANCH   1  17
TORSDOF 3
ENDMDL
MODEL       73
REMARK 921   NORMALIZED FREE ENERGY PREDICTED BY IDOCK:   -4.52 KCAL/MOL
REMARK 922        TOTAL FREE ENERGY PREDICTED BY IDOCK:   -5.54 KCAL/MOL
REMARK 923 INTER-LIGAND FREE ENERGY PREDICTED BY IDOCK:   -5.17 KCAL/MOL
REMARK 924 INTRA-LIGAND FREE ENERGY PREDICTED BY IDOCK:   -0.37 KCAL/MOL
REMARK 927      BINDING AFFINITY PREDICTED BY RF-SCORE:    0.00 PKD
ROOT
HETATM    1  C   UNL     1      -9.566   8.856  71.305  1.00  0.00    -0.348 C  
HETATM    2  C   UNL     1      -9.663   7.791  69.060  1.00  0.00    -0.157 A  
HETATM    3  C   UNL     1      -9.271   8.889  69.984  1.00  0.00    -0.183 C  
HETATM    4  C   UNL     1      -8.670  10.132  69.451  1.00  0.00    -0.186 A  
HETATM    5  C   UNL     1      -9.238   6.481  69.362  1.00  0.00    -0.144 A  
HETATM    6  C   UNL     1      -7.380  10.548  69.804  1.00  0.00    -0.139 A  
HETATM    7  C   UNL     1      -9.576   5.400  68.550  1.00  0.00    -0.169 A  
HETATM    8  C   UNL     1      -6.822  11.677  69.203  1.00  0.00    -0.111 A  
HETATM    9  C   UNL     1     -10.316   5.614  67.394  1.00  0.00    -0.284 A  
HETATM   10  C   UNL     1     -10.691   6.912  67.046  1.00  0.00    -0.432 A  
HETATM   11  C   UNL     1      -7.547  12.393  68.250  1.00  0.00    -0.131 A  
HETATM   12  C   UNL     1      -8.835  11.984  67.897  1.00  0.00    -0.174 A  
HETATM   13  C   UNL     1      -9.404  10.853  68.497  1.00  0.00    -0.181 A  
HETATM   14  C   UNL     1     -10.787  10.372  68.137  1.00  0.00    -0.264 C  
HETATM   15  O   UNL     1     -10.774   9.202  67.319  1.00  0.00    -0.262 OA 
HETATM   16  C   UNL     1     -10.369   8.006  67.861  1.00  0.00    -0.222 A  
ENDROOT
BRANCH   1  17
HETATM   17  C   UNL     1     -10.291   7.757  72.048  1.00  0.00    -0.267 C  
BRANCH  17  18
HETATM   18  C   UNL     1     -11.711   8.117  72.530  1.00  0.00    -0.394 C  
BRANCH  18  19
HETATM   19  N   UNL     1     -12.709   8.384  71.477  1.00  0.00    -0.315 NA 
HETATM   20  C   UNL     1     -13.850   7.471  71.550  1.00  0.00    -0.387 C  
HETATM   21  C   UNL     1     -13.176   9.770  71.586  1.00  0.00    -0.420 C  
ENDBRANCH  18  19
ENDBRANCH  17  18
ENDBRANCH   1  17
TORSDOF 3
ENDMDL
MODEL       74
REMARK 921   NORMALIZED FREE ENERGY PREDICTED BY IDOCK:   -4.49 KCAL/MOL
REMARK 922        TOTAL FREE ENERGY PREDICTED BY IDOCK:   -5.52 KCAL/MOL
REMARK 923 INTER-LIGAND FREE ENERGY PREDICTED BY IDOCK:   -5.23 KCAL/MOL
REMARK 924 INTRA-LIGAND FREE ENERGY PREDICTED BY IDOCK:   -0.28 KCAL/MOL
REMARK 927      BINDING AFFINITY PREDICTED BY RF-SCORE:    0.00 PKD
ROOT
HETATM    1  C   UNL     1     -10.991   9.453  69.689  1.00  0.00    -0.216 C  
HETATM    2  C   UNL     1     -10.499  11.573  68.486  1.00  0.00    -0.228 A  
HETATM    3  C   UNL     1     -10.411  10.097  68.649  1.00  0.00    -0.225 C  
HETATM    4  C   UNL     1      -9.552   9.298  67.746  1.00  0.00    -0.167 A  
HETATM    5  C   UNL     1     -11.778  12.164  68.442  1.00  0.00    -0.388 A  
HETATM    6  C   UNL     1     -10.071   8.301  66.911  1.00  0.00    -0.366 A  
HETATM    7  C   UNL     1     -11.940  13.542  68.304  1.00  0.00    -0.377 A  
HETATM    8  C   UNL     1      -9.234   7.639  66.011  1.00  0.00    -0.118 A  
HETATM    9  C   UNL     1     -10.822  14.354  68.164  1.00  0.00    -0.251 A  
HETATM   10  C   UNL     1      -9.551  13.779  68.140  1.00  0.00    -0.216 A  
HETATM   11  C   UNL     1      -7.881   7.969  65.942  1.00  0.00    -0.099 A  
HETATM   12  C   UNL     1      -7.358   8.959  66.776  1.00  0.00    -0.082 A  
HETATM   13  C   UNL     1      -8.189   9.627  67.684  1.00  0.00    -0.114 A  
HETATM   14  C   UNL     1      -7.667  10.710  68.595  1.00  0.00    -0.110 C  
HETATM   15  O   UNL     1      -8.057  12.020  68.182  1.00  0.00    -0.143 OA 
HETATM   16  C   UNL     1      -9.374  12.396  68.293  1.00  0.00    -0.199 A  
ENDROOT
BRANCH   1  17
HETATM   17  C   UNL     1     -11.801  10.074  70.805  1.00  0.00    -0.435 C  
BRANCH  17  18
HETATM   18  C   UNL     1     -12.317   9.085  71.870  1.00  0.00    -0.384 C  
BRANCH  18  19
HETATM   19  N   UNL     1     -12.827   7.795  71.370  1.00  0.00    -0.321 NA 
HETATM   20  C   UNL     1     -12.088   6.657  71.916  1.00  0.00    -0.340 C  
HETATM   21  C   UNL     1     -14.249   7.668  71.703  1.00  0.00    -0.454 C  
ENDBRANCH  18  19
ENDBRANCH  17  18
ENDBRANCH   1  17
TORSDOF 3
ENDMDL
MODEL       75
REMARK 921   NORMALIZED FREE ENERGY PREDICTED BY IDOCK:   -4.48 KCAL/MOL
REMARK 922        TOTAL FREE ENERGY PREDICTED BY IDOCK:   -5.50 KCAL/MOL
REMARK 923 INTER-LIGAND FREE ENERGY PREDICTED BY IDOCK:   -5.15 KCAL/MOL
REMARK 924 INTRA-LIGAND FREE ENERGY PREDICTED BY IDOCK:   -0.35 KCAL/MOL
REMARK 927      BINDING AFFINITY PREDICTED BY RF-SCORE:    0.00 PKD
ROOT
HETATM    1  C   UNL     1      -9.916  14.815  66.625  1.00  0.00    -0.272 C  
HETATM    2  C   UNL     1      -9.942  12.898  68.207  1.00  0.00    -0.234 A  
HETATM    3  C   UNL     1      -9.353  14.149  67.660  1.00  0.00    -0.209 C  
HETATM    4  C   UNL     1      -8.038  14.627  68.143  1.00  0.00    -0.137 A  
HETATM    5  C   UNL     1     -11.280  12.928  68.649  1.00  0.00    -0.321 A  
HETATM    6  C   UNL     1      -7.882  15.863  68.782  1.00  0.00    -0.185 A  
HETATM    7  C   UNL     1     -11.904  11.791  69.163  1.00  0.00    -0.389 A  
HETATM    8  C   UNL     1      -6.639  16.227  69.303  1.00  0.00    -0.197 A  
HETATM    9  C   UNL     1     -11.186  10.609  69.282  1.00  0.00    -0.332 A  
HETATM   10  C   UNL     1      -9.842  10.578  68.910  1.00  0.00    -0.209 A  
HETATM   11  C   UNL     1      -5.551  15.362  69.188  1.00  0.00    -0.099 A  
HETATM   12  C   UNL     1      -5.701  14.131  68.547  1.00  0.00    -0.095 A  
HETATM   13  C   UNL     1      -6.944  13.757  68.019  1.00  0.00    -0.137 A  
HETATM   14  C   UNL     1      -7.151  12.432  67.330  1.00  0.00    -0.152 C  
HETATM   15  O   UNL     1      -7.873  11.495  68.131  1.00  0.00    -0.114 OA 
HETATM   16  C   UNL     1      -9.207  11.710  68.379  1.00  0.00    -0.182 A  
ENDROOT
BRANCH   1  17
HETATM   17  C   UNL     1     -11.181  14.443  65.884  1.00  0.00    -0.324 C  
BRANCH  17  18
HETATM   18  C   UNL     1     -10.966  13.720  64.539  1.00  0.00    -0.391 C  
BRANCH  18  19
HETATM   19  N   UNL     1     -11.389  12.308  64.483  1.00  0.00    -0.316 NA 
HETATM   20  C   UNL     1     -12.413  12.077  63.463  1.00  0.00    -0.540 C  
HETATM   21  C   UNL     1     -10.225  11.458  64.216  1.00  0.00    -0.315 C  
ENDBRANCH  18  19
ENDBRANCH  17  18
ENDBRANCH   1  17
TORSDOF 3
ENDMDL
MODEL       76
REMARK 921   NORMALIZED FREE ENERGY PREDICTED BY IDOCK:   -4.47 KCAL/MOL
REMARK 922        TOTAL FREE ENERGY PREDICTED BY IDOCK:   -5.49 KCAL/MOL
REMARK 923 INTER-LIGAND FREE ENERGY PREDICTED BY IDOCK:   -4.97 KCAL/MOL
REMARK 924 INTRA-LIGAND FREE ENERGY PREDICTED BY IDOCK:   -0.52 KCAL/MOL
REMARK 927      BINDING AFFINITY PREDICTED BY RF-SCORE:    0.00 PKD
ROOT
HETATM    1  C   UNL     1      -7.977  12.546  66.873  1.00  0.00    -0.013 C  
HETATM    2  C   UNL     1      -9.361  10.501  66.583  1.00  0.00    -0.186 A  
HETATM    3  C   UNL     1      -9.136  11.968  66.480  1.00  0.00    -0.202 C  
HETATM    4  C   UNL     1     -10.241  12.864  66.075  1.00  0.00    -0.293 A  
HETATM    5  C   UNL     1      -8.444   9.639  65.950  1.00  0.00    -0.136 A  
HETATM    6  C   UNL     1     -10.179  13.652  64.920  1.00  0.00    -0.363 A  
HETATM    7  C   UNL     1      -8.583   8.253  66.013  1.00  0.00    -0.167 A  
HETATM    8  C   UNL     1     -11.285  14.411  64.531  1.00  0.00    -0.314 A  
HETATM    9  C   UNL     1      -9.669   7.702  66.680  1.00  0.00    -0.283 A  
HETATM   10  C   UNL     1     -10.622   8.541  67.258  1.00  0.00    -0.315 A  
HETATM   11  C   UNL     1     -12.453  14.386  65.293  1.00  0.00    -0.359 A  
HETATM   12  C   UNL     1     -12.518  13.605  66.449  1.00  0.00    -0.377 A  
HETATM   13  C   UNL     1     -11.413  12.843  66.848  1.00  0.00    -0.393 A  
HETATM   14  C   UNL     1     -11.446  11.978  68.083  1.00  0.00    -0.322 C  
HETATM   15  O   UNL     1     -11.553  10.586  67.785  1.00  0.00    -0.462 OA 
HETATM   16  C   UNL     1     -10.486   9.936  67.214  1.00  0.00    -0.258 A  
ENDROOT
BRANCH   1  17
HETATM   17  C   UNL     1      -6.760  11.850  67.443  1.00  0.00    -0.126 C  
BRANCH  17  18
HETATM   18  C   UNL     1      -6.691  11.806  68.983  1.00  0.00    -0.102 C  
BRANCH  18  19
HETATM   19  N   UNL     1      -6.777  10.470  69.601  1.00  0.00    -0.091 NA 
HETATM   20  C   UNL     1      -8.156  10.090  69.910  1.00  0.00    -0.166 C  
HETATM   21  C   UNL     1      -6.179   9.475  68.705  1.00  0.00    -0.044 C  
ENDBRANCH  18  19
ENDBRANCH  17  18
ENDBRANCH   1  17
TORSDOF 3
ENDMDL
MODEL       77
REMARK 921   NORMALIZED FREE ENERGY PREDICTED BY IDOCK:   -4.38 KCAL/MOL
REMARK 922        TOTAL FREE ENERGY PREDICTED BY IDOCK:   -5.39 KCAL/MOL
REMARK 923 INTER-LIGAND FREE ENERGY PREDICTED BY IDOCK:   -5.12 KCAL/MOL
REMARK 924 INTRA-LIGAND FREE ENERGY PREDICTED BY IDOCK:   -0.27 KCAL/MOL
REMARK 927      BINDING AFFINITY PREDICTED BY RF-SCORE:    0.00 PKD
ROOT
HETATM    1  C   UNL     1     -10.657   7.702  67.812  1.00  0.00    -0.265 C  
HETATM    2  C   UNL     1     -10.552   8.319  70.218  1.00  0.00    -0.230 A  
HETATM    3  C   UNL     1     -10.548   8.653  68.768  1.00  0.00    -0.169 C  
HETATM    4  C   UNL     1     -10.276  10.038  68.324  1.00  0.00    -0.200 A  
HETATM    5  C   UNL     1     -11.645   7.594  70.733  1.00  0.00    -0.284 A  
HETATM    6  C   UNL     1     -11.213  10.790  67.605  1.00  0.00    -0.370 A  
HETATM    7  C   UNL     1     -11.712   7.234  72.078  1.00  0.00    -0.329 A  
HETATM    8  C   UNL     1     -10.946  12.123  67.290  1.00  0.00    -0.308 A  
HETATM    9  C   UNL     1     -10.703   7.629  72.946  1.00  0.00    -0.428 A  
HETATM   10  C   UNL     1      -9.646   8.403  72.467  1.00  0.00    -0.358 A  
HETATM   11  C   UNL     1      -9.745  12.709  67.689  1.00  0.00    -0.197 A  
HETATM   12  C   UNL     1      -8.805  11.962  68.402  1.00  0.00    -0.159 A  
HETATM   13  C   UNL     1      -9.063  10.623  68.721  1.00  0.00    -0.170 A  
HETATM   14  C   UNL     1      -8.080   9.784  69.499  1.00  0.00    -0.141 C  
HETATM   15  O   UNL     1      -8.480   9.569  70.852  1.00  0.00    -0.269 OA 
HETATM   16  C   UNL     1      -9.559   8.759  71.113  1.00  0.00    -0.242 A  
ENDROOT
BRANCH   1  17
HETATM   17  C   UNL     1     -10.807   6.211  68.023  1.00  0.00    -0.398 C  
BRANCH  17  18
HETATM   18  C   UNL     1     -10.158   5.326  66.941  1.00  0.00    -0.219 C  
BRANCH  18  19
HETATM   19  N   UNL     1      -9.106   4.400  67.400  1.00  0.00    -0.125 NA 
HETATM   20  C   UNL     1      -9.095   3.151  66.637  1.00  0.00    -0.162 C  
HETATM   21  C   UNL     1      -7.798   5.054  67.297  1.00  0.00    -0.096 C  
ENDBRANCH  18  19
ENDBRANCH  17  18
ENDBRANCH   1  17
TORSDOF 3
ENDMDL
MODEL       78
REMARK 921   NORMALIZED FREE ENERGY PREDICTED BY IDOCK:   -4.34 KCAL/MOL
REMARK 922        TOTAL FREE ENERGY PREDICTED BY IDOCK:   -5.33 KCAL/MOL
REMARK 923 INTER-LIGAND FREE ENERGY PREDICTED BY IDOCK:   -5.19 KCAL/MOL
REMARK 924 INTRA-LIGAND FREE ENERGY PREDICTED BY IDOCK:   -0.14 KCAL/MOL
REMARK 927      BINDING AFFINITY PREDICTED BY RF-SCORE:    0.00 PKD
ROOT
HETATM    1  C   UNL     1     -10.877  10.800  67.140  1.00  0.00    -0.335 C  
HETATM    2  C   UNL     1      -8.627  10.501  68.153  1.00  0.00    -0.123 A  
HETATM    3  C   UNL     1      -9.965  10.000  67.738  1.00  0.00    -0.203 C  
HETATM    4  C   UNL     1     -10.394   8.632  68.106  1.00  0.00    -0.267 A  
HETATM    5  C   UNL     1      -7.807  11.101  67.176  1.00  0.00    -0.139 A  
HETATM    6  C   UNL     1     -10.696   7.660  67.144  1.00  0.00    -0.361 A  
HETATM    7  C   UNL     1      -6.546  11.605  67.492  1.00  0.00    -0.093 A  
HETATM    8  C   UNL     1     -11.006   6.359  67.541  1.00  0.00    -0.454 A  
HETATM    9  C   UNL     1      -6.062  11.481  68.788  1.00  0.00    -0.049 A  
HETATM   10  C   UNL     1      -6.833  10.833  69.753  1.00  0.00    -0.151 A  
HETATM   11  C   UNL     1     -11.017   6.023  68.894  1.00  0.00    -0.395 A  
HETATM   12  C   UNL     1     -10.721   6.989  69.857  1.00  0.00    -0.265 A  
HETATM   13  C   UNL     1     -10.411   8.300  69.470  1.00  0.00    -0.219 A  
HETATM   14  C   UNL     1     -10.075   9.371  70.477  1.00  0.00    -0.275 C  
HETATM   15  O   UNL     1      -8.682   9.681  70.515  1.00  0.00    -0.218 OA 
HETATM   16  C   UNL     1      -8.109  10.335  69.452  1.00  0.00    -0.163 A  
ENDROOT
BRANCH   1  17
HETATM   17  C   UNL     1     -10.714  12.262  66.788  1.00  0.00    -0.272 C  
BRANCH  17  18
HETATM   18  C   UNL     1     -10.617  13.221  67.992  1.00  0.00    -0.240 C  
BRANCH  18  19
HETATM   19  N   UNL     1     -11.853  13.939  68.355  1.00  0.00    -0.360 NA 
HETATM   20  C   UNL     1     -12.271  13.660  69.730  1.00  0.00    -0.291 C  
HETATM   21  C   UNL     1     -11.651  15.381  68.182  1.00  0.00    -0.319 C  
ENDBRANCH  18  19
ENDBRANCH  17  18
ENDBRANCH   1  17
TORSDOF 3
ENDMDL
MODEL       79
REMARK 921   NORMALIZED FREE ENERGY PREDICTED BY IDOCK:   -4.28 KCAL/MOL
REMARK 922        TOTAL FREE ENERGY PREDICTED BY IDOCK:   -5.26 KCAL/MOL
REMARK 923 INTER-LIGAND FREE ENERGY PREDICTED BY IDOCK:   -5.04 KCAL/MOL
REMARK 924 INTRA-LIGAND FREE ENERGY PREDICTED BY IDOCK:   -0.23 KCAL/MOL
REMARK 927      BINDING AFFINITY PREDICTED BY RF-SCORE:    0.00 PKD
ROOT
HETATM    1  C   UNL     1     -10.279   9.173  67.815  1.00  0.00    -0.278 C  
HETATM    2  C   UNL     1     -10.054   6.701  67.942  1.00  0.00    -0.177 A  
HETATM    3  C   UNL     1     -10.265   8.040  68.554  1.00  0.00    -0.231 C  
HETATM    4  C   UNL     1     -10.320   8.185  70.026  1.00  0.00    -0.215 A  
HETATM    5  C   UNL     1     -10.923   6.295  66.908  1.00  0.00    -0.404 A  
HETATM    6  C   UNL     1     -11.457   8.667  70.686  1.00  0.00    -0.256 A  
HETATM    7  C   UNL     1     -10.779   5.059  66.278  1.00  0.00    -0.262 A  
HETATM    8  C   UNL     1     -11.493   8.698  72.081  1.00  0.00    -0.443 A  
HETATM    9  C   UNL     1      -9.786   4.185  66.699  1.00  0.00    -0.233 A  
HETATM   10  C   UNL     1      -8.958   4.543  67.763  1.00  0.00    -0.131 A  
HETATM   11  C   UNL     1     -10.398   8.249  72.820  1.00  0.00    -0.330 A  
HETATM   12  C   UNL     1      -9.261   7.772  72.166  1.00  0.00    -0.198 A  
HETATM   13  C   UNL     1      -9.214   7.740  70.766  1.00  0.00    -0.157 A  
HETATM   14  C   UNL     1      -8.009   7.222  70.021  1.00  0.00    -0.117 C  
HETATM   15  O   UNL     1      -8.219   5.928  69.455  1.00  0.00    -0.110 OA 
HETATM   16  C   UNL     1      -9.082   5.789  68.396  1.00  0.00    -0.118 A  
ENDROOT
BRANCH   1  17
HETATM   17  C   UNL     1     -10.107   9.284  66.316  1.00  0.00    -0.322 C  
BRANCH  17  18
HETATM   18  C   UNL     1     -10.517  10.641  65.707  1.00  0.00    -0.164 C  
BRANCH  18  19
HETATM   19  N   UNL     1      -9.587  11.221  64.721  1.00  0.00    -0.240 NA 
HETATM   20  C   UNL     1      -8.797  10.197  64.035  1.00  0.00    -0.228 C  
HETATM   21  C   UNL     1     -10.341  12.005  63.738  1.00  0.00    -0.426 C  
ENDBRANCH  18  19
ENDBRANCH  17  18
ENDBRANCH   1  17
TORSDOF 3
ENDMDL
MODEL       80
REMARK 921   NORMALIZED FREE ENERGY PREDICTED BY IDOCK:   -4.26 KCAL/MOL
REMARK 922        TOTAL FREE ENERGY PREDICTED BY IDOCK:   -5.25 KCAL/MOL
REMARK 923 INTER-LIGAND FREE ENERGY PREDICTED BY IDOCK:   -4.97 KCAL/MOL
REMARK 924 INTRA-LIGAND FREE ENERGY PREDICTED BY IDOCK:   -0.28 KCAL/MOL
REMARK 927      BINDING AFFINITY PREDICTED BY RF-SCORE:    0.00 PKD
ROOT
HETATM    1  C   UNL     1     -10.232   9.329  67.100  1.00  0.00    -0.324 C  
HETATM    2  C   UNL     1      -9.278  11.445  67.990  1.00  0.00    -0.171 A  
HETATM    3  C   UNL     1     -10.022  10.166  68.143  1.00  0.00    -0.170 C  
HETATM    4  C   UNL     1     -10.687   9.840  69.424  1.00  0.00    -0.250 A  
HETATM    5  C   UNL     1      -7.973  11.399  67.461  1.00  0.00    -0.127 A  
HETATM    6  C   UNL     1     -10.335   8.718  70.183  1.00  0.00    -0.225 A  
HETATM    7  C   UNL     1      -7.219  12.557  67.277  1.00  0.00    -0.114 A  
HETATM    8  C   UNL     1     -10.927   8.504  71.429  1.00  0.00    -0.329 A  
HETATM    9  C   UNL     1      -7.743  13.785  67.659  1.00  0.00    -0.187 A  
HETATM   10  C   UNL     1      -9.008  13.843  68.244  1.00  0.00    -0.187 A  
HETATM   11  C   UNL     1     -11.870   9.407  71.920  1.00  0.00    -0.402 A  
HETATM   12  C   UNL     1     -12.228  10.525  71.164  1.00  0.00    -0.496 A  
HETATM   13  C   UNL     1     -11.641  10.747  69.911  1.00  0.00    -0.410 A  
HETATM   14  C   UNL     1     -11.991  11.948  69.068  1.00  0.00    -0.262 C  
HETATM   15  O   UNL     1     -10.968  12.943  69.066  1.00  0.00    -0.246 OA 
HETATM   16  C   UNL     1      -9.782  12.687  68.421  1.00  0.00    -0.187 A  
ENDROOT
BRANCH   1  17
HETATM   17  C   UNL     1      -9.767   9.518  65.673  1.00  0.00    -0.361 C  
BRANCH  17  18
HETATM   18  C   UNL     1      -8.605   8.603  65.235  1.00  0.00    -0.180 C  
BRANCH  18  19
HETATM   19  N   UNL     1      -7.720   9.131  64.181  1.00  0.00    -0.116 NA 
HETATM   20  C   UNL     1      -6.304   8.998  64.528  1.00  0.00    -0.071 C  
HETATM   21  C   UNL     1      -7.988   8.433  62.920  1.00  0.00    -0.160 C  
ENDBRANCH  18  19
ENDBRANCH  17  18
ENDBRANCH   1  17
TORSDOF 3
ENDMDL
MODEL       81
REMARK 921   NORMALIZED FREE ENERGY PREDICTED BY IDOCK:   -4.20 KCAL/MOL
REMARK 922        TOTAL FREE ENERGY PREDICTED BY IDOCK:   -5.17 KCAL/MOL
REMARK 923 INTER-LIGAND FREE ENERGY PREDICTED BY IDOCK:   -4.74 KCAL/MOL
REMARK 924 INTRA-LIGAND FREE ENERGY PREDICTED BY IDOCK:   -0.44 KCAL/MOL
REMARK 927      BINDING AFFINITY PREDICTED BY RF-SCORE:    0.00 PKD
ROOT
HETATM    1  C   UNL     1     -10.102   9.281  71.216  1.00  0.00    -0.361 C  
HETATM    2  C   UNL     1     -10.048   8.030  69.068  1.00  0.00    -0.206 A  
HETATM    3  C   UNL     1      -9.587   9.115  69.975  1.00  0.00    -0.218 C  
HETATM    4  C   UNL     1      -8.646  10.146  69.485  1.00  0.00    -0.177 A  
HETATM    5  C   UNL     1      -9.979   6.700  69.529  1.00  0.00    -0.178 A  
HETATM    6  C   UNL     1      -7.376  10.325  70.047  1.00  0.00    -0.157 A  
HETATM    7  C   UNL     1     -10.404   5.632  68.740  1.00  0.00    -0.288 A  
HETATM    8  C   UNL     1      -6.489  11.247  69.489  1.00  0.00    -0.119 A  
HETATM    9  C   UNL     1     -10.870   5.871  67.454  1.00  0.00    -0.341 A  
HETATM   10  C   UNL     1     -10.886   7.174  66.957  1.00  0.00    -0.382 A  
HETATM   11  C   UNL     1      -6.865  11.992  68.372  1.00  0.00    -0.072 A  
HETATM   12  C   UNL     1      -8.132  11.821  67.810  1.00  0.00    -0.143 A  
HETATM   13  C   UNL     1      -9.030  10.899  68.365  1.00  0.00    -0.154 A  
HETATM   14  C   UNL     1     -10.403  10.676  67.782  1.00  0.00    -0.204 C  
HETATM   15  O   UNL     1     -10.508   9.449  67.060  1.00  0.00    -0.251 OA 
HETATM   16  C   UNL     1     -10.475   8.259  67.746  1.00  0.00    -0.215 A  
ENDROOT
BRANCH   1  17
HETATM   17  C   UNL     1     -11.168   8.437  71.879  1.00  0.00    -0.379 C  
BRANCH  17  18
HETATM   18  C   UNL     1     -10.690   7.605  73.087  1.00  0.00    -0.387 C  
BRANCH  18  19
HETATM   19  N   UNL     1      -9.291   7.141  73.045  1.00  0.00    -0.145 NA 
HETATM   20  C   UNL     1      -8.525   7.585  74.210  1.00  0.00    -0.224 C  
HETATM   21  C   UNL     1      -9.262   5.677  72.963  1.00  0.00    -0.137 C  
ENDBRANCH  18  19
ENDBRANCH  17  18
ENDBRANCH   1  17
TORSDOF 3
ENDMDL
MODEL       82
REMARK 921   NORMALIZED FREE ENERGY PREDICTED BY IDOCK:   -4.20 KCAL/MOL
REMARK 922        TOTAL FREE ENERGY PREDICTED BY IDOCK:   -5.17 KCAL/MOL
REMARK 923 INTER-LIGAND FREE ENERGY PREDICTED BY IDOCK:   -4.83 KCAL/MOL
REMARK 924 INTRA-LIGAND FREE ENERGY PREDICTED BY IDOCK:   -0.34 KCAL/MOL
REMARK 927      BINDING AFFINITY PREDICTED BY RF-SCORE:    0.00 PKD
ROOT
HETATM    1  C   UNL     1      -9.561   7.471  70.345  1.00  0.00    -0.168 C  
HETATM    2  C   UNL     1     -10.102   5.653  68.738  1.00  0.00    -0.245 A  
HETATM    3  C   UNL     1      -9.993   6.209  70.113  1.00  0.00    -0.218 C  
HETATM    4  C   UNL     1     -10.218   5.339  71.288  1.00  0.00    -0.291 A  
HETATM    5  C   UNL     1     -10.891   6.347  67.798  1.00  0.00    -0.418 A  
HETATM    6  C   UNL     1     -11.244   5.579  72.210  1.00  0.00    -0.281 A  
HETATM    7  C   UNL     1     -11.031   5.893  66.487  1.00  0.00    -0.142 A  
HETATM    8  C   UNL     1     -11.474   4.677  73.250  1.00  0.00    -0.346 A  
HETATM    9  C   UNL     1     -10.414   4.710  66.101  1.00  0.00    -0.281 A  
HETATM   10  C   UNL     1      -9.683   3.976  67.034  1.00  0.00    -0.214 A  
HETATM   11  C   UNL     1     -10.683   3.535  73.374  1.00  0.00    -0.303 A  
HETATM   12  C   UNL     1      -9.655   3.293  72.460  1.00  0.00    -0.189 A  
HETATM   13  C   UNL     1      -9.415   4.195  71.414  1.00  0.00    -0.229 A  
HETATM   14  C   UNL     1      -8.323   3.965  70.399  1.00  0.00    -0.057 C  
HETATM   15  O   UNL     1      -8.822   3.541  69.131  1.00  0.00    -0.085 OA 
HETATM   16  C   UNL     1      -9.523   4.429  68.352  1.00  0.00    -0.154 A  
ENDROOT
BRANCH   1  17
HETATM   17  C   UNL     1      -9.147   8.495  69.312  1.00  0.00    -0.153 C  
BRANCH  17  18
HETATM   18  C   UNL     1      -9.252   9.965  69.767  1.00  0.00    -0.227 C  
BRANCH  18  19
HETATM   19  N   UNL     1     -10.431  10.712  69.291  1.00  0.00    -0.218 NA 
HETATM   20  C   UNL     1     -10.957  10.175  68.035  1.00  0.00    -0.270 C  
HETATM   21  C   UNL     1     -11.477  10.682  70.318  1.00  0.00    -0.337 C  
ENDBRANCH  18  19
ENDBRANCH  17  18
ENDBRANCH   1  17
TORSDOF 3
ENDMDL
MODEL       83
REMARK 921   NORMALIZED FREE ENERGY PREDICTED BY IDOCK:   -4.18 KCAL/MOL
REMARK 922        TOTAL FREE ENERGY PREDICTED BY IDOCK:   -5.15 KCAL/MOL
REMARK 923 INTER-LIGAND FREE ENERGY PREDICTED BY IDOCK:   -4.71 KCAL/MOL
REMARK 924 INTRA-LIGAND FREE ENERGY PREDICTED BY IDOCK:   -0.45 KCAL/MOL
REMARK 927      BINDING AFFINITY PREDICTED BY RF-SCORE:    0.00 PKD
ROOT
HETATM    1  C   UNL     1     -10.581   7.512  68.124  1.00  0.00    -0.201 C  
HETATM    2  C   UNL     1     -10.352   8.175  70.509  1.00  0.00    -0.211 A  
HETATM    3  C   UNL     1     -10.459   8.484  69.058  1.00  0.00    -0.216 C  
HETATM    4  C   UNL     1     -10.286   9.873  68.577  1.00  0.00    -0.199 A  
HETATM    5  C   UNL     1     -11.372   7.406  71.104  1.00  0.00    -0.291 A  
HETATM    6  C   UNL     1     -11.304  10.566  67.911  1.00  0.00    -0.297 A  
HETATM    7  C   UNL     1     -11.335   7.067  72.456  1.00  0.00    -0.301 A  
HETATM    8  C   UNL     1     -11.124  11.905  67.560  1.00  0.00    -0.332 A  
HETATM    9  C   UNL     1     -10.292   7.526  73.250  1.00  0.00    -0.412 A  
HETATM   10  C   UNL     1      -9.308   8.342  72.693  1.00  0.00    -0.350 A  
HETATM   11  C   UNL     1      -9.931  12.555  67.872  1.00  0.00    -0.212 A  
HETATM   12  C   UNL     1      -8.910  11.868  68.532  1.00  0.00    -0.108 A  
HETATM   13  C   UNL     1      -9.080  10.523  68.886  1.00  0.00    -0.180 A  
HETATM   14  C   UNL     1      -8.008   9.747  69.609  1.00  0.00    -0.150 C  
HETATM   15  O   UNL     1      -8.309   9.536  70.989  1.00  0.00    -0.294 OA 
HETATM   16  C   UNL     1      -9.327   8.679  71.331  1.00  0.00    -0.236 A  
ENDROOT
BRANCH   1  17
HETATM   17  C   UNL     1     -10.643   6.020  68.365  1.00  0.00    -0.322 C  
BRANCH  17  18
HETATM   18  C   UNL     1      -9.395   5.231  67.921  1.00  0.00    -0.116 C  
BRANCH  18  19
HETATM   19  N   UNL     1      -8.210   6.033  67.563  1.00  0.00    -0.106 NA 
HETATM   20  C   UNL     1      -7.269   6.159  68.677  1.00  0.00    -0.084 C  
HETATM   21  C   UNL     1      -7.536   5.424  66.412  1.00  0.00    -0.087 C  
ENDBRANCH  18  19
ENDBRANCH  17  18
ENDBRANCH   1  17
TORSDOF 3
ENDMDL
MODEL       84
REMARK 921   NORMALIZED FREE ENERGY PREDICTED BY IDOCK:   -4.16 KCAL/MOL
REMARK 922        TOTAL FREE ENERGY PREDICTED BY IDOCK:   -5.13 KCAL/MOL
REMARK 923 INTER-LIGAND FREE ENERGY PREDICTED BY IDOCK:   -4.90 KCAL/MOL
REMARK 924 INTRA-LIGAND FREE ENERGY PREDICTED BY IDOCK:   -0.23 KCAL/MOL
REMARK 927      BINDING AFFINITY PREDICTED BY RF-SCORE:    0.00 PKD
ROOT
HETATM    1  C   UNL     1      -8.842  12.898  68.095  1.00  0.00    -0.194 C  
HETATM    2  C   UNL     1     -10.683  12.676  66.439  1.00  0.00    -0.278 A  
HETATM    3  C   UNL     1      -9.708  12.114  67.411  1.00  0.00    -0.180 C  
HETATM    4  C   UNL     1      -9.556  10.648  67.550  1.00  0.00    -0.180 A  
HETATM    5  C   UNL     1     -11.574  13.672  66.888  1.00  0.00    -0.397 A  
HETATM    6  C   UNL     1      -9.818   9.981  68.753  1.00  0.00    -0.173 A  
HETATM    7  C   UNL     1     -12.508  14.254  66.032  1.00  0.00    -0.392 A  
HETATM    8  C   UNL     1      -9.750   8.589  68.809  1.00  0.00    -0.168 A  
HETATM    9  C   UNL     1     -12.596  13.822  64.716  1.00  0.00    -0.330 A  
HETATM   10  C   UNL     1     -11.767  12.793  64.271  1.00  0.00    -0.443 A  
HETATM   11  C   UNL     1      -9.422   7.858  67.667  1.00  0.00    -0.170 A  
HETATM   12  C   UNL     1      -9.156   8.519  66.466  1.00  0.00    -0.217 A  
HETATM   13  C   UNL     1      -9.219   9.917  66.401  1.00  0.00    -0.195 A  
HETATM   14  C   UNL     1      -8.949  10.668  65.122  1.00  0.00    -0.198 C  
HETATM   15  O   UNL     1     -10.137  11.176  64.514  1.00  0.00    -0.259 OA 
HETATM   16  C   UNL     1     -10.813  12.208  65.118  1.00  0.00    -0.300 A  
ENDROOT
BRANCH   1  17
HETATM   17  C   UNL     1      -8.720  14.404  68.015  1.00  0.00    -0.170 C  
BRANCH  17  18
HETATM   18  C   UNL     1      -7.277  14.947  68.029  1.00  0.00    -0.134 C  
BRANCH  18  19
HETATM   19  N   UNL     1      -7.089  16.313  67.506  1.00  0.00    -0.136 NA 
HETATM   20  C   UNL     1      -7.565  17.334  68.442  1.00  0.00    -0.241 C  
HETATM   21  C   UNL     1      -5.670  16.535  67.211  1.00  0.00    -0.146 C  
ENDBRANCH  18  19
ENDBRANCH  17  18
ENDBRANCH   1  17
TORSDOF 3
ENDMDL
MODEL       85
REMARK 921   NORMALIZED FREE ENERGY PREDICTED BY IDOCK:   -4.15 KCAL/MOL
REMARK 922        TOTAL FREE ENERGY PREDICTED BY IDOCK:   -5.12 KCAL/MOL
REMARK 923 INTER-LIGAND FREE ENERGY PREDICTED BY IDOCK:   -4.84 KCAL/MOL
REMARK 924 INTRA-LIGAND FREE ENERGY PREDICTED BY IDOCK:   -0.27 KCAL/MOL
REMARK 927      BINDING AFFINITY PREDICTED BY RF-SCORE:    0.00 PKD
ROOT
HETATM    1  C   UNL     1      -8.186  15.359  69.502  1.00  0.00    -0.207 C  
HETATM    2  C   UNL     1      -9.484  17.024  68.190  1.00  0.00    -0.262 A  
HETATM    3  C   UNL     1      -9.366  15.961  69.224  1.00  0.00    -0.259 C  
HETATM    4  C   UNL     1     -10.578  15.424  69.881  1.00  0.00    -0.315 A  
HETATM    5  C   UNL     1      -8.662  18.163  68.307  1.00  0.00    -0.294 A  
HETATM    6  C   UNL     1     -10.788  15.529  71.261  1.00  0.00    -0.087 A  
HETATM    7  C   UNL     1      -8.708  19.195  67.371  1.00  0.00    -0.317 A  
HETATM    8  C   UNL     1     -11.989  15.090  71.820  1.00  0.00    -0.442 A  
HETATM    9  C   UNL     1      -9.610  19.126  66.317  1.00  0.00    -0.386 A  
HETATM   10  C   UNL     1     -10.476  18.037  66.220  1.00  0.00    -0.340 A  
HETATM   11  C   UNL     1     -12.981  14.544  71.006  1.00  0.00    -0.423 A  
HETATM   12  C   UNL     1     -12.775  14.432  69.630  1.00  0.00     0.052 A  
HETATM   13  C   UNL     1     -11.572  14.869  69.060  1.00  0.00    -0.330 A  
HETATM   14  C   UNL     1     -11.313  14.776  67.577  1.00  0.00    -0.344 C  
HETATM   15  O   UNL     1     -11.399  16.039  66.917  1.00  0.00    -0.028 OA 
HETATM   16  C   UNL     1     -10.430  16.985  67.148  1.00  0.00    -0.291 A  
ENDROOT
BRANCH   1  17
HETATM   17  C   UNL     1      -6.845  15.646  68.865  1.00  0.00    -0.126 C  
BRANCH  17  18
HETATM   18  C   UNL     1      -6.229  14.473  68.075  1.00  0.00    -0.154 C  
BRANCH  18  19
HETATM   19  N   UNL     1      -6.850  13.152  68.280  1.00  0.00    -0.091 NA 
HETATM   20  C   UNL     1      -7.786  12.807  67.209  1.00  0.00    -0.146 C  
HETATM   21  C   UNL     1      -5.805  12.128  68.372  1.00  0.00    -0.053 C  
ENDBRANCH  18  19
ENDBRANCH  17  18
ENDBRANCH   1  17
TORSDOF 3
ENDMDL
MODEL       86
REMARK 921   NORMALIZED FREE ENERGY PREDICTED BY IDOCK:   -4.15 KCAL/MOL
REMARK 922        TOTAL FREE ENERGY PREDICTED BY IDOCK:   -5.12 KCAL/MOL
REMARK 923 INTER-LIGAND FREE ENERGY PREDICTED BY IDOCK:   -4.68 KCAL/MOL
REMARK 924 INTRA-LIGAND FREE ENERGY PREDICTED BY IDOCK:   -0.43 KCAL/MOL
REMARK 927      BINDING AFFINITY PREDICTED BY RF-SCORE:    0.00 PKD
ROOT
HETATM    1  C   UNL     1     -10.387   8.094  67.951  1.00  0.00    -0.280 C  
HETATM    2  C   UNL     1      -9.285  10.288  68.342  1.00  0.00    -0.136 A  
HETATM    3  C   UNL     1     -10.233   9.203  68.711  1.00  0.00    -0.228 C  
HETATM    4  C   UNL     1     -11.153   9.377  69.857  1.00  0.00    -0.223 A  
HETATM    5  C   UNL     1      -7.931   9.952  68.144  1.00  0.00    -0.100 A  
HETATM    6  C   UNL     1     -11.117   8.538  70.977  1.00  0.00    -0.306 A  
HETATM    7  C   UNL     1      -6.986  10.912  67.785  1.00  0.00    -0.077 A  
HETATM    8  C   UNL     1     -11.942   8.799  72.072  1.00  0.00    -0.446 A  
HETATM    9  C   UNL     1      -7.372  12.240  67.656  1.00  0.00    -0.127 A  
HETATM   10  C   UNL     1      -8.694  12.602  67.911  1.00  0.00    -0.181 A  
HETATM   11  C   UNL     1     -12.804   9.895  72.053  1.00  0.00    -0.488 A  
HETATM   12  C   UNL     1     -12.847  10.732  70.937  1.00  0.00    -0.443 A  
HETATM   13  C   UNL     1     -12.025  10.477  69.832  1.00  0.00    -0.339 A  
HETATM   14  C   UNL     1     -12.033  11.362  68.611  1.00  0.00    -0.249 C  
HETATM   15  O   UNL     1     -10.883  12.204  68.527  1.00  0.00    -0.216 OA 
HETATM   16  C   UNL     1      -9.657  11.643  68.259  1.00  0.00    -0.198 A  
ENDROOT
BRANCH   1  17
HETATM   17  C   UNL     1      -9.657   7.762  66.668  1.00  0.00    -0.286 C  
BRANCH  17  18
HETATM   18  C   UNL     1      -8.841   6.453  66.697  1.00  0.00    -0.130 C  
BRANCH  18  19
HETATM   19  N   UNL     1      -7.862   6.319  67.792  1.00  0.00    -0.105 NA 
HETATM   20  C   UNL     1      -7.976   5.034  68.482  1.00  0.00    -0.086 C  
HETATM   21  C   UNL     1      -6.506   6.476  67.258  1.00  0.00    -0.042 C  
ENDBRANCH  18  19
ENDBRANCH  17  18
ENDBRANCH   1  17
TORSDOF 3
ENDMDL
MODEL       87
REMARK 921   NORMALIZED FREE ENERGY PREDICTED BY IDOCK:   -4.14 KCAL/MOL
REMARK 922        TOTAL FREE ENERGY PREDICTED BY IDOCK:   -5.10 KCAL/MOL
REMARK 923 INTER-LIGAND FREE ENERGY PREDICTED BY IDOCK:   -4.73 KCAL/MOL
REMARK 924 INTRA-LIGAND FREE ENERGY PREDICTED BY IDOCK:   -0.37 KCAL/MOL
REMARK 927      BINDING AFFINITY PREDICTED BY RF-SCORE:    0.00 PKD
ROOT
HETATM    1  C   UNL     1     -10.500  12.114  65.298  1.00  0.00    -0.311 C  
HETATM    2  C   UNL     1      -9.942  11.155  67.523  1.00  0.00    -0.204 A  
HETATM    3  C   UNL     1     -10.270  12.291  66.620  1.00  0.00    -0.235 C  
HETATM    4  C   UNL     1     -10.210  13.682  67.121  1.00  0.00    -0.244 A  
HETATM    5  C   UNL     1     -10.841  10.071  67.585  1.00  0.00    -0.336 A  
HETATM    6  C   UNL     1     -11.335  14.515  67.150  1.00  0.00    -0.361 A  
HETATM    7  C   UNL     1     -10.595   8.966  68.399  1.00  0.00    -0.190 A  
HETATM    8  C   UNL     1     -11.248  15.787  67.717  1.00  0.00    -0.286 A  
HETATM    9  C   UNL     1      -9.461   8.943  69.200  1.00  0.00    -0.157 A  
HETATM   10  C   UNL     1      -8.593  10.035  69.200  1.00  0.00    -0.158 A  
HETATM   11  C   UNL     1     -10.041  16.231  68.256  1.00  0.00    -0.243 A  
HETATM   12  C   UNL     1      -8.915  15.406  68.226  1.00  0.00    -0.185 A  
HETATM   13  C   UNL     1      -8.992  14.129  67.656  1.00  0.00    -0.192 A  
HETATM   14  C   UNL     1      -7.803  13.202  67.614  1.00  0.00    -0.169 C  
HETATM   15  O   UNL     1      -7.891  12.139  68.563  1.00  0.00    -0.134 OA 
HETATM   16  C   UNL     1      -8.822  11.146  68.375  1.00  0.00    -0.157 A  
ENDROOT
BRANCH   1  17
HETATM   17  C   UNL     1     -10.482  10.806  64.538  1.00  0.00    -0.351 C  
BRANCH  17  18
HETATM   18  C   UNL     1      -9.486  10.743  63.363  1.00  0.00    -0.316 C  
BRANCH  18  19
HETATM   19  N   UNL     1      -8.604   9.562  63.318  1.00  0.00    -0.201 NA 
HETATM   20  C   UNL     1      -7.271   9.885  62.808  1.00  0.00    -0.120 C  
HETATM   21  C   UNL     1      -8.494   8.981  64.659  1.00  0.00    -0.177 C  
ENDBRANCH  18  19
ENDBRANCH  17  18
ENDBRANCH   1  17
TORSDOF 3
ENDMDL
MODEL       88
REMARK 921   NORMALIZED FREE ENERGY PREDICTED BY IDOCK:   -4.13 KCAL/MOL
REMARK 922        TOTAL FREE ENERGY PREDICTED BY IDOCK:   -5.09 KCAL/MOL
REMARK 923 INTER-LIGAND FREE ENERGY PREDICTED BY IDOCK:   -4.86 KCAL/MOL
REMARK 924 INTRA-LIGAND FREE ENERGY PREDICTED BY IDOCK:   -0.23 KCAL/MOL
REMARK 927      BINDING AFFINITY PREDICTED BY RF-SCORE:    0.00 PKD
ROOT
HETATM    1  C   UNL     1     -10.899   9.661  67.591  1.00  0.00    -0.276 C  
HETATM    2  C   UNL     1      -8.778  10.923  67.886  1.00  0.00    -0.131 A  
HETATM    3  C   UNL     1     -10.237  10.726  68.099  1.00  0.00    -0.194 C  
HETATM    4  C   UNL     1     -11.042  11.779  68.756  1.00  0.00    -0.293 A  
HETATM    5  C   UNL     1      -7.901   9.892  68.281  1.00  0.00    -0.085 A  
HETATM    6  C   UNL     1     -11.720  11.558  69.961  1.00  0.00    -0.414 A  
HETATM    7  C   UNL     1      -6.522  10.000  68.103  1.00  0.00    -0.055 A  
HETATM    8  C   UNL     1     -12.390  12.609  70.589  1.00  0.00    -0.375 A  
HETATM    9  C   UNL     1      -5.989  11.161  67.561  1.00  0.00    -0.048 A  
HETATM   10  C   UNL     1      -6.835  12.217  67.223  1.00  0.00    -0.140 A  
HETATM   11  C   UNL     1     -12.385  13.881  70.018  1.00  0.00    -0.378 A  
HETATM   12  C   UNL     1     -11.714  14.107  68.815  1.00  0.00    -0.380 A  
HETATM   13  C   UNL     1     -11.041  13.057  68.176  1.00  0.00    -0.285 A  
HETATM   14  C   UNL     1     -10.295  13.260  66.881  1.00  0.00    -0.255 C  
HETATM   15  O   UNL     1      -8.878  13.278  67.052  1.00  0.00    -0.218 OA 
HETATM   16  C   UNL     1      -8.225  12.116  67.384  1.00  0.00    -0.175 A  
ENDROOT
BRANCH   1  17
HETATM   17  C   UNL     1     -10.314   8.530  66.773  1.00  0.00    -0.346 C  
BRANCH  17  18
HETATM   18  C   UNL     1     -10.931   7.142  67.036  1.00  0.00    -0.234 C  
BRANCH  18  19
HETATM   19  N   UNL     1      -9.993   6.004  67.055  1.00  0.00    -0.149 NA 
HETATM   20  C   UNL     1      -9.846   5.430  68.393  1.00  0.00    -0.147 C  
HETATM   21  C   UNL     1     -10.456   4.972  66.122  1.00  0.00    -0.286 C  
ENDBRANCH  18  19
ENDBRANCH  17  18
ENDBRANCH   1  17
TORSDOF 3
ENDMDL
MODEL       89
REMARK 921   NORMALIZED FREE ENERGY PREDICTED BY IDOCK:   -4.10 KCAL/MOL
REMARK 922        TOTAL FREE ENERGY PREDICTED BY IDOCK:   -5.05 KCAL/MOL
REMARK 923 INTER-LIGAND FREE ENERGY PREDICTED BY IDOCK:   -4.69 KCAL/MOL
REMARK 924 INTRA-LIGAND FREE ENERGY PREDICTED BY IDOCK:   -0.36 KCAL/MOL
REMARK 927      BINDING AFFINITY PREDICTED BY RF-SCORE:    0.00 PKD
ROOT
HETATM    1  C   UNL     1      -9.120   7.140  68.815  1.00  0.00    -0.134 C  
HETATM    2  C   UNL     1      -9.787   8.755  67.046  1.00  0.00    -0.279 A  
HETATM    3  C   UNL     1      -9.482   7.383  67.533  1.00  0.00    -0.162 C  
HETATM    4  C   UNL     1      -9.424   6.252  66.582  1.00  0.00    -0.178 A  
HETATM    5  C   UNL     1     -10.783   9.495  67.715  1.00  0.00    -0.302 A  
HETATM    6  C   UNL     1     -10.287   5.153  66.674  1.00  0.00    -0.325 A  
HETATM    7  C   UNL     1     -11.115  10.792  67.324  1.00  0.00    -0.339 A  
HETATM    8  C   UNL     1     -10.255   4.156  65.699  1.00  0.00    -0.157 A  
HETATM    9  C   UNL     1     -10.482  11.360  66.226  1.00  0.00    -0.301 A  
HETATM   10  C   UNL     1      -9.540  10.620  65.513  1.00  0.00    -0.271 A  
HETATM   11  C   UNL     1      -9.364   4.250  64.630  1.00  0.00    -0.162 A  
HETATM   12  C   UNL     1      -8.497   5.341  64.536  1.00  0.00    -0.133 A  
HETATM   13  C   UNL     1      -8.521   6.346  65.512  1.00  0.00    -0.141 A  
HETATM   14  C   UNL     1      -7.610   7.547  65.442  1.00  0.00    -0.095 C  
HETATM   15  O   UNL     1      -8.289   8.738  65.043  1.00  0.00    -0.152 OA 
HETATM   16  C   UNL     1      -9.187   9.320  65.905  1.00  0.00    -0.219 A  
ENDROOT
BRANCH   1  17
HETATM   17  C   UNL     1      -8.980   8.153  69.929  1.00  0.00    -0.143 C  
BRANCH  17  18
HETATM   18  C   UNL     1      -9.955   7.970  71.109  1.00  0.00    -0.174 C  
BRANCH  18  19
HETATM   19  N   UNL     1     -11.388   8.136  70.803  1.00  0.00    -0.273 NA 
HETATM   20  C   UNL     1     -12.145   6.901  71.009  1.00  0.00    -0.380 C  
HETATM   21  C   UNL     1     -11.947   9.204  71.638  1.00  0.00    -0.367 C  
ENDBRANCH  18  19
ENDBRANCH  17  18
ENDBRANCH   1  17
TORSDOF 3
ENDMDL
MODEL       90
REMARK 921   NORMALIZED FREE ENERGY PREDICTED BY IDOCK:   -4.09 KCAL/MOL
REMARK 922        TOTAL FREE ENERGY PREDICTED BY IDOCK:   -5.05 KCAL/MOL
REMARK 923 INTER-LIGAND FREE ENERGY PREDICTED BY IDOCK:   -4.73 KCAL/MOL
REMARK 924 INTRA-LIGAND FREE ENERGY PREDICTED BY IDOCK:   -0.32 KCAL/MOL
REMARK 927      BINDING AFFINITY PREDICTED BY RF-SCORE:    0.00 PKD
ROOT
HETATM    1  C   UNL     1     -11.331   7.693  70.159  1.00  0.00    -0.147 C  
HETATM    2  C   UNL     1      -8.998   7.988  69.351  1.00  0.00    -0.148 A  
HETATM    3  C   UNL     1     -10.383   8.475  69.592  1.00  0.00    -0.218 C  
HETATM    4  C   UNL     1     -10.808   9.796  69.076  1.00  0.00    -0.223 A  
HETATM    5  C   UNL     1      -8.265   7.493  70.448  1.00  0.00    -0.123 A  
HETATM    6  C   UNL     1     -11.229  10.828  69.924  1.00  0.00    -0.371 A  
HETATM    7  C   UNL     1      -6.966   7.008  70.298  1.00  0.00    -0.065 A  
HETATM    8  C   UNL     1     -11.531  12.084  69.397  1.00  0.00    -0.361 A  
HETATM    9  C   UNL     1      -6.359   7.048  69.050  1.00  0.00    -0.028 A  
HETATM   10  C   UNL     1      -7.045   7.594  67.966  1.00  0.00    -0.085 A  
HETATM   11  C   UNL     1     -11.415  12.315  68.027  1.00  0.00    -0.378 A  
HETATM   12  C   UNL     1     -11.000  11.288  67.176  1.00  0.00    -0.348 A  
HETATM   13  C   UNL     1     -10.697  10.022  67.696  1.00  0.00    -0.340 A  
HETATM   14  C   UNL     1     -10.234   8.889  66.814  1.00  0.00    -0.278 C  
HETATM   15  O   UNL     1      -8.837   8.623  66.937  1.00  0.00    -0.127 OA 
HETATM   16  C   UNL     1      -8.357   8.072  68.100  1.00  0.00    -0.127 A  
ENDROOT
BRANCH   1  17
HETATM   17  C   UNL     1     -11.166   6.268  70.641  1.00  0.00    -0.401 C  
BRANCH  17  18
HETATM   18  C   UNL     1     -11.594   6.015  72.101  1.00  0.00    -0.293 C  
BRANCH  18  19
HETATM   19  N   UNL     1     -10.852   4.967  72.825  1.00  0.00    -0.233 NA 
HETATM   20  C   UNL     1      -9.671   4.514  72.088  1.00  0.00    -0.163 C  
HETATM   21  C   UNL     1     -10.450   5.472  74.142  1.00  0.00    -0.269 C  
ENDBRANCH  18  19
ENDBRANCH  17  18
ENDBRANCH   1  17
TORSDOF 3
ENDMDL
MODEL       91
REMARK 921   NORMALIZED FREE ENERGY PREDICTED BY IDOCK:   -4.09 KCAL/MOL
REMARK 922        TOTAL FREE ENERGY PREDICTED BY IDOCK:   -5.04 KCAL/MOL
REMARK 923 INTER-LIGAND FREE ENERGY PREDICTED BY IDOCK:   -4.83 KCAL/MOL
REMARK 924 INTRA-LIGAND FREE ENERGY PREDICTED BY IDOCK:   -0.21 KCAL/MOL
REMARK 927      BINDING AFFINITY PREDICTED BY RF-SCORE:    0.00 PKD
ROOT
HETATM    1  C   UNL     1     -10.483   5.600  68.534  1.00  0.00    -0.273 C  
HETATM    2  C   UNL     1      -9.364   4.687  70.558  1.00  0.00    -0.222 A  
HETATM    3  C   UNL     1     -10.311   5.610  69.877  1.00  0.00    -0.347 C  
HETATM    4  C   UNL     1     -10.989   6.679  70.643  1.00  0.00    -0.329 A  
HETATM    5  C   UNL     1      -9.521   3.301  70.353  1.00  0.00    -0.235 A  
HETATM    6  C   UNL     1     -12.382   6.739  70.767  1.00  0.00    -0.289 A  
HETATM    7  C   UNL     1      -8.665   2.375  70.948  1.00  0.00    -0.116 A  
HETATM    8  C   UNL     1     -12.970   7.712  71.577  1.00  0.00    -0.378 A  
HETATM    9  C   UNL     1      -7.657   2.817  71.795  1.00  0.00    -0.048 A  
HETATM   10  C   UNL     1      -7.527   4.180  72.060  1.00  0.00    -0.069 A  
HETATM   11  C   UNL     1     -12.171   8.627  72.264  1.00  0.00    -0.447 A  
HETATM   12  C   UNL     1     -10.781   8.574  72.140  1.00  0.00    -0.426 A  
HETATM   13  C   UNL     1     -10.183   7.602  71.327  1.00  0.00    -0.204 A  
HETATM   14  C   UNL     1      -8.686   7.504  71.174  1.00  0.00    -0.136 C  
HETATM   15  O   UNL     1      -8.125   6.403  71.890  1.00  0.00    -0.108 OA 
HETATM   16  C   UNL     1      -8.373   5.123  71.457  1.00  0.00    -0.120 A  
ENDROOT
BRANCH   1  17
HETATM   17  C   UNL     1      -9.799   4.693  67.536  1.00  0.00    -0.200 C  
BRANCH  17  18
HETATM   18  C   UNL     1     -10.388   4.723  66.111  1.00  0.00    -0.300 C  
BRANCH  18  19
HETATM   19  N   UNL     1      -9.613   4.024  65.070  1.00  0.00    -0.169 NA 
HETATM   20  C   UNL     1     -10.447   3.614  63.939  1.00  0.00    -0.270 C  
HETATM   21  C   UNL     1      -8.531   4.894  64.597  1.00  0.00    -0.143 C  
ENDBRANCH  18  19
ENDBRANCH  17  18
ENDBRANCH   1  17
TORSDOF 3
ENDMDL
MODEL       92
REMARK 921   NORMALIZED FREE ENERGY PREDICTED BY IDOCK:   -4.07 KCAL/MOL
REMARK 922        TOTAL FREE ENERGY PREDICTED BY IDOCK:   -5.02 KCAL/MOL
REMARK 923 INTER-LIGAND FREE ENERGY PREDICTED BY IDOCK:   -4.68 KCAL/MOL
REMARK 924 INTRA-LIGAND FREE ENERGY PREDICTED BY IDOCK:   -0.34 KCAL/MOL
REMARK 927      BINDING AFFINITY PREDICTED BY RF-SCORE:    0.00 PKD
ROOT
HETATM    1  C   UNL     1      -9.578   9.443  70.105  1.00  0.00    -0.275 C  
HETATM    2  C   UNL     1      -9.390   7.125  69.228  1.00  0.00    -0.146 A  
HETATM    3  C   UNL     1      -9.174   8.593  69.132  1.00  0.00    -0.152 C  
HETATM    4  C   UNL     1      -8.635   9.187  67.889  1.00  0.00    -0.121 A  
HETATM    5  C   UNL     1      -8.883   6.448  70.356  1.00  0.00    -0.151 A  
HETATM    6  C   UNL     1      -7.421   9.885  67.859  1.00  0.00    -0.089 A  
HETATM    7  C   UNL     1      -9.057   5.074  70.520  1.00  0.00    -0.180 A  
HETATM    8  C   UNL     1      -6.911  10.346  66.645  1.00  0.00    -0.099 A  
HETATM    9  C   UNL     1      -9.708   4.342  69.537  1.00  0.00    -0.272 A  
HETATM   10  C   UNL     1     -10.160   4.984  68.384  1.00  0.00    -0.176 A  
HETATM   11  C   UNL     1      -7.607  10.113  65.459  1.00  0.00    -0.146 A  
HETATM   12  C   UNL     1      -8.820   9.422  65.484  1.00  0.00    -0.220 A  
HETATM   13  C   UNL     1      -9.342   8.958  66.698  1.00  0.00    -0.237 A  
HETATM   14  C   UNL     1     -10.643   8.197  66.768  1.00  0.00    -0.153 C  
HETATM   15  O   UNL     1     -10.459   6.799  66.991  1.00  0.00    -0.235 OA 
HETATM   16  C   UNL     1     -10.004   6.367  68.212  1.00  0.00    -0.140 A  
ENDROOT
BRANCH   1  17
HETATM   17  C   UNL     1     -10.271   9.081  71.400  1.00  0.00    -0.399 C  
BRANCH  17  18
HETATM   18  C   UNL     1     -11.777   9.409  71.453  1.00  0.00    -0.378 C  
BRANCH  18  19
HETATM   19  N   UNL     1     -12.667   8.315  71.883  1.00  0.00    -0.329 NA 
HETATM   20  C   UNL     1     -14.076   8.610  71.614  1.00  0.00    -0.400 C  
HETATM   21  C   UNL     1     -12.283   7.074  71.202  1.00  0.00    -0.382 C  
ENDBRANCH  18  19
ENDBRANCH  17  18
ENDBRANCH   1  17
TORSDOF 3
ENDMDL
MODEL       93
REMARK 921   NORMALIZED FREE ENERGY PREDICTED BY IDOCK:   -4.01 KCAL/MOL
REMARK 922        TOTAL FREE ENERGY PREDICTED BY IDOCK:   -4.95 KCAL/MOL
REMARK 923 INTER-LIGAND FREE ENERGY PREDICTED BY IDOCK:   -4.49 KCAL/MOL
REMARK 924 INTRA-LIGAND FREE ENERGY PREDICTED BY IDOCK:   -0.46 KCAL/MOL
REMARK 927      BINDING AFFINITY PREDICTED BY RF-SCORE:    0.00 PKD
ROOT
HETATM    1  C   UNL     1      -8.930   6.804  68.890  1.00  0.00    -0.131 C  
HETATM    2  C   UNL     1     -10.858   8.012  69.892  1.00  0.00    -0.217 A  
HETATM    3  C   UNL     1      -9.837   7.808  68.830  1.00  0.00    -0.166 C  
HETATM    4  C   UNL     1      -9.688   8.797  67.740  1.00  0.00    -0.194 A  
HETATM    5  C   UNL     1     -11.717   6.939  70.207  1.00  0.00    -0.344 A  
HETATM    6  C   UNL     1      -9.890   8.463  66.396  1.00  0.00    -0.310 A  
HETATM    7  C   UNL     1     -12.691   7.052  71.198  1.00  0.00    -0.361 A  
HETATM    8  C   UNL     1      -9.829   9.452  65.413  1.00  0.00    -0.159 A  
HETATM    9  C   UNL     1     -12.852   8.257  71.869  1.00  0.00    -0.371 A  
HETATM   10  C   UNL     1     -12.054   9.349  71.526  1.00  0.00    -0.456 A  
HETATM   11  C   UNL     1      -9.567  10.775  65.768  1.00  0.00    -0.254 A  
HETATM   12  C   UNL     1      -9.361  11.113  67.107  1.00  0.00    -0.176 A  
HETATM   13  C   UNL     1      -9.417  10.126  68.100  1.00  0.00    -0.151 A  
HETATM   14  C   UNL     1      -9.211  10.451  69.558  1.00  0.00    -0.120 C  
HETATM   15  O   UNL     1     -10.426  10.440  70.308  1.00  0.00    -0.227 OA 
HETATM   16  C   UNL     1     -11.061   9.244  70.541  1.00  0.00    -0.265 A  
ENDROOT
BRANCH   1  17
HETATM   17  C   UNL     1      -8.802   5.756  69.973  1.00  0.00    -0.139 C  
BRANCH  17  18
HETATM   18  C   UNL     1      -7.883   6.138  71.150  1.00  0.00    -0.111 C  
BRANCH  18  19
HETATM   19  N   UNL     1      -8.459   7.044  72.160  1.00  0.00    -0.112 NA 
HETATM   20  C   UNL     1      -9.115   6.316  73.248  1.00  0.00    -0.128 C  
HETATM   21  C   UNL     1      -7.405   7.904  72.706  1.00  0.00    -0.101 C  
ENDBRANCH  18  19
ENDBRANCH  17  18
ENDBRANCH   1  17
TORSDOF 3
ENDMDL
MODEL       94
REMARK 921   NORMALIZED FREE ENERGY PREDICTED BY IDOCK:   -4.00 KCAL/MOL
REMARK 922        TOTAL FREE ENERGY PREDICTED BY IDOCK:   -4.94 KCAL/MOL
REMARK 923 INTER-LIGAND FREE ENERGY PREDICTED BY IDOCK:   -4.70 KCAL/MOL
REMARK 924 INTRA-LIGAND FREE ENERGY PREDICTED BY IDOCK:   -0.24 KCAL/MOL
REMARK 927      BINDING AFFINITY PREDICTED BY RF-SCORE:    0.00 PKD
ROOT
HETATM    1  C   UNL     1      -8.042  14.722  67.091  1.00  0.00    -0.226 C  
HETATM    2  C   UNL     1      -8.473  12.307  67.491  1.00  0.00    -0.172 A  
HETATM    3  C   UNL     1      -8.836  13.638  66.935  1.00  0.00    -0.201 C  
HETATM    4  C   UNL     1     -10.162  13.848  66.313  1.00  0.00    -0.299 A  
HETATM    5  C   UNL     1      -7.234  11.744  67.122  1.00  0.00    -0.147 A  
HETATM    6  C   UNL     1     -10.308  14.216  64.970  1.00  0.00    -0.443 A  
HETATM    7  C   UNL     1      -6.821  10.506  67.612  1.00  0.00    -0.074 A  
HETATM    8  C   UNL     1     -11.581  14.311  64.406  1.00  0.00    -0.358 A  
HETATM    9  C   UNL     1      -7.659   9.786  68.453  1.00  0.00    -0.080 A  
HETATM   10  C   UNL     1      -8.915  10.298  68.778  1.00  0.00    -0.155 A  
HETATM   11  C   UNL     1     -12.710  14.042  65.178  1.00  0.00    -0.419 A  
HETATM   12  C   UNL     1     -12.571  13.679  66.520  1.00  0.00    -0.225 A  
HETATM   13  C   UNL     1     -11.297  13.583  67.095  1.00  0.00    -0.346 A  
HETATM   14  C   UNL     1     -11.102  13.184  68.537  1.00  0.00    -0.266 C  
HETATM   15  O   UNL     1     -10.623  11.847  68.684  1.00  0.00    -0.223 OA 
HETATM   16  C   UNL     1      -9.338  11.548  68.303  1.00  0.00    -0.190 A  
ENDROOT
BRANCH   1  17
HETATM   17  C   UNL     1      -6.709  14.779  67.805  1.00  0.00    -0.193 C  
BRANCH  17  18
HETATM   18  C   UNL     1      -6.714  15.541  69.145  1.00  0.00    -0.145 C  
BRANCH  18  19
HETATM   19  N   UNL     1      -5.547  15.329  70.021  1.00  0.00    -0.120 NA 
HETATM   20  C   UNL     1      -5.134  16.557  70.701  1.00  0.00    -0.212 C  
HETATM   21  C   UNL     1      -5.859  14.295  71.012  1.00  0.00    -0.209 C  
ENDBRANCH  18  19
ENDBRANCH  17  18
ENDBRANCH   1  17
TORSDOF 3
ENDMDL
MODEL       95
REMARK 921   NORMALIZED FREE ENERGY PREDICTED BY IDOCK:   -4.00 KCAL/MOL
REMARK 922        TOTAL FREE ENERGY PREDICTED BY IDOCK:   -4.94 KCAL/MOL
REMARK 923 INTER-LIGAND FREE ENERGY PREDICTED BY IDOCK:   -4.60 KCAL/MOL
REMARK 924 INTRA-LIGAND FREE ENERGY PREDICTED BY IDOCK:   -0.33 KCAL/MOL
REMARK 927      BINDING AFFINITY PREDICTED BY RF-SCORE:    0.00 PKD
ROOT
HETATM    1  C   UNL     1     -10.877   8.597  67.666  1.00  0.00    -0.081 C  
HETATM    2  C   UNL     1      -8.846   9.644  66.687  1.00  0.00    -0.153 A  
HETATM    3  C   UNL     1     -10.168   9.710  67.367  1.00  0.00    -0.283 C  
HETATM    4  C   UNL     1     -10.818  11.018  67.606  1.00  0.00    -0.306 A  
HETATM    5  C   UNL     1      -7.828   8.871  67.281  1.00  0.00    -0.096 A  
HETATM    6  C   UNL     1     -11.108  11.483  68.894  1.00  0.00    -0.288 A  
HETATM    7  C   UNL     1      -6.568   8.752  66.696  1.00  0.00    -0.064 A  
HETATM    8  C   UNL     1     -11.637  12.763  69.072  1.00  0.00    -0.366 A  
HETATM    9  C   UNL     1      -6.288   9.440  65.523  1.00  0.00    -0.065 A  
HETATM   10  C   UNL     1      -7.262  10.262  64.956  1.00  0.00    -0.111 A  
HETATM   11  C   UNL     1     -11.877  13.580  67.968  1.00  0.00    -0.400 A  
HETATM   12  C   UNL     1     -11.594  13.118  66.680  1.00  0.00    -0.403 A  
HETATM   13  C   UNL     1     -11.066  11.835  66.492  1.00  0.00    -0.364 A  
HETATM   14  C   UNL     1     -10.736  11.302  65.120  1.00  0.00    -0.246 C  
HETATM   15  O   UNL     1      -9.333  11.277  64.856  1.00  0.00    -0.214 OA 
HETATM   16  C   UNL     1      -8.539  10.378  65.526  1.00  0.00    -0.169 A  
ENDROOT
BRANCH   1  17
HETATM   17  C   UNL     1     -10.478   7.163  67.396  1.00  0.00    -0.354 C  
BRANCH  17  18
HETATM   18  C   UNL     1     -10.472   6.239  68.631  1.00  0.00    -0.231 C  
BRANCH  18  19
HETATM   19  N   UNL     1      -9.250   5.443  68.844  1.00  0.00    -0.117 NA 
HETATM   20  C   UNL     1      -9.514   4.212  69.591  1.00  0.00    -0.189 C  
HETATM   21  C   UNL     1      -8.646   5.116  67.548  1.00  0.00    -0.104 C  
ENDBRANCH  18  19
ENDBRANCH  17  18
ENDBRANCH   1  17
TORSDOF 3
ENDMDL
MODEL       96
REMARK 921   NORMALIZED FREE ENERGY PREDICTED BY IDOCK:   -3.99 KCAL/MOL
REMARK 922        TOTAL FREE ENERGY PREDICTED BY IDOCK:   -4.93 KCAL/MOL
REMARK 923 INTER-LIGAND FREE ENERGY PREDICTED BY IDOCK:   -4.63 KCAL/MOL
REMARK 924 INTRA-LIGAND FREE ENERGY PREDICTED BY IDOCK:   -0.30 KCAL/MOL
REMARK 927      BINDING AFFINITY PREDICTED BY RF-SCORE:    0.00 PKD
ROOT
HETATM    1  C   UNL     1      -8.961   9.030  65.531  1.00  0.00    -0.252 C  
HETATM    2  C   UNL     1      -9.172   8.487  67.948  1.00  0.00    -0.148 A  
HETATM    3  C   UNL     1      -8.949   8.112  66.526  1.00  0.00    -0.191 C  
HETATM    4  C   UNL     1      -8.854   6.688  66.137  1.00  0.00    -0.160 A  
HETATM    5  C   UNL     1      -8.330   9.462  68.521  1.00  0.00    -0.118 A  
HETATM    6  C   UNL     1      -7.702   6.148  65.552  1.00  0.00    -0.094 A  
HETATM    7  C   UNL     1      -8.485   9.872  69.844  1.00  0.00    -0.210 A  
HETATM    8  C   UNL     1      -7.627   4.780  65.289  1.00  0.00    -0.081 A  
HETATM    9  C   UNL     1      -9.463   9.284  70.635  1.00  0.00    -0.333 A  
HETATM   10  C   UNL     1     -10.263   8.272  70.105  1.00  0.00    -0.199 A  
HETATM   11  C   UNL     1      -8.700   3.947  65.607  1.00  0.00    -0.117 A  
HETATM   12  C   UNL     1      -9.853   4.480  66.186  1.00  0.00    -0.243 A  
HETATM   13  C   UNL     1      -9.938   5.853  66.452  1.00  0.00    -0.162 A  
HETATM   14  C   UNL     1     -11.161   6.468  67.086  1.00  0.00    -0.360 C  
HETATM   15  O   UNL     1     -10.961   6.815  68.456  1.00  0.00    -0.231 OA 
HETATM   16  C   UNL     1     -10.127   7.860  68.771  1.00  0.00    -0.193 A  
ENDROOT
BRANCH   1  17
HETATM   17  C   UNL     1      -9.174  10.521  65.672  1.00  0.00    -0.221 C  
BRANCH  17  18
HETATM   18  C   UNL     1     -10.633  10.994  65.511  1.00  0.00    -0.200 C  
BRANCH  18  19
HETATM   19  N   UNL     1     -10.883  11.990  64.452  1.00  0.00    -0.308 NA 
HETATM   20  C   UNL     1     -10.625  13.357  64.906  1.00  0.00    -0.385 C  
HETATM   21  C   UNL     1     -10.044  11.689  63.288  1.00  0.00    -0.423 C  
ENDBRANCH  18  19
ENDBRANCH  17  18
ENDBRANCH   1  17
TORSDOF 3
ENDMDL
MODEL       97
REMARK 921   NORMALIZED FREE ENERGY PREDICTED BY IDOCK:   -3.99 KCAL/MOL
REMARK 922        TOTAL FREE ENERGY PREDICTED BY IDOCK:   -4.93 KCAL/MOL
REMARK 923 INTER-LIGAND FREE ENERGY PREDICTED BY IDOCK:   -4.65 KCAL/MOL
REMARK 924 INTRA-LIGAND FREE ENERGY PREDICTED BY IDOCK:   -0.28 KCAL/MOL
REMARK 927      BINDING AFFINITY PREDICTED BY RF-SCORE:    0.00 PKD
ROOT
HETATM    1  C   UNL     1      -9.358   9.480  67.861  1.00  0.00    -0.145 C  
HETATM    2  C   UNL     1     -10.246   7.953  69.610  1.00  0.00    -0.207 A  
HETATM    3  C   UNL     1      -9.358   8.265  68.459  1.00  0.00    -0.138 C  
HETATM    4  C   UNL     1      -8.544   7.198  67.835  1.00  0.00    -0.123 A  
HETATM    5  C   UNL     1     -10.173   8.776  70.752  1.00  0.00    -0.262 A  
HETATM    6  C   UNL     1      -7.145   7.245  67.807  1.00  0.00    -0.089 A  
HETATM    7  C   UNL     1     -10.983   8.552  71.865  1.00  0.00    -0.394 A  
HETATM    8  C   UNL     1      -6.421   6.170  67.290  1.00  0.00    -0.046 A  
HETATM    9  C   UNL     1     -11.856   7.473  71.873  1.00  0.00    -0.331 A  
HETATM   10  C   UNL     1     -11.896   6.610  70.778  1.00  0.00    -0.441 A  
HETATM   11  C   UNL     1      -7.088   5.048  66.800  1.00  0.00    -0.069 A  
HETATM   12  C   UNL     1      -8.483   4.998  66.821  1.00  0.00    -0.106 A  
HETATM   13  C   UNL     1      -9.219   6.073  67.335  1.00  0.00    -0.109 A  
HETATM   14  C   UNL     1     -10.726   6.055  67.387  1.00  0.00    -0.310 C  
HETATM   15  O   UNL     1     -11.236   5.843  68.703  1.00  0.00    -0.238 OA 
HETATM   16  C   UNL     1     -11.097   6.832  69.646  1.00  0.00    -0.292 A  
ENDROOT
BRANCH   1  17
HETATM   17  C   UNL     1     -10.199  10.679  68.236  1.00  0.00    -0.187 C  
BRANCH  17  18
HETATM   18  C   UNL     1     -11.179  11.160  67.147  1.00  0.00    -0.249 C  
BRANCH  18  19
HETATM   19  N   UNL     1     -10.735  12.304  66.329  1.00  0.00    -0.252 NA 
HETATM   20  C   UNL     1     -10.429  11.914  64.952  1.00  0.00    -0.287 C  
HETATM   21  C   UNL     1     -11.772  13.340  66.330  1.00  0.00    -0.373 C  
ENDBRANCH  18  19
ENDBRANCH  17  18
ENDBRANCH   1  17
TORSDOF 3
ENDMDL
MODEL       98
REMARK 921   NORMALIZED FREE ENERGY PREDICTED BY IDOCK:   -3.95 KCAL/MOL
REMARK 922        TOTAL FREE ENERGY PREDICTED BY IDOCK:   -4.88 KCAL/MOL
REMARK 923 INTER-LIGAND FREE ENERGY PREDICTED BY IDOCK:   -4.66 KCAL/MOL
REMARK 924 INTRA-LIGAND FREE ENERGY PREDICTED BY IDOCK:   -0.22 KCAL/MOL
REMARK 927      BINDING AFFINITY PREDICTED BY RF-SCORE:    0.00 PKD
ROOT
HETATM    1  C   UNL     1     -10.599   7.214  68.889  1.00  0.00    -0.218 C  
HETATM    2  C   UNL     1      -8.879   8.941  69.377  1.00  0.00    -0.143 A  
HETATM    3  C   UNL     1     -10.222   8.329  69.558  1.00  0.00    -0.210 C  
HETATM    4  C   UNL     1     -11.249   9.014  70.374  1.00  0.00    -0.275 A  
HETATM    5  C   UNL     1      -7.743   8.138  69.603  1.00  0.00    -0.101 A  
HETATM    6  C   UNL     1     -11.791   8.438  71.530  1.00  0.00    -0.345 A  
HETATM    7  C   UNL     1      -6.452   8.639  69.442  1.00  0.00    -0.045 A  
HETATM    8  C   UNL     1     -12.688   9.163  72.316  1.00  0.00    -0.447 A  
HETATM    9  C   UNL     1      -6.271   9.969  69.089  1.00  0.00    -0.040 A  
HETATM   10  C   UNL     1      -7.382  10.796  68.923  1.00  0.00    -0.104 A  
HETATM   11  C   UNL     1     -13.046  10.461  71.953  1.00  0.00    -0.563 A  
HETATM   12  C   UNL     1     -12.513  11.038  70.799  1.00  0.00    -0.491 A  
HETATM   13  C   UNL     1     -11.614  10.317  70.002  1.00  0.00    -0.349 A  
HETATM   14  C   UNL     1     -11.006  10.907  68.754  1.00  0.00    -0.237 C  
HETATM   15  O   UNL     1      -9.638  11.281  68.924  1.00  0.00    -0.183 OA 
HETATM   16  C   UNL     1      -8.686  10.301  69.068  1.00  0.00    -0.163 A  
ENDROOT
BRANCH   1  17
HETATM   17  C   UNL     1      -9.771   6.420  67.903  1.00  0.00    -0.124 C  
BRANCH  17  18
HETATM   18  C   UNL     1     -10.015   4.898  67.916  1.00  0.00    -0.123 C  
BRANCH  18  19
HETATM   19  N   UNL     1      -9.284   4.111  66.906  1.00  0.00    -0.143 NA 
HETATM   20  C   UNL     1      -9.043   2.735  67.343  1.00  0.00    -0.177 C  
HETATM   21  C   UNL     1     -10.039   4.106  65.649  1.00  0.00    -0.176 C  
ENDBRANCH  18  19
ENDBRANCH  17  18
ENDBRANCH   1  17
TORSDOF 3
ENDMDL
MODEL       99
REMARK 921   NORMALIZED FREE ENERGY PREDICTED BY IDOCK:   -3.95 KCAL/MOL
REMARK 922        TOTAL FREE ENERGY PREDICTED BY IDOCK:   -4.88 KCAL/MOL
REMARK 923 INTER-LIGAND FREE ENERGY PREDICTED BY IDOCK:   -4.64 KCAL/MOL
REMARK 924 INTRA-LIGAND FREE ENERGY PREDICTED BY IDOCK:   -0.24 KCAL/MOL
REMARK 927      BINDING AFFINITY PREDICTED BY RF-SCORE:    0.00 PKD
ROOT
HETATM    1  C   UNL     1     -11.056   9.350  69.851  1.00  0.00    -0.223 C  
HETATM    2  C   UNL     1      -9.759   7.615  68.631  1.00  0.00    -0.157 A  
HETATM    3  C   UNL     1     -10.583   8.084  69.777  1.00  0.00    -0.238 C  
HETATM    4  C   UNL     1     -10.788   7.210  70.954  1.00  0.00    -0.266 A  
HETATM    5  C   UNL     1     -10.290   7.743  67.331  1.00  0.00    -0.354 A  
HETATM    6  C   UNL     1     -12.059   6.771  71.345  1.00  0.00    -0.415 A  
HETATM    7  C   UNL     1      -9.572   7.337  66.207  1.00  0.00    -0.103 A  
HETATM    8  C   UNL     1     -12.191   5.873  72.405  1.00  0.00    -0.056 A  
HETATM    9  C   UNL     1      -8.321   6.756  66.366  1.00  0.00    -0.121 A  
HETATM   10  C   UNL     1      -7.807   6.562  67.648  1.00  0.00    -0.110 A  
HETATM   11  C   UNL     1     -11.059   5.412  73.077  1.00  0.00    -0.368 A  
HETATM   12  C   UNL     1      -9.790   5.850  72.694  1.00  0.00    -0.180 A  
HETATM   13  C   UNL     1      -9.647   6.754  71.632  1.00  0.00    -0.163 A  
HETATM   14  C   UNL     1      -8.295   7.244  71.179  1.00  0.00    -0.112 C  
HETATM   15  O   UNL     1      -7.869   6.648  69.953  1.00  0.00    -0.110 OA 
HETATM   16  C   UNL     1      -8.513   6.980  68.786  1.00  0.00    -0.122 A  
ENDROOT
BRANCH   1  17
HETATM   17  C   UNL     1     -10.860  10.456  68.838  1.00  0.00    -0.273 C  
BRANCH  17  18
HETATM   18  C   UNL     1     -11.941  11.556  68.849  1.00  0.00    -0.299 C  
BRANCH  18  19
HETATM   19  N   UNL     1     -11.690  12.725  67.986  1.00  0.00    -0.345 NA 
HETATM   20  C   UNL     1     -10.502  13.474  68.399  1.00  0.00    -0.246 C  
HETATM   21  C   UNL     1     -11.540  12.285  66.596  1.00  0.00    -0.375 C  
ENDBRANCH  18  19
ENDBRANCH  17  18
ENDBRANCH   1  17
TORSDOF 3
ENDMDL
MODEL      100
REMARK 921   NORMALIZED FREE ENERGY PREDICTED BY IDOCK:   -3.93 KCAL/MOL
REMARK 922        TOTAL FREE ENERGY PREDICTED BY IDOCK:   -4.85 KCAL/MOL
REMARK 923 INTER-LIGAND FREE ENERGY PREDICTED BY IDOCK:   -4.54 KCAL/MOL
REMARK 924 INTRA-LIGAND FREE ENERGY PREDICTED BY IDOCK:   -0.31 KCAL/MOL
REMARK 927      BINDING AFFINITY PREDICTED BY RF-SCORE:    0.00 PKD
ROOT
HETATM    1  C   UNL     1     -10.777   6.866  69.252  1.00  0.00    -0.265 C  
HETATM    2  C   UNL     1      -9.611   4.671  69.196  1.00  0.00    -0.245 A  
HETATM    3  C   UNL     1      -9.818   6.068  68.728  1.00  0.00    -0.170 C  
HETATM    4  C   UNL     1      -9.068   6.580  67.559  1.00  0.00    -0.115 A  
HETATM    5  C   UNL     1      -9.370   4.457  70.568  1.00  0.00    -0.213 A  
HETATM    6  C   UNL     1      -8.189   7.665  67.654  1.00  0.00    -0.121 A  
HETATM    7  C   UNL     1      -9.178   3.175  71.083  1.00  0.00    -0.197 A  
HETATM    8  C   UNL     1      -7.435   8.052  66.545  1.00  0.00    -0.088 A  
HETATM    9  C   UNL     1      -9.185   2.083  70.226  1.00  0.00    -0.174 A  
HETATM   10  C   UNL     1      -9.358   2.282  68.856  1.00  0.00    -0.209 A  
HETATM   11  C   UNL     1      -7.556   7.359  65.341  1.00  0.00    -0.096 A  
HETATM   12  C   UNL     1      -8.434   6.278  65.240  1.00  0.00    -0.113 A  
HETATM   13  C   UNL     1      -9.198   5.884  66.347  1.00  0.00    -0.160 A  
HETATM   14  C   UNL     1     -10.150   4.717  66.284  1.00  0.00    -0.265 C  
HETATM   15  O   UNL     1      -9.656   3.559  66.957  1.00  0.00    -0.204 OA 
HETATM   16  C   UNL     1      -9.566   3.565  68.327  1.00  0.00    -0.095 A  
ENDROOT
BRANCH   1  17
HETATM   17  C   UNL     1     -11.750   6.516  70.356  1.00  0.00    -0.439 C  
BRANCH  17  18
HETATM   18  C   UNL     1     -11.458   7.172  71.721  1.00  0.00    -0.267 C  
BRANCH  18  19
HETATM   19  N   UNL     1     -12.387   8.235  72.146  1.00  0.00    -0.345 NA 
HETATM   20  C   UNL     1     -11.952   9.560  71.702  1.00  0.00    -0.401 C  
HETATM   21  C   UNL     1     -13.727   7.953  71.622  1.00  0.00    -0.360 C  
ENDBRANCH  18  19
ENDBRANCH  17  18
ENDBRANCH   1  17
TORSDOF 3
ENDMDL
MODEL      101
REMARK 921   NORMALIZED FREE ENERGY PREDICTED BY IDOCK:   -3.91 KCAL/MOL
REMARK 922        TOTAL FREE ENERGY PREDICTED BY IDOCK:   -4.84 KCAL/MOL
REMARK 923 INTER-LIGAND FREE ENERGY PREDICTED BY IDOCK:   -4.61 KCAL/MOL
REMARK 924 INTRA-LIGAND FREE ENERGY PREDICTED BY IDOCK:   -0.23 KCAL/MOL
REMARK 927      BINDING AFFINITY PREDICTED BY RF-SCORE:    0.00 PKD
ROOT
HETATM    1  C   UNL     1      -9.864  14.599  68.883  1.00  0.00    -0.211 C  
HETATM    2  C   UNL     1     -10.107  15.843  66.745  1.00  0.00    -0.276 A  
HETATM    3  C   UNL     1      -9.429  15.563  68.039  1.00  0.00    -0.194 C  
HETATM    4  C   UNL     1      -8.336  16.441  68.512  1.00  0.00    -0.202 A  
HETATM    5  C   UNL     1     -10.260  14.783  65.829  1.00  0.00    -0.359 A  
HETATM    6  C   UNL     1      -7.036  15.966  68.725  1.00  0.00    -0.138 A  
HETATM    7  C   UNL     1     -10.895  14.966  64.601  1.00  0.00    -0.296 A  
HETATM    8  C   UNL     1      -6.019  16.852  69.082  1.00  0.00    -0.175 A  
HETATM    9  C   UNL     1     -11.355  16.228  64.248  1.00  0.00    -0.012 A  
HETATM   10  C   UNL     1     -11.155  17.303  65.114  1.00  0.00     0.256 A  
HETATM   11  C   UNL     1      -6.294  18.211  69.228  1.00  0.00    -0.257 A  
HETATM   12  C   UNL     1      -7.589  18.689  69.021  1.00  0.00    -0.223 A  
HETATM   13  C   UNL     1      -8.618  17.807  68.665  1.00  0.00    -0.264 A  
HETATM   14  C   UNL     1     -10.028  18.284  68.421  1.00  0.00    -0.382 C  
HETATM   15  O   UNL     1     -10.374  18.313  67.037  1.00  0.00    -0.357 OA 
HETATM   16  C   UNL     1     -10.530  17.129  66.358  1.00  0.00    -0.255 A  
ENDROOT
BRANCH   1  17
HETATM   17  C   UNL     1     -11.040  13.670  68.676  1.00  0.00    -0.299 C  
BRANCH  17  18
HETATM   18  C   UNL     1     -10.732  12.170  68.859  1.00  0.00    -0.175 C  
BRANCH  18  19
HETATM   19  N   UNL     1     -11.467  11.241  67.981  1.00  0.00    -0.402 NA 
HETATM   20  C   UNL     1     -11.287  11.560  66.563  1.00  0.00    -0.193 C  
HETATM   21  C   UNL     1     -11.024   9.868  68.239  1.00  0.00    -0.196 C  
ENDBRANCH  18  19
ENDBRANCH  17  18
ENDBRANCH   1  17
TORSDOF 3
ENDMDL
MODEL      102
REMARK 921   NORMALIZED FREE ENERGY PREDICTED BY IDOCK:   -3.90 KCAL/MOL
REMARK 922        TOTAL FREE ENERGY PREDICTED BY IDOCK:   -4.82 KCAL/MOL
REMARK 923 INTER-LIGAND FREE ENERGY PREDICTED BY IDOCK:   -4.49 KCAL/MOL
REMARK 924 INTRA-LIGAND FREE ENERGY PREDICTED BY IDOCK:   -0.33 KCAL/MOL
REMARK 927      BINDING AFFINITY PREDICTED BY RF-SCORE:    0.00 PKD
ROOT
HETATM    1  C   UNL     1      -8.256   7.461  67.904  1.00  0.00    -0.120 C  
HETATM    2  C   UNL     1     -10.347   7.972  69.147  1.00  0.00    -0.226 A  
HETATM    3  C   UNL     1      -9.388   8.191  68.031  1.00  0.00    -0.144 C  
HETATM    4  C   UNL     1      -9.575   9.326  67.100  1.00  0.00    -0.208 A  
HETATM    5  C   UNL     1     -10.882   6.680  69.324  1.00  0.00    -0.335 A  
HETATM    6  C   UNL     1      -9.784   9.140  65.728  1.00  0.00    -0.299 A  
HETATM    7  C   UNL     1     -11.777   6.396  70.354  1.00  0.00    -0.389 A  
HETATM    8  C   UNL     1     -10.048  10.238  64.907  1.00  0.00    -0.346 A  
HETATM    9  C   UNL     1     -12.188   7.412  71.206  1.00  0.00    -0.374 A  
HETATM   10  C   UNL     1     -11.720   8.711  71.007  1.00  0.00    -0.319 A  
HETATM   11  C   UNL     1     -10.104  11.521  65.450  1.00  0.00    -0.304 A  
HETATM   12  C   UNL     1      -9.892  11.712  66.817  1.00  0.00    -0.222 A  
HETATM   13  C   UNL     1      -9.624  10.617  67.649  1.00  0.00    -0.178 A  
HETATM   14  C   UNL     1      -9.400  10.779  69.132  1.00  0.00    -0.125 C  
HETATM   15  O   UNL     1     -10.514  10.347  69.913  1.00  0.00    -0.255 OA 
HETATM   16  C   UNL     1     -10.808   9.007  69.983  1.00  0.00    -0.231 A  
ENDROOT
BRANCH   1  17
HETATM   17  C   UNL     1      -7.787   6.343  68.809  1.00  0.00    -0.109 C  
BRANCH  17  18
HETATM   18  C   UNL     1      -6.822   5.332  68.158  1.00  0.00    -0.060 C  
BRANCH  18  19
HETATM   19  N   UNL     1      -7.412   4.051  67.728  1.00  0.00    -0.067 NA 
HETATM   20  C   UNL     1      -8.531   3.643  68.579  1.00  0.00    -0.087 C  
HETATM   21  C   UNL     1      -7.863   4.161  66.337  1.00  0.00    -0.094 C  
ENDBRANCH  18  19
ENDBRANCH  17  18
ENDBRANCH   1  17
TORSDOF 3
ENDMDL
MODEL      103
REMARK 921   NORMALIZED FREE ENERGY PREDICTED BY IDOCK:   -3.80 KCAL/MOL
REMARK 922        TOTAL FREE ENERGY PREDICTED BY IDOCK:   -4.70 KCAL/MOL
REMARK 923 INTER-LIGAND FREE ENERGY PREDICTED BY IDOCK:   -4.38 KCAL/MOL
REMARK 924 INTRA-LIGAND FREE ENERGY PREDICTED BY IDOCK:   -0.32 KCAL/MOL
REMARK 927      BINDING AFFINITY PREDICTED BY RF-SCORE:    0.00 PKD
ROOT
HETATM    1  C   UNL     1     -10.041  10.096  69.946  1.00  0.00    -0.268 C  
HETATM    2  C   UNL     1      -8.190   9.223  68.535  1.00  0.00    -0.114 A  
HETATM    3  C   UNL     1      -9.296  10.176  68.818  1.00  0.00    -0.168 C  
HETATM    4  C   UNL     1      -9.713  11.159  67.794  1.00  0.00    -0.183 A  
HETATM    5  C   UNL     1      -7.159   9.095  69.487  1.00  0.00    -0.059 A  
HETATM    6  C   UNL     1      -9.634  12.541  68.009  1.00  0.00    -0.212 A  
HETATM    7  C   UNL     1      -6.095   8.214  69.296  1.00  0.00    -0.038 A  
HETATM    8  C   UNL     1      -9.952  13.427  66.979  1.00  0.00    -0.246 A  
HETATM    9  C   UNL     1      -6.021   7.471  68.126  1.00  0.00    -0.035 A  
HETATM   10  C   UNL     1      -6.998   7.632  67.143  1.00  0.00    -0.080 A  
HETATM   11  C   UNL     1     -10.348  12.940  65.734  1.00  0.00    -0.297 A  
HETATM   12  C   UNL     1     -10.433  11.563  65.516  1.00  0.00    -0.327 A  
HETATM   13  C   UNL     1     -10.119  10.665  66.545  1.00  0.00    -0.275 A  
HETATM   14  C   UNL     1     -10.187   9.172  66.347  1.00  0.00    -0.230 C  
HETATM   15  O   UNL     1      -8.899   8.567  66.228  1.00  0.00    -0.138 OA 
HETATM   16  C   UNL     1      -8.081   8.504  67.329  1.00  0.00    -0.105 A  
ENDROOT
BRANCH   1  17
HETATM   17  C   UNL     1      -9.889   9.093  71.068  1.00  0.00    -0.366 C  
BRANCH  17  18
HETATM   18  C   UNL     1     -10.729   7.809  70.920  1.00  0.00    -0.221 C  
BRANCH  18  19
HETATM   19  N   UNL     1     -11.601   7.465  72.058  1.00  0.00    -0.276 NA 
HETATM   20  C   UNL     1     -10.846   7.282  73.299  1.00  0.00    -0.358 C  
HETATM   21  C   UNL     1     -12.606   8.517  72.241  1.00  0.00    -0.381 C  
ENDBRANCH  18  19
ENDBRANCH  17  18
ENDBRANCH   1  17
TORSDOF 3
ENDMDL
MODEL      104
REMARK 921   NORMALIZED FREE ENERGY PREDICTED BY IDOCK:   -3.79 KCAL/MOL
REMARK 922        TOTAL FREE ENERGY PREDICTED BY IDOCK:   -4.69 KCAL/MOL
REMARK 923 INTER-LIGAND FREE ENERGY PREDICTED BY IDOCK:   -4.39 KCAL/MOL
REMARK 924 INTRA-LIGAND FREE ENERGY PREDICTED BY IDOCK:   -0.30 KCAL/MOL
REMARK 927      BINDING AFFINITY PREDICTED BY RF-SCORE:    0.00 PKD
ROOT
HETATM    1  C   UNL     1      -9.634  12.434  67.910  1.00  0.00    -0.205 C  
HETATM    2  C   UNL     1      -9.345  10.946  65.940  1.00  0.00    -0.226 A  
HETATM    3  C   UNL     1      -9.600  11.187  67.386  1.00  0.00    -0.183 C  
HETATM    4  C   UNL     1      -9.677  10.049  68.328  1.00  0.00    -0.155 A  
HETATM    5  C   UNL     1     -10.189  11.571  65.001  1.00  0.00    -0.328 A  
HETATM    6  C   UNL     1     -10.835   9.766  69.064  1.00  0.00    -0.223 A  
HETATM    7  C   UNL     1     -10.005  11.402  63.629  1.00  0.00    -0.402 A  
HETATM    8  C   UNL     1     -10.889   8.628  69.869  1.00  0.00    -0.210 A  
HETATM    9  C   UNL     1      -8.994  10.569  63.170  1.00  0.00    -0.240 A  
HETATM   10  C   UNL     1      -8.190   9.891  64.086  1.00  0.00    -0.159 A  
HETATM   11  C   UNL     1      -9.793   7.770  69.943  1.00  0.00    -0.177 A  
HETATM   12  C   UNL     1      -8.634   8.050  69.215  1.00  0.00    -0.137 A  
HETATM   13  C   UNL     1      -8.569   9.192  68.406  1.00  0.00    -0.129 A  
HETATM   14  C   UNL     1      -7.341   9.524  67.595  1.00  0.00    -0.083 C  
HETATM   15  O   UNL     1      -7.509   9.268  66.201  1.00  0.00    -0.094 OA 
HETATM   16  C   UNL     1      -8.355  10.064  65.468  1.00  0.00    -0.148 A  
ENDROOT
BRANCH   1  17
HETATM   17  C   UNL     1      -9.447  13.740  67.169  1.00  0.00    -0.244 C  
BRANCH  17  18
HETATM   18  C   UNL     1     -10.566  14.779  67.377  1.00  0.00    -0.268 C  
BRANCH  18  19
HETATM   19  N   UNL     1     -10.132  16.176  67.568  1.00  0.00    -0.251 NA 
HETATM   20  C   UNL     1      -9.146  16.307  68.641  1.00  0.00    -0.228 C  
HETATM   21  C   UNL     1      -9.571  16.690  66.314  1.00  0.00    -0.299 C  
ENDBRANCH  18  19
ENDBRANCH  17  18
ENDBRANCH   1  17
TORSDOF 3
ENDMDL
MODEL      105
REMARK 921   NORMALIZED FREE ENERGY PREDICTED BY IDOCK:   -3.76 KCAL/MOL
REMARK 922        TOTAL FREE ENERGY PREDICTED BY IDOCK:   -4.65 KCAL/MOL
REMARK 923 INTER-LIGAND FREE ENERGY PREDICTED BY IDOCK:   -4.45 KCAL/MOL
REMARK 924 INTRA-LIGAND FREE ENERGY PREDICTED BY IDOCK:   -0.21 KCAL/MOL
REMARK 927      BINDING AFFINITY PREDICTED BY RF-SCORE:    0.00 PKD
ROOT
HETATM    1  C   UNL     1      -8.990  15.966  69.250  1.00  0.00    -0.251 C  
HETATM    2  C   UNL     1     -10.356  15.770  67.182  1.00  0.00    -0.291 A  
HETATM    3  C   UNL     1     -10.040  15.420  68.593  1.00  0.00    -0.212 C  
HETATM    4  C   UNL     1     -10.787  14.342  69.277  1.00  0.00    -0.241 A  
HETATM    5  C   UNL     1     -10.559  17.128  66.861  1.00  0.00    -0.209 A  
HETATM    6  C   UNL     1     -11.557  14.577  70.423  1.00  0.00    -0.308 A  
HETATM    7  C   UNL     1     -10.847  17.534  65.559  1.00  0.00     0.028 A  
HETATM    8  C   UNL     1     -12.318  13.547  70.977  1.00  0.00    -0.422 A  
HETATM    9  C   UNL     1     -10.977  16.582  64.556  1.00  0.00     0.060 A  
HETATM   10  C   UNL     1     -10.843  15.229  64.868  1.00  0.00    -0.444 A  
HETATM   11  C   UNL     1     -12.312  12.281  70.393  1.00  0.00    -0.309 A  
HETATM   12  C   UNL     1     -11.541  12.039  69.254  1.00  0.00    -0.380 A  
HETATM   13  C   UNL     1     -10.773  13.066  68.691  1.00  0.00    -0.273 A  
HETATM   14  C   UNL     1      -9.936  12.851  67.455  1.00  0.00    -0.215 C  
HETATM   15  O   UNL     1     -10.507  13.440  66.287  1.00  0.00    -0.280 OA 
HETATM   16  C   UNL     1     -10.539  14.808  66.171  1.00  0.00    -0.311 A  
ENDROOT
BRANCH   1  17
HETATM   17  C   UNL     1      -8.009  16.984  68.713  1.00  0.00    -0.248 C  
BRANCH  17  18
HETATM   18  C   UNL     1      -7.188  17.732  69.782  1.00  0.00     0.553 C  
BRANCH  18  19
HETATM   19  N   UNL     1      -5.956  18.394  69.314  1.00  0.00    -0.225 NA 
HETATM   20  C   UNL     1      -6.238  19.587  68.514  1.00  0.00    -0.244 C  
HETATM   21  C   UNL     1      -5.125  18.756  70.466  1.00  0.00    -0.225 C  
ENDBRANCH  18  19
ENDBRANCH  17  18
ENDBRANCH   1  17
TORSDOF 3
ENDMDL
MODEL      106
REMARK 921   NORMALIZED FREE ENERGY PREDICTED BY IDOCK:   -3.70 KCAL/MOL
REMARK 922        TOTAL FREE ENERGY PREDICTED BY IDOCK:   -4.58 KCAL/MOL
REMARK 923 INTER-LIGAND FREE ENERGY PREDICTED BY IDOCK:   -4.35 KCAL/MOL
REMARK 924 INTRA-LIGAND FREE ENERGY PREDICTED BY IDOCK:   -0.24 KCAL/MOL
REMARK 927      BINDING AFFINITY PREDICTED BY RF-SCORE:    0.00 PKD
ROOT
HETATM    1  C   UNL     1      -9.382  10.707  68.470  1.00  0.00    -0.170 C  
HETATM    2  C   UNL     1      -8.144  10.075  66.409  1.00  0.00    -0.120 A  
HETATM    3  C   UNL     1      -8.869  11.051  67.265  1.00  0.00    -0.135 C  
HETATM    4  C   UNL     1      -9.181  12.404  66.753  1.00  0.00    -0.212 A  
HETATM    5  C   UNL     1      -7.029   9.407  66.955  1.00  0.00    -0.081 A  
HETATM    6  C   UNL     1      -8.683  13.565  67.357  1.00  0.00    -0.220 A  
HETATM    7  C   UNL     1      -6.308   8.470  66.217  1.00  0.00    -0.057 A  
HETATM    8  C   UNL     1      -8.928  14.812  66.782  1.00  0.00    -0.292 A  
HETATM    9  C   UNL     1      -6.663   8.212  64.899  1.00  0.00    -0.055 A  
HETATM   10  C   UNL     1      -7.723   8.911  64.321  1.00  0.00    -0.122 A  
HETATM   11  C   UNL     1      -9.670  14.906  65.605  1.00  0.00    -0.326 A  
HETATM   12  C   UNL     1     -10.173  13.752  65.001  1.00  0.00    -0.370 A  
HETATM   13  C   UNL     1      -9.934  12.496  65.572  1.00  0.00    -0.248 A  
HETATM   14  C   UNL     1     -10.449  11.224  64.946  1.00  0.00    -0.314 C  
HETATM   15  O   UNL     1      -9.426  10.469  64.298  1.00  0.00    -0.234 OA 
HETATM   16  C   UNL     1      -8.466   9.846  65.058  1.00  0.00    -0.154 A  
ENDROOT
BRANCH   1  17
HETATM   17  C   UNL     1      -9.307   9.352  69.138  1.00  0.00    -0.159 C  
BRANCH  17  18
HETATM   18  C   UNL     1      -9.419   9.371  70.675  1.00  0.00    -0.262 C  
BRANCH  18  19
HETATM   19  N   UNL     1     -10.406   8.451  71.269  1.00  0.00    -0.204 NA 
HETATM   20  C   UNL     1      -9.944   7.886  72.538  1.00  0.00    -0.249 C  
HETATM   21  C   UNL     1     -11.674   9.158  71.474  1.00  0.00    -0.363 C  
ENDBRANCH  18  19
ENDBRANCH  17  18
ENDBRANCH   1  17
TORSDOF 3
ENDMDL
MODEL      107
REMARK 921   NORMALIZED FREE ENERGY PREDICTED BY IDOCK:   -3.67 KCAL/MOL
REMARK 922        TOTAL FREE ENERGY PREDICTED BY IDOCK:   -4.55 KCAL/MOL
REMARK 923 INTER-LIGAND FREE ENERGY PREDICTED BY IDOCK:   -4.31 KCAL/MOL
REMARK 924 INTRA-LIGAND FREE ENERGY PREDICTED BY IDOCK:   -0.24 KCAL/MOL
REMARK 927      BINDING AFFINITY PREDICTED BY RF-SCORE:    0.00 PKD
ROOT
HETATM    1  C   UNL     1     -10.404   8.110  67.642  1.00  0.00    -0.313 C  
HETATM    2  C   UNL     1      -8.355   8.832  68.850  1.00  0.00    -0.127 A  
HETATM    3  C   UNL     1      -9.527   7.936  68.658  1.00  0.00    -0.149 C  
HETATM    4  C   UNL     1      -9.851   6.906  69.669  1.00  0.00    -0.171 A  
HETATM    5  C   UNL     1      -7.448   8.984  67.782  1.00  0.00    -0.085 A  
HETATM    6  C   UNL     1      -9.857   5.539  69.368  1.00  0.00    -0.240 A  
HETATM    7  C   UNL     1      -6.334   9.816  67.884  1.00  0.00    -0.056 A  
HETATM    8  C   UNL     1     -10.077   4.602  70.378  1.00  0.00    -0.275 A  
HETATM    9  C   UNL     1      -6.082  10.482  69.076  1.00  0.00    -0.040 A  
HETATM   10  C   UNL     1      -6.933  10.293  70.165  1.00  0.00    -0.159 A  
HETATM   11  C   UNL     1     -10.293   5.024  71.689  1.00  0.00    -0.262 A  
HETATM   12  C   UNL     1     -10.293   6.387  71.995  1.00  0.00    -0.222 A  
HETATM   13  C   UNL     1     -10.075   7.335  70.987  1.00  0.00    -0.195 A  
HETATM   14  C   UNL     1     -10.056   8.815  71.276  1.00  0.00    -0.266 C  
HETATM   15  O   UNL     1      -8.739   9.368  71.263  1.00  0.00    -0.295 OA 
HETATM   16  C   UNL     1      -8.065   9.471  70.071  1.00  0.00    -0.167 A  
ENDROOT
BRANCH   1  17
HETATM   17  C   UNL     1     -10.354   9.175  66.568  1.00  0.00    -0.269 C  
BRANCH  17  18
HETATM   18  C   UNL     1     -10.762  10.589  67.026  1.00  0.00    -0.250 C  
BRANCH  18  19
HETATM   19  N   UNL     1     -10.477  11.688  66.084  1.00  0.00    -0.239 NA 
HETATM   20  C   UNL     1      -9.495  11.305  65.068  1.00  0.00    -0.209 C  
HETATM   21  C   UNL     1     -11.721  12.113  65.435  1.00  0.00    -0.321 C  
ENDBRANCH  18  19
ENDBRANCH  17  18
ENDBRANCH   1  17
TORSDOF 3
ENDMDL
MODEL      108
REMARK 921   NORMALIZED FREE ENERGY PREDICTED BY IDOCK:   -3.64 KCAL/MOL
REMARK 922        TOTAL FREE ENERGY PREDICTED BY IDOCK:   -4.52 KCAL/MOL
REMARK 923 INTER-LIGAND FREE ENERGY PREDICTED BY IDOCK:   -4.22 KCAL/MOL
REMARK 924 INTRA-LIGAND FREE ENERGY PREDICTED BY IDOCK:   -0.30 KCAL/MOL
REMARK 927      BINDING AFFINITY PREDICTED BY RF-SCORE:    0.00 PKD
ROOT
HETATM    1  C   UNL     1     -12.011  12.893  66.834  1.00  0.00    -0.402 C  
HETATM    2  C   UNL     1      -9.663  12.585  67.588  1.00  0.00    -0.196 A  
HETATM    3  C   UNL     1     -10.992  13.249  67.650  1.00  0.00    -0.281 C  
HETATM    4  C   UNL     1     -11.194  14.433  68.515  1.00  0.00    -0.286 A  
HETATM    5  C   UNL     1      -9.609  11.185  67.745  1.00  0.00    -0.180 A  
HETATM    6  C   UNL     1     -12.112  14.437  69.571  1.00  0.00    -0.366 A  
HETATM    7  C   UNL     1      -8.401  10.491  67.688  1.00  0.00    -0.114 A  
HETATM    8  C   UNL     1     -12.199  15.545  70.416  1.00  0.00    -0.443 A  
HETATM    9  C   UNL     1      -7.215  11.191  67.512  1.00  0.00    -0.101 A  
HETATM   10  C   UNL     1      -7.242  12.583  67.420  1.00  0.00    -0.146 A  
HETATM   11  C   UNL     1     -11.372  16.648  70.211  1.00  0.00     0.094 A  
HETATM   12  C   UNL     1     -10.457  16.651  69.156  1.00  0.00    -0.333 A  
HETATM   13  C   UNL     1     -10.364  15.545  68.301  1.00  0.00    -0.235 A  
HETATM   14  C   UNL     1      -9.382  15.502  67.157  1.00  0.00    -0.216 C  
HETATM   15  O   UNL     1      -8.265  14.651  67.415  1.00  0.00    -0.174 OA 
HETATM   16  C   UNL     1      -8.452  13.291  67.461  1.00  0.00    -0.202 A  
ENDROOT
BRANCH   1  17
HETATM   17  C   UNL     1     -11.997  11.807  65.780  1.00  0.00     0.192 C  
BRANCH  17  18
HETATM   18  C   UNL     1     -12.304  12.281  64.345  1.00  0.00    -0.404 C  
BRANCH  18  19
HETATM   19  N   UNL     1     -11.142  12.472  63.458  1.00  0.00    -0.462 NA 
HETATM   20  C   UNL     1     -10.200  13.462  63.983  1.00  0.00     0.288 C  
HETATM   21  C   UNL     1     -10.456  11.190  63.267  1.00  0.00    -0.257 C  
ENDBRANCH  18  19
ENDBRANCH  17  18
ENDBRANCH   1  17
TORSDOF 3
ENDMDL
MODEL      109
REMARK 921   NORMALIZED FREE ENERGY PREDICTED BY IDOCK:   -3.50 KCAL/MOL
REMARK 922        TOTAL FREE ENERGY PREDICTED BY IDOCK:   -4.35 KCAL/MOL
REMARK 923 INTER-LIGAND FREE ENERGY PREDICTED BY IDOCK:   -3.85 KCAL/MOL
REMARK 924 INTRA-LIGAND FREE ENERGY PREDICTED BY IDOCK:   -0.50 KCAL/MOL
REMARK 927      BINDING AFFINITY PREDICTED BY RF-SCORE:    0.00 PKD
ROOT
HETATM    1  C   UNL     1     -10.975   6.344  69.224  1.00  0.00    -0.418 C  
HETATM    2  C   UNL     1      -9.036   4.790  69.293  1.00  0.00    -0.152 A  
HETATM    3  C   UNL     1     -10.048   5.666  69.941  1.00  0.00    -0.289 C  
HETATM    4  C   UNL     1      -9.976   5.939  71.393  1.00  0.00    -0.228 A  
HETATM    5  C   UNL     1      -9.491   3.750  68.456  1.00  0.00    -0.211 A  
HETATM    6  C   UNL     1     -11.001   5.575  72.274  1.00  0.00    -0.296 A  
HETATM    7  C   UNL     1      -8.602   2.896  67.806  1.00  0.00    -0.115 A  
HETATM    8  C   UNL     1     -10.845   5.770  73.647  1.00  0.00    -0.228 A  
HETATM    9  C   UNL     1      -7.236   3.040  68.011  1.00  0.00    -0.050 A  
HETATM   10  C   UNL     1      -6.770   4.022  68.886  1.00  0.00    -0.046 A  
HETATM   11  C   UNL     1      -9.669   6.329  74.145  1.00  0.00    -0.244 A  
HETATM   12  C   UNL     1      -8.644   6.698  73.271  1.00  0.00    -0.130 A  
HETATM   13  C   UNL     1      -8.793   6.508  71.890  1.00  0.00    -0.134 A  
HETATM   14  C   UNL     1      -7.707   6.883  70.913  1.00  0.00    -0.092 C  
HETATM   15  O   UNL     1      -7.008   5.750  70.397  1.00  0.00    -0.060 OA 
HETATM   16  C   UNL     1      -7.654   4.897  69.535  1.00  0.00    -0.056 A  
ENDROOT
BRANCH   1  17
HETATM   17  C   UNL     1     -11.155   6.328  67.722  1.00  0.00    -0.361 C  
BRANCH  17  18
HETATM   18  C   UNL     1     -10.644   7.582  66.986  1.00  0.00    -0.339 C  
BRANCH  18  19
HETATM   19  N   UNL     1      -9.383   8.162  67.485  1.00  0.00    -0.139 NA 
HETATM   20  C   UNL     1      -8.219   7.678  66.741  1.00  0.00    -0.124 C  
HETATM   21  C   UNL     1      -9.449   9.624  67.403  1.00  0.00    -0.142 C  
ENDBRANCH  18  19
ENDBRANCH  17  18
ENDBRANCH   1  17
TORSDOF 3
ENDMDL
MODEL      110
REMARK 921   NORMALIZED FREE ENERGY PREDICTED BY IDOCK:   -3.45 KCAL/MOL
REMARK 922        TOTAL FREE ENERGY PREDICTED BY IDOCK:   -4.30 KCAL/MOL
REMARK 923 INTER-LIGAND FREE ENERGY PREDICTED BY IDOCK:   -3.87 KCAL/MOL
REMARK 924 INTRA-LIGAND FREE ENERGY PREDICTED BY IDOCK:   -0.42 KCAL/MOL
REMARK 927      BINDING AFFINITY PREDICTED BY RF-SCORE:    0.00 PKD
ROOT
HETATM    1  C   UNL     1      -7.825   8.101  69.258  1.00  0.00    -0.110 C  
HETATM    2  C   UNL     1      -8.627   6.266  67.785  1.00  0.00    -0.115 A  
HETATM    3  C   UNL     1      -8.204   7.671  68.032  1.00  0.00    -0.124 C  
HETATM    4  C   UNL     1      -8.327   8.685  66.962  1.00  0.00    -0.106 A  
HETATM    5  C   UNL     1      -7.737   5.230  68.132  1.00  0.00    -0.084 A  
HETATM    6  C   UNL     1      -7.216   9.359  66.441  1.00  0.00    -0.089 A  
HETATM    7  C   UNL     1      -8.069   3.889  67.941  1.00  0.00    -0.088 A  
HETATM    8  C   UNL     1      -7.373  10.239  65.368  1.00  0.00    -0.144 A  
HETATM    9  C   UNL     1      -9.286   3.560  67.360  1.00  0.00    -0.246 A  
HETATM   10  C   UNL     1     -10.153   4.573  66.952  1.00  0.00    -0.200 A  
HETATM   11  C   UNL     1      -8.635  10.447  64.813  1.00  0.00    -0.190 A  
HETATM   12  C   UNL     1      -9.747   9.780  65.332  1.00  0.00    -0.383 A  
HETATM   13  C   UNL     1      -9.600   8.898  66.410  1.00  0.00    -0.304 A  
HETATM   14  C   UNL     1     -10.772   8.149  66.993  1.00  0.00    -0.177 C  
HETATM   15  O   UNL     1     -10.787   6.769  66.629  1.00  0.00    -0.256 OA 
HETATM   16  C   UNL     1      -9.837   5.925  67.151  1.00  0.00    -0.143 A  
ENDROOT
BRANCH   1  17
HETATM   17  C   UNL     1      -7.750   7.282  70.528  1.00  0.00    -0.093 C  
BRANCH  17  18
HETATM   18  C   UNL     1      -9.112   6.873  71.126  1.00  0.00    -0.150 C  
BRANCH  18  19
HETATM   19  N   UNL     1     -10.242   7.780  70.854  1.00  0.00    -0.199 NA 
HETATM   20  C   UNL     1     -11.452   7.056  70.463  1.00  0.00    -0.319 C  
HETATM   21  C   UNL     1     -10.515   8.593  72.043  1.00  0.00    -0.352 C  
ENDBRANCH  18  19
ENDBRANCH  17  18
ENDBRANCH   1  17
TORSDOF 3
ENDMDL
MODEL      111
REMARK 921   NORMALIZED FREE ENERGY PREDICTED BY IDOCK:   -3.44 KCAL/MOL
REMARK 922        TOTAL FREE ENERGY PREDICTED BY IDOCK:   -4.28 KCAL/MOL
REMARK 923 INTER-LIGAND FREE ENERGY PREDICTED BY IDOCK:   -3.95 KCAL/MOL
REMARK 924 INTRA-LIGAND FREE ENERGY PREDICTED BY IDOCK:   -0.33 KCAL/MOL
REMARK 927      BINDING AFFINITY PREDICTED BY RF-SCORE:    0.00 PKD
ROOT
HETATM    1  C   UNL     1      -8.414   9.340  69.024  1.00  0.00    -0.132 C  
HETATM    2  C   UNL     1      -9.384   7.094  68.585  1.00  0.00    -0.134 A  
HETATM    3  C   UNL     1      -8.850   8.147  69.490  1.00  0.00    -0.143 C  
HETATM    4  C   UNL     1      -8.643   7.859  70.927  1.00  0.00    -0.129 A  
HETATM    5  C   UNL     1     -10.463   7.424  67.741  1.00  0.00    -0.298 A  
HETATM    6  C   UNL     1      -9.318   8.560  71.934  1.00  0.00    -0.337 A  
HETATM    7  C   UNL     1     -11.009   6.494  66.857  1.00  0.00    -0.408 A  
HETATM    8  C   UNL     1      -9.159   8.189  73.270  1.00  0.00    -0.327 A  
HETATM    9  C   UNL     1     -10.510   5.199  66.830  1.00  0.00    -0.306 A  
HETATM   10  C   UNL     1      -9.485   4.836  67.704  1.00  0.00    -0.176 A  
HETATM   11  C   UNL     1      -8.329   7.120  73.605  1.00  0.00    -0.161 A  
HETATM   12  C   UNL     1      -7.650   6.420  72.605  1.00  0.00    -0.103 A  
HETATM   13  C   UNL     1      -7.801   6.787  71.261  1.00  0.00    -0.101 A  
HETATM   14  C   UNL     1      -7.095   6.051  70.150  1.00  0.00    -0.071 C  
HETATM   15  O   UNL     1      -7.967   5.203  69.403  1.00  0.00    -0.081 OA 
HETATM   16  C   UNL     1      -8.918   5.766  68.587  1.00  0.00    -0.112 A  
ENDROOT
BRANCH   1  17
HETATM   17  C   UNL     1      -8.400   9.806  67.585  1.00  0.00    -0.114 C  
BRANCH  17  18
HETATM   18  C   UNL     1      -8.885  11.253  67.359  1.00  0.00    -0.145 C  
BRANCH  18  19
HETATM   19  N   UNL     1     -10.317  11.506  67.602  1.00  0.00    -0.183 NA 
HETATM   20  C   UNL     1     -10.532  12.561  68.594  1.00  0.00    -0.200 C  
HETATM   21  C   UNL     1     -10.971  11.871  66.342  1.00  0.00    -0.292 C  
ENDBRANCH  18  19
ENDBRANCH  17  18
ENDBRANCH   1  17
TORSDOF 3
ENDMDL
MODEL      112
REMARK 921   NORMALIZED FREE ENERGY PREDICTED BY IDOCK:   -3.43 KCAL/MOL
REMARK 922        TOTAL FREE ENERGY PREDICTED BY IDOCK:   -4.27 KCAL/MOL
REMARK 923 INTER-LIGAND FREE ENERGY PREDICTED BY IDOCK:   -3.95 KCAL/MOL
REMARK 924 INTRA-LIGAND FREE ENERGY PREDICTED BY IDOCK:   -0.32 KCAL/MOL
REMARK 927      BINDING AFFINITY PREDICTED BY RF-SCORE:    0.00 PKD
ROOT
HETATM    1  C   UNL     1     -10.368   8.831  67.233  1.00  0.00    -0.360 C  
HETATM    2  C   UNL     1      -8.527   7.164  67.147  1.00  0.00    -0.121 A  
HETATM    3  C   UNL     1      -9.696   7.805  67.805  1.00  0.00    -0.186 C  
HETATM    4  C   UNL     1     -10.071   7.430  69.187  1.00  0.00    -0.189 A  
HETATM    5  C   UNL     1      -8.696   6.638  65.849  1.00  0.00    -0.147 A  
HETATM    6  C   UNL     1     -11.312   6.860  69.495  1.00  0.00    -0.218 A  
HETATM    7  C   UNL     1      -7.643   6.034  65.165  1.00  0.00    -0.089 A  
HETATM    8  C   UNL     1     -11.583   6.438  70.797  1.00  0.00    -0.402 A  
HETATM    9  C   UNL     1      -6.406   5.906  65.782  1.00  0.00    -0.042 A  
HETATM   10  C   UNL     1      -6.237   6.362  67.090  1.00  0.00    -0.036 A  
HETATM   11  C   UNL     1     -10.618   6.583  71.794  1.00  0.00    -0.245 A  
HETATM   12  C   UNL     1      -9.380   7.155  71.493  1.00  0.00    -0.156 A  
HETATM   13  C   UNL     1      -9.101   7.584  70.189  1.00  0.00    -0.147 A  
HETATM   14  C   UNL     1      -7.773   8.196  69.819  1.00  0.00    -0.100 C  
HETATM   15  O   UNL     1      -6.939   7.308  69.074  1.00  0.00    -0.072 OA 
HETATM   16  C   UNL     1      -7.284   6.985  67.784  1.00  0.00    -0.091 A  
ENDROOT
BRANCH   1  17
HETATM   17  C   UNL     1     -10.084   9.471  65.893  1.00  0.00    -0.284 C  
BRANCH  17  18
HETATM   18  C   UNL     1     -10.131  11.013  65.878  1.00  0.00    -0.249 C  
BRANCH  18  19
HETATM   19  N   UNL     1     -10.596  11.662  67.117  1.00  0.00    -0.223 NA 
HETATM   20  C   UNL     1      -9.519  12.377  67.805  1.00  0.00    -0.199 C  
HETATM   21  C   UNL     1     -11.686  12.592  66.804  1.00  0.00    -0.392 C  
ENDBRANCH  18  19
ENDBRANCH  17  18
ENDBRANCH   1  17
TORSDOF 3
ENDMDL
MODEL      113
REMARK 921   NORMALIZED FREE ENERGY PREDICTED BY IDOCK:   -3.42 KCAL/MOL
REMARK 922        TOTAL FREE ENERGY PREDICTED BY IDOCK:   -4.25 KCAL/MOL
REMARK 923 INTER-LIGAND FREE ENERGY PREDICTED BY IDOCK:   -3.74 KCAL/MOL
REMARK 924 INTRA-LIGAND FREE ENERGY PREDICTED BY IDOCK:   -0.51 KCAL/MOL
REMARK 927      BINDING AFFINITY PREDICTED BY RF-SCORE:    0.00 PKD
ROOT
HETATM    1  C   UNL     1      -8.613   8.566  69.343  1.00  0.00    -0.128 C  
HETATM    2  C   UNL     1      -8.795   6.206  70.104  1.00  0.00    -0.144 A  
HETATM    3  C   UNL     1      -8.540   7.243  69.068  1.00  0.00    -0.129 C  
HETATM    4  C   UNL     1      -8.340   6.850  67.656  1.00  0.00    -0.123 A  
HETATM    5  C   UNL     1      -8.028   6.242  71.287  1.00  0.00    -0.116 A  
HETATM    6  C   UNL     1      -7.149   7.114  66.968  1.00  0.00    -0.090 A  
HETATM    7  C   UNL     1      -8.219   5.311  72.308  1.00  0.00    -0.118 A  
HETATM    8  C   UNL     1      -6.975   6.641  65.667  1.00  0.00    -0.056 A  
HETATM    9  C   UNL     1      -9.155   4.299  72.147  1.00  0.00    -0.150 A  
HETATM   10  C   UNL     1      -9.878   4.209  70.957  1.00  0.00    -0.247 A  
HETATM   11  C   UNL     1      -7.985   5.906  65.048  1.00  0.00    -0.123 A  
HETATM   12  C   UNL     1      -9.177   5.644  65.727  1.00  0.00    -0.111 A  
HETATM   13  C   UNL     1      -9.362   6.116  67.033  1.00  0.00    -0.132 A  
HETATM   14  C   UNL     1     -10.629   5.846  67.806  1.00  0.00    -0.259 C  
HETATM   15  O   UNL     1     -10.461   4.854  68.820  1.00  0.00    -0.063 OA 
HETATM   16  C   UNL     1      -9.706   5.147  69.929  1.00  0.00    -0.199 A  
ENDROOT
BRANCH   1  17
HETATM   17  C   UNL     1      -8.934   9.202  70.678  1.00  0.00    -0.292 C  
BRANCH  17  18
HETATM   18  C   UNL     1     -10.422   9.537  70.904  1.00  0.00    -0.312 C  
BRANCH  18  19
HETATM   19  N   UNL     1     -11.263   8.446  71.432  1.00  0.00    -0.249 NA 
HETATM   20  C   UNL     1     -10.823   7.998  72.754  1.00  0.00    -0.369 C  
HETATM   21  C   UNL     1     -12.658   8.891  71.499  1.00  0.00    -0.331 C  
ENDBRANCH  18  19
ENDBRANCH  17  18
ENDBRANCH   1  17
TORSDOF 3
ENDMDL
MODEL      114
REMARK 921   NORMALIZED FREE ENERGY PREDICTED BY IDOCK:   -3.40 KCAL/MOL
REMARK 922        TOTAL FREE ENERGY PREDICTED BY IDOCK:   -4.24 KCAL/MOL
REMARK 923 INTER-LIGAND FREE ENERGY PREDICTED BY IDOCK:   -4.18 KCAL/MOL
REMARK 924 INTRA-LIGAND FREE ENERGY PREDICTED BY IDOCK:   -0.06 KCAL/MOL
REMARK 927      BINDING AFFINITY PREDICTED BY RF-SCORE:    0.00 PKD
ROOT
HETATM    1  C   UNL     1      -9.812   5.268  67.919  1.00  0.00    -0.189 C  
HETATM    2  C   UNL     1      -9.535   7.299  66.511  1.00  0.00    -0.218 A  
HETATM    3  C   UNL     1      -9.714   5.833  66.693  1.00  0.00    -0.180 C  
HETATM    4  C   UNL     1      -9.643   4.925  65.527  1.00  0.00    -0.145 A  
HETATM    5  C   UNL     1     -10.484   8.164  67.092  1.00  0.00    -0.396 A  
HETATM    6  C   UNL     1     -10.725   4.128  65.133  1.00  0.00    -0.089 A  
HETATM    7  C   UNL     1     -10.376   9.549  66.975  1.00  0.00    -0.319 A  
HETATM    8  C   UNL     1     -10.639   3.358  63.973  1.00  0.00    -0.209 A  
HETATM    9  C   UNL     1      -9.335  10.096  66.237  1.00  0.00    -0.214 A  
HETATM   10  C   UNL     1      -8.423   9.254  65.601  1.00  0.00    -0.149 A  
HETATM   11  C   UNL     1      -9.477   3.379  63.203  1.00  0.00    -0.099 A  
HETATM   12  C   UNL     1      -8.393   4.168  63.594  1.00  0.00    -0.097 A  
HETATM   13  C   UNL     1      -8.468   4.943  64.759  1.00  0.00    -0.145 A  
HETATM   14  C   UNL     1      -7.325   5.817  65.210  1.00  0.00    -0.075 C  
HETATM   15  O   UNL     1      -7.562   7.206  64.978  1.00  0.00    -0.089 OA 
HETATM   16  C   UNL     1      -8.512   7.860  65.723  1.00  0.00    -0.140 A  
ENDROOT
BRANCH   1  17
HETATM   17  C   UNL     1      -9.774   5.978  69.254  1.00  0.00    -0.174 C  
BRANCH  17  18
HETATM   18  C   UNL     1     -11.125   6.058  69.994  1.00  0.00    -0.381 C  
BRANCH  18  19
HETATM   19  N   UNL     1     -11.283   7.172  70.946  1.00  0.00    -0.266 NA 
HETATM   20  C   UNL     1     -11.042   8.474  70.320  1.00  0.00    -0.214 C  
HETATM   21  C   UNL     1     -12.632   7.141  71.518  1.00  0.00    -0.390 C  
ENDBRANCH  18  19
ENDBRANCH  17  18
ENDBRANCH   1  17
TORSDOF 3
ENDMDL
MODEL      115
REMARK 921   NORMALIZED FREE ENERGY PREDICTED BY IDOCK:   -3.38 KCAL/MOL
REMARK 922        TOTAL FREE ENERGY PREDICTED BY IDOCK:   -4.20 KCAL/MOL
REMARK 923 INTER-LIGAND FREE ENERGY PREDICTED BY IDOCK:   -3.97 KCAL/MOL
REMARK 924 INTRA-LIGAND FREE ENERGY PREDICTED BY IDOCK:   -0.24 KCAL/MOL
REMARK 927      BINDING AFFINITY PREDICTED BY RF-SCORE:    0.00 PKD
ROOT
HETATM    1  C   UNL     1     -10.273   5.229  69.357  1.00  0.00    -0.321 C  
HETATM    2  C   UNL     1      -9.134   6.655  67.670  1.00  0.00    -0.112 A  
HETATM    3  C   UNL     1      -9.446   5.340  68.292  1.00  0.00    -0.155 C  
HETATM    4  C   UNL     1      -8.736   4.120  67.850  1.00  0.00    -0.118 A  
HETATM    5  C   UNL     1     -10.206   7.450  67.217  1.00  0.00    -0.330 A  
HETATM    6  C   UNL     1      -9.406   3.030  67.283  1.00  0.00    -0.198 A  
HETATM    7  C   UNL     1      -9.993   8.699  66.635  1.00  0.00    -0.357 A  
HETATM    8  C   UNL     1      -8.682   1.940  66.796  1.00  0.00    -0.125 A  
HETATM    9  C   UNL     1      -8.696   9.160  66.456  1.00  0.00    -0.142 A  
HETATM   10  C   UNL     1      -7.620   8.359  66.839  1.00  0.00    -0.091 A  
HETATM   11  C   UNL     1      -7.290   1.935  66.873  1.00  0.00    -0.056 A  
HETATM   12  C   UNL     1      -6.616   3.018  67.442  1.00  0.00    -0.037 A  
HETATM   13  C   UNL     1      -7.335   4.115  67.936  1.00  0.00    -0.068 A  
HETATM   14  C   UNL     1      -6.646   5.309  68.547  1.00  0.00    -0.045 C  
HETATM   15  O   UNL     1      -6.642   6.449  67.688  1.00  0.00    -0.053 OA 
HETATM   16  C   UNL     1      -7.821   7.108  67.439  1.00  0.00    -0.112 A  
ENDROOT
BRANCH   1  17
HETATM   17  C   UNL     1     -11.004   6.349  70.064  1.00  0.00    -0.397 C  
BRANCH  17  18
HETATM   18  C   UNL     1     -11.384   6.062  71.531  1.00  0.00    -0.246 C  
BRANCH  18  19
HETATM   19  N   UNL     1     -12.206   7.086  72.203  1.00  0.00    -0.259 NA 
HETATM   20  C   UNL     1     -11.503   8.363  72.333  1.00  0.00    -0.380 C  
HETATM   21  C   UNL     1     -13.453   7.280  71.458  1.00  0.00    -0.363 C  
ENDBRANCH  18  19
ENDBRANCH  17  18
ENDBRANCH   1  17
TORSDOF 3
ENDMDL
MODEL      116
REMARK 921   NORMALIZED FREE ENERGY PREDICTED BY IDOCK:   -3.33 KCAL/MOL
REMARK 922        TOTAL FREE ENERGY PREDICTED BY IDOCK:   -4.15 KCAL/MOL
REMARK 923 INTER-LIGAND FREE ENERGY PREDICTED BY IDOCK:   -3.91 KCAL/MOL
REMARK 924 INTRA-LIGAND FREE ENERGY PREDICTED BY IDOCK:   -0.25 KCAL/MOL
REMARK 927      BINDING AFFINITY PREDICTED BY RF-SCORE:    0.00 PKD
ROOT
HETATM    1  C   UNL     1     -10.196   7.225  67.342  1.00  0.00    -0.304 C  
HETATM    2  C   UNL     1      -8.678   7.714  69.249  1.00  0.00    -0.136 A  
HETATM    3  C   UNL     1      -9.395   6.781  68.339  1.00  0.00    -0.124 C  
HETATM    4  C   UNL     1      -9.368   5.324  68.594  1.00  0.00    -0.155 A  
HETATM    5  C   UNL     1      -7.826   8.681  68.677  1.00  0.00    -0.107 A  
HETATM    6  C   UNL     1      -8.823   4.415  67.679  1.00  0.00    -0.121 A  
HETATM    7  C   UNL     1      -7.130   9.596  69.465  1.00  0.00    -0.072 A  
HETATM    8  C   UNL     1      -8.736   3.061  68.006  1.00  0.00    -0.137 A  
HETATM    9  C   UNL     1      -7.241   9.537  70.847  1.00  0.00    -0.063 A  
HETATM   10  C   UNL     1      -8.029   8.546  71.434  1.00  0.00    -0.168 A  
HETATM   11  C   UNL     1      -9.192   2.610  69.245  1.00  0.00    -0.203 A  
HETATM   12  C   UNL     1      -9.741   3.512  70.159  1.00  0.00    -0.155 A  
HETATM   13  C   UNL     1      -9.834   4.872  69.839  1.00  0.00    -0.295 A  
HETATM   14  C   UNL     1     -10.409   5.880  70.802  1.00  0.00    -0.232 C  
HETATM   15  O   UNL     1      -9.411   6.698  71.413  1.00  0.00    -0.159 OA 
HETATM   16  C   UNL     1      -8.746   7.628  70.652  1.00  0.00    -0.140 A  
ENDROOT
BRANCH   1  17
HETATM   17  C   UNL     1     -10.484   8.664  66.978  1.00  0.00    -0.354 C  
BRANCH  17  18
HETATM   18  C   UNL     1      -9.755   9.182  65.721  1.00  0.00    -0.229 C  
BRANCH  18  19
HETATM   19  N   UNL     1     -10.018  10.583  65.346  1.00  0.00    -0.270 NA 
HETATM   20  C   UNL     1      -9.401  11.531  66.275  1.00  0.00    -0.213 C  
HETATM   21  C   UNL     1      -9.523  10.828  63.988  1.00  0.00    -0.272 C  
ENDBRANCH  18  19
ENDBRANCH  17  18
ENDBRANCH   1  17
TORSDOF 3
ENDMDL
MODEL      117
REMARK 921   NORMALIZED FREE ENERGY PREDICTED BY IDOCK:   -3.33 KCAL/MOL
REMARK 922        TOTAL FREE ENERGY PREDICTED BY IDOCK:   -4.15 KCAL/MOL
REMARK 923 INTER-LIGAND FREE ENERGY PREDICTED BY IDOCK:   -3.64 KCAL/MOL
REMARK 924 INTRA-LIGAND FREE ENERGY PREDICTED BY IDOCK:   -0.52 KCAL/MOL
REMARK 927      BINDING AFFINITY PREDICTED BY RF-SCORE:    0.00 PKD
ROOT
HETATM    1  C   UNL     1      -9.633   7.052  68.593  1.00  0.00    -0.138 C  
HETATM    2  C   UNL     1      -9.689   8.723  66.753  1.00  0.00    -0.286 A  
HETATM    3  C   UNL     1      -9.674   7.328  67.268  1.00  0.00    -0.204 C  
HETATM    4  C   UNL     1      -9.555   6.189  66.331  1.00  0.00    -0.162 A  
HETATM    5  C   UNL     1     -10.704   9.591  67.204  1.00  0.00    -0.252 A  
HETATM    6  C   UNL     1     -10.550   5.211  66.213  1.00  0.00    -0.325 A  
HETATM    7  C   UNL     1     -10.775  10.915  66.774  1.00  0.00    -0.309 A  
HETATM    8  C   UNL     1     -10.433   4.209  65.249  1.00  0.00    -0.156 A  
HETATM    9  C   UNL     1      -9.853  11.388  65.851  1.00  0.00    -0.262 A  
HETATM   10  C   UNL     1      -8.880  10.526  65.345  1.00  0.00    -0.203 A  
HETATM   11  C   UNL     1      -9.327   4.179  64.401  1.00  0.00    -0.160 A  
HETATM   12  C   UNL     1      -8.329   5.149  64.517  1.00  0.00    -0.137 A  
HETATM   13  C   UNL     1      -8.436   6.158  65.484  1.00  0.00    -0.149 A  
HETATM   14  C   UNL     1      -7.387   7.231  65.635  1.00  0.00    -0.075 C  
HETATM   15  O   UNL     1      -7.806   8.495  65.122  1.00  0.00    -0.103 OA 
HETATM   16  C   UNL     1      -8.788   9.196  65.779  1.00  0.00    -0.175 A  
ENDROOT
BRANCH   1  17
HETATM   17  C   UNL     1      -9.610   8.050  69.730  1.00  0.00    -0.171 C  
BRANCH  17  18
HETATM   18  C   UNL     1      -8.206   8.503  70.177  1.00  0.00    -0.121 C  
BRANCH  18  19
HETATM   19  N   UNL     1      -7.423   9.271  69.191  1.00  0.00    -0.071 NA 
HETATM   20  C   UNL     1      -7.709  10.705  69.252  1.00  0.00    -0.142 C  
HETATM   21  C   UNL     1      -5.993   9.041  69.414  1.00  0.00    -0.037 C  
ENDBRANCH  18  19
ENDBRANCH  17  18
ENDBRANCH   1  17
TORSDOF 3
ENDMDL
MODEL      118
REMARK 921   NORMALIZED FREE ENERGY PREDICTED BY IDOCK:   -3.25 KCAL/MOL
REMARK 922        TOTAL FREE ENERGY PREDICTED BY IDOCK:   -4.06 KCAL/MOL
REMARK 923 INTER-LIGAND FREE ENERGY PREDICTED BY IDOCK:   -3.76 KCAL/MOL
REMARK 924 INTRA-LIGAND FREE ENERGY PREDICTED BY IDOCK:   -0.29 KCAL/MOL
REMARK 927      BINDING AFFINITY PREDICTED BY RF-SCORE:    0.00 PKD
ROOT
HETATM    1  C   UNL     1      -8.535   6.789  69.912  1.00  0.00    -0.140 C  
HETATM    2  C   UNL     1      -8.466   5.405  67.848  1.00  0.00    -0.098 A  
HETATM    3  C   UNL     1      -8.557   6.708  68.561  1.00  0.00    -0.124 C  
HETATM    4  C   UNL     1      -8.825   7.952  67.807  1.00  0.00    -0.122 A  
HETATM    5  C   UNL     1      -7.358   4.575  68.115  1.00  0.00    -0.065 A  
HETATM    6  C   UNL     1      -7.919   9.020  67.782  1.00  0.00    -0.101 A  
HETATM    7  C   UNL     1      -7.211   3.335  67.494  1.00  0.00    -0.058 A  
HETATM    8  C   UNL     1      -8.175  10.134  66.981  1.00  0.00    -0.118 A  
HETATM    9  C   UNL     1      -8.151   2.918  66.561  1.00  0.00    -0.082 A  
HETATM   10  C   UNL     1      -9.219   3.755  66.236  1.00  0.00    -0.172 A  
HETATM   11  C   UNL     1      -9.332  10.187  66.205  1.00  0.00    -0.214 A  
HETATM   12  C   UNL     1     -10.241   9.127  66.230  1.00  0.00    -0.257 A  
HETATM   13  C   UNL     1      -9.994   8.005  67.033  1.00  0.00    -0.324 A  
HETATM   14  C   UNL     1     -10.944   6.835  67.081  1.00  0.00    -0.388 C  
HETATM   15  O   UNL     1     -10.460   5.697  66.368  1.00  0.00    -0.229 OA 
HETATM   16  C   UNL     1      -9.387   4.998  66.864  1.00  0.00    -0.131 A  
ENDROOT
BRANCH   1  17
HETATM   17  C   UNL     1      -8.406   5.644  70.892  1.00  0.00    -0.124 C  
BRANCH  17  18
HETATM   18  C   UNL     1      -8.933   5.932  72.312  1.00  0.00    -0.142 C  
BRANCH  18  19
HETATM   19  N   UNL     1     -10.365   6.267  72.420  1.00  0.00    -0.188 NA 
HETATM   20  C   UNL     1     -11.152   5.163  72.973  1.00  0.00    -0.314 C  
HETATM   21  C   UNL     1     -10.528   7.459  73.259  1.00  0.00    -0.374 C  
ENDBRANCH  18  19
ENDBRANCH  17  18
ENDBRANCH   1  17
TORSDOF 3
ENDMDL
MODEL      119
REMARK 921   NORMALIZED FREE ENERGY PREDICTED BY IDOCK:   -3.25 KCAL/MOL
REMARK 922        TOTAL FREE ENERGY PREDICTED BY IDOCK:   -4.05 KCAL/MOL
REMARK 923 INTER-LIGAND FREE ENERGY PREDICTED BY IDOCK:   -4.18 KCAL/MOL
REMARK 924 INTRA-LIGAND FREE ENERGY PREDICTED BY IDOCK:    0.13 KCAL/MOL
REMARK 927      BINDING AFFINITY PREDICTED BY RF-SCORE:    0.00 PKD
ROOT
HETATM    1  C   UNL     1      -9.433  13.266  66.889  1.00  0.00    -0.249 C  
HETATM    2  C   UNL     1      -7.385  12.522  68.086  1.00  0.00    -0.110 A  
HETATM    3  C   UNL     1      -8.544  12.289  67.183  1.00  0.00    -0.187 C  
HETATM    4  C   UNL     1      -8.843  10.925  66.692  1.00  0.00    -0.164 A  
HETATM    5  C   UNL     1      -6.490  13.564  67.768  1.00  0.00    -0.175 A  
HETATM    6  C   UNL     1      -8.829  10.602  65.330  1.00  0.00    -0.204 A  
HETATM    7  C   UNL     1      -5.389  13.850  68.573  1.00  0.00    -0.096 A  
HETATM    8  C   UNL     1      -9.026   9.282  64.924  1.00  0.00    -0.229 A  
HETATM    9  C   UNL     1      -5.137  13.071  69.694  1.00  0.00    -0.077 A  
HETATM   10  C   UNL     1      -5.975  11.995  69.989  1.00  0.00    -0.159 A  
HETATM   11  C   UNL     1      -9.237   8.281  65.872  1.00  0.00    -0.185 A  
HETATM   12  C   UNL     1      -9.256   8.599  67.232  1.00  0.00    -0.167 A  
HETATM   13  C   UNL     1      -9.062   9.922  67.650  1.00  0.00    -0.140 A  
HETATM   14  C   UNL     1      -9.064  10.306  69.108  1.00  0.00    -0.191 C  
HETATM   15  O   UNL     1      -7.757  10.577  69.614  1.00  0.00    -0.154 OA 
HETATM   16  C   UNL     1      -7.095  11.706  69.196  1.00  0.00    -0.090 A  
ENDROOT
BRANCH   1  17
HETATM   17  C   UNL     1      -9.409  14.697  67.380  1.00  0.00    -0.196 C  
BRANCH  17  18
HETATM   18  C   UNL     1      -8.994  15.745  66.329  1.00  0.00    -0.345 C  
BRANCH  18  19
HETATM   19  N   UNL     1     -10.065  16.243  65.445  1.00  0.00    -0.547 NA 
HETATM   20  C   UNL     1     -11.227  15.352  65.428  1.00  0.00    -0.272 C  
HETATM   21  C   UNL     1     -10.474  17.582  65.878  1.00  0.00    -0.249 C  
ENDBRANCH  18  19
ENDBRANCH  17  18
ENDBRANCH   1  17
TORSDOF 3
ENDMDL
MODEL      120
REMARK 921   NORMALIZED FREE ENERGY PREDICTED BY IDOCK:   -3.22 KCAL/MOL
REMARK 922        TOTAL FREE ENERGY PREDICTED BY IDOCK:   -4.02 KCAL/MOL
REMARK 923 INTER-LIGAND FREE ENERGY PREDICTED BY IDOCK:   -3.63 KCAL/MOL
REMARK 924 INTRA-LIGAND FREE ENERGY PREDICTED BY IDOCK:   -0.39 KCAL/MOL
REMARK 927      BINDING AFFINITY PREDICTED BY RF-SCORE:    0.00 PKD
ROOT
HETATM    1  C   UNL     1     -10.007   3.856  65.967  1.00  0.00    -0.077 C  
HETATM    2  C   UNL     1      -8.752   6.002  65.979  1.00  0.00    -0.154 A  
HETATM    3  C   UNL     1      -9.533   4.927  66.646  1.00  0.00    -0.153 C  
HETATM    4  C   UNL     1      -9.945   5.074  68.060  1.00  0.00    -0.189 A  
HETATM    5  C   UNL     1      -7.587   5.640  65.272  1.00  0.00    -0.084 A  
HETATM    6  C   UNL     1      -9.522   4.186  69.057  1.00  0.00    -0.244 A  
HETATM    7  C   UNL     1      -6.810   6.591  64.611  1.00  0.00    -0.046 A  
HETATM    8  C   UNL     1      -9.861   4.420  70.390  1.00  0.00    -0.286 A  
HETATM    9  C   UNL     1      -7.162   7.932  64.679  1.00  0.00    -0.079 A  
HETATM   10  C   UNL     1      -8.275   8.317  65.427  1.00  0.00    -0.146 A  
HETATM   11  C   UNL     1     -10.622   5.538  70.733  1.00  0.00    -0.320 A  
HETATM   12  C   UNL     1     -11.050   6.424  69.742  1.00  0.00    -0.459 A  
HETATM   13  C   UNL     1     -10.716   6.196  68.400  1.00  0.00    -0.361 A  
HETATM   14  C   UNL     1     -11.149   7.133  67.301  1.00  0.00    -0.159 C  
HETATM   15  O   UNL     1     -10.083   7.948  66.813  1.00  0.00    -0.254 OA 
HETATM   16  C   UNL     1      -9.073   7.369  66.084  1.00  0.00    -0.126 A  
ENDROOT
BRANCH   1  17
HETATM   17  C   UNL     1      -9.829   3.561  64.494  1.00  0.00    -0.179 C  
BRANCH  17  18
HETATM   18  C   UNL     1      -9.423   2.112  64.159  1.00  0.00    -0.131 C  
BRANCH  18  19
HETATM   19  N   UNL     1      -8.155   1.944  63.424  1.00  0.00    -0.061 NA 
HETATM   20  C   UNL     1      -7.919   3.029  62.471  1.00  0.00    -0.071 C  
HETATM   21  C   UNL     1      -7.043   1.870  64.376  1.00  0.00    -0.051 C  
ENDBRANCH  18  19
ENDBRANCH  17  18
ENDBRANCH   1  17
TORSDOF 3
ENDMDL
MODEL      121
REMARK 921   NORMALIZED FREE ENERGY PREDICTED BY IDOCK:   -3.20 KCAL/MOL
REMARK 922        TOTAL FREE ENERGY PREDICTED BY IDOCK:   -4.00 KCAL/MOL
REMARK 923 INTER-LIGAND FREE ENERGY PREDICTED BY IDOCK:   -3.48 KCAL/MOL
REMARK 924 INTRA-LIGAND FREE ENERGY PREDICTED BY IDOCK:   -0.51 KCAL/MOL
REMARK 927      BINDING AFFINITY PREDICTED BY RF-SCORE:    0.00 PKD
ROOT
HETATM    1  C   UNL     1      -8.140   7.072  71.920  1.00  0.00    -0.098 C  
HETATM    2  C   UNL     1      -8.543   7.290  69.476  1.00  0.00    -0.134 A  
HETATM    3  C   UNL     1      -8.975   7.373  70.897  1.00  0.00    -0.149 C  
HETATM    4  C   UNL     1     -10.390   7.649  71.231  1.00  0.00    -0.215 A  
HETATM    5  C   UNL     1      -7.411   8.029  69.079  1.00  0.00    -0.084 A  
HETATM    6  C   UNL     1     -10.779   8.783  71.954  1.00  0.00    -0.429 A  
HETATM    7  C   UNL     1      -6.940   7.992  67.767  1.00  0.00    -0.078 A  
HETATM    8  C   UNL     1     -12.134   9.047  72.163  1.00  0.00    -0.412 A  
HETATM    9  C   UNL     1      -7.619   7.244  66.815  1.00  0.00    -0.100 A  
HETATM   10  C   UNL     1      -8.779   6.558  67.175  1.00  0.00    -0.111 A  
HETATM   11  C   UNL     1     -13.102   8.182  71.653  1.00  0.00    -0.358 A  
HETATM   12  C   UNL     1     -12.719   7.047  70.935  1.00  0.00    -0.226 A  
HETATM   13  C   UNL     1     -11.361   6.773  70.723  1.00  0.00    -0.374 A  
HETATM   14  C   UNL     1     -10.905   5.564  69.944  1.00  0.00    -0.228 C  
HETATM   15  O   UNL     1     -10.437   5.890  68.635  1.00  0.00    -0.192 OA 
HETATM   16  C   UNL     1      -9.255   6.575  68.494  1.00  0.00    -0.125 A  
ENDROOT
BRANCH   1  17
HETATM   17  C   UNL     1      -6.695   6.636  71.817  1.00  0.00    -0.062 C  
BRANCH  17  18
HETATM   18  C   UNL     1      -6.459   5.116  71.928  1.00  0.00    -0.036 C  
BRANCH  18  19
HETATM   19  N   UNL     1      -6.584   4.344  70.678  1.00  0.00    -0.034 NA 
HETATM   20  C   UNL     1      -5.689   4.838  69.630  1.00  0.00    -0.016 C  
HETATM   21  C   UNL     1      -6.301   2.931  70.944  1.00  0.00    -0.023 C  
ENDBRANCH  18  19
ENDBRANCH  17  18
ENDBRANCH   1  17
TORSDOF 3
ENDMDL
MODEL      122
REMARK 921   NORMALIZED FREE ENERGY PREDICTED BY IDOCK:   -3.16 KCAL/MOL
REMARK 922        TOTAL FREE ENERGY PREDICTED BY IDOCK:   -3.95 KCAL/MOL
REMARK 923 INTER-LIGAND FREE ENERGY PREDICTED BY IDOCK:   -3.92 KCAL/MOL
REMARK 924 INTRA-LIGAND FREE ENERGY PREDICTED BY IDOCK:   -0.04 KCAL/MOL
REMARK 927      BINDING AFFINITY PREDICTED BY RF-SCORE:    0.00 PKD
ROOT
HETATM    1  C   UNL     1     -10.214   8.182  72.131  1.00  0.00    -0.330 C  
HETATM    2  C   UNL     1      -7.973   8.389  71.074  1.00  0.00    -0.116 A  
HETATM    3  C   UNL     1      -9.440   8.636  71.118  1.00  0.00    -0.274 C  
HETATM    4  C   UNL     1     -10.123   9.266  69.967  1.00  0.00    -0.240 A  
HETATM    5  C   UNL     1      -7.193   8.808  72.170  1.00  0.00     0.000 A  
HETATM    6  C   UNL     1     -10.794  10.491  70.075  1.00  0.00    -0.320 A  
HETATM    7  C   UNL     1      -5.815   8.601  72.206  1.00  0.00    -0.065 A  
HETATM    8  C   UNL     1     -11.343  11.089  68.941  1.00  0.00    -0.346 A  
HETATM    9  C   UNL     1      -5.182   8.004  71.123  1.00  0.00    -0.029 A  
HETATM   10  C   UNL     1      -5.929   7.641  70.002  1.00  0.00    -0.023 A  
HETATM   11  C   UNL     1     -11.226  10.470  67.697  1.00  0.00    -0.338 A  
HETATM   12  C   UNL     1     -10.563   9.246  67.584  1.00  0.00    -0.324 A  
HETATM   13  C   UNL     1     -10.010   8.636  68.718  1.00  0.00    -0.194 A  
HETATM   14  C   UNL     1      -9.276   7.321  68.637  1.00  0.00    -0.136 C  
HETATM   15  O   UNL     1      -7.861   7.466  68.752  1.00  0.00    -0.116 OA 
HETATM   16  C   UNL     1      -7.318   7.831  69.960  1.00  0.00    -0.075 A  
ENDROOT
BRANCH   1  17
HETATM   17  C   UNL     1      -9.760   7.398  73.343  1.00  0.00    -0.319 C  
BRANCH  17  18
HETATM   18  C   UNL     1      -9.294   5.957  73.056  1.00  0.00    -0.140 C  
BRANCH  18  19
HETATM   19  N   UNL     1     -10.249   4.884  73.392  1.00  0.00    -0.162 NA 
HETATM   20  C   UNL     1     -11.616   5.212  72.985  1.00  0.00    -0.223 C  
HETATM   21  C   UNL     1      -9.828   3.635  72.750  1.00  0.00    -0.147 C  
ENDBRANCH  18  19
ENDBRANCH  17  18
ENDBRANCH   1  17
TORSDOF 3
ENDMDL
MODEL      123
REMARK 921   NORMALIZED FREE ENERGY PREDICTED BY IDOCK:   -3.15 KCAL/MOL
REMARK 922        TOTAL FREE ENERGY PREDICTED BY IDOCK:   -3.94 KCAL/MOL
REMARK 923 INTER-LIGAND FREE ENERGY PREDICTED BY IDOCK:   -3.65 KCAL/MOL
REMARK 924 INTRA-LIGAND FREE ENERGY PREDICTED BY IDOCK:   -0.29 KCAL/MOL
REMARK 927      BINDING AFFINITY PREDICTED BY RF-SCORE:    0.00 PKD
ROOT
HETATM    1  C   UNL     1     -10.247   7.947  69.054  1.00  0.00    -0.216 C  
HETATM    2  C   UNL     1      -8.601   7.246  67.328  1.00  0.00    -0.121 A  
HETATM    3  C   UNL     1      -9.216   8.254  68.233  1.00  0.00    -0.135 C  
HETATM    4  C   UNL     1      -8.807   9.674  68.152  1.00  0.00    -0.119 A  
HETATM    5  C   UNL     1      -8.102   6.056  67.896  1.00  0.00    -0.106 A  
HETATM    6  C   UNL     1      -8.218  10.344  69.231  1.00  0.00    -0.163 A  
HETATM    7  C   UNL     1      -7.523   5.060  67.110  1.00  0.00    -0.087 A  
HETATM    8  C   UNL     1      -7.766  11.655  69.076  1.00  0.00    -0.002 A  
HETATM    9  C   UNL     1      -7.395   5.254  65.741  1.00  0.00    -0.080 A  
HETATM   10  C   UNL     1      -7.825   6.452  65.170  1.00  0.00    -0.111 A  
HETATM   11  C   UNL     1      -7.900  12.301  67.847  1.00  0.00    -0.146 A  
HETATM   12  C   UNL     1      -8.491  11.639  66.769  1.00  0.00    -0.177 A  
HETATM   13  C   UNL     1      -8.950  10.323  66.916  1.00  0.00    -0.149 A  
HETATM   14  C   UNL     1      -9.584   9.569  65.775  1.00  0.00    -0.270 C  
HETATM   15  O   UNL     1      -8.722   8.578  65.215  1.00  0.00    -0.179 OA 
HETATM   16  C   UNL     1      -8.422   7.456  65.948  1.00  0.00    -0.150 A  
ENDROOT
BRANCH   1  17
HETATM   17  C   UNL     1     -10.918   6.601  69.209  1.00  0.00    -0.346 C  
BRANCH  17  18
HETATM   18  C   UNL     1     -11.564   6.344  70.585  1.00  0.00    -0.347 C  
BRANCH  18  19
HETATM   19  N   UNL     1     -10.668   5.840  71.643  1.00  0.00    -0.248 NA 
HETATM   20  C   UNL     1     -11.401   5.441  72.845  1.00  0.00    -0.303 C  
HETATM   21  C   UNL     1      -9.898   4.702  71.132  1.00  0.00    -0.191 C  
ENDBRANCH  18  19
ENDBRANCH  17  18
ENDBRANCH   1  17
TORSDOF 3
ENDMDL
MODEL      124
REMARK 921   NORMALIZED FREE ENERGY PREDICTED BY IDOCK:   -3.14 KCAL/MOL
REMARK 922        TOTAL FREE ENERGY PREDICTED BY IDOCK:   -3.93 KCAL/MOL
REMARK 923 INTER-LIGAND FREE ENERGY PREDICTED BY IDOCK:   -3.58 KCAL/MOL
REMARK 924 INTRA-LIGAND FREE ENERGY PREDICTED BY IDOCK:   -0.34 KCAL/MOL
REMARK 927      BINDING AFFINITY PREDICTED BY RF-SCORE:    0.00 PKD
ROOT
HETATM    1  C   UNL     1      -8.266   8.187  70.528  1.00  0.00    -0.117 C  
HETATM    2  C   UNL     1      -9.256   7.181  68.481  1.00  0.00    -0.134 A  
HETATM    3  C   UNL     1      -8.463   8.222  69.190  1.00  0.00    -0.127 C  
HETATM    4  C   UNL     1      -7.985   9.418  68.462  1.00  0.00    -0.093 A  
HETATM    5  C   UNL     1      -8.868   5.834  68.625  1.00  0.00    -0.110 A  
HETATM    6  C   UNL     1      -6.624   9.714  68.324  1.00  0.00    -0.057 A  
HETATM    7  C   UNL     1      -9.569   4.803  68.001  1.00  0.00    -0.199 A  
HETATM    8  C   UNL     1      -6.221  10.802  67.549  1.00  0.00    -0.053 A  
HETATM    9  C   UNL     1     -10.652   5.104  67.186  1.00  0.00    -0.169 A  
HETATM   10  C   UNL     1     -11.011   6.436  66.980  1.00  0.00    -0.463 A  
HETATM   11  C   UNL     1      -7.172  11.598  66.911  1.00  0.00    -0.125 A  
HETATM   12  C   UNL     1      -8.531  11.310  67.049  1.00  0.00    -0.150 A  
HETATM   13  C   UNL     1      -8.946  10.221  67.827  1.00  0.00    -0.135 A  
HETATM   14  C   UNL     1     -10.403   9.868  67.993  1.00  0.00    -0.203 C  
HETATM   15  O   UNL     1     -10.787   8.719  67.238  1.00  0.00    -0.214 OA 
HETATM   16  C   UNL     1     -10.322   7.482  67.613  1.00  0.00    -0.229 A  
ENDROOT
BRANCH   1  17
HETATM   17  C   UNL     1      -8.772   7.139  71.496  1.00  0.00    -0.119 C  
BRANCH  17  18
HETATM   18  C   UNL     1      -9.779   7.648  72.547  1.00  0.00    -0.184 C  
BRANCH  18  19
HETATM   19  N   UNL     1     -10.900   6.744  72.867  1.00  0.00    -0.258 NA 
HETATM   20  C   UNL     1     -11.240   5.865  71.747  1.00  0.00    -0.250 C  
HETATM   21  C   UNL     1     -10.559   5.938  74.043  1.00  0.00    -0.194 C  
ENDBRANCH  18  19
ENDBRANCH  17  18
ENDBRANCH   1  17
TORSDOF 3
ENDMDL
MODEL      125
REMARK 921   NORMALIZED FREE ENERGY PREDICTED BY IDOCK:   -3.14 KCAL/MOL
REMARK 922        TOTAL FREE ENERGY PREDICTED BY IDOCK:   -3.93 KCAL/MOL
REMARK 923 INTER-LIGAND FREE ENERGY PREDICTED BY IDOCK:   -3.77 KCAL/MOL
REMARK 924 INTRA-LIGAND FREE ENERGY PREDICTED BY IDOCK:   -0.16 KCAL/MOL
REMARK 927      BINDING AFFINITY PREDICTED BY RF-SCORE:    0.00 PKD
ROOT
HETATM    1  C   UNL     1      -8.523   9.839  67.860  1.00  0.00    -0.125 C  
HETATM    2  C   UNL     1      -9.549   8.256  69.479  1.00  0.00    -0.171 A  
HETATM    3  C   UNL     1      -8.778   8.567  68.246  1.00  0.00    -0.143 C  
HETATM    4  C   UNL     1      -8.390   7.482  67.318  1.00  0.00    -0.118 A  
HETATM    5  C   UNL     1      -9.091   8.785  70.703  1.00  0.00    -0.221 A  
HETATM    6  C   UNL     1      -7.051   7.185  67.034  1.00  0.00    -0.090 A  
HETATM    7  C   UNL     1      -9.768   8.547  71.899  1.00  0.00    -0.358 A  
HETATM    8  C   UNL     1      -6.734   6.093  66.225  1.00  0.00    -0.060 A  
HETATM    9  C   UNL     1     -10.898   7.739  71.899  1.00  0.00    -0.281 A  
HETATM   10  C   UNL     1     -11.329   7.155  70.708  1.00  0.00    -0.322 A  
HETATM   11  C   UNL     1      -7.749   5.295  65.697  1.00  0.00    -0.087 A  
HETATM   12  C   UNL     1      -9.086   5.590  65.973  1.00  0.00    -0.162 A  
HETATM   13  C   UNL     1      -9.414   6.686  66.782  1.00  0.00    -0.194 A  
HETATM   14  C   UNL     1     -10.844   7.032  67.113  1.00  0.00    -0.357 C  
HETATM   15  O   UNL     1     -11.204   6.688  68.451  1.00  0.00    -0.230 OA 
HETATM   16  C   UNL     1     -10.665   7.398  69.496  1.00  0.00    -0.224 A  
ENDROOT
BRANCH   1  17
HETATM   17  C   UNL     1      -8.936  11.107  68.574  1.00  0.00    -0.168 C  
BRANCH  17  18
HETATM   18  C   UNL     1      -8.339  12.408  67.999  1.00  0.00    -0.170 C  
BRANCH  18  19
HETATM   19  N   UNL     1      -7.134  12.925  68.672  1.00  0.00    -0.100 NA 
HETATM   20  C   UNL     1      -6.615  11.992  69.674  1.00  0.00    -0.043 C  
HETATM   21  C   UNL     1      -6.097  13.206  67.674  1.00  0.00    -0.146 C  
ENDBRANCH  18  19
ENDBRANCH  17  18
ENDBRANCH   1  17
TORSDOF 3
ENDMDL
MODEL      126
REMARK 921   NORMALIZED FREE ENERGY PREDICTED BY IDOCK:   -3.11 KCAL/MOL
REMARK 922        TOTAL FREE ENERGY PREDICTED BY IDOCK:   -3.89 KCAL/MOL
REMARK 923 INTER-LIGAND FREE ENERGY PREDICTED BY IDOCK:   -3.37 KCAL/MOL
REMARK 924 INTRA-LIGAND FREE ENERGY PREDICTED BY IDOCK:   -0.52 KCAL/MOL
REMARK 927      BINDING AFFINITY PREDICTED BY RF-SCORE:    0.00 PKD
ROOT
HETATM    1  C   UNL     1     -10.219   7.816  67.682  1.00  0.00    -0.282 C  
HETATM    2  C   UNL     1      -8.845   5.819  68.236  1.00  0.00    -0.109 A  
HETATM    3  C   UNL     1      -9.862   6.854  68.565  1.00  0.00    -0.144 C  
HETATM    4  C   UNL     1     -10.411   6.949  69.935  1.00  0.00    -0.223 A  
HETATM    5  C   UNL     1      -9.050   5.022  67.091  1.00  0.00    -0.115 A  
HETATM    6  C   UNL     1     -11.772   6.770  70.209  1.00  0.00    -0.397 A  
HETATM    7  C   UNL     1      -8.135   4.040  66.713  1.00  0.00    -0.097 A  
HETATM    8  C   UNL     1     -12.227   6.777  71.528  1.00  0.00    -0.413 A  
HETATM    9  C   UNL     1      -7.013   3.809  67.498  1.00  0.00    -0.055 A  
HETATM   10  C   UNL     1      -6.826   4.544  68.668  1.00  0.00    -0.051 A  
HETATM   11  C   UNL     1     -11.327   6.963  72.577  1.00  0.00    -0.291 A  
HETATM   12  C   UNL     1      -9.968   7.146  72.310  1.00  0.00    -0.193 A  
HETATM   13  C   UNL     1      -9.503   7.143  70.988  1.00  0.00    -0.159 A  
HETATM   14  C   UNL     1      -8.043   7.326  70.657  1.00  0.00    -0.108 C  
HETATM   15  O   UNL     1      -7.406   6.111  70.260  1.00  0.00    -0.083 OA 
HETATM   16  C   UNL     1      -7.732   5.544  69.052  1.00  0.00    -0.087 A  
ENDROOT
BRANCH   1  17
HETATM   17  C   UNL     1      -9.694   8.000  66.275  1.00  0.00    -0.197 C  
BRANCH  17  18
HETATM   18  C   UNL     1      -8.643   9.115  66.107  1.00  0.00    -0.136 C  
BRANCH  18  19
HETATM   19  N   UNL     1      -7.310   8.690  65.639  1.00  0.00    -0.083 NA 
HETATM   20  C   UNL     1      -6.477   8.180  66.729  1.00  0.00    -0.056 C  
HETATM   21  C   UNL     1      -7.459   7.661  64.606  1.00  0.00    -0.096 C  
ENDBRANCH  18  19
ENDBRANCH  17  18
ENDBRANCH   1  17
TORSDOF 3
ENDMDL
MODEL      127
REMARK 921   NORMALIZED FREE ENERGY PREDICTED BY IDOCK:   -3.09 KCAL/MOL
REMARK 922        TOTAL FREE ENERGY PREDICTED BY IDOCK:   -3.87 KCAL/MOL
REMARK 923 INTER-LIGAND FREE ENERGY PREDICTED BY IDOCK:   -3.63 KCAL/MOL
REMARK 924 INTRA-LIGAND FREE ENERGY PREDICTED BY IDOCK:   -0.23 KCAL/MOL
REMARK 927      BINDING AFFINITY PREDICTED BY RF-SCORE:    0.00 PKD
ROOT
HETATM    1  C   UNL     1     -10.461   7.756  68.009  1.00  0.00    -0.244 C  
HETATM    2  C   UNL     1      -8.807   8.438  66.283  1.00  0.00    -0.190 A  
HETATM    3  C   UNL     1      -9.538   7.416  67.080  1.00  0.00    -0.221 C  
HETATM    4  C   UNL     1      -9.164   5.988  66.981  1.00  0.00    -0.124 A  
HETATM    5  C   UNL     1      -9.561   9.364  65.534  1.00  0.00    -0.328 A  
HETATM    6  C   UNL     1     -10.059   5.011  66.528  1.00  0.00    -0.278 A  
HETATM    7  C   UNL     1      -8.947  10.358  64.772  1.00  0.00    -0.228 A  
HETATM    8  C   UNL     1      -9.631   3.693  66.365  1.00  0.00    -0.152 A  
HETATM    9  C   UNL     1      -7.561  10.418  64.712  1.00  0.00    -0.058 A  
HETATM   10  C   UNL     1      -6.799   9.470  65.394  1.00  0.00    -0.086 A  
HETATM   11  C   UNL     1      -8.311   3.345  66.653  1.00  0.00    -0.101 A  
HETATM   12  C   UNL     1      -7.416   4.314  67.110  1.00  0.00    -0.077 A  
HETATM   13  C   UNL     1      -7.837   5.640  67.279  1.00  0.00    -0.101 A  
HETATM   14  C   UNL     1      -6.900   6.719  67.760  1.00  0.00    -0.081 C  
HETATM   15  O   UNL     1      -6.490   7.604  66.718  1.00  0.00    -0.050 OA 
HETATM   16  C   UNL     1      -7.404   8.474  66.176  1.00  0.00    -0.081 A  
ENDROOT
BRANCH   1  17
HETATM   17  C   UNL     1     -10.909   9.153  68.379  1.00  0.00    -0.098 C  
BRANCH  17  18
HETATM   18  C   UNL     1     -10.939   9.454  69.891  1.00  0.00    -0.229 C  
BRANCH  18  19
HETATM   19  N   UNL     1     -11.610  10.704  70.294  1.00  0.00    -0.312 NA 
HETATM   20  C   UNL     1     -12.221  11.396  69.158  1.00  0.00    -0.175 C  
HETATM   21  C   UNL     1     -12.632  10.410  71.303  1.00  0.00    -0.419 C  
ENDBRANCH  18  19
ENDBRANCH  17  18
ENDBRANCH   1  17
TORSDOF 3
ENDMDL
MODEL      128
REMARK 921   NORMALIZED FREE ENERGY PREDICTED BY IDOCK:   -3.08 KCAL/MOL
REMARK 922        TOTAL FREE ENERGY PREDICTED BY IDOCK:   -3.85 KCAL/MOL
REMARK 923 INTER-LIGAND FREE ENERGY PREDICTED BY IDOCK:   -3.44 KCAL/MOL
REMARK 924 INTRA-LIGAND FREE ENERGY PREDICTED BY IDOCK:   -0.41 KCAL/MOL
REMARK 927      BINDING AFFINITY PREDICTED BY RF-SCORE:    0.00 PKD
ROOT
HETATM    1  C   UNL     1      -8.711   9.374  69.260  1.00  0.00    -0.145 C  
HETATM    2  C   UNL     1      -9.437   7.057  68.724  1.00  0.00    -0.136 A  
HETATM    3  C   UNL     1      -9.015   8.121  69.674  1.00  0.00    -0.154 C  
HETATM    4  C   UNL     1      -8.771   7.795  71.097  1.00  0.00    -0.141 A  
HETATM    5  C   UNL     1     -10.549   7.306  67.895  1.00  0.00    -0.266 A  
HETATM    6  C   UNL     1      -9.512   8.376  72.133  1.00  0.00    -0.360 A  
HETATM    7  C   UNL     1     -10.996   6.361  66.972  1.00  0.00    -0.463 A  
HETATM    8  C   UNL     1      -9.308   7.966  73.452  1.00  0.00    -0.348 A  
HETATM    9  C   UNL     1     -10.361   5.129  66.888  1.00  0.00    -0.288 A  
HETATM   10  C   UNL     1      -9.299   4.841  67.745  1.00  0.00    -0.163 A  
HETATM   11  C   UNL     1      -8.366   6.979  73.740  1.00  0.00    -0.158 A  
HETATM   12  C   UNL     1      -7.621   6.401  72.710  1.00  0.00    -0.102 A  
HETATM   13  C   UNL     1      -7.817   6.807  71.384  1.00  0.00    -0.098 A  
HETATM   14  C   UNL     1      -7.042   6.200  70.242  1.00  0.00    -0.074 C  
HETATM   15  O   UNL     1      -7.821   5.295  69.459  1.00  0.00    -0.081 OA 
HETATM   16  C   UNL     1      -8.831   5.788  68.668  1.00  0.00    -0.110 A  
ENDROOT
BRANCH   1  17
HETATM   17  C   UNL     1      -8.755   9.900  67.843  1.00  0.00    -0.129 C  
BRANCH  17  18
HETATM   18  C   UNL     1      -7.622   9.403  66.923  1.00  0.00    -0.091 C  
BRANCH  18  19
HETATM   19  N   UNL     1      -6.414   8.890  67.595  1.00  0.00    -0.060 NA 
HETATM   20  C   UNL     1      -5.848   7.728  66.907  1.00  0.00    -0.043 C  
HETATM   21  C   UNL     1      -5.409   9.954  67.677  1.00  0.00    -0.035 C  
ENDBRANCH  18  19
ENDBRANCH  17  18
ENDBRANCH   1  17
TORSDOF 3
ENDMDL
MODEL      129
REMARK 921   NORMALIZED FREE ENERGY PREDICTED BY IDOCK:   -3.02 KCAL/MOL
REMARK 922        TOTAL FREE ENERGY PREDICTED BY IDOCK:   -3.79 KCAL/MOL
REMARK 923 INTER-LIGAND FREE ENERGY PREDICTED BY IDOCK:   -3.27 KCAL/MOL
REMARK 924 INTRA-LIGAND FREE ENERGY PREDICTED BY IDOCK:   -0.52 KCAL/MOL
REMARK 927      BINDING AFFINITY PREDICTED BY RF-SCORE:    0.00 PKD
ROOT
HETATM    1  C   UNL     1      -7.037   7.191  67.569  1.00  0.00    -0.088 C  
HETATM    2  C   UNL     1      -8.799   6.124  66.177  1.00  0.00    -0.158 A  
HETATM    3  C   UNL     1      -8.180   7.297  66.851  1.00  0.00    -0.117 C  
HETATM    4  C   UNL     1      -8.883   8.598  66.876  1.00  0.00    -0.147 A  
HETATM    5  C   UNL     1      -8.017   5.388  65.264  1.00  0.00    -0.109 A  
HETATM    6  C   UNL     1      -8.344   9.750  66.290  1.00  0.00    -0.117 A  
HETATM    7  C   UNL     1      -8.525   4.270  64.604  1.00  0.00    -0.117 A  
HETATM    8  C   UNL     1      -9.087  10.931  66.259  1.00  0.00    -0.192 A  
HETATM    9  C   UNL     1      -9.844   3.890  64.814  1.00  0.00    -0.197 A  
HETATM   10  C   UNL     1     -10.653   4.644  65.664  1.00  0.00    -0.241 A  
HETATM   11  C   UNL     1     -10.367  10.967  66.812  1.00  0.00    -0.289 A  
HETATM   12  C   UNL     1     -10.907   9.822  67.402  1.00  0.00    -0.265 A  
HETATM   13  C   UNL     1     -10.168   8.633  67.440  1.00  0.00    -0.329 A  
HETATM   14  C   UNL     1     -10.719   7.372  68.057  1.00  0.00    -0.127 C  
HETATM   15  O   UNL     1     -11.113   6.403  67.086  1.00  0.00    -0.377 OA 
HETATM   16  C   UNL     1     -10.149   5.762  66.346  1.00  0.00    -0.133 A  
ENDROOT
BRANCH   1  17
HETATM   17  C   UNL     1      -6.217   5.940  67.796  1.00  0.00    -0.033 C  
BRANCH  17  18
HETATM   18  C   UNL     1      -6.537   5.172  69.094  1.00  0.00    -0.051 C  
BRANCH  18  19
HETATM   19  N   UNL     1      -7.735   4.312  69.065  1.00  0.00    -0.055 NA 
HETATM   20  C   UNL     1      -7.426   2.921  69.401  1.00  0.00    -0.044 C  
HETATM   21  C   UNL     1      -8.737   4.836  69.997  1.00  0.00    -0.082 C  
ENDBRANCH  18  19
ENDBRANCH  17  18
ENDBRANCH   1  17
TORSDOF 3
ENDMDL
MODEL      130
REMARK 921   NORMALIZED FREE ENERGY PREDICTED BY IDOCK:   -3.00 KCAL/MOL
REMARK 922        TOTAL FREE ENERGY PREDICTED BY IDOCK:   -3.77 KCAL/MOL
REMARK 923 INTER-LIGAND FREE ENERGY PREDICTED BY IDOCK:   -3.61 KCAL/MOL
REMARK 924 INTRA-LIGAND FREE ENERGY PREDICTED BY IDOCK:   -0.16 KCAL/MOL
REMARK 927      BINDING AFFINITY PREDICTED BY RF-SCORE:    0.00 PKD
ROOT
HETATM    1  C   UNL     1      -9.100   8.202  68.425  1.00  0.00    -0.136 C  
HETATM    2  C   UNL     1      -9.287   7.249  70.713  1.00  0.00    -0.160 A  
HETATM    3  C   UNL     1      -8.719   7.279  69.338  1.00  0.00    -0.137 C  
HETATM    4  C   UNL     1      -7.819   6.198  68.880  1.00  0.00    -0.101 A  
HETATM    5  C   UNL     1      -9.189   8.413  71.502  1.00  0.00    -0.257 A  
HETATM    6  C   UNL     1      -6.495   6.441  68.495  1.00  0.00    -0.049 A  
HETATM    7  C   UNL     1      -9.708   8.463  72.795  1.00  0.00    -0.298 A  
HETATM    8  C   UNL     1      -5.659   5.376  68.159  1.00  0.00    -0.012 A  
HETATM    9  C   UNL     1     -10.302   7.333  73.340  1.00  0.00    -0.410 A  
HETATM   10  C   UNL     1     -10.351   6.153  72.598  1.00  0.00    -0.219 A  
HETATM   11  C   UNL     1      -6.138   4.067  68.207  1.00  0.00    -0.031 A  
HETATM   12  C   UNL     1      -7.459   3.819  68.587  1.00  0.00    -0.054 A  
HETATM   13  C   UNL     1      -8.307   4.883  68.923  1.00  0.00    -0.082 A  
HETATM   14  C   UNL     1      -9.737   4.658  69.349  1.00  0.00    -0.202 C  
HETATM   15  O   UNL     1      -9.933   4.833  70.752  1.00  0.00    -0.200 OA 
HETATM   16  C   UNL     1      -9.846   6.093  71.291  1.00  0.00    -0.176 A  
ENDROOT
BRANCH   1  17
HETATM   17  C   UNL     1     -10.103   9.318  68.621  1.00  0.00    -0.207 C  
BRANCH  17  18
HETATM   18  C   UNL     1     -10.333  10.218  67.391  1.00  0.00    -0.233 C  
BRANCH  18  19
HETATM   19  N   UNL     1      -9.373  10.064  66.282  1.00  0.00    -0.161 NA 
HETATM   20  C   UNL     1      -9.957  10.425  64.989  1.00  0.00    -0.330 C  
HETATM   21  C   UNL     1      -8.190  10.893  66.538  1.00  0.00    -0.157 C  
ENDBRANCH  18  19
ENDBRANCH  17  18
ENDBRANCH   1  17
TORSDOF 3
ENDMDL
MODEL      131
REMARK 921   NORMALIZED FREE ENERGY PREDICTED BY IDOCK:   -2.98 KCAL/MOL
REMARK 922        TOTAL FREE ENERGY PREDICTED BY IDOCK:   -3.73 KCAL/MOL
REMARK 923 INTER-LIGAND FREE ENERGY PREDICTED BY IDOCK:   -3.41 KCAL/MOL
REMARK 924 INTRA-LIGAND FREE ENERGY PREDICTED BY IDOCK:   -0.32 KCAL/MOL
REMARK 927      BINDING AFFINITY PREDICTED BY RF-SCORE:    0.00 PKD
ROOT
HETATM    1  C   UNL     1      -9.094   6.177  71.119  1.00  0.00    -0.151 C  
HETATM    2  C   UNL     1      -9.331   4.607  73.031  1.00  0.00    -0.137 A  
HETATM    3  C   UNL     1      -8.779   5.829  72.388  1.00  0.00    -0.128 C  
HETATM    4  C   UNL     1      -7.743   6.630  73.078  1.00  0.00    -0.095 A  
HETATM    5  C   UNL     1     -10.731   4.456  73.089  1.00  0.00    -0.296 A  
HETATM    6  C   UNL     1      -7.950   7.967  73.438  1.00  0.00    -0.236 A  
HETATM    7  C   UNL     1     -11.321   3.332  73.665  1.00  0.00    -0.217 A  
HETATM    8  C   UNL     1      -6.978   8.652  74.168  1.00  0.00    -0.098 A  
HETATM    9  C   UNL     1     -10.519   2.352  74.234  1.00  0.00    -0.202 A  
HETATM   10  C   UNL     1      -9.134   2.514  74.244  1.00  0.00    -0.086 A  
HETATM   11  C   UNL     1      -5.799   8.007  74.541  1.00  0.00    -0.091 A  
HETATM   12  C   UNL     1      -5.586   6.674  74.181  1.00  0.00    -0.055 A  
HETATM   13  C   UNL     1      -6.555   5.980  73.445  1.00  0.00    -0.074 A  
HETATM   14  C   UNL     1      -6.369   4.537  73.045  1.00  0.00    -0.037 C  
HETATM   15  O   UNL     1      -7.163   3.639  73.820  1.00  0.00    -0.053 OA 
HETATM   16  C   UNL     1      -8.527   3.633  73.655  1.00  0.00    -0.083 A  
ENDROOT
BRANCH   1  17
HETATM   17  C   UNL     1     -10.021   5.441  70.177  1.00  0.00    -0.301 C  
BRANCH  17  18
HETATM   18  C   UNL     1     -11.132   6.303  69.542  1.00  0.00    -0.408 C  
BRANCH  18  19
HETATM   19  N   UNL     1     -10.993   6.588  68.102  1.00  0.00    -0.291 NA 
HETATM   20  C   UNL     1     -10.495   7.942  67.851  1.00  0.00    -0.198 C  
HETATM   21  C   UNL     1     -10.088   5.608  67.493  1.00  0.00    -0.174 C  
ENDBRANCH  18  19
ENDBRANCH  17  18
ENDBRANCH   1  17
TORSDOF 3
ENDMDL
MODEL      132
REMARK 921   NORMALIZED FREE ENERGY PREDICTED BY IDOCK:   -2.94 KCAL/MOL
REMARK 922        TOTAL FREE ENERGY PREDICTED BY IDOCK:   -3.69 KCAL/MOL
REMARK 923 INTER-LIGAND FREE ENERGY PREDICTED BY IDOCK:   -3.14 KCAL/MOL
REMARK 924 INTRA-LIGAND FREE ENERGY PREDICTED BY IDOCK:   -0.55 KCAL/MOL
REMARK 927      BINDING AFFINITY PREDICTED BY RF-SCORE:    0.00 PKD
ROOT
HETATM    1  C   UNL     1      -9.403   4.496  67.433  1.00  0.00    -0.168 C  
HETATM    2  C   UNL     1      -9.590   6.821  66.574  1.00  0.00    -0.191 A  
HETATM    3  C   UNL     1      -9.503   5.348  66.386  1.00  0.00    -0.164 C  
HETATM    4  C   UNL     1      -9.374   4.777  65.027  1.00  0.00    -0.113 A  
HETATM    5  C   UNL     1     -10.622   7.330  67.389  1.00  0.00    -0.370 A  
HETATM    6  C   UNL     1     -10.334   3.913  64.485  1.00  0.00    -0.231 A  
HETATM    7  C   UNL     1     -10.760   8.698  67.621  1.00  0.00    -0.194 A  
HETATM    8  C   UNL     1     -10.213   3.475  63.166  1.00  0.00    -0.183 A  
HETATM    9  C   UNL     1      -9.890   9.589  67.007  1.00  0.00    -0.246 A  
HETATM   10  C   UNL     1      -8.903   9.109  66.146  1.00  0.00    -0.187 A  
HETATM   11  C   UNL     1      -9.138   3.896  62.384  1.00  0.00    -0.098 A  
HETATM   12  C   UNL     1      -8.175   4.753  62.921  1.00  0.00    -0.095 A  
HETATM   13  C   UNL     1      -8.286   5.196  64.246  1.00  0.00    -0.131 A  
HETATM   14  C   UNL     1      -7.274   6.131  64.860  1.00  0.00    -0.063 C  
HETATM   15  O   UNL     1      -7.761   7.466  64.995  1.00  0.00    -0.099 OA 
HETATM   16  C   UNL     1      -8.745   7.734  65.916  1.00  0.00    -0.149 A  
ENDROOT
BRANCH   1  17
HETATM   17  C   UNL     1      -9.378   4.857  68.902  1.00  0.00    -0.180 C  
BRANCH  17  18
HETATM   18  C   UNL     1      -7.978   5.130  69.487  1.00  0.00    -0.079 C  
BRANCH  18  19
HETATM   19  N   UNL     1      -7.516   6.529  69.446  1.00  0.00    -0.092 NA 
HETATM   20  C   UNL     1      -7.106   7.016  70.764  1.00  0.00    -0.067 C  
HETATM   21  C   UNL     1      -6.398   6.650  68.504  1.00  0.00    -0.038 C  
ENDBRANCH  18  19
ENDBRANCH  17  18
ENDBRANCH   1  17
TORSDOF 3
ENDMDL
MODEL      133
REMARK 921   NORMALIZED FREE ENERGY PREDICTED BY IDOCK:   -2.92 KCAL/MOL
REMARK 922        TOTAL FREE ENERGY PREDICTED BY IDOCK:   -3.66 KCAL/MOL
REMARK 923 INTER-LIGAND FREE ENERGY PREDICTED BY IDOCK:   -3.24 KCAL/MOL
REMARK 924 INTRA-LIGAND FREE ENERGY PREDICTED BY IDOCK:   -0.43 KCAL/MOL
REMARK 927      BINDING AFFINITY PREDICTED BY RF-SCORE:    0.00 PKD
ROOT
HETATM    1  C   UNL     1      -8.846   7.875  67.446  1.00  0.00    -0.129 C  
HETATM    2  C   UNL     1      -8.596   7.328  69.858  1.00  0.00    -0.141 A  
HETATM    3  C   UNL     1      -8.604   6.963  68.416  1.00  0.00    -0.125 C  
HETATM    4  C   UNL     1      -8.492   5.546  68.006  1.00  0.00    -0.098 A  
HETATM    5  C   UNL     1      -7.728   8.355  70.281  1.00  0.00    -0.080 A  
HETATM    6  C   UNL     1      -7.429   5.076  67.224  1.00  0.00    -0.083 A  
HETATM    7  C   UNL     1      -7.674   8.760  71.615  1.00  0.00    -0.117 A  
HETATM    8  C   UNL     1      -7.318   3.714  66.942  1.00  0.00    -0.068 A  
HETATM    9  C   UNL     1      -8.461   8.115  72.560  1.00  0.00    -0.244 A  
HETATM   10  C   UNL     1      -9.278   7.054  72.170  1.00  0.00    -0.142 A  
HETATM   11  C   UNL     1      -8.265   2.818  67.437  1.00  0.00    -0.086 A  
HETATM   12  C   UNL     1      -9.329   3.281  68.213  1.00  0.00    -0.242 A  
HETATM   13  C   UNL     1      -9.451   4.647  68.499  1.00  0.00    -0.206 A  
HETATM   14  C   UNL     1     -10.578   5.188  69.342  1.00  0.00    -0.034 C  
HETATM   15  O   UNL     1     -10.164   5.551  70.659  1.00  0.00    -0.209 OA 
HETATM   16  C   UNL     1      -9.352   6.646  70.830  1.00  0.00    -0.157 A  
ENDROOT
BRANCH   1  17
HETATM   17  C   UNL     1      -9.122   9.351  67.632  1.00  0.00    -0.131 C  
BRANCH  17  18
HETATM   18  C   UNL     1     -10.580   9.707  67.985  1.00  0.00    -0.243 C  
BRANCH  18  19
HETATM   19  N   UNL     1     -10.769  10.832  68.919  1.00  0.00    -0.207 NA 
HETATM   20  C   UNL     1     -12.007  11.567  68.658  1.00  0.00    -0.246 C  
HETATM   21  C   UNL     1     -10.773  10.330  70.297  1.00  0.00    -0.250 C  
ENDBRANCH  18  19
ENDBRANCH  17  18
ENDBRANCH   1  17
TORSDOF 3
ENDMDL
MODEL      134
REMARK 921   NORMALIZED FREE ENERGY PREDICTED BY IDOCK:   -2.77 KCAL/MOL
REMARK 922        TOTAL FREE ENERGY PREDICTED BY IDOCK:   -3.50 KCAL/MOL
REMARK 923 INTER-LIGAND FREE ENERGY PREDICTED BY IDOCK:   -3.28 KCAL/MOL
REMARK 924 INTRA-LIGAND FREE ENERGY PREDICTED BY IDOCK:   -0.22 KCAL/MOL
REMARK 927      BINDING AFFINITY PREDICTED BY RF-SCORE:    0.00 PKD
ROOT
HETATM    1  C   UNL     1      -8.558   6.927  69.658  1.00  0.00    -0.134 C  
HETATM    2  C   UNL     1      -8.214   6.961  72.120  1.00  0.00    -0.105 A  
HETATM    3  C   UNL     1      -8.443   6.258  70.829  1.00  0.00    -0.135 C  
HETATM    4  C   UNL     1      -8.701   4.801  70.810  1.00  0.00    -0.134 A  
HETATM    5  C   UNL     1      -7.096   7.813  72.227  1.00  0.00    -0.079 A  
HETATM    6  C   UNL     1      -7.854   3.901  70.151  1.00  0.00    -0.048 A  
HETATM    7  C   UNL     1      -6.823   8.514  73.401  1.00  0.00    -0.076 A  
HETATM    8  C   UNL     1      -8.089   2.528  70.240  1.00  0.00    -0.056 A  
HETATM    9  C   UNL     1      -7.644   8.344  74.508  1.00  0.00    -0.275 A  
HETATM   10  C   UNL     1      -8.717   7.456  74.441  1.00  0.00    -0.236 A  
HETATM   11  C   UNL     1      -9.166   2.049  70.985  1.00  0.00    -0.181 A  
HETATM   12  C   UNL     1     -10.016   2.942  71.641  1.00  0.00    -0.151 A  
HETATM   13  C   UNL     1      -9.790   4.323  71.555  1.00  0.00    -0.260 A  
HETATM   14  C   UNL     1     -10.677   5.320  72.257  1.00  0.00    -0.223 C  
HETATM   15  O   UNL     1     -10.066   5.890  73.415  1.00  0.00    -0.177 OA 
HETATM   16  C   UNL     1      -9.011   6.756  73.262  1.00  0.00    -0.124 A  
ENDROOT
BRANCH   1  17
HETATM   17  C   UNL     1      -8.466   8.422  69.451  1.00  0.00    -0.125 C  
BRANCH  17  18
HETATM   18  C   UNL     1      -8.899   8.920  68.057  1.00  0.00    -0.133 C  
BRANCH  18  19
HETATM   19  N   UNL     1     -10.350   8.943  67.795  1.00  0.00    -0.231 NA 
HETATM   20  C   UNL     1     -10.777  10.187  67.153  1.00  0.00    -0.221 C  
HETATM   21  C   UNL     1     -10.714   7.801  66.951  1.00  0.00    -0.174 C  
ENDBRANCH  18  19
ENDBRANCH  17  18
ENDBRANCH   1  17
TORSDOF 3
ENDMDL
MODEL      135
REMARK 921   NORMALIZED FREE ENERGY PREDICTED BY IDOCK:   -2.63 KCAL/MOL
REMARK 922        TOTAL FREE ENERGY PREDICTED BY IDOCK:   -3.33 KCAL/MOL
REMARK 923 INTER-LIGAND FREE ENERGY PREDICTED BY IDOCK:   -3.10 KCAL/MOL
REMARK 924 INTRA-LIGAND FREE ENERGY PREDICTED BY IDOCK:   -0.23 KCAL/MOL
REMARK 927      BINDING AFFINITY PREDICTED BY RF-SCORE:    0.00 PKD
ROOT
HETATM    1  C   UNL     1      -8.328   7.311  68.705  1.00  0.00    -0.125 C  
HETATM    2  C   UNL     1      -7.516   9.135  67.223  1.00  0.00    -0.088 A  
HETATM    3  C   UNL     1      -8.444   8.579  68.244  1.00  0.00    -0.135 C  
HETATM    4  C   UNL     1      -9.624   9.357  68.680  1.00  0.00    -0.152 A  
HETATM    5  C   UNL     1      -6.133   9.111  67.495  1.00  0.00    -0.050 A  
HETATM    6  C   UNL     1      -9.799   9.767  70.008  1.00  0.00    -0.295 A  
HETATM    7  C   UNL     1      -5.201   9.604  66.582  1.00  0.00    -0.044 A  
HETATM    8  C   UNL     1     -10.881  10.578  70.351  1.00  0.00    -0.172 A  
HETATM    9  C   UNL     1      -5.640  10.169  65.391  1.00  0.00    -0.082 A  
HETATM   10  C   UNL     1      -7.007  10.259  65.133  1.00  0.00    -0.122 A  
HETATM   11  C   UNL     1     -11.790  10.983  69.374  1.00  0.00    -0.407 A  
HETATM   12  C   UNL     1     -11.622  10.574  68.050  1.00  0.00    -0.107 A  
HETATM   13  C   UNL     1     -10.541   9.757  67.696  1.00  0.00    -0.333 A  
HETATM   14  C   UNL     1     -10.317   9.302  66.275  1.00  0.00    -0.122 C  
HETATM   15  O   UNL     1      -9.245   9.992  65.632  1.00  0.00    -0.162 OA 
HETATM   16  C   UNL     1      -7.954   9.755  66.037  1.00  0.00    -0.111 A  
ENDROOT
BRANCH   1  17
HETATM   17  C   UNL     1      -7.287   6.289  68.305  1.00  0.00    -0.086 C  
BRANCH  17  18
HETATM   18  C   UNL     1      -7.692   4.818  68.527  1.00  0.00    -0.077 C  
BRANCH  18  19
HETATM   19  N   UNL     1      -9.030   4.430  68.044  1.00  0.00    -0.113 NA 
HETATM   20  C   UNL     1      -9.166   4.596  66.596  1.00  0.00    -0.129 C  
HETATM   21  C   UNL     1      -9.299   3.036  68.410  1.00  0.00    -0.187 C  
ENDBRANCH  18  19
ENDBRANCH  17  18
ENDBRANCH   1  17
TORSDOF 3
ENDMDL
MODEL      136
REMARK 921   NORMALIZED FREE ENERGY PREDICTED BY IDOCK:   -2.61 KCAL/MOL
REMARK 922        TOTAL FREE ENERGY PREDICTED BY IDOCK:   -3.30 KCAL/MOL
REMARK 923 INTER-LIGAND FREE ENERGY PREDICTED BY IDOCK:   -3.04 KCAL/MOL
REMARK 924 INTRA-LIGAND FREE ENERGY PREDICTED BY IDOCK:   -0.27 KCAL/MOL
REMARK 927      BINDING AFFINITY PREDICTED BY RF-SCORE:    0.00 PKD
ROOT
HETATM    1  C   UNL     1      -8.920   7.032  67.750  1.00  0.00    -0.121 C  
HETATM    2  C   UNL     1      -7.639   7.541  69.818  1.00  0.00    -0.094 A  
HETATM    3  C   UNL     1      -8.902   7.262  69.083  1.00  0.00    -0.136 C  
HETATM    4  C   UNL     1     -10.205   7.374  69.774  1.00  0.00    -0.210 A  
HETATM    5  C   UNL     1      -6.592   6.600  69.728  1.00  0.00    -0.048 A  
HETATM    6  C   UNL     1     -11.070   6.283  69.920  1.00  0.00    -0.469 A  
HETATM    7  C   UNL     1      -5.376   6.799  70.379  1.00  0.00    -0.019 A  
HETATM    8  C   UNL     1     -12.245   6.417  70.660  1.00  0.00    -0.009 A  
HETATM    9  C   UNL     1      -5.196   7.927  71.169  1.00  0.00    -0.026 A  
HETATM   10  C   UNL     1      -6.242   8.837  71.321  1.00  0.00    -0.055 A  
HETATM   11  C   UNL     1     -12.562   7.637  71.256  1.00  0.00    -0.316 A  
HETATM   12  C   UNL     1     -11.705   8.730  71.110  1.00  0.00    -0.344 A  
HETATM   13  C   UNL     1     -10.524   8.606  70.366  1.00  0.00    -0.233 A  
HETATM   14  C   UNL     1      -9.567   9.758  70.193  1.00  0.00    -0.237 C  
HETATM   15  O   UNL     1      -8.386   9.624  70.984  1.00  0.00    -0.253 OA 
HETATM   16  C   UNL     1      -7.466   8.656  70.660  1.00  0.00    -0.074 A  
ENDROOT
BRANCH   1  17
HETATM   17  C   UNL     1      -7.732   7.002  66.814  1.00  0.00    -0.098 C  
BRANCH  17  18
HETATM   18  C   UNL     1      -7.350   5.606  66.282  1.00  0.00    -0.078 C  
BRANCH  18  19
HETATM   19  N   UNL     1      -7.745   5.307  64.893  1.00  0.00    -0.083 NA 
HETATM   20  C   UNL     1      -7.327   6.355  63.961  1.00  0.00    -0.073 C  
HETATM   21  C   UNL     1      -7.167   4.023  64.485  1.00  0.00    -0.066 C  
ENDBRANCH  18  19
ENDBRANCH  17  18
ENDBRANCH   1  17
TORSDOF 3
ENDMDL
MODEL      137
REMARK 921   NORMALIZED FREE ENERGY PREDICTED BY IDOCK:   -2.60 KCAL/MOL
REMARK 922        TOTAL FREE ENERGY PREDICTED BY IDOCK:   -3.29 KCAL/MOL
REMARK 923 INTER-LIGAND FREE ENERGY PREDICTED BY IDOCK:   -3.05 KCAL/MOL
REMARK 924 INTRA-LIGAND FREE ENERGY PREDICTED BY IDOCK:   -0.25 KCAL/MOL
REMARK 927      BINDING AFFINITY PREDICTED BY RF-SCORE:    0.00 PKD
ROOT
HETATM    1  C   UNL     1      -8.287   6.097  67.278  1.00  0.00    -0.105 C  
HETATM    2  C   UNL     1      -9.280   6.420  69.534  1.00  0.00    -0.144 A  
HETATM    3  C   UNL     1      -8.967   6.874  68.153  1.00  0.00    -0.123 C  
HETATM    4  C   UNL     1      -9.266   8.263  67.740  1.00  0.00    -0.144 A  
HETATM    5  C   UNL     1      -9.989   5.212  69.695  1.00  0.00    -0.313 A  
HETATM    6  C   UNL     1     -10.158   8.558  66.702  1.00  0.00    -0.364 A  
HETATM    7  C   UNL     1     -10.308   4.717  70.959  1.00  0.00    -0.188 A  
HETATM    8  C   UNL     1     -10.478   9.885  66.412  1.00  0.00    -0.197 A  
HETATM    9  C   UNL     1      -9.958   5.443  72.089  1.00  0.00    -0.226 A  
HETATM   10  C   UNL     1      -9.313   6.672  71.948  1.00  0.00    -0.147 A  
HETATM   11  C   UNL     1      -9.911  10.920  67.155  1.00  0.00    -0.213 A  
HETATM   12  C   UNL     1      -9.017  10.632  68.188  1.00  0.00    -0.141 A  
HETATM   13  C   UNL     1      -8.688   9.303  68.485  1.00  0.00    -0.128 A  
HETATM   14  C   UNL     1      -7.737   8.948  69.600  1.00  0.00    -0.078 C  
HETATM   15  O   UNL     1      -8.399   8.420  70.750  1.00  0.00    -0.113 OA 
HETATM   16  C   UNL     1      -8.973   7.175  70.683  1.00  0.00    -0.154 A  
ENDROOT
BRANCH   1  17
HETATM   17  C   UNL     1      -7.763   4.699  67.520  1.00  0.00    -0.089 C  
BRANCH  17  18
HETATM   18  C   UNL     1      -6.835   4.146  66.419  1.00  0.00    -0.055 C  
BRANCH  18  19
HETATM   19  N   UNL     1      -6.735   2.677  66.327  1.00  0.00    -0.042 NA 
HETATM   20  C   UNL     1      -5.515   2.165  66.952  1.00  0.00    -0.017 C  
HETATM   21  C   UNL     1      -7.909   2.066  66.959  1.00  0.00    -0.066 C  
ENDBRANCH  18  19
ENDBRANCH  17  18
ENDBRANCH   1  17
TORSDOF 3
ENDMDL
MODEL      138
REMARK 921   NORMALIZED FREE ENERGY PREDICTED BY IDOCK:   -2.59 KCAL/MOL
REMARK 922        TOTAL FREE ENERGY PREDICTED BY IDOCK:   -3.29 KCAL/MOL
REMARK 923 INTER-LIGAND FREE ENERGY PREDICTED BY IDOCK:   -3.00 KCAL/MOL
REMARK 924 INTRA-LIGAND FREE ENERGY PREDICTED BY IDOCK:   -0.29 KCAL/MOL
REMARK 927      BINDING AFFINITY PREDICTED BY RF-SCORE:    0.00 PKD
ROOT
HETATM    1  C   UNL     1      -9.393   3.163  67.307  1.00  0.00    -0.217 C  
HETATM    2  C   UNL     1      -9.795   5.616  67.342  1.00  0.00    -0.160 A  
HETATM    3  C   UNL     1      -9.633   4.316  66.639  1.00  0.00    -0.218 C  
HETATM    4  C   UNL     1      -9.583   4.270  65.161  1.00  0.00    -0.185 A  
HETATM    5  C   UNL     1     -10.784   5.716  68.342  1.00  0.00    -0.229 A  
HETATM    6  C   UNL     1     -10.530   3.570  64.403  1.00  0.00    -0.131 A  
HETATM    7  C   UNL     1     -10.987   6.898  69.052  1.00  0.00    -0.225 A  
HETATM    8  C   UNL     1     -10.494   3.633  63.009  1.00  0.00    -0.214 A  
HETATM    9  C   UNL     1     -10.228   8.020  68.747  1.00  0.00    -0.220 A  
HETATM   10  C   UNL     1      -9.289   7.960  67.717  1.00  0.00    -0.153 A  
HETATM   11  C   UNL     1      -9.516   4.393  62.368  1.00  0.00    -0.124 A  
HETATM   12  C   UNL     1      -8.567   5.089  63.119  1.00  0.00    -0.112 A  
HETATM   13  C   UNL     1      -8.593   5.029  64.519  1.00  0.00    -0.143 A  
HETATM   14  C   UNL     1      -7.593   5.775  65.367  1.00  0.00    -0.084 C  
HETATM   15  O   UNL     1      -8.148   6.931  65.995  1.00  0.00    -0.107 OA 
HETATM   16  C   UNL     1      -9.066   6.772  67.005  1.00  0.00    -0.131 A  
ENDROOT
BRANCH   1  17
HETATM   17  C   UNL     1      -9.267   2.988  68.804  1.00  0.00    -0.229 C  
BRANCH  17  18
HETATM   18  C   UNL     1      -8.088   2.108  69.265  1.00  0.00    -0.044 C  
BRANCH  18  19
HETATM   19  N   UNL     1      -6.829   2.812  69.571  1.00  0.00    -0.034 NA 
HETATM   20  C   UNL     1      -6.279   2.424  70.871  1.00  0.00    -0.019 C  
HETATM   21  C   UNL     1      -5.847   2.539  68.517  1.00  0.00    -0.023 C  
ENDBRANCH  18  19
ENDBRANCH  17  18
ENDBRANCH   1  17
TORSDOF 3
ENDMDL
MODEL      139
REMARK 921   NORMALIZED FREE ENERGY PREDICTED BY IDOCK:   -2.58 KCAL/MOL
REMARK 922        TOTAL FREE ENERGY PREDICTED BY IDOCK:   -3.27 KCAL/MOL
REMARK 923 INTER-LIGAND FREE ENERGY PREDICTED BY IDOCK:   -3.08 KCAL/MOL
REMARK 924 INTRA-LIGAND FREE ENERGY PREDICTED BY IDOCK:   -0.18 KCAL/MOL
REMARK 927      BINDING AFFINITY PREDICTED BY RF-SCORE:    0.00 PKD
ROOT
HETATM    1  C   UNL     1      -9.082   6.981  67.624  1.00  0.00    -0.122 C  
HETATM    2  C   UNL     1      -7.680   8.193  69.281  1.00  0.00    -0.104 A  
HETATM    3  C   UNL     1      -8.783   7.265  68.913  1.00  0.00    -0.128 C  
HETATM    4  C   UNL     1      -9.690   6.736  69.955  1.00  0.00    -0.170 A  
HETATM    5  C   UNL     1      -6.385   7.915  68.798  1.00  0.00    -0.044 A  
HETATM    6  C   UNL     1      -9.799   5.366  70.225  1.00  0.00    -0.272 A  
HETATM    7  C   UNL     1      -5.304   8.745  69.091  1.00  0.00    -0.036 A  
HETATM    8  C   UNL     1     -10.598   4.924  71.280  1.00  0.00    -0.093 A  
HETATM    9  C   UNL     1      -5.490   9.850  69.911  1.00  0.00    -0.037 A  
HETATM   10  C   UNL     1      -6.750  10.104  70.451  1.00  0.00    -0.134 A  
HETATM   11  C   UNL     1     -11.290   5.844  72.067  1.00  0.00    -0.325 A  
HETATM   12  C   UNL     1     -11.190   7.210  71.799  1.00  0.00    -0.278 A  
HETATM   13  C   UNL     1     -10.392   7.664  70.741  1.00  0.00    -0.203 A  
HETATM   14  C   UNL     1     -10.247   9.131  70.424  1.00  0.00    -0.222 C  
HETATM   15  O   UNL     1      -8.985   9.665  70.826  1.00  0.00    -0.187 OA 
HETATM   16  C   UNL     1      -7.849   9.286  70.152  1.00  0.00    -0.125 A  
ENDROOT
BRANCH   1  17
HETATM   17  C   UNL     1      -8.383   7.509  66.390  1.00  0.00    -0.126 C  
BRANCH  17  18
HETATM   18  C   UNL     1      -8.574   9.015  66.121  1.00  0.00    -0.135 C  
BRANCH  18  19
HETATM   19  N   UNL     1      -7.803   9.580  64.998  1.00  0.00    -0.113 NA 
HETATM   20  C   UNL     1      -6.406   9.832  65.357  1.00  0.00    -0.082 C  
HETATM   21  C   UNL     1      -7.863   8.666  63.853  1.00  0.00    -0.147 C  
ENDBRANCH  18  19
ENDBRANCH  17  18
ENDBRANCH   1  17
TORSDOF 3
ENDMDL
MODEL      140
REMARK 921   NORMALIZED FREE ENERGY PREDICTED BY IDOCK:   -2.41 KCAL/MOL
REMARK 922        TOTAL FREE ENERGY PREDICTED BY IDOCK:   -3.08 KCAL/MOL
REMARK 923 INTER-LIGAND FREE ENERGY PREDICTED BY IDOCK:   -2.64 KCAL/MOL
REMARK 924 INTRA-LIGAND FREE ENERGY PREDICTED BY IDOCK:   -0.44 KCAL/MOL
REMARK 927      BINDING AFFINITY PREDICTED BY RF-SCORE:    0.00 PKD
ROOT
HETATM    1  C   UNL     1      -6.015   6.168  67.198  1.00  0.00    -0.018 C  
HETATM    2  C   UNL     1      -8.366   6.810  66.707  1.00  0.00    -0.115 A  
HETATM    3  C   UNL     1      -6.895   6.955  66.537  1.00  0.00    -0.068 C  
HETATM    4  C   UNL     1      -6.345   8.076  65.742  1.00  0.00    -0.042 A  
HETATM    5  C   UNL     1      -8.945   5.550  66.456  1.00  0.00    -0.123 A  
HETATM    6  C   UNL     1      -5.581   7.868  64.587  1.00  0.00    -0.044 A  
HETATM    7  C   UNL     1     -10.315   5.334  66.606  1.00  0.00    -0.330 A  
HETATM    8  C   UNL     1      -5.163   8.957  63.821  1.00  0.00    -0.061 A  
HETATM    9  C   UNL     1     -11.140   6.389  66.972  1.00  0.00    -0.405 A  
HETATM   10  C   UNL     1     -10.593   7.659  67.162  1.00  0.00    -0.410 A  
HETATM   11  C   UNL     1      -5.505  10.254  64.203  1.00  0.00    -0.139 A  
HETATM   12  C   UNL     1      -6.262  10.467  65.357  1.00  0.00    -0.127 A  
HETATM   13  C   UNL     1      -6.684   9.380  66.134  1.00  0.00    -0.077 A  
HETATM   14  C   UNL     1      -7.513   9.566  67.380  1.00  0.00    -0.091 C  
HETATM   15  O   UNL     1      -8.883   9.208  67.196  1.00  0.00    -0.119 OA 
HETATM   16  C   UNL     1      -9.215   7.886  67.029  1.00  0.00    -0.148 A  
ENDROOT
BRANCH   1  17
HETATM   17  C   UNL     1      -6.340   5.050  68.164  1.00  0.00    -0.036 C  
BRANCH  17  18
HETATM   18  C   UNL     1      -6.524   5.484  69.632  1.00  0.00    -0.045 C  
BRANCH  18  19
HETATM   19  N   UNL     1      -7.145   6.803  69.849  1.00  0.00    -0.069 NA 
HETATM   20  C   UNL     1      -8.455   6.700  70.495  1.00  0.00    -0.138 C  
HETATM   21  C   UNL     1      -6.256   7.636  70.664  1.00  0.00    -0.034 C  
ENDBRANCH  18  19
ENDBRANCH  17  18
ENDBRANCH   1  17
TORSDOF 3
ENDMDL
MODEL      141
REMARK 921   NORMALIZED FREE ENERGY PREDICTED BY IDOCK:   -1.27 KCAL/MOL
REMARK 922        TOTAL FREE ENERGY PREDICTED BY IDOCK:   -1.73 KCAL/MOL
REMARK 923 INTER-LIGAND FREE ENERGY PREDICTED BY IDOCK:   -1.48 KCAL/MOL
REMARK 924 INTRA-LIGAND FREE ENERGY PREDICTED BY IDOCK:   -0.24 KCAL/MOL
REMARK 927      BINDING AFFINITY PREDICTED BY RF-SCORE:    0.00 PKD
ROOT
HETATM    1  C   UNL     1      -9.072  15.973  68.020  1.00  0.00    -0.189 C  
HETATM    2  C   UNL     1      -9.620  18.194  67.047  1.00  0.00    -0.287 A  
HETATM    3  C   UNL     1      -8.742  17.269  67.812  1.00  0.00    -0.226 C  
HETATM    4  C   UNL     1      -7.538  17.785  68.501  1.00  0.00    -0.276 A  
HETATM    5  C   UNL     1      -9.987  17.833  65.734  1.00  0.00    -0.001 A  
HETATM    6  C   UNL     1      -6.248  17.348  68.177  1.00  0.00    -0.155 A  
HETATM    7  C   UNL     1     -10.817  18.644  64.961  1.00  0.00     1.270 A  
HETATM    8  C   UNL     1      -5.138  17.932  68.790  1.00  0.00    -0.157 A  
HETATM    9  C   UNL     1     -11.265  19.854  65.472  1.00  0.00     0.274 A  
HETATM   10  C   UNL     1     -10.860  20.258  66.744  1.00  0.00     0.117 A  
HETATM   11  C   UNL     1      -5.312  18.951  69.726  1.00  0.00    -0.212 A  
HETATM   12  C   UNL     1      -6.596  19.388  70.056  1.00  0.00    -0.138 A  
HETATM   13  C   UNL     1      -7.716  18.805  69.448  1.00  0.00     0.094 A  
HETATM   14  C   UNL     1      -9.120  19.255  69.767  1.00  0.00     0.622 C  
HETATM   15  O   UNL     1      -9.702  20.043  68.729  1.00  0.00    -0.281 OA 
HETATM   16  C   UNL     1     -10.037  19.446  67.538  1.00  0.00    -0.398 A  
ENDROOT
BRANCH   1  17
HETATM   17  C   UNL     1     -10.313  15.260  67.531  1.00  0.00    -0.244 C  
BRANCH  17  18
HETATM   18  C   UNL     1     -10.093  14.296  66.348  1.00  0.00    -0.288 C  
BRANCH  18  19
HETATM   19  N   UNL     1     -11.285  13.966  65.544  1.00  0.00    -0.303 NA 
HETATM   20  C   UNL     1     -11.051  12.835  64.645  1.00  0.00    -0.318 C  
HETATM   21  C   UNL     1     -12.409  13.666  66.436  1.00  0.00    -0.389 C  
ENDBRANCH  18  19
ENDBRANCH  17  18
ENDBRANCH   1  17
TORSDOF 3
ENDMDL
MODEL      142
REMARK 921   NORMALIZED FREE ENERGY PREDICTED BY IDOCK:   -0.27 KCAL/MOL
REMARK 922        TOTAL FREE ENERGY PREDICTED BY IDOCK:   -0.56 KCAL/MOL
REMARK 923 INTER-LIGAND FREE ENERGY PREDICTED BY IDOCK:   -1.59 KCAL/MOL
REMARK 924 INTRA-LIGAND FREE ENERGY PREDICTED BY IDOCK:    1.03 KCAL/MOL
REMARK 927      BINDING AFFINITY PREDICTED BY RF-SCORE:    0.00 PKD
ROOT
HETATM    1  C   UNL     1      -6.735  10.345  66.750  1.00  0.00    -0.086 C  
HETATM    2  C   UNL     1      -7.132   8.776  68.636  1.00  0.00    -0.072 A  
HETATM    3  C   UNL     1      -6.759   9.080  67.229  1.00  0.00    -0.069 C  
HETATM    4  C   UNL     1      -6.542   7.981  66.262  1.00  0.00    -0.047 A  
HETATM    5  C   UNL     1      -6.408   9.403  69.670  1.00  0.00    -0.040 A  
HETATM    6  C   UNL     1      -5.310   7.776  65.628  1.00  0.00    -0.029 A  
HETATM    7  C   UNL     1      -6.708   9.177  71.012  1.00  0.00    -0.093 A  
HETATM    8  C   UNL     1      -5.129   6.670  64.796  1.00  0.00    -0.025 A  
HETATM    9  C   UNL     1      -7.717   8.284  71.349  1.00  0.00    -0.108 A  
HETATM   10  C   UNL     1      -8.401   7.605  70.341  1.00  0.00    -0.124 A  
HETATM   11  C   UNL     1      -6.172   5.768  64.593  1.00  0.00    -0.026 A  
HETATM   12  C   UNL     1      -7.404   5.971  65.219  1.00  0.00    -0.076 A  
HETATM   13  C   UNL     1      -7.597   7.079  66.054  1.00  0.00    -0.096 A  
HETATM   14  C   UNL     1      -8.907   7.328  66.758  1.00  0.00    -0.134 C  
HETATM   15  O   UNL     1      -8.856   7.029  68.153  1.00  0.00    -0.129 OA 
HETATM   16  C   UNL     1      -8.119   7.834  68.986  1.00  0.00    -0.125 A  
ENDROOT
BRANCH   1  17
HETATM   17  C   UNL     1      -7.050  11.614  67.512  1.00  0.00    -0.111 C  
BRANCH  17  18
HETATM   18  C   UNL     1      -8.545  11.987  67.575  1.00  0.00    -0.167 C  
BRANCH  18  19
HETATM   19  N   UNL     1      -9.353  11.647  66.389  1.00  0.00    -0.208 NA 
HETATM   20  C   UNL     1      -8.547  11.589  65.169  1.00  0.00     0.389 C  
HETATM   21  C   UNL     1     -10.020  10.360  66.603  1.00  0.00    -0.210 C  
ENDBRANCH  18  19
ENDBRANCH  17  18
ENDBRANCH   1  17
TORSDOF 3
ENDMDL
MODEL      143
REMARK 921   NORMALIZED FREE ENERGY PREDICTED BY IDOCK:    1.94 KCAL/MOL
REMARK 922        TOTAL FREE ENERGY PREDICTED BY IDOCK:    2.05 KCAL/MOL
REMARK 923 INTER-LIGAND FREE ENERGY PREDICTED BY IDOCK:    2.27 KCAL/MOL
REMARK 924 INTRA-LIGAND FREE ENERGY PREDICTED BY IDOCK:   -0.23 KCAL/MOL
REMARK 927      BINDING AFFINITY PREDICTED BY RF-SCORE:    0.00 PKD
ROOT
HETATM    1  C   UNL     1      -8.770  14.383  67.894  1.00  0.00    -0.168 C  
HETATM    2  C   UNL     1     -10.555  15.167  66.351  1.00  0.00    -0.305 A  
HETATM    3  C   UNL     1      -9.877  14.119  67.160  1.00  0.00    -0.253 C  
HETATM    4  C   UNL     1     -10.313  12.708  67.067  1.00  0.00    -0.241 A  
HETATM    5  C   UNL     1     -10.982  16.342  67.004  1.00  0.00    -0.086 A  
HETATM    6  C   UNL     1     -10.812  12.007  68.172  1.00  0.00    -0.257 A  
HETATM    7  C   UNL     1     -11.614  17.373  66.309  1.00  0.00     1.816 A  
HETATM    8  C   UNL     1     -11.297  10.708  68.013  1.00  0.00    -0.350 A  
HETATM    9  C   UNL     1     -11.869  17.231  64.952  1.00  0.00     2.337 A  
HETATM   10  C   UNL     1     -11.512  16.049  64.303  1.00  0.00    -0.162 A  
HETATM   11  C   UNL     1     -11.286  10.106  66.755  1.00  0.00     0.560 A  
HETATM   12  C   UNL     1     -10.785  10.799  65.651  1.00  0.00    -0.142 A  
HETATM   13  C   UNL     1     -10.294  12.103  65.801  1.00  0.00    -0.289 A  
HETATM   14  C   UNL     1      -9.755  12.891  64.634  1.00  0.00     0.130 C  
HETATM   15  O   UNL     1     -10.649  13.911  64.191  1.00  0.00    -0.212 OA 
HETATM   16  C   UNL     1     -10.863  15.010  64.987  1.00  0.00    -0.422 A  
ENDROOT
BRANCH   1  17
HETATM   17  C   UNL     1      -8.067  15.715  68.033  1.00  0.00    -0.140 C  
BRANCH  17  18
HETATM   18  C   UNL     1      -7.569  16.049  69.454  1.00  0.00    -0.191 C  
BRANCH  18  19
HETATM   19  N   UNL     1      -6.308  16.808  69.542  1.00  0.00    -0.224 NA 
HETATM   20  C   UNL     1      -6.347  17.827  70.592  1.00  0.00     0.989 C  
HETATM   21  C   UNL     1      -5.196  15.885  69.788  1.00  0.00    -0.116 C  
ENDBRANCH  18  19
ENDBRANCH  17  18
ENDBRANCH   1  17
TORSDOF 3
ENDMDL
MODEL      144
REMARK 921   NORMALIZED FREE ENERGY PREDICTED BY IDOCK:   13.59 KCAL/MOL
REMARK 922        TOTAL FREE ENERGY PREDICTED BY IDOCK:   15.73 KCAL/MOL
REMARK 923 INTER-LIGAND FREE ENERGY PREDICTED BY IDOCK:   15.95 KCAL/MOL
REMARK 924 INTRA-LIGAND FREE ENERGY PREDICTED BY IDOCK:   -0.21 KCAL/MOL
REMARK 927      BINDING AFFINITY PREDICTED BY RF-SCORE:    0.00 PKD
ROOT
HETATM    1  C   UNL     1     -10.139  14.718  69.465  1.00  0.00    -0.065 C  
HETATM    2  C   UNL     1      -8.741  13.181  68.099  1.00  0.00    -0.193 A  
HETATM    3  C   UNL     1      -9.833  13.460  69.070  1.00  0.00     0.209 C  
HETATM    4  C   UNL     1     -10.526  12.344  69.752  1.00  0.00     0.932 A  
HETATM    5  C   UNL     1      -8.789  13.815  66.841  1.00  0.00    -0.203 A  
HETATM    6  C   UNL     1     -11.899  12.115  69.602  1.00  0.00    -0.391 A  
HETATM    7  C   UNL     1      -7.796  13.612  65.884  1.00  0.00     3.170 A  
HETATM    8  C   UNL     1     -12.489  10.996  70.191  1.00  0.00    -0.344 A  
HETATM    9  C   UNL     1      -6.752  12.736  66.153  1.00  0.00     2.823 A  
HETATM   10  C   UNL     1      -6.723  12.050  67.367  1.00  0.00    -0.131 A  
HETATM   11  C   UNL     1     -11.713  10.103  70.929  1.00  0.00    -0.468 A  
HETATM   12  C   UNL     1     -10.344  10.329  71.086  1.00  0.00     0.985 A  
HETATM   13  C   UNL     1      -9.743  11.452  70.501  1.00  0.00     3.512 A  
HETATM   14  C   UNL     1      -8.267  11.727  70.636  1.00  0.00     5.529 C  
HETATM   15  O   UNL     1      -7.537  11.448  69.441  1.00  0.00    -0.033 OA 
HETATM   16  C   UNL     1      -7.708  12.256  68.344  1.00  0.00    -0.141 A  
ENDROOT
BRANCH   1  17
HETATM   17  C   UNL     1      -9.479  16.000  69.009  1.00  0.00    -0.243 C  
BRANCH  17  18
HETATM   18  C   UNL     1     -10.286  16.827  67.988  1.00  0.00    -0.317 C  
BRANCH  18  19
HETATM   19  N   UNL     1     -10.832  18.108  68.472  1.00  0.00     0.036 NA 
HETATM   20  C   UNL     1      -9.779  19.067  68.810  1.00  0.00    -0.416 C  
HETATM   21  C   UNL     1     -11.714  18.683  67.451  1.00  0.00     1.694 C  
ENDBRANCH  18  19
ENDBRANCH  17  18
ENDBRANCH   1  17
TORSDOF 3
ENDMDL
