MODEL        1
REMARK 921   NORMALIZED FREE ENERGY PREDICTED BY IDOCK:   -8.00 KCAL/MOL
REMARK 922        TOTAL FREE ENERGY PREDICTED BY IDOCK:  -11.62 KCAL/MOL
REMARK 923 INTER-LIGAND FREE ENERGY PREDICTED BY IDOCK:  -10.34 KCAL/MOL
REMARK 924 INTRA-LIGAND FREE ENERGY PREDICTED BY IDOCK:   -1.28 KCAL/MOL
REMARK 927      BINDING AFFINITY PREDICTED BY RF-SCORE:    0.00 PKD
ROOT
HETATM    1  C   UNL     1      -9.138  17.876  68.700  1.00  0.00    -0.257 C  
HETATM    2  O   UNL     1      -9.832  16.656  68.459  1.00  0.00    -0.232 OA 
ENDROOT
BRANCH   2   3
HETATM    3  C   UNL     1     -10.182  16.381  67.163  1.00  0.00    -0.282 A  
HETATM    4  C   UNL     1     -10.602  17.384  66.277  1.00  0.00    -0.194 A  
HETATM    5  C   UNL     1     -10.989  17.070  64.978  1.00  0.00     0.010 A  
HETATM    6  C   UNL     1     -10.971  15.746  64.557  1.00  0.00    -0.209 A  
HETATM    7  C   UNL     1     -10.561  14.729  65.435  1.00  0.00    -0.395 A  
HETATM    8  C   UNL     1     -10.164  15.034  66.736  1.00  0.00    -0.260 A  
HETATM    9  C   UNL     1      -9.713  13.925  67.614  1.00  0.00    -0.226 C  
HETATM   10  O   UNL     1      -9.377  14.108  68.782  1.00  0.00    -0.180 OA 
HETATM   11  C   UNL     1      -9.655  12.535  67.103  1.00  0.00    -0.208 A  
HETATM   12  C   UNL     1      -9.168  11.496  67.927  1.00  0.00    -0.168 A  
HETATM   13  O   UNL     1      -8.700  11.745  69.197  1.00  0.00    -0.358 OA 
HETATM   14  C   UNL     1      -9.172  10.149  67.511  1.00  0.00    -0.150 A  
HETATM   15  H   UNL     1      -8.373  11.047  69.752  1.00  0.00     0.000 HD 
HETATM   16  C   UNL     1      -9.699   9.838  66.242  1.00  0.00    -0.295 A  
HETATM   17  C   UNL     1     -10.123  10.887  65.397  1.00  0.00    -0.277 A  
HETATM   18  C   UNL     1      -9.813   8.396  65.780  1.00  0.00     0.211 C  
HETATM   19  C   UNL     1      -9.689   7.333  66.886  1.00  0.00    -0.194 C  
HETATM   20  C   UNL     1     -10.109  12.234  65.821  1.00  0.00    -0.274 A  
HETATM   21  O   UNL     1     -10.597  10.604  64.145  1.00  0.00    -0.434 OA 
HETATM   22  C   UNL     1      -8.802   9.056  68.507  1.00  0.00    -0.134 C  
HETATM   23  C   UNL     1     -10.563  13.338  64.936  1.00  0.00    -0.366 C  
HETATM   24  C   UNL     1      -8.546   7.708  67.832  1.00  0.00    -0.122 C  
HETATM   25  O   UNL     1     -10.932   7.210  67.580  1.00  0.00    -0.465 OA 
HETATM   26  H   UNL     1     -10.882  11.309  63.577  1.00  0.00     0.000 HD 
HETATM   27  O   UNL     1     -10.930  13.151  63.782  1.00  0.00    -0.355 OA 
HETATM   28  H   UNL     1     -10.856   6.554  68.263  1.00  0.00     0.000 HD 
BRANCH  19  29
HETATM   29  C   UNL     1      -9.444   5.952  66.246  1.00  0.00    -0.139 C  
HETATM   30  O   UNL     1      -8.450   5.708  65.553  1.00  0.00    -0.135 OA 
BRANCH  29  31
HETATM   31  C   UNL     1     -10.500   4.872  66.469  1.00  0.00    -0.252 C  
HETATM   32  O   UNL     1     -11.524   4.954  65.486  1.00  0.00    -0.914 OA 
HETATM   33  H   UNL     1     -12.181   4.282  65.624  1.00  0.00     0.000 HD 
ENDBRANCH  29  31
ENDBRANCH  19  29
BRANCH  22  34
HETATM   34  O   UNL     1      -9.962   9.025  69.318  1.00  0.00    -0.178 OA 
BRANCH  34  35
HETATM   35  C   UNL     1      -9.906   9.016  70.729  1.00  0.00    -0.243 C  
HETATM   36  C   UNL     1     -11.036   9.686  71.516  1.00  0.00    -0.266 C  
HETATM   37  C   UNL     1     -12.376   8.945  71.403  1.00  0.00    -0.313 C  
HETATM   38  C   UNL     1     -12.209   7.415  71.552  1.00  0.00    -0.337 C  
HETATM   39  N   UNL     1     -13.331   9.461  72.410  1.00  0.00    -0.557 NA 
HETATM   40  C   UNL     1     -11.031   6.938  70.693  1.00  0.00    -0.264 C  
HETATM   41  H2  UNL     1     -13.448  10.472  72.342  1.00  0.00     0.000 HD 
HETATM   42  O   UNL     1     -11.995   7.088  72.933  1.00  0.00    -0.501 OA 
HETATM   43  H1  UNL     1     -14.221   8.969  72.334  1.00  0.00     0.000 HD 
HETATM   44  C   UNL     1     -10.770   5.446  70.791  1.00  0.00    -0.252 C  
HETATM   45  H   UNL     1     -11.893   6.148  73.025  1.00  0.00     0.000 HD 
HETATM   46  O   UNL     1      -9.830   7.632  71.081  1.00  0.00    -0.173 OA 
ENDBRANCH  34  35
ENDBRANCH  22  34
ENDBRANCH   2   3
TORSDOF 5
ENDMDL
MODEL        2
REMARK 921   NORMALIZED FREE ENERGY PREDICTED BY IDOCK:   -7.98 KCAL/MOL
REMARK 922        TOTAL FREE ENERGY PREDICTED BY IDOCK:  -11.60 KCAL/MOL
REMARK 923 INTER-LIGAND FREE ENERGY PREDICTED BY IDOCK:  -10.79 KCAL/MOL
REMARK 924 INTRA-LIGAND FREE ENERGY PREDICTED BY IDOCK:   -0.80 KCAL/MOL
REMARK 927      BINDING AFFINITY PREDICTED BY RF-SCORE:    0.00 PKD
ROOT
HETATM    1  C   UNL     1      -7.329   4.898  66.586  1.00  0.00    -0.082 C  
HETATM    2  O   UNL     1      -7.771   6.041  67.309  1.00  0.00    -0.095 OA 
ENDROOT
BRANCH   2   3
HETATM    3  C   UNL     1      -8.665   5.832  68.325  1.00  0.00    -0.111 A  
HETATM    4  C   UNL     1      -8.954   4.547  68.809  1.00  0.00    -0.149 A  
HETATM    5  C   UNL     1      -9.896   4.361  69.816  1.00  0.00    -0.284 A  
HETATM    6  C   UNL     1     -10.568   5.458  70.340  1.00  0.00    -0.322 A  
HETATM    7  C   UNL     1     -10.298   6.750  69.860  1.00  0.00    -0.229 A  
HETATM    8  C   UNL     1      -9.350   6.949  68.856  1.00  0.00    -0.134 A  
HETATM    9  C   UNL     1      -9.081   8.337  68.405  1.00  0.00    -0.136 C  
HETATM   10  O   UNL     1      -8.284   8.591  67.505  1.00  0.00    -0.115 OA 
HETATM   11  C   UNL     1      -9.780   9.483  69.034  1.00  0.00    -0.170 A  
HETATM   12  C   UNL     1      -9.474  10.804  68.638  1.00  0.00    -0.188 A  
HETATM   13  O   UNL     1      -8.502  11.067  67.700  1.00  0.00    -0.119 OA 
HETATM   14  C   UNL     1     -10.172  11.917  69.150  1.00  0.00     0.089 A  
HETATM   15  H   UNL     1      -8.296  11.955  67.434  1.00  0.00     0.000 HD 
HETATM   16  C   UNL     1     -11.219  11.692  70.066  1.00  0.00    -0.053 A  
HETATM   17  C   UNL     1     -11.476  10.375  70.507  1.00  0.00    -0.345 A  
HETATM   18  C   UNL     1     -12.064  12.846  70.579  1.00  0.00    -0.364 C  
HETATM   19  C   UNL     1     -11.963  14.152  69.772  1.00  0.00    -0.339 C  
HETATM   20  C   UNL     1     -10.767   9.268  69.993  1.00  0.00    -0.259 A  
HETATM   21  O   UNL     1     -12.461  10.147  71.430  1.00  0.00    -0.357 OA 
HETATM   22  C   UNL     1      -9.920  13.298  68.555  1.00  0.00    -0.188 C  
HETATM   23  C   UNL     1     -11.043   7.881  70.450  1.00  0.00    -0.245 C  
HETATM   24  C   UNL     1     -10.500  14.422  69.414  1.00  0.00    -0.097 C  
HETATM   25  O   UNL     1     -12.786  14.065  68.607  1.00  0.00    -0.255 OA 
HETATM   26  H   UNL     1     -12.633   9.262  71.727  1.00  0.00     0.000 HD 
HETATM   27  O   UNL     1     -11.861   7.625  71.324  1.00  0.00    -0.280 OA 
HETATM   28  H   UNL     1     -12.724  14.872  68.109  1.00  0.00     0.000 HD 
BRANCH  19  29
HETATM   29  C   UNL     1     -12.552  15.313  70.598  1.00  0.00    -0.417 C  
HETATM   30  O   UNL     1     -13.768  15.475  70.744  1.00  0.00    -0.475 OA 
BRANCH  29  31
HETATM   31  C   UNL     1     -11.571  16.302  71.224  1.00  0.00    -0.346 C  
HETATM   32  O   UNL     1     -11.768  16.392  72.629  1.00  0.00    -0.501 OA 
HETATM   33  H   UNL     1     -11.158  17.007  73.018  1.00  0.00     0.000 HD 
ENDBRANCH  29  31
ENDBRANCH  19  29
BRANCH  22  34
HETATM   34  O   UNL     1     -10.593  13.185  67.315  1.00  0.00    -0.244 OA 
BRANCH  34  35
HETATM   35  C   UNL     1      -9.994  13.546  66.087  1.00  0.00    -0.304 C  
HETATM   36  C   UNL     1     -10.760  13.283  64.787  1.00  0.00    -0.393 C  
HETATM   37  C   UNL     1     -12.004  14.170  64.628  1.00  0.00    -0.445 C  
HETATM   38  C   UNL     1     -11.721  15.642  65.007  1.00  0.00     0.028 C  
HETATM   39  N   UNL     1     -12.517  14.083  63.241  1.00  0.00    -1.112 NA 
HETATM   40  C   UNL     1     -10.947  15.694  66.331  1.00  0.00    -0.197 C  
HETATM   41  H2  UNL     1     -12.697  13.120  62.961  1.00  0.00     0.000 HD 
HETATM   42  O   UNL     1     -10.975  16.274  63.958  1.00  0.00    -1.106 OA 
HETATM   43  H1  UNL     1     -13.343  14.672  63.136  1.00  0.00     0.000 HD 
HETATM   44  C   UNL     1     -10.600  17.102  66.779  1.00  0.00    -0.192 C  
HETATM   45  H   UNL     1     -10.801  17.178  64.191  1.00  0.00     0.000 HD 
HETATM   46  O   UNL     1      -9.723  14.944  66.211  1.00  0.00    -0.262 OA 
ENDBRANCH  34  35
ENDBRANCH  22  34
ENDBRANCH   2   3
TORSDOF 5
ENDMDL
MODEL        3
REMARK 921   NORMALIZED FREE ENERGY PREDICTED BY IDOCK:   -7.84 KCAL/MOL
REMARK 922        TOTAL FREE ENERGY PREDICTED BY IDOCK:  -11.41 KCAL/MOL
REMARK 923 INTER-LIGAND FREE ENERGY PREDICTED BY IDOCK:  -10.34 KCAL/MOL
REMARK 924 INTRA-LIGAND FREE ENERGY PREDICTED BY IDOCK:   -1.07 KCAL/MOL
REMARK 927      BINDING AFFINITY PREDICTED BY RF-SCORE:    0.00 PKD
ROOT
HETATM    1  C   UNL     1     -10.088   7.280  73.405  1.00  0.00    -0.320 C  
HETATM    2  O   UNL     1      -9.114   7.766  72.487  1.00  0.00    -0.142 OA 
ENDROOT
BRANCH   2   3
HETATM    3  C   UNL     1      -9.015   7.123  71.282  1.00  0.00    -0.147 A  
HETATM    4  C   UNL     1      -8.513   5.817  71.174  1.00  0.00    -0.128 A  
HETATM    5  C   UNL     1      -8.386   5.203  69.932  1.00  0.00    -0.093 A  
HETATM    6  C   UNL     1      -8.750   5.895  68.784  1.00  0.00    -0.109 A  
HETATM    7  C   UNL     1      -9.245   7.206  68.873  1.00  0.00    -0.137 A  
HETATM    8  C   UNL     1      -9.383   7.828  70.113  1.00  0.00    -0.153 A  
HETATM    9  C   UNL     1      -9.938   9.204  70.155  1.00  0.00    -0.200 C  
HETATM   10  O   UNL     1     -10.062   9.830  71.205  1.00  0.00    -0.171 OA 
HETATM   11  C   UNL     1     -10.368   9.881  68.908  1.00  0.00    -0.221 A  
HETATM   12  C   UNL     1     -10.950  11.167  68.964  1.00  0.00    -0.235 A  
HETATM   13  O   UNL     1     -11.172  11.804  70.164  1.00  0.00    -0.489 OA 
HETATM   14  C   UNL     1     -11.296  11.881  67.799  1.00  0.00    -0.361 A  
HETATM   15  H   UNL     1     -11.563  12.668  70.202  1.00  0.00     0.000 HD 
HETATM   16  C   UNL     1     -11.029  11.294  66.545  1.00  0.00    -0.303 A  
HETATM   17  C   UNL     1     -10.508   9.982  66.497  1.00  0.00    -0.153 A  
HETATM   18  C   UNL     1     -11.297  12.055  65.259  1.00  0.00    -0.366 C  
HETATM   19  C   UNL     1     -11.494  13.573  65.415  1.00  0.00    -0.302 C  
HETATM   20  C   UNL     1     -10.171   9.274  67.670  1.00  0.00    -0.285 A  
HETATM   21  O   UNL     1     -10.285   9.383  65.287  1.00  0.00    -0.272 OA 
HETATM   22  C   UNL     1     -11.754  13.330  67.916  1.00  0.00    -0.357 C  
HETATM   23  C   UNL     1      -9.614   7.896  67.620  1.00  0.00    -0.150 C  
HETATM   24  C   UNL     1     -12.386  13.853  66.626  1.00  0.00    -0.411 C  
HETATM   25  O   UNL     1     -10.224  14.217  65.533  1.00  0.00    -0.320 OA 
HETATM   26  H   UNL     1      -9.935   8.501  65.255  1.00  0.00     0.000 HD 
HETATM   27  O   UNL     1      -9.460   7.285  66.571  1.00  0.00    -0.175 OA 
HETATM   28  H   UNL     1     -10.346  15.154  65.629  1.00  0.00     0.000 HD 
BRANCH  19  29
HETATM   29  C   UNL     1     -12.120  14.145  64.127  1.00  0.00    -0.406 C  
HETATM   30  O   UNL     1     -12.271  13.468  63.104  1.00  0.00    -0.608 OA 
BRANCH  29  31
HETATM   31  C   UNL     1     -12.532  15.615  64.133  1.00  0.00     0.279 C  
HETATM   32  O   UNL     1     -11.423  16.454  63.837  1.00  0.00    -1.569 OA 
HETATM   33  H   UNL     1     -11.679  17.369  63.841  1.00  0.00     0.000 HD 
ENDBRANCH  29  31
ENDBRANCH  19  29
BRANCH  22  34
HETATM   34  O   UNL     1     -10.527  13.979  68.198  1.00  0.00    -0.232 OA 
BRANCH  34  35
HETATM   35  C   UNL     1     -10.400  14.965  69.201  1.00  0.00    -0.245 C  
HETATM   36  C   UNL     1      -9.019  15.219  69.815  1.00  0.00    -0.018 C  
HETATM   37  C   UNL     1      -8.029  15.860  68.831  1.00  0.00    -0.204 C  
HETATM   38  C   UNL     1      -8.673  17.006  68.019  1.00  0.00    -0.218 C  
HETATM   39  N   UNL     1      -6.834  16.349  69.558  1.00  0.00    -0.222 NA 
HETATM   40  C   UNL     1     -10.044  16.559  67.494  1.00  0.00    -0.267 C  
HETATM   41  H2  UNL     1      -6.398  15.614  70.114  1.00  0.00     0.000 HD 
HETATM   42  O   UNL     1      -8.803  18.169  68.849  1.00  0.00    -0.238 OA 
HETATM   43  H1  UNL     1      -6.176  16.774  68.904  1.00  0.00     0.000 HD 
HETATM   44  C   UNL     1     -10.771  17.629  66.699  1.00  0.00    -0.117 C  
HETATM   45  H   UNL     1      -9.200  18.874  68.350  1.00  0.00     0.000 HD 
HETATM   46  O   UNL     1     -10.885  16.166  68.595  1.00  0.00    -0.275 OA 
ENDBRANCH  34  35
ENDBRANCH  22  34
ENDBRANCH   2   3
TORSDOF 5
ENDMDL
MODEL        4
REMARK 921   NORMALIZED FREE ENERGY PREDICTED BY IDOCK:   -7.76 KCAL/MOL
REMARK 922        TOTAL FREE ENERGY PREDICTED BY IDOCK:  -11.31 KCAL/MOL
REMARK 923 INTER-LIGAND FREE ENERGY PREDICTED BY IDOCK:  -10.27 KCAL/MOL
REMARK 924 INTRA-LIGAND FREE ENERGY PREDICTED BY IDOCK:   -1.03 KCAL/MOL
REMARK 927      BINDING AFFINITY PREDICTED BY RF-SCORE:    0.00 PKD
ROOT
HETATM    1  C   UNL     1      -7.762   6.065  65.960  1.00  0.00    -0.095 C  
HETATM    2  O   UNL     1      -8.797   6.883  66.495  1.00  0.00    -0.129 OA 
ENDROOT
BRANCH   2   3
HETATM    3  C   UNL     1      -9.453   6.417  67.604  1.00  0.00    -0.119 A  
HETATM    4  C   UNL     1      -9.547   5.047  67.891  1.00  0.00    -0.176 A  
HETATM    5  C   UNL     1     -10.253   4.600  69.004  1.00  0.00    -0.032 A  
HETATM    6  C   UNL     1     -10.883   5.520  69.833  1.00  0.00    -0.298 A  
HETATM    7  C   UNL     1     -10.806   6.895  69.554  1.00  0.00    -0.287 A  
HETATM    8  C   UNL     1     -10.095   7.353  68.445  1.00  0.00    -0.196 A  
HETATM    9  C   UNL     1     -10.021   8.818  68.211  1.00  0.00    -0.176 C  
HETATM   10  O   UNL     1      -9.440   9.298  67.242  1.00  0.00    -0.138 OA 
HETATM   11  C   UNL     1     -10.660   9.765  69.156  1.00  0.00    -0.237 A  
HETATM   12  C   UNL     1     -10.534  11.158  68.957  1.00  0.00    -0.206 A  
HETATM   13  O   UNL     1      -9.790  11.672  67.919  1.00  0.00    -0.175 OA 
HETATM   14  C   UNL     1     -11.193  12.092  69.782  1.00  0.00    -0.072 A  
HETATM   15  H   UNL     1      -9.705  12.608  67.785  1.00  0.00     0.000 HD 
HETATM   16  C   UNL     1     -12.017  11.611  70.819  1.00  0.00    -0.274 A  
HETATM   17  C   UNL     1     -12.086  10.220  71.054  1.00  0.00    -0.386 A  
HETATM   18  C   UNL     1     -12.822  12.570  71.679  1.00  0.00    -0.368 C  
HETATM   19  C   UNL     1     -12.978  13.994  71.118  1.00  0.00    -0.332 C  
HETATM   20  C   UNL     1     -11.417   9.293  70.225  1.00  0.00    -0.198 A  
HETATM   21  O   UNL     1     -12.848   9.742  72.085  1.00  0.00    -0.391 OA 
HETATM   22  C   UNL     1     -11.164  13.571  69.411  1.00  0.00    -0.187 C  
HETATM   23  C   UNL     1     -11.497   7.829  70.466  1.00  0.00    -0.205 C  
HETATM   24  C   UNL     1     -11.639  14.472  70.551  1.00  0.00    -0.295 C  
HETATM   25  O   UNL     1     -14.008  14.014  70.129  1.00  0.00     0.670 OA 
HETATM   26  H   UNL     1     -12.894   8.806  72.243  1.00  0.00     0.000 HD 
HETATM   27  O   UNL     1     -12.104   7.348  71.415  1.00  0.00    -0.297 OA 
HETATM   28  H   UNL     1     -14.105  14.894  69.782  1.00  0.00     0.000 HD 
BRANCH  19  29
HETATM   29  C   UNL     1     -13.470  14.935  72.235  1.00  0.00    -0.409 C  
HETATM   30  O   UNL     1     -14.374  15.760  72.060  1.00  0.00    -0.419 OA 
BRANCH  29  31
HETATM   31  C   UNL     1     -12.775  14.845  73.592  1.00  0.00    -0.464 C  
HETATM   32  O   UNL     1     -12.944  16.049  74.330  1.00  0.00    -0.919 OA 
HETATM   33  H   UNL     1     -12.513  15.992  75.174  1.00  0.00     0.000 HD 
ENDBRANCH  29  31
ENDBRANCH  19  29
BRANCH  22  34
HETATM   34  O   UNL     1     -12.061  13.593  68.317  1.00  0.00    -0.357 OA 
BRANCH  34  35
HETATM   35  C   UNL     1     -12.265  14.742  67.521  1.00  0.00     0.048 C  
HETATM   36  C   UNL     1     -11.079  15.675  67.256  1.00  0.00    -0.238 C  
HETATM   37  C   UNL     1     -10.003  15.045  66.359  1.00  0.00    -0.279 C  
HETATM   38  C   UNL     1     -10.615  14.303  65.149  1.00  0.00    -0.406 C  
HETATM   39  N   UNL     1      -9.051  16.083  65.900  1.00  0.00    -0.365 NA 
HETATM   40  C   UNL     1     -11.785  13.427  65.618  1.00  0.00    -0.346 C  
HETATM   41  H2  UNL     1      -8.643  16.597  66.680  1.00  0.00     0.000 HD 
HETATM   42  O   UNL     1     -11.057  15.257  64.172  1.00  0.00    -0.634 OA 
HETATM   43  H1  UNL     1      -8.336  15.664  65.305  1.00  0.00     0.000 HD 
HETATM   44  C   UNL     1     -12.470  12.672  64.494  1.00  0.00    -0.525 C  
HETATM   45  H   UNL     1     -11.433  14.802  63.429  1.00  0.00     0.000 HD 
HETATM   46  O   UNL     1     -12.770  14.242  66.281  1.00  0.00    -0.360 OA 
ENDBRANCH  34  35
ENDBRANCH  22  34
ENDBRANCH   2   3
TORSDOF 5
ENDMDL
MODEL        5
REMARK 921   NORMALIZED FREE ENERGY PREDICTED BY IDOCK:   -7.59 KCAL/MOL
REMARK 922        TOTAL FREE ENERGY PREDICTED BY IDOCK:  -11.09 KCAL/MOL
REMARK 923 INTER-LIGAND FREE ENERGY PREDICTED BY IDOCK:   -9.68 KCAL/MOL
REMARK 924 INTRA-LIGAND FREE ENERGY PREDICTED BY IDOCK:   -1.41 KCAL/MOL
REMARK 927      BINDING AFFINITY PREDICTED BY RF-SCORE:    0.00 PKD
ROOT
HETATM    1  C   UNL     1     -10.275   6.506  74.232  1.00  0.00    -0.350 C  
HETATM    2  O   UNL     1      -9.467   7.633  73.911  1.00  0.00    -0.275 OA 
ENDROOT
BRANCH   2   3
HETATM    3  C   UNL     1      -8.433   7.433  73.035  1.00  0.00    -0.120 A  
HETATM    4  C   UNL     1      -7.339   6.613  73.350  1.00  0.00    -0.080 A  
HETATM    5  C   UNL     1      -6.284   6.459  72.456  1.00  0.00    -0.050 A  
HETATM    6  C   UNL     1      -6.307   7.135  71.243  1.00  0.00    -0.037 A  
HETATM    7  C   UNL     1      -7.390   7.968  70.916  1.00  0.00    -0.058 A  
HETATM    8  C   UNL     1      -8.457   8.122  71.801  1.00  0.00    -0.186 A  
HETATM    9  C   UNL     1      -9.590   8.991  71.396  1.00  0.00    -0.285 C  
HETATM   10  O   UNL     1     -10.551   9.202  72.131  1.00  0.00    -0.276 OA 
HETATM   11  C   UNL     1      -9.599   9.646  70.065  1.00  0.00    -0.281 A  
HETATM   12  C   UNL     1     -10.709  10.422  69.665  1.00  0.00    -0.265 A  
HETATM   13  O   UNL     1     -11.819  10.558  70.468  1.00  0.00    -0.291 OA 
HETATM   14  C   UNL     1     -10.724  11.129  68.445  1.00  0.00    -0.234 A  
HETATM   15  H   UNL     1     -12.565  11.080  70.199  1.00  0.00     0.000 HD 
HETATM   16  C   UNL     1      -9.584  11.070  67.618  1.00  0.00    -0.181 A  
HETATM   17  C   UNL     1      -8.505  10.240  67.993  1.00  0.00    -0.118 A  
HETATM   18  C   UNL     1      -9.510  11.884  66.339  1.00  0.00    -0.238 C  
HETATM   19  C   UNL     1     -10.540  13.020  66.214  1.00  0.00    -0.271 C  
HETATM   20  C   UNL     1      -8.503   9.531  69.214  1.00  0.00    -0.139 A  
HETATM   21  O   UNL     1      -7.410  10.139  67.179  1.00  0.00    -0.089 OA 
HETATM   22  C   UNL     1     -11.871  12.089  68.150  1.00  0.00    -0.286 C  
HETATM   23  C   UNL     1      -7.363   8.664  69.614  1.00  0.00    -0.056 C  
HETATM   24  C   UNL     1     -11.910  12.525  66.685  1.00  0.00    -0.422 C  
HETATM   25  O   UNL     1     -10.102  14.155  66.963  1.00  0.00    -0.255 OA 
HETATM   26  H   UNL     1      -6.684   9.580  67.431  1.00  0.00     0.000 HD 
HETATM   27  O   UNL     1      -6.390   8.480  68.894  1.00  0.00    -0.043 OA 
HETATM   28  H   UNL     1     -10.738  14.857  66.886  1.00  0.00     0.000 HD 
BRANCH  19  29
HETATM   29  C   UNL     1     -10.602  13.500  64.750  1.00  0.00    -0.417 C  
HETATM   30  O   UNL     1      -9.966  12.952  63.844  1.00  0.00    -0.324 OA 
BRANCH  29  31
HETATM   31  C   UNL     1     -11.466  14.721  64.442  1.00  0.00    -0.253 C  
HETATM   32  O   UNL     1     -12.419  14.425  63.430  1.00  0.00    -1.109 OA 
HETATM   33  H   UNL     1     -12.957  15.184  63.238  1.00  0.00     0.000 HD 
ENDBRANCH  29  31
ENDBRANCH  19  29
BRANCH  22  34
HETATM   34  O   UNL     1     -11.549  13.168  69.009  1.00  0.00    -0.271 OA 
BRANCH  34  35
HETATM   35  C   UNL     1     -12.492  14.148  69.387  1.00  0.00    -0.075 C  
HETATM   36  C   UNL     1     -13.090  14.092  70.796  1.00  0.00    -0.289 C  
HETATM   37  C   UNL     1     -12.070  14.414  71.899  1.00  0.00    -0.161 C  
HETATM   38  C   UNL     1     -11.192  15.635  71.542  1.00  0.00    -0.301 C  
HETATM   39  N   UNL     1     -12.767  14.637  73.187  1.00  0.00    -0.458 NA 
HETATM   40  C   UNL     1     -10.694  15.507  70.096  1.00  0.00    -0.329 C  
HETATM   41  H2  UNL     1     -13.365  13.851  73.439  1.00  0.00     0.000 HD 
HETATM   42  O   UNL     1     -11.952  16.840  71.712  1.00  0.00    -0.545 OA 
HETATM   43  H1  UNL     1     -12.089  14.850  73.919  1.00  0.00     0.000 HD 
HETATM   44  C   UNL     1      -9.838  16.675  69.641  1.00  0.00     0.066 C  
HETATM   45  H   UNL     1     -11.413  17.591  71.492  1.00  0.00     0.000 HD 
HETATM   46  O   UNL     1     -11.816  15.395  69.201  1.00  0.00    -0.330 OA 
ENDBRANCH  34  35
ENDBRANCH  22  34
ENDBRANCH   2   3
TORSDOF 5
ENDMDL
MODEL        6
REMARK 921   NORMALIZED FREE ENERGY PREDICTED BY IDOCK:   -7.58 KCAL/MOL
REMARK 922        TOTAL FREE ENERGY PREDICTED BY IDOCK:  -11.08 KCAL/MOL
REMARK 923 INTER-LIGAND FREE ENERGY PREDICTED BY IDOCK:  -10.65 KCAL/MOL
REMARK 924 INTRA-LIGAND FREE ENERGY PREDICTED BY IDOCK:   -0.43 KCAL/MOL
REMARK 927      BINDING AFFINITY PREDICTED BY RF-SCORE:    0.00 PKD
ROOT
HETATM    1  C   UNL     1      -8.774   7.870  74.108  1.00  0.00    -0.204 C  
HETATM    2  O   UNL     1      -9.976   7.439  73.479  1.00  0.00    -0.276 OA 
ENDROOT
BRANCH   2   3
HETATM    3  C   UNL     1      -9.857   6.531  72.460  1.00  0.00    -0.165 A  
HETATM    4  C   UNL     1      -9.587   5.175  72.700  1.00  0.00    -0.170 A  
HETATM    5  C   UNL     1      -9.433   4.282  71.644  1.00  0.00    -0.211 A  
HETATM    6  C   UNL     1      -9.536   4.740  70.337  1.00  0.00    -0.241 A  
HETATM    7  C   UNL     1      -9.797   6.096  70.079  1.00  0.00    -0.207 A  
HETATM    8  C   UNL     1      -9.960   6.998  71.130  1.00  0.00    -0.191 A  
HETATM    9  C   UNL     1     -10.263   8.414  70.804  1.00  0.00    -0.194 C  
HETATM   10  O   UNL     1     -10.390   9.274  71.672  1.00  0.00    -0.340 OA 
HETATM   11  C   UNL     1     -10.421   8.846  69.394  1.00  0.00    -0.228 A  
HETATM   12  C   UNL     1     -10.767  10.182  69.097  1.00  0.00    -0.226 A  
HETATM   13  O   UNL     1     -11.006  11.102  70.093  1.00  0.00    -0.470 OA 
HETATM   14  C   UNL     1     -10.847  10.655  67.771  1.00  0.00    -0.338 A  
HETATM   15  H   UNL     1     -11.239  12.001  69.893  1.00  0.00     0.000 HD 
HETATM   16  C   UNL     1     -10.550   9.765  66.720  1.00  0.00    -0.208 A  
HETATM   17  C   UNL     1     -10.269   8.414  67.021  1.00  0.00    -0.307 A  
HETATM   18  C   UNL     1     -10.531  10.244  65.279  1.00  0.00    -0.099 C  
HETATM   19  C   UNL     1     -10.471  11.770  65.087  1.00  0.00    -0.283 C  
HETATM   20  C   UNL     1     -10.198   7.950  68.352  1.00  0.00    -0.232 A  
HETATM   21  O   UNL     1     -10.021   7.529  66.007  1.00  0.00    -0.429 OA 
HETATM   22  C   UNL     1     -11.049  12.145  67.518  1.00  0.00    -0.275 C  
HETATM   23  C   UNL     1      -9.893   6.530  68.670  1.00  0.00    -0.139 C  
HETATM   24  C   UNL     1     -11.430  12.448  66.069  1.00  0.00    -0.431 C  
HETATM   25  O   UNL     1      -9.128  12.226  65.258  1.00  0.00    -0.400 OA 
HETATM   26  H   UNL     1      -9.833   6.620  66.210  1.00  0.00     0.000 HD 
HETATM   27  O   UNL     1      -9.734   5.679  67.804  1.00  0.00    -0.116 OA 
HETATM   28  H   UNL     1      -9.091  13.168  65.140  1.00  0.00     0.000 HD 
BRANCH  19  29
HETATM   29  C   UNL     1     -10.836  12.119  63.631  1.00  0.00    -0.464 C  
HETATM   30  O   UNL     1     -10.008  12.092  62.713  1.00  0.00    -0.137 OA 
BRANCH  29  31
HETATM   31  C   UNL     1     -12.275  12.541  63.345  1.00  0.00    -0.517 C  
HETATM   32  O   UNL     1     -12.344  13.925  63.024  1.00  0.00    -1.101 OA 
HETATM   33  H   UNL     1     -13.239  14.188  62.846  1.00  0.00     0.000 HD 
ENDBRANCH  29  31
ENDBRANCH  19  29
BRANCH  22  34
HETATM   34  O   UNL     1      -9.766  12.650  67.840  1.00  0.00    -0.203 OA 
BRANCH  34  35
HETATM   35  C   UNL     1      -9.579  13.828  68.596  1.00  0.00    -0.121 C  
HETATM   36  C   UNL     1      -8.152  14.274  68.926  1.00  0.00    -0.063 C  
HETATM   37  C   UNL     1      -7.365  14.745  67.695  1.00  0.00    -0.186 C  
HETATM   38  C   UNL     1      -8.208  15.663  66.781  1.00  0.00    -0.265 C  
HETATM   39  N   UNL     1      -6.123  15.435  68.116  1.00  0.00    -0.118 NA 
HETATM   40  C   UNL     1      -9.598  15.049  66.573  1.00  0.00    -0.277 C  
HETATM   41  H2  UNL     1      -5.555  14.854  68.733  1.00  0.00     0.000 HD 
HETATM   42  O   UNL     1      -8.313  16.966  67.374  1.00  0.00    -0.181 OA 
HETATM   43  H1  UNL     1      -5.600  15.747  67.298  1.00  0.00     0.000 HD 
HETATM   44  C   UNL     1     -10.514  15.892  65.704  1.00  0.00    -0.411 C  
HETATM   45  H   UNL     1      -8.831  17.531  66.813  1.00  0.00     0.000 HD 
HETATM   46  O   UNL     1     -10.241  14.851  67.846  1.00  0.00    -0.226 OA 
ENDBRANCH  34  35
ENDBRANCH  22  34
ENDBRANCH   2   3
TORSDOF 5
ENDMDL
MODEL        7
REMARK 921   NORMALIZED FREE ENERGY PREDICTED BY IDOCK:   -7.56 KCAL/MOL
REMARK 922        TOTAL FREE ENERGY PREDICTED BY IDOCK:  -11.06 KCAL/MOL
REMARK 923 INTER-LIGAND FREE ENERGY PREDICTED BY IDOCK:  -11.73 KCAL/MOL
REMARK 924 INTRA-LIGAND FREE ENERGY PREDICTED BY IDOCK:    0.67 KCAL/MOL
REMARK 927      BINDING AFFINITY PREDICTED BY RF-SCORE:    0.00 PKD
ROOT
HETATM    1  C   UNL     1     -11.173   6.499  70.263  1.00  0.00    -0.374 C  
HETATM    2  O   UNL     1     -10.859   7.886  70.329  1.00  0.00    -0.238 OA 
ENDROOT
BRANCH   2   3
HETATM    3  C   UNL     1     -11.760   8.702  70.961  1.00  0.00    -0.278 A  
HETATM    4  C   UNL     1     -12.696   8.206  71.881  1.00  0.00    -0.361 A  
HETATM    5  C   UNL     1     -13.625   9.052  72.478  1.00  0.00    -0.492 A  
HETATM    6  C   UNL     1     -13.635  10.402  72.150  1.00  0.00    -0.202 A  
HETATM    7  C   UNL     1     -12.711  10.913  71.224  1.00  0.00    -0.542 A  
HETATM    8  C   UNL     1     -11.771  10.075  70.625  1.00  0.00    -0.421 A  
HETATM    9  C   UNL     1     -10.798  10.670  69.675  1.00  0.00    -0.268 C  
HETATM   10  O   UNL     1      -9.960   9.994  69.084  1.00  0.00    -0.182 OA 
HETATM   11  C   UNL     1     -10.809  12.128  69.400  1.00  0.00    -0.032 A  
HETATM   12  C   UNL     1      -9.842  12.694  68.539  1.00  0.00    -0.148 A  
HETATM   13  O   UNL     1      -8.849  11.928  67.971  1.00  0.00    -0.163 OA 
HETATM   14  C   UNL     1      -9.865  14.058  68.186  1.00  0.00    -0.235 A  
HETATM   15  H   UNL     1      -8.199  12.309  67.393  1.00  0.00     0.000 HD 
HETATM   16  C   UNL     1     -10.901  14.868  68.694  1.00  0.00    -0.253 A  
HETATM   17  C   UNL     1     -11.825  14.311  69.605  1.00  0.00    -0.318 A  
HETATM   18  C   UNL     1     -11.027  16.322  68.274  1.00  0.00    -0.348 C  
HETATM   19  C   UNL     1     -10.231  16.721  67.019  1.00  0.00    -0.292 C  
HETATM   20  C   UNL     1     -11.789  12.944  69.958  1.00  0.00    -0.356 A  
HETATM   21  O   UNL     1     -12.810  15.096  70.140  1.00  0.00    -0.586 OA 
HETATM   22  C   UNL     1      -8.907  14.572  67.118  1.00  0.00    -0.229 C  
HETATM   23  C   UNL     1     -12.767  12.356  70.909  1.00  0.00    -0.185 C  
HETATM   24  C   UNL     1      -8.834  16.098  67.078  1.00  0.00    -0.231 C  
HETATM   25  O   UNL     1     -10.941  16.319  65.847  1.00  0.00    -0.187 OA 
HETATM   26  H   UNL     1     -13.431  14.722  70.753  1.00  0.00     0.000 HD 
HETATM   27  O   UNL     1     -13.624  13.024  71.474  1.00  0.00    -0.200 OA 
HETATM   28  H   UNL     1     -10.449  16.566  65.072  1.00  0.00     0.000 HD 
BRANCH  19  29
HETATM   29  C   UNL     1     -10.145  18.258  66.933  1.00  0.00    -0.366 C  
HETATM   30  O   UNL     1     -10.542  18.893  65.950  1.00  0.00    -0.476 OA 
BRANCH  29  31
HETATM   31  C   UNL     1      -9.511  18.997  68.110  1.00  0.00    -0.335 C  
HETATM   32  O   UNL     1     -10.483  19.763  68.811  1.00  0.00    -0.558 OA 
HETATM   33  H   UNL     1     -10.090  20.222  69.543  1.00  0.00     0.000 HD 
ENDBRANCH  29  31
ENDBRANCH  19  29
BRANCH  22  34
HETATM   34  O   UNL     1      -9.501  14.045  65.945  1.00  0.00    -0.203 OA 
BRANCH  34  35
HETATM   35  C   UNL     1     -10.686  13.276  65.971  1.00  0.00    -0.277 C  
HETATM   36  C   UNL     1     -11.872  13.721  65.111  1.00  0.00    -0.365 C  
HETATM   37  C   UNL     1     -11.616  13.573  63.604  1.00  0.00    -0.151 C  
HETATM   38  C   UNL     1     -10.945  12.224  63.257  1.00  0.00    -0.311 C  
HETATM   39  N   UNL     1     -12.884  13.728  62.854  1.00  0.00    -0.270 NA 
HETATM   40  C   UNL     1      -9.788  11.958  64.228  1.00  0.00    -0.191 C  
HETATM   41  H2  UNL     1     -13.354  14.605  63.076  1.00  0.00     0.000 HD 
HETATM   42  O   UNL     1     -11.918  11.172  63.327  1.00  0.00    -0.631 OA 
HETATM   43  H1  UNL     1     -12.713  13.630  61.853  1.00  0.00     0.000 HD 
HETATM   44  C   UNL     1      -9.077  10.639  63.983  1.00  0.00    -0.246 C  
HETATM   45  H   UNL     1     -11.507  10.342  63.114  1.00  0.00     0.000 HD 
HETATM   46  O   UNL     1     -10.276  11.962  65.583  1.00  0.00    -0.229 OA 
ENDBRANCH  34  35
ENDBRANCH  22  34
ENDBRANCH   2   3
TORSDOF 5
ENDMDL
MODEL        8
REMARK 921   NORMALIZED FREE ENERGY PREDICTED BY IDOCK:   -7.56 KCAL/MOL
REMARK 922        TOTAL FREE ENERGY PREDICTED BY IDOCK:  -11.05 KCAL/MOL
REMARK 923 INTER-LIGAND FREE ENERGY PREDICTED BY IDOCK:  -10.07 KCAL/MOL
REMARK 924 INTRA-LIGAND FREE ENERGY PREDICTED BY IDOCK:   -0.98 KCAL/MOL
REMARK 927      BINDING AFFINITY PREDICTED BY RF-SCORE:    0.00 PKD
ROOT
HETATM    1  C   UNL     1      -6.862   4.838  64.540  1.00  0.00    -0.049 C  
HETATM    2  O   UNL     1      -7.541   5.844  65.284  1.00  0.00    -0.079 OA 
ENDROOT
BRANCH   2   3
HETATM    3  C   UNL     1      -8.373   5.425  66.289  1.00  0.00    -0.115 A  
HETATM    4  C   UNL     1      -8.623   4.066  66.529  1.00  0.00    -0.110 A  
HETATM    5  C   UNL     1      -9.503   3.670  67.532  1.00  0.00    -0.237 A  
HETATM    6  C   UNL     1     -10.150   4.633  68.297  1.00  0.00    -0.070 A  
HETATM    7  C   UNL     1      -9.918   5.998  68.063  1.00  0.00    -0.162 A  
HETATM    8  C   UNL     1      -9.033   6.405  67.065  1.00  0.00    -0.119 A  
HETATM    9  C   UNL     1      -8.801   7.859  66.878  1.00  0.00    -0.133 C  
HETATM   10  O   UNL     1      -8.060   8.298  66.002  1.00  0.00    -0.100 OA 
HETATM   11  C   UNL     1      -9.470   8.848  67.757  1.00  0.00    -0.163 A  
HETATM   12  C   UNL     1      -9.198  10.226  67.609  1.00  0.00    -0.144 A  
HETATM   13  O   UNL     1      -8.284  10.684  66.687  1.00  0.00    -0.125 OA 
HETATM   14  C   UNL     1      -9.872  11.206  68.367  1.00  0.00    -0.188 A  
HETATM   15  H   UNL     1      -8.101  11.610  66.588  1.00  0.00     0.000 HD 
HETATM   16  C   UNL     1     -10.861  10.788  69.279  1.00  0.00    -0.287 A  
HETATM   17  C   UNL     1     -11.082   9.406  69.469  1.00  0.00    -0.112 A  
HETATM   18  C   UNL     1     -11.682  11.804  70.053  1.00  0.00    -0.386 C  
HETATM   19  C   UNL     1     -11.639  13.244  69.511  1.00  0.00    -0.286 C  
HETATM   20  C   UNL     1     -10.397   8.433  68.710  1.00  0.00    -0.225 A  
HETATM   21  O   UNL     1     -12.009   8.985  70.384  1.00  0.00    -0.475 OA 
HETATM   22  C   UNL     1      -9.665  12.680  68.039  1.00  0.00    -0.215 C  
HETATM   23  C   UNL     1     -10.635   6.979  68.903  1.00  0.00    -0.215 C  
HETATM   24  C   UNL     1     -10.202  13.606  69.131  1.00  0.00     0.099 C  
HETATM   25  O   UNL     1     -12.529  13.370  68.401  1.00  0.00    -0.141 OA 
HETATM   26  H   UNL     1     -12.157   8.056  70.512  1.00  0.00     0.000 HD 
HETATM   27  O   UNL     1     -11.399   6.543  69.755  1.00  0.00    -0.362 OA 
HETATM   28  H   UNL     1     -12.502  14.259  68.066  1.00  0.00     0.000 HD 
BRANCH  19  29
HETATM   29  C   UNL     1     -12.186  14.212  70.580  1.00  0.00    -0.361 C  
HETATM   30  O   UNL     1     -13.075  13.890  71.376  1.00  0.00    -0.331 OA 
BRANCH  29  31
HETATM   31  C   UNL     1     -11.610  15.626  70.613  1.00  0.00    -0.367 C  
HETATM   32  O   UNL     1     -12.112  16.351  71.729  1.00  0.00    -0.627 OA 
HETATM   33  H   UNL     1     -11.753  17.230  71.750  1.00  0.00     0.000 HD 
ENDBRANCH  29  31
ENDBRANCH  19  29
BRANCH  22  34
HETATM   34  O   UNL     1     -10.410  12.798  66.840  1.00  0.00    -0.236 OA 
BRANCH  34  35
HETATM   35  C   UNL     1      -9.857  13.314  65.647  1.00  0.00    -0.162 C  
HETATM   36  C   UNL     1     -10.628  13.130  64.336  1.00  0.00    -0.441 C  
HETATM   37  C   UNL     1     -11.927  13.946  64.279  1.00  0.00    -0.444 C  
HETATM   38  C   UNL     1     -11.732  15.389  64.798  1.00  0.00    -0.232 C  
HETATM   39  N   UNL     1     -12.458  13.962  62.896  1.00  0.00    -0.877 NA 
HETATM   40  C   UNL     1     -10.939  15.362  66.111  1.00  0.00    -0.279 C  
HETATM   41  H2  UNL     1     -12.583  13.020  62.525  1.00  0.00     0.000 HD 
HETATM   42  O   UNL     1     -11.045  16.167  63.807  1.00  0.00    -0.895 OA 
HETATM   43  H1  UNL     1     -13.322  14.503  62.859  1.00  0.00     0.000 HD 
HETATM   44  C   UNL     1     -10.674  16.740  66.692  1.00  0.00    -0.107 C  
HETATM   45  H   UNL     1     -10.925  17.054  64.126  1.00  0.00     0.000 HD 
HETATM   46  O   UNL     1      -9.673  14.708  65.905  1.00  0.00    -0.312 OA 
ENDBRANCH  34  35
ENDBRANCH  22  34
ENDBRANCH   2   3
TORSDOF 5
ENDMDL
MODEL        9
REMARK 921   NORMALIZED FREE ENERGY PREDICTED BY IDOCK:   -7.54 KCAL/MOL
REMARK 922        TOTAL FREE ENERGY PREDICTED BY IDOCK:  -11.03 KCAL/MOL
REMARK 923 INTER-LIGAND FREE ENERGY PREDICTED BY IDOCK:   -9.89 KCAL/MOL
REMARK 924 INTRA-LIGAND FREE ENERGY PREDICTED BY IDOCK:   -1.14 KCAL/MOL
REMARK 927      BINDING AFFINITY PREDICTED BY RF-SCORE:    0.00 PKD
ROOT
HETATM    1  C   UNL     1      -7.086   6.744  72.458  1.00  0.00    -0.075 C  
HETATM    2  O   UNL     1      -7.541   7.576  71.396  1.00  0.00    -0.078 OA 
ENDROOT
BRANCH   2   3
HETATM    3  C   UNL     1      -7.486   7.058  70.129  1.00  0.00    -0.086 A  
HETATM    4  C   UNL     1      -6.841   5.844  69.848  1.00  0.00    -0.064 A  
HETATM    5  C   UNL     1      -6.767   5.362  68.545  1.00  0.00    -0.054 A  
HETATM    6  C   UNL     1      -7.328   6.097  67.508  1.00  0.00    -0.077 A  
HETATM    7  C   UNL     1      -7.969   7.318  67.770  1.00  0.00    -0.115 A  
HETATM    8  C   UNL     1      -8.055   7.807  69.074  1.00  0.00    -0.125 A  
HETATM    9  C   UNL     1      -8.769   9.089  69.301  1.00  0.00    -0.138 C  
HETATM   10  O   UNL     1      -8.861   9.600  70.414  1.00  0.00    -0.235 OA 
HETATM   11  C   UNL     1      -9.403   9.809  68.171  1.00  0.00    -0.136 A  
HETATM   12  C   UNL     1     -10.130  10.997  68.406  1.00  0.00    -0.184 A  
HETATM   13  O   UNL     1     -10.306  11.493  69.678  1.00  0.00    -0.419 OA 
HETATM   14  C   UNL     1     -10.679  11.757  67.352  1.00  0.00    -0.277 A  
HETATM   15  H   UNL     1     -10.795  12.291  69.836  1.00  0.00     0.000 HD 
HETATM   16  C   UNL     1     -10.471  11.321  66.028  1.00  0.00    -0.310 A  
HETATM   17  C   UNL     1      -9.800  10.099  65.804  1.00  0.00    -0.266 A  
HETATM   18  C   UNL     1     -10.959  12.149  64.853  1.00  0.00    -0.355 C  
HETATM   19  C   UNL     1     -11.325  13.608  65.175  1.00  0.00    -0.309 C  
HETATM   20  C   UNL     1      -9.260   9.342  66.866  1.00  0.00    -0.173 A  
HETATM   21  O   UNL     1      -9.629   9.642  64.525  1.00  0.00    -0.429 OA 
HETATM   22  C   UNL     1     -11.297  13.117  67.653  1.00  0.00    -0.298 C  
HETATM   23  C   UNL     1      -8.546   8.060  66.631  1.00  0.00    -0.136 C  
HETATM   24  C   UNL     1     -12.117  13.662  66.484  1.00  0.00    -0.469 C  
HETATM   25  O   UNL     1     -10.139  14.401  65.241  1.00  0.00    -0.385 OA 
HETATM   26  H   UNL     1      -9.178   8.819  64.375  1.00  0.00     0.000 HD 
HETATM   27  O   UNL     1      -8.426   7.567  65.516  1.00  0.00    -0.141 OA 
HETATM   28  H   UNL     1     -10.365  15.302  65.440  1.00  0.00     0.000 HD 
BRANCH  19  29
HETATM   29  C   UNL     1     -12.144  14.201  64.011  1.00  0.00    -0.348 C  
HETATM   30  O   UNL     1     -12.467  13.538  63.019  1.00  0.00    -0.709 OA 
BRANCH  29  31
HETATM   31  C   UNL     1     -12.533  15.676  64.100  1.00  0.00     0.279 C  
HETATM   32  O   UNL     1     -11.446  16.510  63.720  1.00  0.00    -1.615 OA 
HETATM   33  H   UNL     1     -11.687  17.427  63.775  1.00  0.00     0.000 HD 
ENDBRANCH  29  31
ENDBRANCH  19  29
BRANCH  22  34
HETATM   34  O   UNL     1     -10.137  13.895  67.887  1.00  0.00    -0.232 OA 
BRANCH  34  35
HETATM   35  C   UNL     1     -10.044  14.825  68.946  1.00  0.00    -0.237 C  
HETATM   36  C   UNL     1      -8.670  15.106  69.562  1.00  0.00    -0.131 C  
HETATM   37  C   UNL     1      -7.720  15.848  68.611  1.00  0.00    -0.161 C  
HETATM   38  C   UNL     1      -8.425  17.010  67.874  1.00  0.00    -0.209 C  
HETATM   39  N   UNL     1      -6.542  16.349  69.355  1.00  0.00    -0.203 NA 
HETATM   40  C   UNL     1      -9.780  16.532  67.334  1.00  0.00    -0.246 C  
HETATM   41  H2  UNL     1      -6.066  15.603  69.863  1.00  0.00     0.000 HD 
HETATM   42  O   UNL     1      -8.598  18.115  68.772  1.00  0.00    -0.289 OA 
HETATM   43  H1  UNL     1      -5.910  16.841  68.723  1.00  0.00     0.000 HD 
HETATM   44  C   UNL     1     -10.563  17.613  66.610  1.00  0.00    -0.211 C  
HETATM   45  H   UNL     1      -9.032  18.829  68.320  1.00  0.00     0.000 HD 
HETATM   46  O   UNL     1     -10.590  16.036  68.416  1.00  0.00    -0.248 OA 
ENDBRANCH  34  35
ENDBRANCH  22  34
ENDBRANCH   2   3
TORSDOF 5
ENDMDL
MODEL       10
REMARK 921   NORMALIZED FREE ENERGY PREDICTED BY IDOCK:   -7.54 KCAL/MOL
REMARK 922        TOTAL FREE ENERGY PREDICTED BY IDOCK:  -11.02 KCAL/MOL
REMARK 923 INTER-LIGAND FREE ENERGY PREDICTED BY IDOCK:   -9.84 KCAL/MOL
REMARK 924 INTRA-LIGAND FREE ENERGY PREDICTED BY IDOCK:   -1.18 KCAL/MOL
REMARK 927      BINDING AFFINITY PREDICTED BY RF-SCORE:    0.00 PKD
ROOT
HETATM    1  C   UNL     1      -5.826   6.898  62.333  1.00  0.00    -0.040 C  
HETATM    2  O   UNL     1      -7.010   7.102  63.094  1.00  0.00    -0.054 OA 
ENDROOT
BRANCH   2   3
HETATM    3  C   UNL     1      -7.445   6.059  63.868  1.00  0.00    -0.080 A  
HETATM    4  C   UNL     1      -7.213   4.722  63.512  1.00  0.00    -0.049 A  
HETATM    5  C   UNL     1      -7.701   3.681  64.296  1.00  0.00    -0.080 A  
HETATM    6  C   UNL     1      -8.436   3.969  65.439  1.00  0.00    -0.109 A  
HETATM    7  C   UNL     1      -8.685   5.302  65.805  1.00  0.00    -0.143 A  
HETATM    8  C   UNL     1      -8.195   6.352  65.030  1.00  0.00    -0.125 A  
HETATM    9  C   UNL     1      -8.461   7.743  65.476  1.00  0.00    -0.133 C  
HETATM   10  O   UNL     1      -8.090   8.721  64.832  1.00  0.00    -0.130 OA 
HETATM   11  C   UNL     1      -9.201   8.002  66.735  1.00  0.00    -0.206 A  
HETATM   12  C   UNL     1      -9.398   9.327  67.181  1.00  0.00    -0.132 A  
HETATM   13  O   UNL     1      -8.882  10.402  66.494  1.00  0.00    -0.136 OA 
HETATM   14  C   UNL     1     -10.165   9.622  68.327  1.00  0.00    -0.216 A  
HETATM   15  H   UNL     1      -9.014  11.293  66.794  1.00  0.00     0.000 HD 
HETATM   16  C   UNL     1     -10.766   8.558  69.028  1.00  0.00    -0.113 A  
HETATM   17  C   UNL     1     -10.511   7.231  68.614  1.00  0.00    -0.194 A  
HETATM   18  C   UNL     1     -11.677   8.824  70.213  1.00  0.00     0.061 C  
HETATM   19  C   UNL     1     -12.189  10.269  70.345  1.00  0.00    -0.261 C  
HETATM   20  C   UNL     1      -9.736   6.946  67.469  1.00  0.00    -0.162 A  
HETATM   21  O   UNL     1     -11.053   6.186  69.311  1.00  0.00    -0.352 OA 
HETATM   22  C   UNL     1     -10.491  11.075  68.657  1.00  0.00    -0.192 C  
HETATM   23  C   UNL     1      -9.474   5.551  67.029  1.00  0.00    -0.131 C  
HETATM   24  C   UNL     1     -11.043  11.246  70.072  1.00  0.00    -0.114 C  
HETATM   25  O   UNL     1     -13.286  10.477  69.454  1.00  0.00    -0.323 OA 
HETATM   26  H   UNL     1     -10.880   5.294  69.034  1.00  0.00     0.000 HD 
HETATM   27  O   UNL     1      -9.873   4.576  67.653  1.00  0.00    -0.168 OA 
HETATM   28  H   UNL     1     -13.602  11.370  69.536  1.00  0.00     0.000 HD 
BRANCH  19  29
HETATM   29  C   UNL     1     -12.768  10.482  71.758  1.00  0.00    -0.402 C  
HETATM   30  O   UNL     1     -13.077  11.598  72.189  1.00  0.00    -0.457 OA 
BRANCH  29  31
HETATM   31  C   UNL     1     -12.927   9.251  72.649  1.00  0.00    -0.212 C  
HETATM   32  O   UNL     1     -14.264   9.132  73.116  1.00  0.00    -1.118 OA 
HETATM   33  H   UNL     1     -14.363   8.367  73.670  1.00  0.00     0.000 HD 
ENDBRANCH  29  31
ENDBRANCH  19  29
BRANCH  22  34
HETATM   34  O   UNL     1     -11.469  11.362  67.674  1.00  0.00    -0.376 OA 
BRANCH  34  35
HETATM   35  C   UNL     1     -11.847  12.681  67.339  1.00  0.00    -0.328 C  
HETATM   36  C   UNL     1     -10.778  13.778  67.342  1.00  0.00    -0.279 C  
HETATM   37  C   UNL     1      -9.742  13.617  66.220  1.00  0.00    -0.283 C  
HETATM   38  C   UNL     1     -10.400  13.261  64.867  1.00  0.00    -0.351 C  
HETATM   39  N   UNL     1      -8.932  14.850  66.092  1.00  0.00    -0.489 NA 
HETATM   40  C   UNL     1     -11.438  12.150  65.073  1.00  0.00    -0.323 C  
HETATM   41  H2  UNL     1      -8.499  15.115  66.977  1.00  0.00     0.000 HD 
HETATM   42  O   UNL     1     -11.014  14.432  64.309  1.00  0.00    -0.611 OA 
HETATM   43  H1  UNL     1      -8.244  14.743  65.347  1.00  0.00     0.000 HD 
HETATM   44  C   UNL     1     -12.159  11.746  63.800  1.00  0.00    -0.463 C  
HETATM   45  H   UNL     1     -11.419  14.214  63.477  1.00  0.00     0.000 HD 
HETATM   46  O   UNL     1     -12.423  12.574  66.034  1.00  0.00    -0.565 OA 
ENDBRANCH  34  35
ENDBRANCH  22  34
ENDBRANCH   2   3
TORSDOF 5
ENDMDL
MODEL       11
REMARK 921   NORMALIZED FREE ENERGY PREDICTED BY IDOCK:   -7.53 KCAL/MOL
REMARK 922        TOTAL FREE ENERGY PREDICTED BY IDOCK:  -11.02 KCAL/MOL
REMARK 923 INTER-LIGAND FREE ENERGY PREDICTED BY IDOCK:   -9.85 KCAL/MOL
REMARK 924 INTRA-LIGAND FREE ENERGY PREDICTED BY IDOCK:   -1.17 KCAL/MOL
REMARK 927      BINDING AFFINITY PREDICTED BY RF-SCORE:    0.00 PKD
ROOT
HETATM    1  C   UNL     1     -10.921  16.435  69.654  1.00  0.00    -0.329 C  
HETATM    2  O   UNL     1     -11.908  15.491  69.256  1.00  0.00    -0.334 OA 
ENDROOT
BRANCH   2   3
HETATM    3  C   UNL     1     -12.552  14.801  70.250  1.00  0.00    -0.315 A  
HETATM    4  C   UNL     1     -13.349  15.447  71.207  1.00  0.00    -0.598 A  
HETATM    5  C   UNL     1     -13.959  14.726  72.229  1.00  0.00    -0.598 A  
HETATM    6  C   UNL     1     -13.767  13.353  72.310  1.00  0.00    -0.705 A  
HETATM    7  C   UNL     1     -12.964  12.692  71.365  1.00  0.00    -0.353 A  
HETATM    8  C   UNL     1     -12.354  13.404  70.333  1.00  0.00    -0.382 A  
HETATM    9  C   UNL     1     -11.540  12.655  69.344  1.00  0.00    -0.306 C  
HETATM   10  O   UNL     1     -10.947  13.213  68.424  1.00  0.00    -0.241 OA 
HETATM   11  C   UNL     1     -11.411  11.180  69.437  1.00  0.00    -0.352 A  
HETATM   12  C   UNL     1     -10.682  10.470  68.457  1.00  0.00    -0.224 A  
HETATM   13  O   UNL     1     -10.114  11.109  67.379  1.00  0.00    -0.180 OA 
HETATM   14  C   UNL     1     -10.465   9.080  68.551  1.00  0.00    -0.232 A  
HETATM   15  H   UNL     1      -9.624  10.631  66.720  1.00  0.00     0.000 HD 
HETATM   16  C   UNL     1     -10.975   8.392  69.671  1.00  0.00    -0.094 A  
HETATM   17  C   UNL     1     -11.758   9.097  70.612  1.00  0.00    -0.209 A  
HETATM   18  C   UNL     1     -10.693   6.914  69.869  1.00  0.00    -0.278 C  
HETATM   19  C   UNL     1      -9.545   6.338  69.022  1.00  0.00    -0.127 C  
HETATM   20  C   UNL     1     -11.975  10.488  70.505  1.00  0.00    -0.436 A  
HETATM   21  O   UNL     1     -12.297   8.434  71.681  1.00  0.00    -0.295 OA 
HETATM   22  C   UNL     1      -9.525   8.400  67.563  1.00  0.00    -0.149 C  
HETATM   23  C   UNL     1     -12.791  11.232  71.500  1.00  0.00    -0.414 C  
HETATM   24  C   UNL     1      -9.642   6.876  67.592  1.00  0.00    -0.143 C  
HETATM   25  O   UNL     1      -8.291   6.659  69.625  1.00  0.00    -0.128 OA 
HETATM   26  H   UNL     1     -12.824   8.907  72.313  1.00  0.00     0.000 HD 
HETATM   27  O   UNL     1     -13.356  10.679  72.436  1.00  0.00    -0.283 OA 
HETATM   28  H   UNL     1      -7.581   6.303  69.102  1.00  0.00     0.000 HD 
BRANCH  19  29
HETATM   29  C   UNL     1      -9.619   4.798  69.037  1.00  0.00    -0.165 C  
HETATM   30  O   UNL     1      -9.835   4.152  70.068  1.00  0.00    -0.217 OA 
BRANCH  29  31
HETATM   31  C   UNL     1      -9.381   4.067  67.717  1.00  0.00    -0.176 C  
HETATM   32  O   UNL     1      -9.613   2.671  67.861  1.00  0.00    -0.304 OA 
HETATM   33  H   UNL     1      -9.465   2.216  67.041  1.00  0.00     0.000 HD 
ENDBRANCH  29  31
ENDBRANCH  19  29
BRANCH  22  34
HETATM   34  O   UNL     1      -8.266   8.838  68.042  1.00  0.00    -0.116 OA 
BRANCH  34  35
HETATM   35  C   UNL     1      -7.084   8.746  67.274  1.00  0.00    -0.079 C  
HETATM   36  C   UNL     1      -7.173   8.942  65.757  1.00  0.00    -0.085 C  
HETATM   37  C   UNL     1      -7.518  10.383  65.353  1.00  0.00    -0.127 C  
HETATM   38  C   UNL     1      -6.712  11.424  66.164  1.00  0.00     0.142 C  
HETATM   39  N   UNL     1      -7.292  10.573  63.901  1.00  0.00    -0.343 NA 
HETATM   40  C   UNL     1      -6.740  11.053  67.652  1.00  0.00    -0.073 C  
HETATM   41  H2  UNL     1      -7.802   9.888  63.344  1.00  0.00     0.000 HD 
HETATM   42  O   UNL     1      -5.363  11.472  65.678  1.00  0.00    -0.498 OA 
HETATM   43  H1  UNL     1      -7.522  11.530  63.633  1.00  0.00     0.000 HD 
HETATM   44  C   UNL     1      -5.953  12.006  68.533  1.00  0.00    -0.050 C  
HETATM   45  H   UNL     1      -4.867  12.111  66.176  1.00  0.00     0.000 HD 
HETATM   46  O   UNL     1      -6.208   9.727  67.835  1.00  0.00    -0.051 OA 
ENDBRANCH  34  35
ENDBRANCH  22  34
ENDBRANCH   2   3
TORSDOF 5
ENDMDL
MODEL       12
REMARK 921   NORMALIZED FREE ENERGY PREDICTED BY IDOCK:   -7.43 KCAL/MOL
REMARK 922        TOTAL FREE ENERGY PREDICTED BY IDOCK:  -10.88 KCAL/MOL
REMARK 923 INTER-LIGAND FREE ENERGY PREDICTED BY IDOCK:   -9.79 KCAL/MOL
REMARK 924 INTRA-LIGAND FREE ENERGY PREDICTED BY IDOCK:   -1.09 KCAL/MOL
REMARK 927      BINDING AFFINITY PREDICTED BY RF-SCORE:    0.00 PKD
ROOT
HETATM    1  C   UNL     1     -10.023  16.090  69.441  1.00  0.00    -0.262 C  
HETATM    2  O   UNL     1     -10.835  15.092  68.832  1.00  0.00    -0.224 OA 
ENDROOT
BRANCH   2   3
HETATM    3  C   UNL     1     -10.724  14.937  67.475  1.00  0.00    -0.276 A  
HETATM    4  C   UNL     1     -10.904  16.009  66.587  1.00  0.00    -0.179 A  
HETATM    5  C   UNL     1     -10.824  15.815  65.212  1.00  0.00    -0.409 A  
HETATM    6  C   UNL     1     -10.577  14.543  64.711  1.00  0.00    -0.401 A  
HETATM    7  C   UNL     1     -10.404  13.458  65.586  1.00  0.00    -0.295 A  
HETATM    8  C   UNL     1     -10.474  13.643  66.966  1.00  0.00    -0.270 A  
HETATM    9  C   UNL     1     -10.256  12.469  67.848  1.00  0.00    -0.219 C  
HETATM   10  O   UNL     1     -10.331  12.544  69.071  1.00  0.00    -0.098 OA 
HETATM   11  C   UNL     1      -9.936  11.141  67.269  1.00  0.00    -0.211 A  
HETATM   12  C   UNL     1      -9.672  10.043  68.118  1.00  0.00    -0.140 A  
HETATM   13  O   UNL     1      -9.661  10.179  69.487  1.00  0.00    -0.216 OA 
HETATM   14  C   UNL     1      -9.445   8.747  67.612  1.00  0.00    -0.168 A  
HETATM   15  H   UNL     1      -9.484   9.441  70.058  1.00  0.00     0.000 HD 
HETATM   16  C   UNL     1      -9.508   8.547  66.218  1.00  0.00    -0.299 A  
HETATM   17  C   UNL     1      -9.707   9.661  65.372  1.00  0.00    -0.295 A  
HETATM   18  C   UNL     1      -9.363   7.157  65.626  1.00  0.00     0.278 C  
HETATM   19  C   UNL     1      -9.531   5.992  66.617  1.00  0.00    -0.149 C  
HETATM   20  C   UNL     1      -9.927  10.956  65.889  1.00  0.00    -0.294 A  
HETATM   21  O   UNL     1      -9.727   9.488  64.015  1.00  0.00    -0.404 OA 
HETATM   22  C   UNL     1      -9.343   7.573  68.579  1.00  0.00    -0.142 C  
HETATM   23  C   UNL     1     -10.146  12.127  65.000  1.00  0.00    -0.263 C  
HETATM   24  C   UNL     1      -8.788   6.312  67.916  1.00  0.00    -0.112 C  
HETATM   25  O   UNL     1     -10.920   5.750  66.848  1.00  0.00    -0.480 OA 
HETATM   26  H   UNL     1      -9.861  10.237  63.446  1.00  0.00     0.000 HD 
HETATM   27  O   UNL     1     -10.103  12.045  63.778  1.00  0.00    -0.356 OA 
HETATM   28  H   UNL     1     -11.024   5.031  67.460  1.00  0.00     0.000 HD 
BRANCH  19  29
HETATM   29  C   UNL     1      -8.994   4.694  65.981  1.00  0.00    -0.123 C  
HETATM   30  O   UNL     1      -8.257   3.911  66.589  1.00  0.00    -0.099 OA 
BRANCH  29  31
HETATM   31  C   UNL     1      -9.379   4.406  64.531  1.00  0.00    -0.143 C  
HETATM   32  O   UNL     1     -10.788   4.269  64.398  1.00  0.00    -0.504 OA 
HETATM   33  H   UNL     1     -11.028   4.090  63.497  1.00  0.00     0.000 HD 
ENDBRANCH  29  31
ENDBRANCH  19  29
BRANCH  22  34
HETATM   34  O   UNL     1     -10.699   7.413  68.955  1.00  0.00    -0.200 OA 
BRANCH  34  35
HETATM   35  C   UNL     1     -11.102   6.567  70.011  1.00  0.00    -0.363 C  
HETATM   36  C   UNL     1     -10.082   6.199  71.093  1.00  0.00    -0.231 C  
HETATM   37  C   UNL     1      -9.687   7.389  71.980  1.00  0.00    -0.154 C  
HETATM   38  C   UNL     1     -10.912   8.229  72.407  1.00  0.00    -0.368 C  
HETATM   39  N   UNL     1      -8.947   6.912  73.171  1.00  0.00    -0.129 NA 
HETATM   40  C   UNL     1     -11.810   8.488  71.191  1.00  0.00    -0.284 C  
HETATM   41  H2  UNL     1      -8.140   6.342  72.917  1.00  0.00     0.000 HD 
HETATM   42  O   UNL     1     -11.636   7.536  73.434  1.00  0.00    -0.621 OA 
HETATM   43  H1  UNL     1      -8.684   7.702  73.760  1.00  0.00     0.000 HD 
HETATM   44  C   UNL     1     -13.058   9.289  71.513  1.00  0.00    -0.430 C  
HETATM   45  H   UNL     1     -12.389   8.052  73.697  1.00  0.00     0.000 HD 
HETATM   46  O   UNL     1     -12.217   7.235  70.608  1.00  0.00    -0.250 OA 
ENDBRANCH  34  35
ENDBRANCH  22  34
ENDBRANCH   2   3
TORSDOF 5
ENDMDL
MODEL       13
REMARK 921   NORMALIZED FREE ENERGY PREDICTED BY IDOCK:   -7.36 KCAL/MOL
REMARK 922        TOTAL FREE ENERGY PREDICTED BY IDOCK:  -10.79 KCAL/MOL
REMARK 923 INTER-LIGAND FREE ENERGY PREDICTED BY IDOCK:   -9.63 KCAL/MOL
REMARK 924 INTRA-LIGAND FREE ENERGY PREDICTED BY IDOCK:   -1.16 KCAL/MOL
REMARK 927      BINDING AFFINITY PREDICTED BY RF-SCORE:    0.00 PKD
ROOT
HETATM    1  C   UNL     1      -6.066   7.115  73.861  1.00  0.00    -0.065 C  
HETATM    2  O   UNL     1      -6.908   7.151  72.714  1.00  0.00    -0.067 OA 
ENDROOT
BRANCH   2   3
HETATM    3  C   UNL     1      -8.257   7.257  72.930  1.00  0.00    -0.106 A  
HETATM    4  C   UNL     1      -8.899   6.568  73.969  1.00  0.00    -0.160 A  
HETATM    5  C   UNL     1     -10.277   6.663  74.142  1.00  0.00    -0.390 A  
HETATM    6  C   UNL     1     -11.026   7.440  73.267  1.00  0.00    -0.367 A  
HETATM    7  C   UNL     1     -10.400   8.129  72.216  1.00  0.00    -0.361 A  
HETATM    8  C   UNL     1      -9.019   8.046  72.039  1.00  0.00    -0.212 A  
HETATM    9  C   UNL     1      -8.402   8.817  70.930  1.00  0.00    -0.165 C  
HETATM   10  O   UNL     1      -7.198   8.772  70.690  1.00  0.00    -0.051 OA 
HETATM   11  C   UNL     1      -9.235   9.679  70.057  1.00  0.00    -0.275 A  
HETATM   12  C   UNL     1      -8.631  10.454  69.042  1.00  0.00    -0.157 A  
HETATM   13  O   UNL     1      -7.266  10.465  68.862  1.00  0.00    -0.071 OA 
HETATM   14  C   UNL     1      -9.392  11.223  68.138  1.00  0.00    -0.181 A  
HETATM   15  H   UNL     1      -6.860  10.986  68.180  1.00  0.00     0.000 HD 
HETATM   16  C   UNL     1     -10.796  11.193  68.245  1.00  0.00    -0.258 A  
HETATM   17  C   UNL     1     -11.391  10.469  69.302  1.00  0.00    -0.262 A  
HETATM   18  C   UNL     1     -11.667  11.929  67.242  1.00  0.00    -0.319 C  
HETATM   19  C   UNL     1     -10.965  12.356  65.941  1.00  0.00    -0.288 C  
HETATM   20  C   UNL     1     -10.619   9.708  70.206  1.00  0.00    -0.333 A  
HETATM   21  O   UNL     1     -12.752  10.467  69.444  1.00  0.00    -0.692 OA 
HETATM   22  C   UNL     1      -8.699  11.894  66.958  1.00  0.00    -0.181 C  
HETATM   23  C   UNL     1     -11.244   8.938  71.314  1.00  0.00    -0.298 C  
HETATM   24  C   UNL     1      -9.585  12.932  66.269  1.00  0.00    -0.245 C  
HETATM   25  O   UNL     1     -10.876  11.243  65.050  1.00  0.00    -0.282 OA 
HETATM   26  H   UNL     1     -13.151   9.981  70.156  1.00  0.00     0.000 HD 
HETATM   27  O   UNL     1     -12.449   8.957  71.532  1.00  0.00    -0.302 OA 
HETATM   28  H   UNL     1     -10.443  11.507  64.247  1.00  0.00     0.000 HD 
BRANCH  19  29
HETATM   29  C   UNL     1     -11.834  13.396  65.206  1.00  0.00    -0.348 C  
HETATM   30  O   UNL     1     -12.963  13.134  64.776  1.00  0.00    -0.725 OA 
BRANCH  29  31
HETATM   31  C   UNL     1     -11.240  14.785  64.986  1.00  0.00    -0.395 C  
HETATM   32  O   UNL     1     -11.928  15.473  63.949  1.00  0.00    -0.974 OA 
HETATM   33  H   UNL     1     -11.559  16.338  63.813  1.00  0.00     0.000 HD 
ENDBRANCH  29  31
ENDBRANCH  19  29
BRANCH  22  34
HETATM   34  O   UNL     1      -8.449  10.779  66.121  1.00  0.00    -0.156 OA 
BRANCH  34  35
HETATM   35  C   UNL     1      -7.202  10.559  65.497  1.00  0.00    -0.103 C  
HETATM   36  C   UNL     1      -6.383   9.328  65.897  1.00  0.00    -0.060 C  
HETATM   37  C   UNL     1      -7.023   8.005  65.452  1.00  0.00    -0.063 C  
HETATM   38  C   UNL     1      -7.550   8.072  64.001  1.00  0.00    -0.124 C  
HETATM   39  N   UNL     1      -6.053   6.895  65.598  1.00  0.00    -0.035 NA 
HETATM   40  C   UNL     1      -8.337   9.374  63.797  1.00  0.00    -0.183 C  
HETATM   41  H2  UNL     1      -5.678   6.838  66.545  1.00  0.00     0.000 HD 
HETATM   42  O   UNL     1      -6.448   7.999  63.085  1.00  0.00    -0.078 OA 
HETATM   43  H1  UNL     1      -6.478   6.016  65.303  1.00  0.00     0.000 HD 
HETATM   44  C   UNL     1      -8.879   9.545  62.390  1.00  0.00    -0.256 C  
HETATM   45  H   UNL     1      -6.771   8.040  62.193  1.00  0.00     0.000 HD 
HETATM   46  O   UNL     1      -7.499  10.505  64.099  1.00  0.00    -0.044 OA 
ENDBRANCH  34  35
ENDBRANCH  22  34
ENDBRANCH   2   3
TORSDOF 5
ENDMDL
MODEL       14
REMARK 921   NORMALIZED FREE ENERGY PREDICTED BY IDOCK:   -7.32 KCAL/MOL
REMARK 922        TOTAL FREE ENERGY PREDICTED BY IDOCK:  -10.74 KCAL/MOL
REMARK 923 INTER-LIGAND FREE ENERGY PREDICTED BY IDOCK:   -9.34 KCAL/MOL
REMARK 924 INTRA-LIGAND FREE ENERGY PREDICTED BY IDOCK:   -1.41 KCAL/MOL
REMARK 927      BINDING AFFINITY PREDICTED BY RF-SCORE:    0.00 PKD
ROOT
HETATM    1  C   UNL     1     -11.781  15.063  68.668  1.00  0.00    -0.337 C  
HETATM    2  O   UNL     1     -12.265  13.814  68.186  1.00  0.00    -0.331 OA 
ENDROOT
BRANCH   2   3
HETATM    3  C   UNL     1     -12.010  13.507  66.876  1.00  0.00    -0.399 A  
HETATM    4  C   UNL     1     -12.504  14.288  65.820  1.00  0.00    -0.421 A  
HETATM    5  C   UNL     1     -12.263  13.931  64.497  1.00  0.00    -0.451 A  
HETATM    6  C   UNL     1     -11.536  12.781  64.218  1.00  0.00    -0.427 A  
HETATM    7  C   UNL     1     -11.042  11.982  65.263  1.00  0.00    -0.367 A  
HETATM    8  C   UNL     1     -11.272  12.336  66.592  1.00  0.00    -0.367 A  
HETATM    9  C   UNL     1     -10.705  11.474  67.660  1.00  0.00    -0.211 C  
HETATM   10  O   UNL     1     -10.888  11.701  68.853  1.00  0.00    -0.208 OA 
HETATM   11  C   UNL     1      -9.885  10.288  67.314  1.00  0.00    -0.222 A  
HETATM   12  C   UNL     1      -9.300   9.508  68.336  1.00  0.00    -0.133 A  
HETATM   13  O   UNL     1      -9.436   9.844  69.664  1.00  0.00    -0.206 OA 
HETATM   14  C   UNL     1      -8.583   8.327  68.056  1.00  0.00    -0.132 A  
HETATM   15  H   UNL     1      -9.043   9.320  70.351  1.00  0.00     0.000 HD 
HETATM   16  C   UNL     1      -8.471   7.909  66.715  1.00  0.00    -0.129 A  
HETATM   17  C   UNL     1      -9.001   8.727  65.693  1.00  0.00    -0.200 A  
HETATM   18  C   UNL     1      -7.790   6.598  66.364  1.00  0.00    -0.104 C  
HETATM   19  C   UNL     1      -7.593   5.618  67.535  1.00  0.00    -0.089 C  
HETATM   20  C   UNL     1      -9.712   9.912  65.984  1.00  0.00    -0.310 A  
HETATM   21  O   UNL     1      -8.862   8.356  64.383  1.00  0.00    -0.412 OA 
HETATM   22  C   UNL     1      -8.130   7.435  69.206  1.00  0.00    -0.123 C  
HETATM   23  C   UNL     1     -10.278  10.769  64.910  1.00  0.00    -0.320 C  
HETATM   24  C   UNL     1      -7.109   6.384  68.768  1.00  0.00    -0.082 C  
HETATM   25  O   UNL     1      -8.811   4.918  67.790  1.00  0.00    -0.103 OA 
HETATM   26  H   UNL     1      -9.218   8.907  63.696  1.00  0.00     0.000 HD 
HETATM   27  O   UNL     1     -10.122  10.525  63.720  1.00  0.00    -0.315 OA 
HETATM   28  H   UNL     1      -8.690   4.313  68.513  1.00  0.00     0.000 HD 
BRANCH  19  29
HETATM   29  C   UNL     1      -6.578   4.531  67.129  1.00  0.00    -0.046 C  
HETATM   30  O   UNL     1      -5.555   4.300  67.782  1.00  0.00    -0.019 OA 
BRANCH  29  31
HETATM   31  C   UNL     1      -6.858   3.745  65.850  1.00  0.00    -0.057 C  
HETATM   32  O   UNL     1      -8.009   2.924  66.000  1.00  0.00    -0.081 OA 
HETATM   33  H   UNL     1      -8.183   2.436  65.205  1.00  0.00     0.000 HD 
ENDBRANCH  29  31
ENDBRANCH  19  29
BRANCH  22  34
HETATM   34  O   UNL     1      -9.358   6.844  69.591  1.00  0.00    -0.146 OA 
BRANCH  34  35
HETATM   35  C   UNL     1      -9.502   6.089  70.776  1.00  0.00    -0.168 C  
HETATM   36  C   UNL     1      -8.774   6.553  72.040  1.00  0.00    -0.132 C  
HETATM   37  C   UNL     1      -9.334   7.863  72.614  1.00  0.00    -0.213 C  
HETATM   38  C   UNL     1     -10.879   7.877  72.632  1.00  0.00    -0.364 C  
HETATM   39  N   UNL     1      -8.799   8.092  73.976  1.00  0.00    -0.340 NA 
HETATM   40  C   UNL     1     -11.416   7.378  71.284  1.00  0.00    -0.272 C  
HETATM   41  H2  UNL     1      -7.780   8.073  73.994  1.00  0.00     0.000 HD 
HETATM   42  O   UNL     1     -11.355   7.051  73.705  1.00  0.00    -0.449 OA 
HETATM   43  H1  UNL     1      -9.171   8.963  74.357  1.00  0.00     0.000 HD 
HETATM   44  C   UNL     1     -12.932   7.332  71.211  1.00  0.00    -0.377 C  
HETATM   45  H   UNL     1     -12.305   7.059  73.716  1.00  0.00     0.000 HD 
HETATM   46  O   UNL     1     -10.912   6.056  71.017  1.00  0.00    -0.271 OA 
ENDBRANCH  34  35
ENDBRANCH  22  34
ENDBRANCH   2   3
TORSDOF 5
ENDMDL
MODEL       15
REMARK 921   NORMALIZED FREE ENERGY PREDICTED BY IDOCK:   -7.24 KCAL/MOL
REMARK 922        TOTAL FREE ENERGY PREDICTED BY IDOCK:  -10.64 KCAL/MOL
REMARK 923 INTER-LIGAND FREE ENERGY PREDICTED BY IDOCK:   -9.49 KCAL/MOL
REMARK 924 INTRA-LIGAND FREE ENERGY PREDICTED BY IDOCK:   -1.15 KCAL/MOL
REMARK 927      BINDING AFFINITY PREDICTED BY RF-SCORE:    0.00 PKD
ROOT
HETATM    1  C   UNL     1      -6.759  17.740  65.537  1.00  0.00     0.050 C  
HETATM    2  O   UNL     1      -8.144  17.421  65.613  1.00  0.00    -0.485 OA 
ENDROOT
BRANCH   2   3
HETATM    3  C   UNL     1      -8.824  17.846  66.724  1.00  0.00    -0.258 A  
HETATM    4  C   UNL     1      -8.873  19.198  67.094  1.00  0.00    -0.314 A  
HETATM    5  C   UNL     1      -9.538  19.597  68.249  1.00  0.00    -0.478 A  
HETATM    6  C   UNL     1     -10.151  18.643  69.052  1.00  0.00    -0.289 A  
HETATM    7  C   UNL     1     -10.104  17.284  68.701  1.00  0.00    -0.341 A  
HETATM    8  C   UNL     1      -9.446  16.875  67.541  1.00  0.00    -0.241 A  
HETATM    9  C   UNL     1      -9.449  15.430  67.200  1.00  0.00    -0.213 C  
HETATM   10  O   UNL     1      -8.867  14.988  66.214  1.00  0.00    -0.255 OA 
HETATM   11  C   UNL     1     -10.167  14.456  68.057  1.00  0.00    -0.228 A  
HETATM   12  C   UNL     1     -10.215  13.092  67.692  1.00  0.00    -0.216 A  
HETATM   13  O   UNL     1      -9.641  12.639  66.526  1.00  0.00    -0.239 OA 
HETATM   14  C   UNL     1     -10.815  12.119  68.518  1.00  0.00    -0.267 A  
HETATM   15  H   UNL     1      -9.673  11.722  66.281  1.00  0.00     0.000 HD 
HETATM   16  C   UNL     1     -11.360  12.527  69.752  1.00  0.00    -0.111 A  
HETATM   17  C   UNL     1     -11.368  13.901  70.080  1.00  0.00    -0.063 A  
HETATM   18  C   UNL     1     -11.936  11.509  70.721  1.00  0.00    -0.317 C  
HETATM   19  C   UNL     1     -11.545  10.045  70.455  1.00  0.00    -0.302 C  
HETATM   20  C   UNL     1     -10.770  14.867  69.243  1.00  0.00    -0.253 A  
HETATM   21  O   UNL     1     -11.934  14.316  71.255  1.00  0.00    -0.384 OA 
HETATM   22  C   UNL     1     -10.679  10.644  68.158  1.00  0.00    -0.225 C  
HETATM   23  C   UNL     1     -10.770  16.312  69.592  1.00  0.00    -0.338 C  
HETATM   24  C   UNL     1     -11.634   9.755  68.954  1.00  0.00     0.215 C  
HETATM   25  O   UNL     1     -10.236   9.793  70.966  1.00  0.00    -0.306 OA 
HETATM   26  H   UNL     1     -11.939  15.240  71.475  1.00  0.00     0.000 HD 
HETATM   27  O   UNL     1     -11.323  16.749  70.593  1.00  0.00    -0.100 OA 
HETATM   28  H   UNL     1      -9.994   8.888  70.802  1.00  0.00     0.000 HD 
BRANCH  19  29
HETATM   29  C   UNL     1     -12.478   9.111  71.252  1.00  0.00    -0.300 C  
HETATM   30  O   UNL     1     -12.342   7.883  71.259  1.00  0.00    -0.307 OA 
BRANCH  29  31
HETATM   31  C   UNL     1     -13.625   9.754  72.029  1.00  0.00    -0.349 C  
HETATM   32  O   UNL     1     -13.844   9.080  73.261  1.00  0.00    -1.159 OA 
HETATM   33  H   UNL     1     -14.557   9.480  73.744  1.00  0.00     0.000 HD 
ENDBRANCH  29  31
ENDBRANCH  19  29
BRANCH  22  34
HETATM   34  O   UNL     1      -9.327  10.405  68.506  1.00  0.00    -0.147 OA 
BRANCH  34  35
HETATM   35  C   UNL     1      -8.624   9.254  68.085  1.00  0.00    -0.125 C  
HETATM   36  C   UNL     1      -8.983   8.622  66.737  1.00  0.00    -0.167 C  
HETATM   37  C   UNL     1      -8.594   9.498  65.536  1.00  0.00    -0.146 C  
HETATM   38  C   UNL     1      -7.180  10.102  65.690  1.00  0.00    -0.137 C  
HETATM   39  N   UNL     1      -8.688   8.714  64.283  1.00  0.00    -0.407 NA 
HETATM   40  C   UNL     1      -7.015  10.678  67.103  1.00  0.00    -0.088 C  
HETATM   41  H2  UNL     1      -9.608   8.292  64.164  1.00  0.00     0.000 HD 
HETATM   42  O   UNL     1      -6.195   9.089  65.438  1.00  0.00    -0.061 OA 
HETATM   43  H1  UNL     1      -8.430   9.296  63.485  1.00  0.00     0.000 HD 
HETATM   44  C   UNL     1      -5.644  11.276  67.362  1.00  0.00    -0.056 C  
HETATM   45  H   UNL     1      -5.325   9.460  65.532  1.00  0.00     0.000 HD 
HETATM   46  O   UNL     1      -7.250   9.647  68.081  1.00  0.00    -0.078 OA 
ENDBRANCH  34  35
ENDBRANCH  22  34
ENDBRANCH   2   3
TORSDOF 5
ENDMDL
MODEL       16
REMARK 921   NORMALIZED FREE ENERGY PREDICTED BY IDOCK:   -7.23 KCAL/MOL
REMARK 922        TOTAL FREE ENERGY PREDICTED BY IDOCK:  -10.63 KCAL/MOL
REMARK 923 INTER-LIGAND FREE ENERGY PREDICTED BY IDOCK:   -9.25 KCAL/MOL
REMARK 924 INTRA-LIGAND FREE ENERGY PREDICTED BY IDOCK:   -1.38 KCAL/MOL
REMARK 927      BINDING AFFINITY PREDICTED BY RF-SCORE:    0.00 PKD
ROOT
HETATM    1  C   UNL     1      -9.475   6.937  74.511  1.00  0.00    -0.188 C  
HETATM    2  O   UNL     1      -9.001   7.917  73.594  1.00  0.00    -0.249 OA 
ENDROOT
BRANCH   2   3
HETATM    3  C   UNL     1      -8.095   7.506  72.652  1.00  0.00    -0.111 A  
HETATM    4  C   UNL     1      -7.029   6.651  72.970  1.00  0.00    -0.076 A  
HETATM    5  C   UNL     1      -6.100   6.281  72.002  1.00  0.00    -0.041 A  
HETATM    6  C   UNL     1      -6.222   6.774  70.709  1.00  0.00    -0.035 A  
HETATM    7  C   UNL     1      -7.278   7.639  70.377  1.00  0.00    -0.063 A  
HETATM    8  C   UNL     1      -8.218   8.010  71.338  1.00  0.00    -0.127 A  
HETATM    9  C   UNL     1      -9.331   8.903  70.928  1.00  0.00    -0.238 C  
HETATM   10  O   UNL     1     -10.181   9.299  71.722  1.00  0.00    -0.311 OA 
HETATM   11  C   UNL     1      -9.454   9.358  69.522  1.00  0.00    -0.187 A  
HETATM   12  C   UNL     1     -10.549  10.159  69.130  1.00  0.00    -0.224 A  
HETATM   13  O   UNL     1     -11.543  10.503  70.017  1.00  0.00    -0.265 OA 
HETATM   14  C   UNL     1     -10.662  10.681  67.825  1.00  0.00    -0.302 A  
HETATM   15  H   UNL     1     -12.279  11.042  69.753  1.00  0.00     0.000 HD 
HETATM   16  C   UNL     1      -9.635  10.408  66.899  1.00  0.00    -0.207 A  
HETATM   17  C   UNL     1      -8.577   9.552  67.278  1.00  0.00    -0.128 A  
HETATM   18  C   UNL     1      -9.659  11.019  65.509  1.00  0.00    -0.263 C  
HETATM   19  C   UNL     1     -10.618  12.209  65.324  1.00  0.00    -0.281 C  
HETATM   20  C   UNL     1      -8.477   9.029  68.586  1.00  0.00    -0.128 A  
HETATM   21  O   UNL     1      -7.596   9.243  66.376  1.00  0.00    -0.092 OA 
HETATM   22  C   UNL     1     -11.768  11.682  67.511  1.00  0.00    -0.214 C  
HETATM   23  C   UNL     1      -7.359   8.136  68.988  1.00  0.00    -0.083 C  
HETATM   24  C   UNL     1     -11.952  11.903  66.010  1.00  0.00     0.038 C  
HETATM   25  O   UNL     1     -10.018  13.398  65.839  1.00  0.00    -0.289 OA 
HETATM   26  H   UNL     1      -6.885   8.667  66.631  1.00  0.00     0.000 HD 
HETATM   27  O   UNL     1      -6.493   7.768  68.204  1.00  0.00    -0.051 OA 
HETATM   28  H   UNL     1     -10.610  14.133  65.725  1.00  0.00     0.000 HD 
BRANCH  19  29
HETATM   29  C   UNL     1     -10.820  12.475  63.819  1.00  0.00    -0.446 C  
HETATM   30  O   UNL     1      -9.940  12.256  62.981  1.00  0.00    -0.320 OA 
BRANCH  29  31
HETATM   31  C   UNL     1     -12.160  13.062  63.380  1.00  0.00    -0.515 C  
HETATM   32  O   UNL     1     -12.190  14.469  63.588  1.00  0.00    -0.993 OA 
HETATM   33  H   UNL     1     -13.023  14.834  63.315  1.00  0.00     0.000 HD 
ENDBRANCH  29  31
ENDBRANCH  19  29
BRANCH  22  34
HETATM   34  O   UNL     1     -11.274  12.842  68.156  1.00  0.00    -0.239 OA 
BRANCH  34  35
HETATM   35  C   UNL     1     -12.086  13.963  68.434  1.00  0.00    -0.291 C  
HETATM   36  C   UNL     1     -12.416  14.292  69.893  1.00  0.00    -0.315 C  
HETATM   37  C   UNL     1     -11.197  14.771  70.696  1.00  0.00    -0.131 C  
HETATM   38  C   UNL     1     -10.346  15.792  69.907  1.00  0.00    -0.309 C  
HETATM   39  N   UNL     1     -11.633  15.350  71.987  1.00  0.00    -0.438 NA 
HETATM   40  C   UNL     1     -10.129  15.286  68.475  1.00  0.00    -0.222 C  
HETATM   41  H2  UNL     1     -12.210  14.701  72.521  1.00  0.00     0.000 HD 
HETATM   42  O   UNL     1     -11.007  17.066  69.900  1.00  0.00    -0.382 OA 
HETATM   43  H1  UNL     1     -10.824  15.668  72.520  1.00  0.00     0.000 HD 
HETATM   44  C   UNL     1      -9.320  16.235  67.609  1.00  0.00    -0.218 C  
HETATM   45  H   UNL     1     -10.484  17.694  69.415  1.00  0.00     0.000 HD 
HETATM   46  O   UNL     1     -11.401  15.067  67.836  1.00  0.00    -0.310 OA 
ENDBRANCH  34  35
ENDBRANCH  22  34
ENDBRANCH   2   3
TORSDOF 5
ENDMDL
MODEL       17
REMARK 921   NORMALIZED FREE ENERGY PREDICTED BY IDOCK:   -7.20 KCAL/MOL
REMARK 922        TOTAL FREE ENERGY PREDICTED BY IDOCK:  -10.59 KCAL/MOL
REMARK 923 INTER-LIGAND FREE ENERGY PREDICTED BY IDOCK:   -9.45 KCAL/MOL
REMARK 924 INTRA-LIGAND FREE ENERGY PREDICTED BY IDOCK:   -1.14 KCAL/MOL
REMARK 927      BINDING AFFINITY PREDICTED BY RF-SCORE:    0.00 PKD
ROOT
HETATM    1  C   UNL     1     -10.048  17.329  68.568  1.00  0.00    -0.341 C  
HETATM    2  O   UNL     1     -10.419  15.982  68.297  1.00  0.00    -0.251 OA 
ENDROOT
BRANCH   2   3
HETATM    3  C   UNL     1     -10.605  15.637  66.984  1.00  0.00    -0.311 A  
HETATM    4  C   UNL     1     -11.014  16.571  66.020  1.00  0.00     0.057 A  
HETATM    5  C   UNL     1     -11.233  16.184  64.702  1.00  0.00    -0.307 A  
HETATM    6  C   UNL     1     -11.058  14.855  64.338  1.00  0.00    -0.123 A  
HETATM    7  C   UNL     1     -10.658  13.905  65.293  1.00  0.00    -0.372 A  
HETATM    8  C   UNL     1     -10.429  14.284  66.615  1.00  0.00    -0.278 A  
HETATM    9  C   UNL     1      -9.980  13.248  67.579  1.00  0.00    -0.223 C  
HETATM   10  O   UNL     1      -9.787  13.496  68.766  1.00  0.00    -0.165 OA 
HETATM   11  C   UNL     1      -9.750  11.853  67.132  1.00  0.00    -0.194 A  
HETATM   12  C   UNL     1      -9.267  10.887  68.043  1.00  0.00    -0.156 A  
HETATM   13  O   UNL     1      -8.959  11.216  69.344  1.00  0.00    -0.390 OA 
HETATM   14  C   UNL     1      -9.112   9.533  67.683  1.00  0.00    -0.131 A  
HETATM   15  H   UNL     1      -8.635  10.567  69.956  1.00  0.00     0.000 HD 
HETATM   16  C   UNL     1      -9.474   9.137  66.379  1.00  0.00    -0.288 A  
HETATM   17  C   UNL     1      -9.894  10.119  65.454  1.00  0.00    -0.307 A  
HETATM   18  C   UNL     1      -9.415   7.677  65.966  1.00  0.00    -0.033 C  
HETATM   19  C   UNL     1      -9.319   6.664  67.121  1.00  0.00    -0.134 C  
HETATM   20  C   UNL     1     -10.039  11.473  65.824  1.00  0.00    -0.278 A  
HETATM   21  O   UNL     1     -10.207   9.755  64.173  1.00  0.00    -0.320 OA 
HETATM   22  C   UNL     1      -8.758   8.508  68.755  1.00  0.00    -0.139 C  
HETATM   23  C   UNL     1     -10.489  12.505  64.853  1.00  0.00    -0.303 C  
HETATM   24  C   UNL     1      -8.319   7.168  68.164  1.00  0.00    -0.124 C  
HETATM   25  O   UNL     1     -10.614   6.453  67.688  1.00  0.00    -0.203 OA 
HETATM   26  H   UNL     1     -10.488  10.415  63.551  1.00  0.00     0.000 HD 
HETATM   27  O   UNL     1     -10.714  12.251  63.676  1.00  0.00    -0.403 OA 
HETATM   28  H   UNL     1     -10.555   5.827  68.401  1.00  0.00     0.000 HD 
BRANCH  19  29
HETATM   29  C   UNL     1      -8.891   5.291  66.566  1.00  0.00    -0.116 C  
HETATM   30  O   UNL     1      -8.326   5.163  65.475  1.00  0.00    -0.116 OA 
BRANCH  29  31
HETATM   31  C   UNL     1      -9.218   4.057  67.404  1.00  0.00    -0.165 C  
HETATM   32  O   UNL     1      -9.903   3.083  66.627  1.00  0.00    -0.395 OA 
HETATM   33  H   UNL     1     -10.106   2.316  67.148  1.00  0.00     0.000 HD 
ENDBRANCH  29  31
ENDBRANCH  19  29
BRANCH  22  34
HETATM   34  O   UNL     1      -9.991   8.399  69.442  1.00  0.00    -0.182 OA 
BRANCH  34  35
HETATM   35  C   UNL     1     -10.091   8.496  70.848  1.00  0.00    -0.201 C  
HETATM   36  C   UNL     1     -11.414   8.962  71.463  1.00  0.00    -0.391 C  
HETATM   37  C   UNL     1     -12.553   7.947  71.289  1.00  0.00    -0.245 C  
HETATM   38  C   UNL     1     -12.095   6.501  71.587  1.00  0.00    -0.328 C  
HETATM   39  N   UNL     1     -13.699   8.314  72.153  1.00  0.00    -0.513 NA 
HETATM   40  C   UNL     1     -10.757   6.229  70.888  1.00  0.00    -0.259 C  
HETATM   41  H2  UNL     1     -14.012   9.270  71.986  1.00  0.00     0.000 HD 
HETATM   42  O   UNL     1     -11.973   6.317  73.004  1.00  0.00    -0.422 OA 
HETATM   43  H1  UNL     1     -14.456   7.640  72.036  1.00  0.00     0.000 HD 
HETATM   44  C   UNL     1     -10.209   4.836  71.140  1.00  0.00    -0.229 C  
HETATM   45  H   UNL     1     -11.692   5.429  73.188  1.00  0.00     0.000 HD 
HETATM   46  O   UNL     1      -9.774   7.186  71.326  1.00  0.00    -0.170 OA 
ENDBRANCH  34  35
ENDBRANCH  22  34
ENDBRANCH   2   3
TORSDOF 5
ENDMDL
MODEL       18
REMARK 921   NORMALIZED FREE ENERGY PREDICTED BY IDOCK:   -7.17 KCAL/MOL
REMARK 922        TOTAL FREE ENERGY PREDICTED BY IDOCK:  -10.55 KCAL/MOL
REMARK 923 INTER-LIGAND FREE ENERGY PREDICTED BY IDOCK:   -9.37 KCAL/MOL
REMARK 924 INTRA-LIGAND FREE ENERGY PREDICTED BY IDOCK:   -1.18 KCAL/MOL
REMARK 927      BINDING AFFINITY PREDICTED BY RF-SCORE:    0.00 PKD
ROOT
HETATM    1  C   UNL     1      -7.389   4.583  70.767  1.00  0.00    -0.052 C  
HETATM    2  O   UNL     1      -8.554   5.091  70.128  1.00  0.00    -0.096 OA 
ENDROOT
BRANCH   2   3
HETATM    3  C   UNL     1      -9.632   5.375  70.925  1.00  0.00    -0.173 A  
HETATM    4  C   UNL     1     -10.241   4.398  71.727  1.00  0.00    -0.201 A  
HETATM    5  C   UNL     1     -11.359   4.706  72.497  1.00  0.00     0.064 A  
HETATM    6  C   UNL     1     -11.886   5.990  72.461  1.00  0.00    -0.236 A  
HETATM    7  C   UNL     1     -11.294   6.977  71.656  1.00  0.00    -0.288 A  
HETATM    8  C   UNL     1     -10.169   6.682  70.887  1.00  0.00    -0.219 A  
HETATM    9  C   UNL     1      -9.564   7.768  70.075  1.00  0.00    -0.161 C  
HETATM   10  O   UNL     1      -8.592   7.580  69.349  1.00  0.00    -0.132 OA 
HETATM   11  C   UNL     1     -10.126   9.140  70.114  1.00  0.00    -0.233 A  
HETATM   12  C   UNL     1      -9.508  10.180  69.384  1.00  0.00    -0.224 A  
HETATM   13  O   UNL     1      -8.358   9.965  68.660  1.00  0.00    -0.104 OA 
HETATM   14  C   UNL     1     -10.055  11.478  69.327  1.00  0.00     0.100 A  
HETATM   15  H   UNL     1      -7.943  10.664  68.169  1.00  0.00     0.000 HD 
HETATM   16  C   UNL     1     -11.266  11.729  70.002  1.00  0.00    -0.004 A  
HETATM   17  C   UNL     1     -11.844  10.703  70.783  1.00  0.00    -0.357 A  
HETATM   18  C   UNL     1     -11.947  13.082  69.899  1.00  0.00    -0.381 C  
HETATM   19  C   UNL     1     -11.461  13.984  68.750  1.00  0.00    -0.292 C  
HETATM   20  C   UNL     1     -11.284   9.408  70.839  1.00  0.00    -0.393 A  
HETATM   21  O   UNL     1     -12.996  10.946  71.480  1.00  0.00    -0.412 OA 
HETATM   22  C   UNL     1      -9.444  12.507  68.383  1.00  0.00    -0.167 C  
HETATM   23  C   UNL     1     -11.896   8.326  71.653  1.00  0.00    -0.299 C  
HETATM   24  C   UNL     1      -9.934  13.927  68.666  1.00  0.00    -0.189 C  
HETATM   25  O   UNL     1     -12.074  13.580  67.525  1.00  0.00    -0.357 OA 
HETATM   26  H   UNL     1     -13.384  10.256  72.005  1.00  0.00     0.000 HD 
HETATM   27  O   UNL     1     -12.885   8.505  72.353  1.00  0.00    -0.359 OA 
HETATM   28  H   UNL     1     -11.774  14.137  66.816  1.00  0.00     0.000 HD 
BRANCH  19  29
HETATM   29  C   UNL     1     -11.946  15.427  68.990  1.00  0.00    -0.288 C  
HETATM   30  O   UNL     1     -11.717  16.346  68.196  1.00  0.00    -0.136 OA 
BRANCH  29  31
HETATM   31  C   UNL     1     -12.711  15.710  70.281  1.00  0.00    -0.206 C  
HETATM   32  O   UNL     1     -11.875  16.353  71.235  1.00  0.00    -0.632 OA 
HETATM   33  H   UNL     1     -12.351  16.529  72.038  1.00  0.00     0.000 HD 
ENDBRANCH  29  31
ENDBRANCH  19  29
BRANCH  22  34
HETATM   34  O   UNL     1      -9.905  12.033  67.131  1.00  0.00    -0.194 OA 
BRANCH  34  35
HETATM   35  C   UNL     1      -9.167  12.193  65.937  1.00  0.00    -0.067 C  
HETATM   36  C   UNL     1      -8.769  10.945  65.143  1.00  0.00    -0.130 C  
HETATM   37  C   UNL     1      -9.966  10.230  64.500  1.00  0.00    -0.289 C  
HETATM   38  C   UNL     1     -10.945  11.221  63.831  1.00  0.00    -0.305 C  
HETATM   39  N   UNL     1      -9.492   9.229  63.516  1.00  0.00    -0.340 NA 
HETATM   40  C   UNL     1     -11.216  12.398  64.778  1.00  0.00    -0.310 C  
HETATM   41  H2  UNL     1      -8.832   8.571  63.929  1.00  0.00     0.000 HD 
HETATM   42  O   UNL     1     -10.389  11.685  62.592  1.00  0.00    -0.574 OA 
HETATM   43  H1  UNL     1     -10.287   8.753  63.089  1.00  0.00     0.000 HD 
HETATM   44  C   UNL     1     -12.153  13.443  64.200  1.00  0.00    -0.491 C  
HETATM   45  H   UNL     1     -10.991  12.294  62.181  1.00  0.00     0.000 HD 
HETATM   46  O   UNL     1      -9.976  13.044  65.120  1.00  0.00    -0.244 OA 
ENDBRANCH  34  35
ENDBRANCH  22  34
ENDBRANCH   2   3
TORSDOF 5
ENDMDL
MODEL       19
REMARK 921   NORMALIZED FREE ENERGY PREDICTED BY IDOCK:   -7.13 KCAL/MOL
REMARK 922        TOTAL FREE ENERGY PREDICTED BY IDOCK:  -10.50 KCAL/MOL
REMARK 923 INTER-LIGAND FREE ENERGY PREDICTED BY IDOCK:   -9.05 KCAL/MOL
REMARK 924 INTRA-LIGAND FREE ENERGY PREDICTED BY IDOCK:   -1.45 KCAL/MOL
REMARK 927      BINDING AFFINITY PREDICTED BY RF-SCORE:    0.00 PKD
ROOT
HETATM    1  C   UNL     1      -8.344   2.230  66.810  1.00  0.00    -0.091 C  
HETATM    2  O   UNL     1      -9.143   3.135  66.056  1.00  0.00    -0.142 OA 
ENDROOT
BRANCH   2   3
HETATM    3  C   UNL     1      -8.498   3.931  65.146  1.00  0.00    -0.112 A  
HETATM    4  C   UNL     1      -7.685   3.397  64.135  1.00  0.00    -0.077 A  
HETATM    5  C   UNL     1      -7.010   4.231  63.249  1.00  0.00    -0.044 A  
HETATM    6  C   UNL     1      -7.133   5.609  63.375  1.00  0.00    -0.046 A  
HETATM    7  C   UNL     1      -7.936   6.160  64.387  1.00  0.00    -0.121 A  
HETATM    8  C   UNL     1      -8.622   5.333  65.275  1.00  0.00    -0.150 A  
HETATM    9  C   UNL     1      -9.480   5.965  66.309  1.00  0.00    -0.139 C  
HETATM   10  O   UNL     1     -10.091   5.306  67.146  1.00  0.00    -0.166 OA 
HETATM   11  C   UNL     1      -9.626   7.439  66.368  1.00  0.00    -0.181 A  
HETATM   12  C   UNL     1     -10.491   8.028  67.317  1.00  0.00    -0.314 A  
HETATM   13  O   UNL     1     -11.245   7.262  68.176  1.00  0.00    -0.469 OA 
HETATM   14  C   UNL     1     -10.598   9.427  67.462  1.00  0.00    -0.333 A  
HETATM   15  H   UNL     1     -11.826   7.658  68.814  1.00  0.00     0.000 HD 
HETATM   16  C   UNL     1      -9.798  10.252  66.646  1.00  0.00    -0.256 A  
HETATM   17  C   UNL     1      -8.985   9.658  65.655  1.00  0.00    -0.169 A  
HETATM   18  C   UNL     1      -9.805  11.760  66.823  1.00  0.00    -0.218 C  
HETATM   19  C   UNL     1     -10.408  12.270  68.143  1.00  0.00    -0.216 C  
HETATM   20  C   UNL     1      -8.891   8.257  65.514  1.00  0.00    -0.152 A  
HETATM   21  O   UNL     1      -8.237  10.449  64.827  1.00  0.00    -0.163 OA 
HETATM   22  C   UNL     1     -11.409  10.000  68.619  1.00  0.00    -0.055 C  
HETATM   23  C   UNL     1      -8.029   7.632  64.477  1.00  0.00    -0.130 C  
HETATM   24  C   UNL     1     -11.690  11.494  68.456  1.00  0.00    -0.379 C  
HETATM   25  O   UNL     1      -9.447  12.151  69.193  1.00  0.00    -0.352 OA 
HETATM   26  H   UNL     1      -7.691  10.050  64.160  1.00  0.00     0.000 HD 
HETATM   27  O   UNL     1      -7.393   8.289  63.662  1.00  0.00    -0.097 OA 
HETATM   28  H   UNL     1      -9.820  12.466  70.008  1.00  0.00     0.000 HD 
BRANCH  19  29
HETATM   29  C   UNL     1     -10.695  13.781  68.027  1.00  0.00    -0.250 C  
HETATM   30  O   UNL     1     -11.810  14.225  67.736  1.00  0.00    -0.359 OA 
BRANCH  29  31
HETATM   31  C   UNL     1      -9.529  14.741  68.255  1.00  0.00    -0.207 C  
HETATM   32  O   UNL     1      -9.378  15.036  69.638  1.00  0.00    -0.422 OA 
HETATM   33  H   UNL     1      -8.653  15.633  69.779  1.00  0.00     0.000 HD 
ENDBRANCH  29  31
ENDBRANCH  19  29
BRANCH  22  34
HETATM   34  O   UNL     1     -10.542   9.745  69.709  1.00  0.00    -0.222 OA 
BRANCH  34  35
HETATM   35  C   UNL     1     -10.960   9.847  71.055  1.00  0.00    -0.290 C  
HETATM   36  C   UNL     1     -12.345   9.318  71.439  1.00  0.00    -0.421 C  
HETATM   37  C   UNL     1     -12.455   7.789  71.350  1.00  0.00    -0.320 C  
HETATM   38  C   UNL     1     -11.224   7.080  71.960  1.00  0.00    -0.253 C  
HETATM   39  N   UNL     1     -13.697   7.328  72.013  1.00  0.00    -0.555 NA 
HETATM   40  C   UNL     1      -9.940   7.754  71.459  1.00  0.00    -0.171 C  
HETATM   41  H2  UNL     1     -14.524   7.792  71.638  1.00  0.00     0.000 HD 
HETATM   42  O   UNL     1     -11.299   7.134  73.392  1.00  0.00    -0.560 OA 
HETATM   43  H1  UNL     1     -13.771   6.313  71.953  1.00  0.00     0.000 HD 
HETATM   44  C   UNL     1      -8.670   7.142  72.023  1.00  0.00    -0.130 C  
HETATM   45  H   UNL     1     -10.543   6.698  73.767  1.00  0.00     0.000 HD 
HETATM   46  O   UNL     1      -9.957   9.153  71.801  1.00  0.00    -0.320 OA 
ENDBRANCH  34  35
ENDBRANCH  22  34
ENDBRANCH   2   3
TORSDOF 5
ENDMDL
MODEL       20
REMARK 921   NORMALIZED FREE ENERGY PREDICTED BY IDOCK:   -7.09 KCAL/MOL
REMARK 922        TOTAL FREE ENERGY PREDICTED BY IDOCK:  -10.45 KCAL/MOL
REMARK 923 INTER-LIGAND FREE ENERGY PREDICTED BY IDOCK:   -9.19 KCAL/MOL
REMARK 924 INTRA-LIGAND FREE ENERGY PREDICTED BY IDOCK:   -1.26 KCAL/MOL
REMARK 927      BINDING AFFINITY PREDICTED BY RF-SCORE:    0.00 PKD
ROOT
HETATM    1  C   UNL     1      -7.131   3.989  66.104  1.00  0.00    -0.067 C  
HETATM    2  O   UNL     1      -7.106   4.869  67.223  1.00  0.00    -0.063 OA 
ENDROOT
BRANCH   2   3
HETATM    3  C   UNL     1      -8.024   4.645  68.215  1.00  0.00    -0.084 A  
HETATM    4  C   UNL     1      -8.276   3.360  68.719  1.00  0.00    -0.075 A  
HETATM    5  C   UNL     1      -9.243   3.157  69.700  1.00  0.00    -0.221 A  
HETATM    6  C   UNL     1      -9.975   4.237  70.176  1.00  0.00    -0.206 A  
HETATM    7  C   UNL     1      -9.741   5.529  69.676  1.00  0.00    -0.230 A  
HETATM    8  C   UNL     1      -8.770   5.744  68.699  1.00  0.00    -0.108 A  
HETATM    9  C   UNL     1      -8.543   7.132  68.224  1.00  0.00    -0.122 C  
HETATM   10  O   UNL     1      -7.728   7.399  67.344  1.00  0.00    -0.109 OA 
HETATM   11  C   UNL     1      -9.308   8.262  68.804  1.00  0.00    -0.143 A  
HETATM   12  C   UNL     1      -9.042   9.585  68.388  1.00  0.00    -0.127 A  
HETATM   13  O   UNL     1      -8.051   9.867  67.476  1.00  0.00    -0.109 OA 
HETATM   14  C   UNL     1      -9.801  10.680  68.852  1.00  0.00    -0.210 A  
HETATM   15  H   UNL     1      -7.873  10.757  67.196  1.00  0.00     0.000 HD 
HETATM   16  C   UNL     1     -10.867  10.432  69.740  1.00  0.00    -0.342 A  
HETATM   17  C   UNL     1     -11.085   9.115  70.203  1.00  0.00    -0.222 A  
HETATM   18  C   UNL     1     -11.774  11.560  70.199  1.00  0.00    -0.395 C  
HETATM   19  C   UNL     1     -11.700  12.852  69.366  1.00  0.00    -0.321 C  
HETATM   20  C   UNL     1     -10.315   8.027  69.736  1.00  0.00    -0.219 A  
HETATM   21  O   UNL     1     -12.089   8.867  71.098  1.00  0.00    -0.291 OA 
HETATM   22  C   UNL     1      -9.585  12.056  68.234  1.00  0.00    -0.204 C  
HETATM   23  C   UNL     1     -10.550   6.640  70.216  1.00  0.00    -0.222 C  
HETATM   24  C   UNL     1     -10.238  13.174  69.048  1.00  0.00     0.086 C  
HETATM   25  O   UNL     1     -12.480  12.706  68.178  1.00  0.00     0.006 OA 
HETATM   26  H   UNL     1     -12.235   7.982  71.410  1.00  0.00     0.000 HD 
HETATM   27  O   UNL     1     -11.386   6.369  71.069  1.00  0.00    -0.298 OA 
HETATM   28  H   UNL     1     -12.434  13.504  67.663  1.00  0.00     0.000 HD 
BRANCH  19  29
HETATM   29  C   UNL     1     -12.361  14.005  70.146  1.00  0.00    -0.345 C  
HETATM   30  O   UNL     1     -13.155  13.811  71.073  1.00  0.00    -0.286 OA 
BRANCH  29  31
HETATM   31  C   UNL     1     -12.027  15.432  69.716  1.00  0.00    -0.358 C  
HETATM   32  O   UNL     1     -12.395  15.652  68.360  1.00  0.00    -0.434 OA 
HETATM   33  H   UNL     1     -12.188  16.539  68.093  1.00  0.00     0.000 HD 
ENDBRANCH  29  31
ENDBRANCH  19  29
BRANCH  22  34
HETATM   34  O   UNL     1     -10.213  11.889  66.976  1.00  0.00    -0.207 OA 
BRANCH  34  35
HETATM   35  C   UNL     1      -9.773  12.556  65.811  1.00  0.00    -0.187 C  
HETATM   36  C   UNL     1      -9.470  11.730  64.558  1.00  0.00     0.007 C  
HETATM   37  C   UNL     1     -10.724  11.107  63.925  1.00  0.00    -0.337 C  
HETATM   38  C   UNL     1     -11.898  12.109  63.855  1.00  0.00    -0.466 C  
HETATM   39  N   UNL     1     -10.408  10.586  62.575  1.00  0.00    -0.653 NA 
HETATM   40  C   UNL     1     -12.038  12.836  65.199  1.00  0.00    -0.450 C  
HETATM   41  H2  UNL     1      -9.625   9.932  62.592  1.00  0.00     0.000 HD 
HETATM   42  O   UNL     1     -11.668  13.046  62.793  1.00  0.00    -0.692 OA 
HETATM   43  H1  UNL     1     -11.241  10.172  62.156  1.00  0.00     0.000 HD 
HETATM   44  C   UNL     1     -13.155  13.864  65.223  1.00  0.00    -0.205 C  
HETATM   45  H   UNL     1     -12.390  13.663  62.750  1.00  0.00     0.000 HD 
HETATM   46  O   UNL     1     -10.804  13.505  65.524  1.00  0.00    -0.280 OA 
ENDBRANCH  34  35
ENDBRANCH  22  34
ENDBRANCH   2   3
TORSDOF 5
ENDMDL
MODEL       21
REMARK 921   NORMALIZED FREE ENERGY PREDICTED BY IDOCK:   -7.03 KCAL/MOL
REMARK 922        TOTAL FREE ENERGY PREDICTED BY IDOCK:  -10.37 KCAL/MOL
REMARK 923 INTER-LIGAND FREE ENERGY PREDICTED BY IDOCK:   -9.26 KCAL/MOL
REMARK 924 INTRA-LIGAND FREE ENERGY PREDICTED BY IDOCK:   -1.11 KCAL/MOL
REMARK 927      BINDING AFFINITY PREDICTED BY RF-SCORE:    0.00 PKD
ROOT
HETATM    1  C   UNL     1     -11.737  12.741  63.479  1.00  0.00    -0.530 C  
HETATM    2  O   UNL     1     -10.727  12.782  64.481  1.00  0.00    -0.316 OA 
ENDROOT
BRANCH   2   3
HETATM    3  C   UNL     1     -11.098  13.220  65.726  1.00  0.00    -0.279 A  
HETATM    4  C   UNL     1     -11.432  14.560  65.973  1.00  0.00    -0.348 A  
HETATM    5  C   UNL     1     -11.767  14.984  67.256  1.00  0.00    -0.238 A  
HETATM    6  C   UNL     1     -11.757  14.074  68.305  1.00  0.00    -0.392 A  
HETATM    7  C   UNL     1     -11.415  12.731  68.076  1.00  0.00    -0.364 A  
HETATM    8  C   UNL     1     -11.086  12.294  66.793  1.00  0.00    -0.345 A  
HETATM    9  C   UNL     1     -10.760  10.858  66.599  1.00  0.00    -0.230 C  
HETATM   10  O   UNL     1     -10.431  10.402  65.507  1.00  0.00    -0.227 OA 
HETATM   11  C   UNL     1     -10.820   9.911  67.739  1.00  0.00    -0.321 A  
HETATM   12  C   UNL     1     -10.566   8.537  67.532  1.00  0.00    -0.214 A  
HETATM   13  O   UNL     1     -10.301   8.035  66.279  1.00  0.00    -0.461 OA 
HETATM   14  C   UNL     1     -10.532   7.616  68.600  1.00  0.00    -0.203 A  
HETATM   15  H   UNL     1     -10.130   7.112  66.140  1.00  0.00     0.000 HD 
HETATM   16  C   UNL     1     -10.736   8.095  69.909  1.00  0.00    -0.241 A  
HETATM   17  C   UNL     1     -11.055   9.458  70.101  1.00  0.00    -0.242 A  
HETATM   18  C   UNL     1     -10.619   7.165  71.104  1.00  0.00    -0.240 C  
HETATM   19  C   UNL     1      -9.910   5.826  70.834  1.00  0.00    -0.179 C  
HETATM   20  C   UNL     1     -11.093  10.370  69.025  1.00  0.00    -0.297 A  
HETATM   21  O   UNL     1     -11.298   9.928  71.363  1.00  0.00    -0.364 OA 
HETATM   22  C   UNL     1     -10.079   6.184  68.339  1.00  0.00    -0.158 C  
HETATM   23  C   UNL     1     -11.419  11.806  69.227  1.00  0.00    -0.306 C  
HETATM   24  C   UNL     1     -10.397   5.246  69.503  1.00  0.00    -0.333 C  
HETATM   25  O   UNL     1      -8.495   6.017  70.843  1.00  0.00    -0.124 OA 
HETATM   26  H   UNL     1     -11.513  10.844  71.492  1.00  0.00     0.000 HD 
HETATM   27  O   UNL     1     -11.716  12.268  70.322  1.00  0.00    -0.271 OA 
HETATM   28  H   UNL     1      -8.057   5.190  70.677  1.00  0.00     0.000 HD 
BRANCH  19  29
HETATM   29  C   UNL     1     -10.195   4.852  71.995  1.00  0.00    -0.199 C  
HETATM   30  O   UNL     1      -9.850   3.666  71.967  1.00  0.00    -0.158 OA 
BRANCH  29  31
HETATM   31  C   UNL     1     -10.961   5.393  73.200  1.00  0.00    -0.302 C  
HETATM   32  O   UNL     1     -12.339   5.049  73.122  1.00  0.00    -0.397 OA 
HETATM   33  H   UNL     1     -12.815   5.385  73.871  1.00  0.00     0.000 HD 
ENDBRANCH  29  31
ENDBRANCH  19  29
BRANCH  22  34
HETATM   34  O   UNL     1      -8.683   6.367  68.179  1.00  0.00    -0.117 OA 
BRANCH  34  35
HETATM   35  C   UNL     1      -7.868   5.445  67.487  1.00  0.00    -0.100 C  
HETATM   36  C   UNL     1      -8.402   4.811  66.199  1.00  0.00    -0.111 C  
HETATM   37  C   UNL     1      -8.533   5.811  65.041  1.00  0.00    -0.124 C  
HETATM   38  C   UNL     1      -7.298   6.734  64.927  1.00  0.00    -0.087 C  
HETATM   39  N   UNL     1      -8.759   5.090  63.767  1.00  0.00    -0.253 NA 
HETATM   40  C   UNL     1      -6.920   7.264  66.316  1.00  0.00    -0.066 C  
HETATM   41  H2  UNL     1      -9.560   4.462  63.821  1.00  0.00     0.000 HD 
HETATM   42  O   UNL     1      -6.206   6.006  64.347  1.00  0.00    -0.028 OA 
HETATM   43  H1  UNL     1      -8.846   5.755  62.999  1.00  0.00     0.000 HD 
HETATM   44  C   UNL     1      -5.698   8.166  66.312  1.00  0.00    -0.040 C  
HETATM   45  H   UNL     1      -5.447   6.573  64.276  1.00  0.00     0.000 HD 
HETATM   46  O   UNL     1      -6.663   6.162  67.207  1.00  0.00    -0.057 OA 
ENDBRANCH  34  35
ENDBRANCH  22  34
ENDBRANCH   2   3
TORSDOF 5
ENDMDL
MODEL       22
REMARK 921   NORMALIZED FREE ENERGY PREDICTED BY IDOCK:   -7.02 KCAL/MOL
REMARK 922        TOTAL FREE ENERGY PREDICTED BY IDOCK:  -10.36 KCAL/MOL
REMARK 923 INTER-LIGAND FREE ENERGY PREDICTED BY IDOCK:   -9.95 KCAL/MOL
REMARK 924 INTRA-LIGAND FREE ENERGY PREDICTED BY IDOCK:   -0.41 KCAL/MOL
REMARK 927      BINDING AFFINITY PREDICTED BY RF-SCORE:    0.00 PKD
ROOT
HETATM    1  C   UNL     1     -10.121  20.070  65.827  1.00  0.00    -0.321 C  
HETATM    2  O   UNL     1      -9.788  20.307  67.191  1.00  0.00    -0.417 OA 
ENDROOT
BRANCH   2   3
HETATM    3  C   UNL     1      -8.496  20.059  67.572  1.00  0.00    -0.339 A  
HETATM    4  C   UNL     1      -7.529  21.074  67.625  1.00  0.00    -0.171 A  
HETATM    5  C   UNL     1      -6.213  20.787  67.977  1.00  0.00    -0.373 A  
HETATM    6  C   UNL     1      -5.851  19.478  68.268  1.00  0.00    -0.237 A  
HETATM    7  C   UNL     1      -6.804  18.449  68.210  1.00  0.00    -0.245 A  
HETATM    8  C   UNL     1      -8.127  18.727  67.865  1.00  0.00    -0.284 A  
HETATM    9  C   UNL     1      -9.102  17.608  67.847  1.00  0.00    -0.260 C  
HETATM   10  O   UNL     1     -10.276  17.766  67.525  1.00  0.00    -0.325 OA 
HETATM   11  C   UNL     1      -8.681  16.236  68.222  1.00  0.00    -0.190 A  
HETATM   12  C   UNL     1      -9.629  15.189  68.259  1.00  0.00    -0.211 A  
HETATM   13  O   UNL     1     -10.961  15.415  67.993  1.00  0.00    -0.285 OA 
HETATM   14  C   UNL     1      -9.259  13.856  68.529  1.00  0.00    -0.154 A  
HETATM   15  H   UNL     1     -11.598  14.712  68.018  1.00  0.00     0.000 HD 
HETATM   16  C   UNL     1      -7.897  13.566  68.746  1.00  0.00    -0.029 A  
HETATM   17  C   UNL     1      -6.964  14.627  68.773  1.00  0.00    -0.102 A  
HETATM   18  C   UNL     1      -7.430  12.136  68.950  1.00  0.00    -0.027 C  
HETATM   19  C   UNL     1      -8.431  11.045  68.532  1.00  0.00    -0.153 C  
HETATM   20  C   UNL     1      -7.347  15.959  68.507  1.00  0.00    -0.127 A  
HETATM   21  O   UNL     1      -5.645  14.366  69.025  1.00  0.00    -0.083 OA 
HETATM   22  C   UNL     1     -10.293  12.746  68.380  1.00  0.00    -0.243 C  
HETATM   23  C   UNL     1      -6.364  17.074  68.526  1.00  0.00    -0.154 C  
HETATM   24  C   UNL     1      -9.835  11.429  69.005  1.00  0.00    -0.056 C  
HETATM   25  O   UNL     1      -8.382  10.860  67.116  1.00  0.00    -0.121 OA 
HETATM   26  H   UNL     1      -5.018  15.078  69.044  1.00  0.00     0.000 HD 
HETATM   27  O   UNL     1      -5.185  16.911  68.816  1.00  0.00    -0.119 OA 
HETATM   28  H   UNL     1      -9.001  10.186  66.858  1.00  0.00     0.000 HD 
BRANCH  19  29
HETATM   29  C   UNL     1      -7.998   9.693  69.132  1.00  0.00    -0.099 C  
HETATM   30  O   UNL     1      -7.129   9.601  70.006  1.00  0.00    -0.073 OA 
BRANCH  29  31
HETATM   31  C   UNL     1      -8.663   8.431  68.585  1.00  0.00    -0.133 C  
HETATM   32  O   UNL     1      -8.534   7.352  69.502  1.00  0.00    -0.131 OA 
HETATM   33  H   UNL     1      -8.948   6.568  69.162  1.00  0.00     0.000 HD 
ENDBRANCH  29  31
ENDBRANCH  19  29
BRANCH  22  34
HETATM   34  O   UNL     1     -10.387  12.652  66.970  1.00  0.00    -0.230 OA 
BRANCH  34  35
HETATM   35  C   UNL     1     -11.523  12.125  66.316  1.00  0.00    -0.374 C  
HETATM   36  C   UNL     1     -12.286  13.015  65.330  1.00  0.00    -0.520 C  
HETATM   37  C   UNL     1     -11.490  13.323  64.053  1.00  0.00    -0.388 C  
HETATM   38  C   UNL     1     -10.788  12.067  63.488  1.00  0.00    -0.444 C  
HETATM   39  N   UNL     1     -12.380  13.921  63.030  1.00  0.00    -1.023 NA 
HETATM   40  C   UNL     1     -10.087  11.312  64.625  1.00  0.00    -0.290 C  
HETATM   41  H2  UNL     1     -12.867  14.744  63.383  1.00  0.00     0.000 HD 
HETATM   42  O   UNL     1     -11.754  11.226  62.840  1.00  0.00    -0.842 OA 
HETATM   43  H1  UNL     1     -11.852  14.126  62.182  1.00  0.00     0.000 HD 
HETATM   44  C   UNL     1      -9.384  10.045  64.173  1.00  0.00    -0.335 C  
HETATM   45  H   UNL     1     -11.322  10.454  62.493  1.00  0.00     0.000 HD 
HETATM   46  O   UNL     1     -11.045  10.959  65.640  1.00  0.00    -0.044 OA 
ENDBRANCH  34  35
ENDBRANCH  22  34
ENDBRANCH   2   3
TORSDOF 5
ENDMDL
MODEL       23
REMARK 921   NORMALIZED FREE ENERGY PREDICTED BY IDOCK:   -7.00 KCAL/MOL
REMARK 922        TOTAL FREE ENERGY PREDICTED BY IDOCK:  -10.32 KCAL/MOL
REMARK 923 INTER-LIGAND FREE ENERGY PREDICTED BY IDOCK:   -9.67 KCAL/MOL
REMARK 924 INTRA-LIGAND FREE ENERGY PREDICTED BY IDOCK:   -0.65 KCAL/MOL
REMARK 927      BINDING AFFINITY PREDICTED BY RF-SCORE:    0.00 PKD
ROOT
HETATM    1  C   UNL     1      -6.772   6.890  64.202  1.00  0.00    -0.045 C  
HETATM    2  O   UNL     1      -7.946   7.476  64.753  1.00  0.00    -0.127 OA 
ENDROOT
BRANCH   2   3
HETATM    3  C   UNL     1      -8.540   6.822  65.801  1.00  0.00    -0.137 A  
HETATM    4  C   UNL     1      -8.553   5.422  65.892  1.00  0.00    -0.131 A  
HETATM    5  C   UNL     1      -9.198   4.784  66.947  1.00  0.00    -0.130 A  
HETATM    6  C   UNL     1      -9.846   5.541  67.915  1.00  0.00    -0.169 A  
HETATM    7  C   UNL     1      -9.850   6.943  67.833  1.00  0.00    -0.155 A  
HETATM    8  C   UNL     1      -9.201   7.593  66.784  1.00  0.00    -0.197 A  
HETATM    9  C   UNL     1      -9.210   9.077  66.759  1.00  0.00    -0.157 C  
HETATM   10  O   UNL     1      -8.688   9.722  65.854  1.00  0.00    -0.133 OA 
HETATM   11  C   UNL     1      -9.866   9.844  67.846  1.00  0.00    -0.170 A  
HETATM   12  C   UNL     1      -9.818  11.256  67.845  1.00  0.00    -0.176 A  
HETATM   13  O   UNL     1      -9.136  11.952  66.872  1.00  0.00    -0.184 OA 
HETATM   14  C   UNL     1     -10.496  12.026  68.812  1.00  0.00    -0.207 A  
HETATM   15  H   UNL     1      -9.104  12.901  66.872  1.00  0.00     0.000 HD 
HETATM   16  C   UNL     1     -11.259  11.359  69.791  1.00  0.00    -0.266 A  
HETATM   17  C   UNL     1     -11.249   9.947  69.826  1.00  0.00    -0.235 A  
HETATM   18  C   UNL     1     -12.083  12.140  70.799  1.00  0.00    -0.279 C  
HETATM   19  C   UNL     1     -12.331  13.618  70.451  1.00  0.00    -0.345 C  
HETATM   20  C   UNL     1     -10.561   9.185  68.856  1.00  0.00    -0.214 A  
HETATM   21  O   UNL     1     -11.950   9.286  70.797  1.00  0.00    -0.353 OA 
HETATM   22  C   UNL     1     -10.555  13.542  68.656  1.00  0.00    -0.244 C  
HETATM   23  C   UNL     1     -10.557   7.699  68.887  1.00  0.00    -0.159 C  
HETATM   24  C   UNL     1     -11.038  14.245  69.924  1.00  0.00    -0.125 C  
HETATM   25  O   UNL     1     -13.394  13.720  69.502  1.00  0.00     0.620 OA 
HETATM   26  H   UNL     1     -11.942   8.336  70.821  1.00  0.00     0.000 HD 
HETATM   27  O   UNL     1     -11.106   7.056  69.773  1.00  0.00    -0.260 OA 
HETATM   28  H   UNL     1     -13.547  14.633  69.288  1.00  0.00     0.000 HD 
BRANCH  19  29
HETATM   29  C   UNL     1     -12.833  14.363  71.704  1.00  0.00    -0.343 C  
HETATM   30  O   UNL     1     -13.989  14.251  72.125  1.00  0.00    -0.441 OA 
BRANCH  29  31
HETATM   31  C   UNL     1     -11.851  15.292  72.414  1.00  0.00    -0.434 C  
HETATM   32  O   UNL     1     -12.122  16.653  72.100  1.00  0.00    -0.580 OA 
HETATM   33  H   UNL     1     -11.511  17.230  72.542  1.00  0.00     0.000 HD 
ENDBRANCH  29  31
ENDBRANCH  19  29
BRANCH  22  34
HETATM   34  O   UNL     1     -11.489  13.668  67.599  1.00  0.00    -0.291 OA 
BRANCH  34  35
HETATM   35  C   UNL     1     -11.974  14.919  67.156  1.00  0.00    -0.114 C  
HETATM   36  C   UNL     1     -11.000  16.097  67.064  1.00  0.00    -0.123 C  
HETATM   37  C   UNL     1      -9.950  15.929  65.955  1.00  0.00    -0.334 C  
HETATM   38  C   UNL     1     -10.572  15.409  64.639  1.00  0.00    -0.091 C  
HETATM   39  N   UNL     1      -9.245  17.210  65.722  1.00  0.00    -0.519 NA 
HETATM   40  C   UNL     1     -11.515  14.237  64.941  1.00  0.00    -0.378 C  
HETATM   41  H2  UNL     1      -8.837  17.582  66.580  1.00  0.00     0.000 HD 
HETATM   42  O   UNL     1     -11.279  16.474  63.988  1.00  0.00    -1.409 OA 
HETATM   43  H1  UNL     1      -8.547  17.098  64.986  1.00  0.00     0.000 HD 
HETATM   44  C   UNL     1     -12.197  13.669  63.709  1.00  0.00    -0.413 C  
HETATM   45  H   UNL     1     -11.662  16.155  63.179  1.00  0.00     0.000 HD 
HETATM   46  O   UNL     1     -12.535  14.657  65.867  1.00  0.00    -0.225 OA 
ENDBRANCH  34  35
ENDBRANCH  22  34
ENDBRANCH   2   3
TORSDOF 5
ENDMDL
MODEL       24
REMARK 921   NORMALIZED FREE ENERGY PREDICTED BY IDOCK:   -6.89 KCAL/MOL
REMARK 922        TOTAL FREE ENERGY PREDICTED BY IDOCK:  -10.19 KCAL/MOL
REMARK 923 INTER-LIGAND FREE ENERGY PREDICTED BY IDOCK:  -10.69 KCAL/MOL
REMARK 924 INTRA-LIGAND FREE ENERGY PREDICTED BY IDOCK:    0.50 KCAL/MOL
REMARK 927      BINDING AFFINITY PREDICTED BY RF-SCORE:    0.00 PKD
ROOT
HETATM    1  C   UNL     1     -10.370  16.704  69.235  1.00  0.00    -0.318 C  
HETATM    2  O   UNL     1     -11.266  15.789  68.615  1.00  0.00    -0.308 OA 
ENDROOT
BRANCH   2   3
HETATM    3  C   UNL     1     -11.018  15.457  67.309  1.00  0.00    -0.317 A  
HETATM    4  C   UNL     1     -11.057  16.409  66.279  1.00  0.00     0.187 A  
HETATM    5  C   UNL     1     -10.839  16.037  64.956  1.00  0.00    -0.421 A  
HETATM    6  C   UNL     1     -10.592  14.705  64.650  1.00  0.00    -0.268 A  
HETATM    7  C   UNL     1     -10.559  13.737  65.667  1.00  0.00    -0.302 A  
HETATM    8  C   UNL     1     -10.768  14.101  66.997  1.00  0.00    -0.285 A  
HETATM    9  C   UNL     1     -10.694  13.045  68.038  1.00  0.00    -0.232 C  
HETATM   10  O   UNL     1     -10.897  13.280  69.226  1.00  0.00    -0.156 OA 
HETATM   11  C   UNL     1     -10.370  11.646  67.670  1.00  0.00    -0.210 A  
HETATM   12  C   UNL     1     -10.244  10.660  68.673  1.00  0.00    -0.182 A  
HETATM   13  O   UNL     1     -10.374  10.971  70.008  1.00  0.00    -0.392 OA 
HETATM   14  C   UNL     1     -10.018   9.303  68.363  1.00  0.00    -0.196 A  
HETATM   15  H   UNL     1     -10.289  10.309  70.682  1.00  0.00     0.000 HD 
HETATM   16  C   UNL     1      -9.940   8.927  67.007  1.00  0.00    -0.300 A  
HETATM   17  C   UNL     1     -10.001   9.927  66.011  1.00  0.00    -0.268 A  
HETATM   18  C   UNL     1      -9.790   7.468  66.613  1.00  0.00    -0.274 C  
HETATM   19  C   UNL     1     -10.111   6.446  67.718  1.00  0.00    -0.146 C  
HETATM   20  C   UNL     1     -10.221  11.283  66.333  1.00  0.00    -0.273 A  
HETATM   21  O   UNL     1      -9.883   9.581  64.692  1.00  0.00    -0.390 OA 
HETATM   22  C   UNL     1     -10.068   8.262  69.474  1.00  0.00    -0.197 C  
HETATM   23  C   UNL     1     -10.295  12.335  65.286  1.00  0.00    -0.281 C  
HETATM   24  C   UNL     1      -9.498   6.911  69.041  1.00  0.00    -0.137 C  
HETATM   25  O   UNL     1     -11.525   6.274  67.821  1.00  0.00    -0.592 OA 
HETATM   26  H   UNL     1      -9.924  10.253  64.023  1.00  0.00     0.000 HD 
HETATM   27  O   UNL     1     -10.125  12.095  64.097  1.00  0.00    -0.313 OA 
HETATM   28  H   UNL     1     -11.724   5.643  68.504  1.00  0.00     0.000 HD 
BRANCH  19  29
HETATM   29  C   UNL     1      -9.563   5.063  67.313  1.00  0.00    -0.148 C  
HETATM   30  O   UNL     1      -8.819   4.403  68.045  1.00  0.00    -0.102 OA 
BRANCH  29  31
HETATM   31  C   UNL     1      -9.947   4.527  65.936  1.00  0.00    -0.244 C  
HETATM   32  O   UNL     1     -11.311   4.803  65.646  1.00  0.00    -0.900 OA 
HETATM   33  H   UNL     1     -11.550   4.470  64.789  1.00  0.00     0.000 HD 
ENDBRANCH  29  31
ENDBRANCH  19  29
BRANCH  22  34
HETATM   34  O   UNL     1     -11.462   8.189  69.714  1.00  0.00     0.035 OA 
BRANCH  34  35
HETATM   35  C   UNL     1     -12.027   8.396  70.992  1.00  0.00    -0.231 C  
HETATM   36  C   UNL     1     -12.703   7.218  71.699  1.00  0.00    -0.410 C  
HETATM   37  C   UNL     1     -11.714   6.125  72.134  1.00  0.00    -0.309 C  
HETATM   38  C   UNL     1     -10.442   6.716  72.783  1.00  0.00    -0.217 C  
HETATM   39  N   UNL     1     -12.376   5.179  73.061  1.00  0.00    -0.316 NA 
HETATM   40  C   UNL     1      -9.921   7.881  71.932  1.00  0.00    -0.179 C  
HETATM   41  H2  UNL     1     -13.228   4.785  72.661  1.00  0.00     0.000 HD 
HETATM   42  O   UNL     1     -10.743   7.157  74.116  1.00  0.00    -0.555 OA 
HETATM   43  H1  UNL     1     -11.720   4.453  73.349  1.00  0.00     0.000 HD 
HETATM   44  C   UNL     1      -8.682   8.546  72.502  1.00  0.00    -0.226 C  
HETATM   45  H   UNL     1      -9.962   7.520  74.515  1.00  0.00     0.000 HD 
HETATM   46  O   UNL     1     -10.947   8.882  71.793  1.00  0.00    -0.314 OA 
ENDBRANCH  34  35
ENDBRANCH  22  34
ENDBRANCH   2   3
TORSDOF 5
ENDMDL
MODEL       25
REMARK 921   NORMALIZED FREE ENERGY PREDICTED BY IDOCK:   -6.87 KCAL/MOL
REMARK 922        TOTAL FREE ENERGY PREDICTED BY IDOCK:  -10.15 KCAL/MOL
REMARK 923 INTER-LIGAND FREE ENERGY PREDICTED BY IDOCK:   -9.17 KCAL/MOL
REMARK 924 INTRA-LIGAND FREE ENERGY PREDICTED BY IDOCK:   -0.99 KCAL/MOL
REMARK 927      BINDING AFFINITY PREDICTED BY RF-SCORE:    0.00 PKD
ROOT
HETATM    1  C   UNL     1      -6.370  16.665  66.977  1.00  0.00    -0.187 C  
HETATM    2  O   UNL     1      -7.605  16.119  66.529  1.00  0.00    -0.233 OA 
ENDROOT
BRANCH   2   3
HETATM    3  C   UNL     1      -8.745  16.551  67.155  1.00  0.00    -0.195 A  
HETATM    4  C   UNL     1      -9.117  17.904  67.170  1.00  0.00    -0.251 A  
HETATM    5  C   UNL     1     -10.259  18.320  67.848  1.00  0.00    -0.400 A  
HETATM    6  C   UNL     1     -11.033  17.388  68.527  1.00  0.00    -0.072 A  
HETATM    7  C   UNL     1     -10.669  16.031  68.530  1.00  0.00    -0.287 A  
HETATM    8  C   UNL     1      -9.530  15.603  67.848  1.00  0.00    -0.204 A  
HETATM    9  C   UNL     1      -9.205  14.154  67.858  1.00  0.00    -0.196 C  
HETATM   10  O   UNL     1      -8.205  13.702  67.307  1.00  0.00    -0.175 OA 
HETATM   11  C   UNL     1     -10.093  13.187  68.548  1.00  0.00    -0.203 A  
HETATM   12  C   UNL     1      -9.808  11.805  68.502  1.00  0.00    -0.189 A  
HETATM   13  O   UNL     1      -8.736  11.315  67.790  1.00  0.00    -0.129 OA 
HETATM   14  C   UNL     1     -10.577  10.860  69.211  1.00  0.00    -0.251 A  
HETATM   15  H   UNL     1      -8.544  10.386  67.759  1.00  0.00     0.000 HD 
HETATM   16  C   UNL     1     -11.647  11.321  70.004  1.00  0.00    -0.404 A  
HETATM   17  C   UNL     1     -11.967  12.697  69.994  1.00  0.00    -0.306 A  
HETATM   18  C   UNL     1     -12.451  10.358  70.861  1.00  0.00    -0.478 C  
HETATM   19  C   UNL     1     -11.803   8.983  71.099  1.00  0.00    -0.301 C  
HETATM   20  C   UNL     1     -11.194  13.634  69.275  1.00  0.00    -0.284 A  
HETATM   21  O   UNL     1     -13.031  13.153  70.725  1.00  0.00    -0.145 OA 
HETATM   22  C   UNL     1     -10.116   9.408  69.267  1.00  0.00    -0.196 C  
HETATM   23  C   UNL     1     -11.525  15.083  69.270  1.00  0.00    -0.307 C  
HETATM   24  C   UNL     1     -11.200   8.466  69.790  1.00  0.00     0.027 C  
HETATM   25  O   UNL     1     -10.821   9.083  72.131  1.00  0.00    -0.337 OA 
HETATM   26  H   UNL     1     -13.246  14.078  70.717  1.00  0.00     0.000 HD 
HETATM   27  O   UNL     1     -12.506  15.538  69.847  1.00  0.00    -0.336 OA 
HETATM   28  H   UNL     1     -10.421   8.233  72.278  1.00  0.00     0.000 HD 
BRANCH  19  29
HETATM   29  C   UNL     1     -12.863   8.003  71.641  1.00  0.00    -0.329 C  
HETATM   30  O   UNL     1     -12.638   6.798  71.794  1.00  0.00    -0.357 OA 
BRANCH  29  31
HETATM   31  C   UNL     1     -14.245   8.567  71.966  1.00  0.00    -0.453 C  
HETATM   32  O   UNL     1     -14.393   8.773  73.365  1.00  0.00    -1.155 OA 
HETATM   33  H   UNL     1     -15.252   9.123  73.567  1.00  0.00     0.000 HD 
ENDBRANCH  29  31
ENDBRANCH  19  29
BRANCH  22  34
HETATM   34  O   UNL     1      -9.027   9.505  70.167  1.00  0.00    -0.203 OA 
BRANCH  34  35
HETATM   35  C   UNL     1      -7.701   9.191  69.795  1.00  0.00    -0.082 C  
HETATM   36  C   UNL     1      -6.551   9.679  70.681  1.00  0.00    -0.114 C  
HETATM   37  C   UNL     1      -6.504   8.983  72.049  1.00  0.00     0.029 C  
HETATM   38  C   UNL     1      -6.721   7.457  71.933  1.00  0.00    -0.054 C  
HETATM   39  N   UNL     1      -5.218   9.272  72.724  1.00  0.00    -0.076 NA 
HETATM   40  C   UNL     1      -7.910   7.173  71.005  1.00  0.00    -0.095 C  
HETATM   41  H2  UNL     1      -5.044  10.274  72.800  1.00  0.00     0.000 HD 
HETATM   42  O   UNL     1      -5.527   6.838  71.432  1.00  0.00    -0.027 OA 
HETATM   43  H1  UNL     1      -5.188   8.810  73.633  1.00  0.00     0.000 HD 
HETATM   44  C   UNL     1      -8.190   5.694  70.808  1.00  0.00    -0.118 C  
HETATM   45  H   UNL     1      -5.660   5.900  71.360  1.00  0.00     0.000 HD 
HETATM   46  O   UNL     1      -7.673   7.764  69.713  1.00  0.00    -0.093 OA 
ENDBRANCH  34  35
ENDBRANCH  22  34
ENDBRANCH   2   3
TORSDOF 5
ENDMDL
MODEL       26
REMARK 921   NORMALIZED FREE ENERGY PREDICTED BY IDOCK:   -6.83 KCAL/MOL
REMARK 922        TOTAL FREE ENERGY PREDICTED BY IDOCK:  -10.10 KCAL/MOL
REMARK 923 INTER-LIGAND FREE ENERGY PREDICTED BY IDOCK:   -8.61 KCAL/MOL
REMARK 924 INTRA-LIGAND FREE ENERGY PREDICTED BY IDOCK:   -1.49 KCAL/MOL
REMARK 927      BINDING AFFINITY PREDICTED BY RF-SCORE:    0.00 PKD
ROOT
HETATM    1  C   UNL     1      -7.238   4.518  73.137  1.00  0.00    -0.079 C  
HETATM    2  O   UNL     1      -8.001   5.167  72.126  1.00  0.00    -0.108 OA 
ENDROOT
BRANCH   2   3
HETATM    3  C   UNL     1      -9.325   5.397  72.392  1.00  0.00    -0.143 A  
HETATM    4  C   UNL     1     -10.086   4.528  73.188  1.00  0.00    -0.204 A  
HETATM    5  C   UNL     1     -11.439   4.765  73.409  1.00  0.00    -0.332 A  
HETATM    6  C   UNL     1     -12.047   5.869  72.824  1.00  0.00     0.049 A  
HETATM    7  C   UNL     1     -11.301   6.744  72.017  1.00  0.00    -0.308 A  
HETATM    8  C   UNL     1      -9.943   6.519  71.795  1.00  0.00    -0.192 A  
HETATM    9  C   UNL     1      -9.194   7.490  70.957  1.00  0.00    -0.152 C  
HETATM   10  O   UNL     1      -8.004   7.345  70.691  1.00  0.00    -0.096 OA 
HETATM   11  C   UNL     1      -9.873   8.686  70.402  1.00  0.00    -0.207 A  
HETATM   12  C   UNL     1      -9.138   9.634  69.656  1.00  0.00    -0.210 A  
HETATM   13  O   UNL     1      -7.782   9.501  69.459  1.00  0.00    -0.083 OA 
HETATM   14  C   UNL     1      -9.758  10.742  69.042  1.00  0.00    -0.201 A  
HETATM   15  H   UNL     1      -7.289  10.139  68.958  1.00  0.00     0.000 HD 
HETATM   16  C   UNL     1     -11.154  10.885  69.163  1.00  0.00    -0.301 A  
HETATM   17  C   UNL     1     -11.873   9.971  69.965  1.00  0.00    -0.126 A  
HETATM   18  C   UNL     1     -11.885  12.007  68.446  1.00  0.00    -0.360 C  
HETATM   19  C   UNL     1     -11.097  12.699  67.320  1.00  0.00    -0.278 C  
HETATM   20  C   UNL     1     -11.241   8.869  70.581  1.00  0.00    -0.308 A  
HETATM   21  O   UNL     1     -13.223  10.123  70.127  1.00  0.00    -0.552 OA 
HETATM   22  C   UNL     1      -8.946  11.629  68.104  1.00  0.00    -0.182 C  
HETATM   23  C   UNL     1     -11.998   7.901  71.418  1.00  0.00    -0.303 C  
HETATM   24  C   UNL     1      -9.656  12.943  67.778  1.00  0.00    -0.212 C  
HETATM   25  O   UNL     1     -11.148  11.905  66.134  1.00  0.00    -0.303 OA 
HETATM   26  H   UNL     1     -13.705   9.509  70.667  1.00  0.00     0.000 HD 
HETATM   27  O   UNL     1     -13.193   8.028  71.657  1.00  0.00    -0.330 OA 
HETATM   28  H   UNL     1     -10.661  12.333  65.439  1.00  0.00     0.000 HD 
BRANCH  19  29
HETATM   29  C   UNL     1     -11.789  14.027  66.950  1.00  0.00    -0.430 C  
HETATM   30  O   UNL     1     -12.121  14.862  67.798  1.00  0.00    -0.260 OA 
BRANCH  29  31
HETATM   31  C   UNL     1     -12.090  14.278  65.474  1.00  0.00    -0.394 C  
HETATM   32  O   UNL     1     -13.278  13.604  65.077  1.00  0.00    -0.729 OA 
HETATM   33  H   UNL     1     -13.466  13.761  64.160  1.00  0.00     0.000 HD 
ENDBRANCH  29  31
ENDBRANCH  19  29
BRANCH  22  34
HETATM   34  O   UNL     1      -8.840  10.794  66.966  1.00  0.00    -0.134 OA 
BRANCH  34  35
HETATM   35  C   UNL     1      -7.682  10.749  66.159  1.00  0.00    -0.149 C  
HETATM   36  C   UNL     1      -6.852   9.462  66.130  1.00  0.00    -0.085 C  
HETATM   37  C   UNL     1      -7.573   8.293  65.443  1.00  0.00    -0.096 C  
HETATM   38  C   UNL     1      -8.268   8.726  64.132  1.00  0.00    -0.162 C  
HETATM   39  N   UNL     1      -6.620   7.189  65.183  1.00  0.00    -0.046 NA 
HETATM   40  C   UNL     1      -9.041  10.031  64.365  1.00  0.00    -0.247 C  
HETATM   41  H2  UNL     1      -6.137   6.894  66.031  1.00  0.00     0.000 HD 
HETATM   42  O   UNL     1      -7.284   8.897  63.101  1.00  0.00    -0.093 OA 
HETATM   43  H1  UNL     1      -7.099   6.413  64.727  1.00  0.00     0.000 HD 
HETATM   44  C   UNL     1      -9.742  10.554  63.124  1.00  0.00    -0.351 C  
HETATM   45  H   UNL     1      -7.711   9.164  62.295  1.00  0.00     0.000 HD 
HETATM   46  O   UNL     1      -8.145  11.053  64.840  1.00  0.00     0.083 OA 
ENDBRANCH  34  35
ENDBRANCH  22  34
ENDBRANCH   2   3
TORSDOF 5
ENDMDL
MODEL       27
REMARK 921   NORMALIZED FREE ENERGY PREDICTED BY IDOCK:   -6.62 KCAL/MOL
REMARK 922        TOTAL FREE ENERGY PREDICTED BY IDOCK:   -9.84 KCAL/MOL
REMARK 923 INTER-LIGAND FREE ENERGY PREDICTED BY IDOCK:   -9.79 KCAL/MOL
REMARK 924 INTRA-LIGAND FREE ENERGY PREDICTED BY IDOCK:   -0.04 KCAL/MOL
REMARK 927      BINDING AFFINITY PREDICTED BY RF-SCORE:    0.00 PKD
ROOT
HETATM    1  C   UNL     1      -5.793   8.086  64.283  1.00  0.00    -0.052 C  
HETATM    2  O   UNL     1      -7.175   8.414  64.198  1.00  0.00    -0.087 OA 
ENDROOT
BRANCH   2   3
HETATM    3  C   UNL     1      -8.032   7.731  65.020  1.00  0.00    -0.134 A  
HETATM    4  C   UNL     1      -8.225   6.346  64.909  1.00  0.00    -0.110 A  
HETATM    5  C   UNL     1      -9.132   5.685  65.733  1.00  0.00    -0.139 A  
HETATM    6  C   UNL     1      -9.864   6.407  66.667  1.00  0.00    -0.203 A  
HETATM    7  C   UNL     1      -9.689   7.796  66.785  1.00  0.00    -0.296 A  
HETATM    8  C   UNL     1      -8.778   8.467  65.970  1.00  0.00    -0.183 A  
HETATM    9  C   UNL     1      -8.610   9.930  66.154  1.00  0.00    -0.128 C  
HETATM   10  O   UNL     1      -7.851  10.597  65.455  1.00  0.00    -0.154 OA 
HETATM   11  C   UNL     1      -9.371  10.649  67.204  1.00  0.00    -0.172 A  
HETATM   12  C   UNL     1      -9.161  12.031  67.411  1.00  0.00    -0.180 A  
HETATM   13  O   UNL     1      -8.228  12.733  66.683  1.00  0.00    -0.406 OA 
HETATM   14  C   UNL     1      -9.920  12.770  68.341  1.00  0.00    -0.210 A  
HETATM   15  H   UNL     1      -8.087  13.662  66.822  1.00  0.00     0.000 HD 
HETATM   16  C   UNL     1     -10.931  12.106  69.065  1.00  0.00    -0.255 A  
HETATM   17  C   UNL     1     -11.091  10.712  68.901  1.00  0.00    -0.261 A  
HETATM   18  C   UNL     1     -11.839  12.871  70.011  1.00  0.00    -0.356 C  
HETATM   19  C   UNL     1     -11.842  14.400  69.837  1.00  0.00    -0.323 C  
HETATM   20  C   UNL     1     -10.321   9.980  67.972  1.00  0.00    -0.238 A  
HETATM   21  O   UNL     1     -12.039  10.046  69.630  1.00  0.00    -0.480 OA 
HETATM   22  C   UNL     1      -9.772  14.286  68.392  1.00  0.00    -0.225 C  
HETATM   23  C   UNL     1     -10.495   8.515  67.793  1.00  0.00    -0.223 C  
HETATM   24  C   UNL     1     -10.407  14.897  69.642  1.00  0.00    -0.144 C  
HETATM   25  O   UNL     1     -12.681  14.760  68.739  1.00  0.00    -0.369 OA 
HETATM   26  H   UNL     1     -12.146   9.109  69.520  1.00  0.00     0.000 HD 
HETATM   27  O   UNL     1     -11.276   7.856  68.467  1.00  0.00     0.253 OA 
HETATM   28  H   UNL     1     -12.683  15.704  68.632  1.00  0.00     0.000 HD 
BRANCH  19  29
HETATM   29  C   UNL     1     -12.488  15.056  71.074  1.00  0.00    -0.338 C  
HETATM   30  O   UNL     1     -11.892  15.880  71.777  1.00  0.00    -0.412 OA 
BRANCH  29  31
HETATM   31  C   UNL     1     -13.909  14.631  71.438  1.00  0.00    -0.403 C  
HETATM   32  O   UNL     1     -13.922  13.900  72.658  1.00  0.00    -0.684 OA 
HETATM   33  H   UNL     1     -14.806  13.636  72.884  1.00  0.00     0.000 HD 
ENDBRANCH  29  31
ENDBRANCH  19  29
BRANCH  22  34
HETATM   34  O   UNL     1     -10.462  14.665  67.215  1.00  0.00    -0.262 OA 
BRANCH  34  35
HETATM   35  C   UNL     1      -9.801  15.167  66.072  1.00  0.00    -0.320 C  
HETATM   36  C   UNL     1     -10.492  16.246  65.234  1.00  0.00    -0.324 C  
HETATM   37  C   UNL     1     -10.607  17.595  65.960  1.00  0.00    -0.220 C  
HETATM   38  C   UNL     1      -9.296  17.980  66.683  1.00  0.00    -0.291 C  
HETATM   39  N   UNL     1     -11.000  18.656  65.004  1.00  0.00    -0.327 NA 
HETATM   40  C   UNL     1      -8.761  16.771  67.461  1.00  0.00    -0.199 C  
HETATM   41  H2  UNL     1     -11.856  18.419  64.502  1.00  0.00     0.000 HD 
HETATM   42  O   UNL     1      -8.331  18.431  65.721  1.00  0.00    -0.478 OA 
HETATM   43  H1  UNL     1     -11.077  19.551  65.486  1.00  0.00     0.000 HD 
HETATM   44  C   UNL     1      -7.457  17.043  68.190  1.00  0.00    -0.195 C  
HETATM   45  H   UNL     1      -7.525  18.668  66.165  1.00  0.00     0.000 HD 
HETATM   46  O   UNL     1      -8.553  15.664  66.563  1.00  0.00    -0.264 OA 
ENDBRANCH  34  35
ENDBRANCH  22  34
ENDBRANCH   2   3
TORSDOF 5
ENDMDL
MODEL       28
REMARK 921   NORMALIZED FREE ENERGY PREDICTED BY IDOCK:   -6.56 KCAL/MOL
REMARK 922        TOTAL FREE ENERGY PREDICTED BY IDOCK:   -9.76 KCAL/MOL
REMARK 923 INTER-LIGAND FREE ENERGY PREDICTED BY IDOCK:   -8.41 KCAL/MOL
REMARK 924 INTRA-LIGAND FREE ENERGY PREDICTED BY IDOCK:   -1.35 KCAL/MOL
REMARK 927      BINDING AFFINITY PREDICTED BY RF-SCORE:    0.00 PKD
ROOT
HETATM    1  C   UNL     1     -12.728  12.083  63.531  1.00  0.00    -0.443 C  
HETATM    2  O   UNL     1     -12.820  12.636  64.839  1.00  0.00    -0.763 OA 
ENDROOT
BRANCH   2   3
HETATM    3  C   UNL     1     -11.804  13.463  65.242  1.00  0.00    -0.348 A  
HETATM    4  C   UNL     1     -11.633  14.747  64.703  1.00  0.00    -0.401 A  
HETATM    5  C   UNL     1     -10.569  15.550  65.102  1.00  0.00    -0.455 A  
HETATM    6  C   UNL     1      -9.659  15.070  66.035  1.00  0.00    -0.359 A  
HETATM    7  C   UNL     1      -9.810  13.783  66.577  1.00  0.00    -0.294 A  
HETATM    8  C   UNL     1     -10.877  12.974  66.190  1.00  0.00    -0.296 A  
HETATM    9  C   UNL     1     -11.008  11.633  66.814  1.00  0.00    -0.290 C  
HETATM   10  O   UNL     1     -11.902  10.849  66.503  1.00  0.00     0.132 OA 
HETATM   11  C   UNL     1     -10.045  11.186  67.849  1.00  0.00    -0.195 A  
HETATM   12  C   UNL     1     -10.213   9.933  68.479  1.00  0.00    -0.177 A  
HETATM   13  O   UNL     1     -11.283   9.118  68.187  1.00  0.00    -0.483 OA 
HETATM   14  C   UNL     1      -9.277   9.434  69.408  1.00  0.00    -0.167 A  
HETATM   15  H   UNL     1     -11.396   8.276  68.611  1.00  0.00     0.000 HD 
HETATM   16  C   UNL     1      -8.133  10.206  69.692  1.00  0.00    -0.178 A  
HETATM   17  C   UNL     1      -8.004  11.486  69.109  1.00  0.00     0.108 A  
HETATM   18  C   UNL     1      -7.048   9.677  70.614  1.00  0.00    -0.117 C  
HETATM   19  C   UNL     1      -7.089   8.163  70.886  1.00  0.00    -0.050 C  
HETATM   20  C   UNL     1      -8.951  11.979  68.185  1.00  0.00    -0.190 A  
HETATM   21  O   UNL     1      -6.920  12.265  69.410  1.00  0.00    -0.281 OA 
HETATM   22  C   UNL     1      -9.418   8.005  69.919  1.00  0.00    -0.160 C  
HETATM   23  C   UNL     1      -8.812  13.322  67.564  1.00  0.00    -0.206 C  
HETATM   24  C   UNL     1      -8.535   7.726  71.136  1.00  0.00    -0.115 C  
HETATM   25  O   UNL     1      -6.504   7.458  69.791  1.00  0.00    -0.034 OA 
HETATM   26  H   UNL     1      -6.834  13.126  69.018  1.00  0.00     0.000 HD 
HETATM   27  O   UNL     1      -7.902  14.091  67.849  1.00  0.00    -0.130 OA 
HETATM   28  H   UNL     1      -6.529   6.523  69.959  1.00  0.00     0.000 HD 
BRANCH  19  29
HETATM   29  C   UNL     1      -6.198   7.836  72.101  1.00  0.00    -0.040 C  
HETATM   30  O   UNL     1      -5.663   6.733  72.255  1.00  0.00    -0.037 OA 
BRANCH  29  31
HETATM   31  C   UNL     1      -6.012   8.926  73.155  1.00  0.00    -0.044 C  
HETATM   32  O   UNL     1      -7.048   8.873  74.128  1.00  0.00    -0.385 OA 
HETATM   33  H   UNL     1      -6.932   9.550  74.783  1.00  0.00     0.000 HD 
ENDBRANCH  29  31
ENDBRANCH  19  29
BRANCH  22  34
HETATM   34  O   UNL     1      -8.995   7.270  68.785  1.00  0.00    -0.130 OA 
BRANCH  34  35
HETATM   35  C   UNL     1      -9.169   5.872  68.675  1.00  0.00    -0.118 C  
HETATM   36  C   UNL     1     -10.385   5.338  67.912  1.00  0.00    -0.189 C  
HETATM   37  C   UNL     1     -10.319   5.613  66.402  1.00  0.00    -0.187 C  
HETATM   38  C   UNL     1      -8.920   5.317  65.816  1.00  0.00    -0.154 C  
HETATM   39  N   UNL     1     -11.353   4.821  65.695  1.00  0.00    -0.884 NA 
HETATM   40  C   UNL     1      -7.842   5.929  66.721  1.00  0.00    -0.101 C  
HETATM   41  H2  UNL     1     -12.285   4.987  66.073  1.00  0.00     0.000 HD 
HETATM   42  O   UNL     1      -8.737   3.899  65.699  1.00  0.00    -0.112 OA 
HETATM   43  H1  UNL     1     -11.309   5.004  64.692  1.00  0.00     0.000 HD 
HETATM   44  C   UNL     1      -6.425   5.672  66.241  1.00  0.00    -0.044 C  
HETATM   45  H   UNL     1      -7.877   3.717  65.339  1.00  0.00     0.000 HD 
HETATM   46  O   UNL     1      -7.968   5.403  68.056  1.00  0.00    -0.095 OA 
ENDBRANCH  34  35
ENDBRANCH  22  34
ENDBRANCH   2   3
TORSDOF 5
ENDMDL
MODEL       29
REMARK 921   NORMALIZED FREE ENERGY PREDICTED BY IDOCK:   -6.54 KCAL/MOL
REMARK 922        TOTAL FREE ENERGY PREDICTED BY IDOCK:   -9.73 KCAL/MOL
REMARK 923 INTER-LIGAND FREE ENERGY PREDICTED BY IDOCK:  -10.92 KCAL/MOL
REMARK 924 INTRA-LIGAND FREE ENERGY PREDICTED BY IDOCK:    1.18 KCAL/MOL
REMARK 927      BINDING AFFINITY PREDICTED BY RF-SCORE:    0.00 PKD
ROOT
HETATM    1  C   UNL     1      -8.764   7.685  74.281  1.00  0.00    -0.210 C  
HETATM    2  O   UNL     1      -9.971   7.541  73.542  1.00  0.00    -0.294 OA 
ENDROOT
BRANCH   2   3
HETATM    3  C   UNL     1      -9.994   6.584  72.561  1.00  0.00    -0.170 A  
HETATM    4  C   UNL     1      -9.913   5.215  72.857  1.00  0.00    -0.187 A  
HETATM    5  C   UNL     1      -9.898   4.266  71.838  1.00  0.00    -0.248 A  
HETATM    6  C   UNL     1      -9.953   4.681  70.514  1.00  0.00    -0.295 A  
HETATM    7  C   UNL     1     -10.026   6.048  70.200  1.00  0.00    -0.228 A  
HETATM    8  C   UNL     1     -10.048   7.006  71.214  1.00  0.00    -0.199 A  
HETATM    9  C   UNL     1     -10.155   8.436  70.831  1.00  0.00    -0.194 C  
HETATM   10  O   UNL     1     -10.150   9.340  71.662  1.00  0.00    -0.311 OA 
HETATM   11  C   UNL     1     -10.270   8.828  69.405  1.00  0.00    -0.210 A  
HETATM   12  C   UNL     1     -10.430  10.186  69.054  1.00  0.00    -0.219 A  
HETATM   13  O   UNL     1     -10.525  11.170  70.012  1.00  0.00    -0.390 OA 
HETATM   14  C   UNL     1     -10.461  10.611  67.710  1.00  0.00    -0.258 A  
HETATM   15  H   UNL     1     -10.633  12.084  69.776  1.00  0.00     0.000 HD 
HETATM   16  C   UNL     1     -10.304   9.646  66.695  1.00  0.00    -0.279 A  
HETATM   17  C   UNL     1     -10.211   8.282  67.051  1.00  0.00    -0.310 A  
HETATM   18  C   UNL     1     -10.238  10.058  65.235  1.00  0.00    -0.196 C  
HETATM   19  C   UNL     1      -9.968  11.552  64.979  1.00  0.00    -0.263 C  
HETATM   20  C   UNL     1     -10.187   7.867  68.400  1.00  0.00    -0.232 A  
HETATM   21  O   UNL     1     -10.102   7.331  66.074  1.00  0.00    -0.384 OA 
HETATM   22  C   UNL     1     -10.457  12.103  67.395  1.00  0.00    -0.213 C  
HETATM   23  C   UNL     1     -10.080   6.433  68.776  1.00  0.00    -0.158 C  
HETATM   24  C   UNL     1     -10.810  12.397  65.937  1.00  0.00    -0.305 C  
HETATM   25  O   UNL     1      -8.573  11.822  65.120  1.00  0.00    -0.234 OA 
HETATM   26  H   UNL     1     -10.039   6.414  66.313  1.00  0.00     0.000 HD 
HETATM   27  O   UNL     1     -10.052   5.534  67.945  1.00  0.00    -0.153 OA 
HETATM   28  H   UNL     1      -8.406  12.745  64.962  1.00  0.00     0.000 HD 
BRANCH  19  29
HETATM   29  C   UNL     1     -10.299  11.889  63.511  1.00  0.00    -0.458 C  
HETATM   30  O   UNL     1      -9.517  11.658  62.583  1.00  0.00    -0.288 OA 
BRANCH  29  31
HETATM   31  C   UNL     1     -11.641  12.562  63.226  1.00  0.00    -0.371 C  
HETATM   32  O   UNL     1     -12.653  11.593  62.984  1.00  0.00    -0.950 OA 
HETATM   33  H   UNL     1     -13.487  12.011  62.808  1.00  0.00     0.000 HD 
ENDBRANCH  29  31
ENDBRANCH  19  29
BRANCH  22  34
HETATM   34  O   UNL     1      -9.112  12.437  67.686  1.00  0.00    -0.172 OA 
BRANCH  34  35
HETATM   35  C   UNL     1      -8.728  13.711  68.160  1.00  0.00    -0.177 C  
HETATM   36  C   UNL     1      -8.565  14.854  67.154  1.00  0.00    -0.248 C  
HETATM   37  C   UNL     1      -9.894  15.306  66.531  1.00  0.00    -0.266 C  
HETATM   38  C   UNL     1     -11.017  15.435  67.585  1.00  0.00    -0.315 C  
HETATM   39  N   UNL     1      -9.710  16.588  65.813  1.00  0.00    -0.523 NA 
HETATM   40  C   UNL     1     -11.016  14.199  68.495  1.00  0.00    -0.254 C  
HETATM   41  H2  UNL     1      -8.963  16.533  65.120  1.00  0.00     0.000 HD 
HETATM   42  O   UNL     1     -10.820  16.631  68.353  1.00  0.00    -0.336 OA 
HETATM   43  H1  UNL     1     -10.593  16.887  65.398  1.00  0.00     0.000 HD 
HETATM   44  C   UNL     1     -12.073  14.243  69.584  1.00  0.00    -0.396 C  
HETATM   45  H   UNL     1     -11.510  16.710  69.002  1.00  0.00     0.000 HD 
HETATM   46  O   UNL     1      -9.728  14.057  69.123  1.00  0.00    -0.024 OA 
ENDBRANCH  34  35
ENDBRANCH  22  34
ENDBRANCH   2   3
TORSDOF 5
ENDMDL
MODEL       30
REMARK 921   NORMALIZED FREE ENERGY PREDICTED BY IDOCK:   -6.51 KCAL/MOL
REMARK 922        TOTAL FREE ENERGY PREDICTED BY IDOCK:   -9.69 KCAL/MOL
REMARK 923 INTER-LIGAND FREE ENERGY PREDICTED BY IDOCK:   -9.82 KCAL/MOL
REMARK 924 INTRA-LIGAND FREE ENERGY PREDICTED BY IDOCK:    0.13 KCAL/MOL
REMARK 927      BINDING AFFINITY PREDICTED BY RF-SCORE:    0.00 PKD
ROOT
HETATM    1  C   UNL     1      -5.940   6.850  71.578  1.00  0.00    -0.037 C  
HETATM    2  O   UNL     1      -7.067   7.285  70.825  1.00  0.00    -0.062 OA 
ENDROOT
BRANCH   2   3
HETATM    3  C   UNL     1      -7.217   6.765  69.567  1.00  0.00    -0.081 A  
HETATM    4  C   UNL     1      -6.699   5.510  69.214  1.00  0.00    -0.056 A  
HETATM    5  C   UNL     1      -6.833   5.024  67.917  1.00  0.00    -0.060 A  
HETATM    6  C   UNL     1      -7.475   5.795  66.957  1.00  0.00    -0.081 A  
HETATM    7  C   UNL     1      -7.991   7.058  67.291  1.00  0.00    -0.111 A  
HETATM    8  C   UNL     1      -7.869   7.551  68.590  1.00  0.00    -0.121 A  
HETATM    9  C   UNL     1      -8.457   8.879  68.899  1.00  0.00    -0.131 C  
HETATM   10  O   UNL     1      -8.365   9.395  70.010  1.00  0.00    -0.140 OA 
HETATM   11  C   UNL     1      -9.185   9.642  67.856  1.00  0.00    -0.134 A  
HETATM   12  C   UNL     1      -9.791  10.877  68.175  1.00  0.00    -0.175 A  
HETATM   13  O   UNL     1      -9.762  11.384  69.454  1.00  0.00    -0.407 OA 
HETATM   14  C   UNL     1     -10.422  11.673  67.197  1.00  0.00    -0.252 A  
HETATM   15  H   UNL     1     -10.169  12.214  69.668  1.00  0.00     0.000 HD 
HETATM   16  C   UNL     1     -10.422  11.225  65.861  1.00  0.00    -0.314 A  
HETATM   17  C   UNL     1      -9.872   9.958  65.560  1.00  0.00    -0.311 A  
HETATM   18  C   UNL     1     -11.005  12.084  64.753  1.00  0.00    -0.361 C  
HETATM   19  C   UNL     1     -11.224  13.565  65.108  1.00  0.00    -0.309 C  
HETATM   20  C   UNL     1      -9.249   9.166  66.549  1.00  0.00    -0.221 A  
HETATM   21  O   UNL     1      -9.905   9.491  64.275  1.00  0.00    -0.366 OA 
HETATM   22  C   UNL     1     -10.900  13.073  67.564  1.00  0.00    -0.247 C  
HETATM   23  C   UNL     1      -8.662   7.838  66.232  1.00  0.00    -0.155 C  
HETATM   24  C   UNL     1     -11.829  13.673  66.509  1.00  0.00    -0.441 C  
HETATM   25  O   UNL     1      -9.988  14.274  65.009  1.00  0.00    -0.542 OA 
HETATM   26  H   UNL     1      -9.536   8.640  64.073  1.00  0.00     0.000 HD 
HETATM   27  O   UNL     1      -8.725   7.338  65.115  1.00  0.00    -0.007 OA 
HETATM   28  H   UNL     1     -10.123  15.189  65.228  1.00  0.00     0.000 HD 
BRANCH  19  29
HETATM   29  C   UNL     1     -12.148  14.213  64.058  1.00  0.00    -0.348 C  
HETATM   30  O   UNL     1     -12.571  13.597  63.074  1.00  0.00    -0.729 OA 
BRANCH  29  31
HETATM   31  C   UNL     1     -12.514  15.684  64.250  1.00  0.00     0.225 C  
HETATM   32  O   UNL     1     -11.421  16.527  63.909  1.00  0.00    -1.608 OA 
HETATM   33  H   UNL     1     -11.649  17.441  64.028  1.00  0.00     0.000 HD 
ENDBRANCH  29  31
ENDBRANCH  19  29
BRANCH  22  34
HETATM   34  O   UNL     1      -9.669  13.769  67.635  1.00  0.00    -0.217 OA 
BRANCH  34  35
HETATM   35  C   UNL     1      -9.235  14.435  68.803  1.00  0.00    -0.144 C  
HETATM   36  C   UNL     1      -8.833  15.909  68.706  1.00  0.00    -0.213 C  
HETATM   37  C   UNL     1     -10.019  16.842  68.418  1.00  0.00    -0.275 C  
HETATM   38  C   UNL     1     -11.256  16.493  69.276  1.00  0.00    -0.213 C  
HETATM   39  N   UNL     1      -9.621  18.253  68.635  1.00  0.00    -0.334 NA 
HETATM   40  C   UNL     1     -11.491  14.977  69.249  1.00  0.00    -0.307 C  
HETATM   41  H2  UNL     1      -8.797  18.505  68.090  1.00  0.00     0.000 HD 
HETATM   42  O   UNL     1     -11.053  16.951  70.621  1.00  0.00    -0.358 OA 
HETATM   43  H1  UNL     1     -10.409  18.872  68.443  1.00  0.00     0.000 HD 
HETATM   44  C   UNL     1     -12.676  14.529  70.086  1.00  0.00    -0.264 C  
HETATM   45  H   UNL     1     -11.813  16.736  71.149  1.00  0.00     0.000 HD 
HETATM   46  O   UNL     1     -10.318  14.292  69.726  1.00  0.00     0.091 OA 
ENDBRANCH  34  35
ENDBRANCH  22  34
ENDBRANCH   2   3
TORSDOF 5
ENDMDL
MODEL       31
REMARK 921   NORMALIZED FREE ENERGY PREDICTED BY IDOCK:   -6.49 KCAL/MOL
REMARK 922        TOTAL FREE ENERGY PREDICTED BY IDOCK:   -9.66 KCAL/MOL
REMARK 923 INTER-LIGAND FREE ENERGY PREDICTED BY IDOCK:   -9.51 KCAL/MOL
REMARK 924 INTRA-LIGAND FREE ENERGY PREDICTED BY IDOCK:   -0.16 KCAL/MOL
REMARK 927      BINDING AFFINITY PREDICTED BY RF-SCORE:    0.00 PKD
ROOT
HETATM    1  C   UNL     1     -10.144   6.651  74.565  1.00  0.00    -0.249 C  
HETATM    2  O   UNL     1      -9.541   7.165  73.382  1.00  0.00    -0.168 OA 
ENDROOT
BRANCH   2   3
HETATM    3  C   UNL     1      -9.314   6.280  72.361  1.00  0.00    -0.141 A  
HETATM    4  C   UNL     1      -8.927   4.953  72.599  1.00  0.00    -0.135 A  
HETATM    5  C   UNL     1      -8.665   4.087  71.541  1.00  0.00    -0.137 A  
HETATM    6  C   UNL     1      -8.774   4.546  70.235  1.00  0.00    -0.116 A  
HETATM    7  C   UNL     1      -9.151   5.875  69.979  1.00  0.00    -0.154 A  
HETATM    8  C   UNL     1      -9.424   6.748  71.032  1.00  0.00    -0.165 A  
HETATM    9  C   UNL     1      -9.846   8.134  70.707  1.00  0.00    -0.180 C  
HETATM   10  O   UNL     1     -10.074   8.971  71.577  1.00  0.00    -0.301 OA 
HETATM   11  C   UNL     1     -10.006   8.562  69.297  1.00  0.00    -0.195 A  
HETATM   12  C   UNL     1     -10.464   9.865  68.999  1.00  0.00    -0.210 A  
HETATM   13  O   UNL     1     -10.812  10.749  69.994  1.00  0.00    -0.407 OA 
HETATM   14  C   UNL     1     -10.553  10.340  67.675  1.00  0.00    -0.312 A  
HETATM   15  H   UNL     1     -11.121  11.625  69.795  1.00  0.00     0.000 HD 
HETATM   16  C   UNL     1     -10.148   9.491  66.626  1.00  0.00    -0.321 A  
HETATM   17  C   UNL     1      -9.753   8.168  66.925  1.00  0.00    -0.226 A  
HETATM   18  C   UNL     1     -10.135   9.983  65.189  1.00  0.00    -0.268 C  
HETATM   19  C   UNL     1     -10.209  11.509  65.010  1.00  0.00    -0.280 C  
HETATM   20  C   UNL     1      -9.674   7.700  68.255  1.00  0.00    -0.166 A  
HETATM   21  O   UNL     1      -9.399   7.318  65.913  1.00  0.00    -0.377 OA 
HETATM   22  C   UNL     1     -10.883  11.808  67.426  1.00  0.00    -0.251 C  
HETATM   23  C   UNL     1      -9.250   6.311  68.572  1.00  0.00    -0.123 C  
HETATM   24  C   UNL     1     -11.251  12.088  65.969  1.00  0.00    -0.385 C  
HETATM   25  O   UNL     1      -8.919  12.084  65.220  1.00  0.00    -0.400 OA 
HETATM   26  H   UNL     1      -9.134   6.429  66.114  1.00  0.00     0.000 HD 
HETATM   27  O   UNL     1      -8.991   5.486  67.704  1.00  0.00    -0.110 OA 
HETATM   28  H   UNL     1      -8.965  13.027  65.109  1.00  0.00     0.000 HD 
BRANCH  19  29
HETATM   29  C   UNL     1     -10.566  11.837  63.546  1.00  0.00    -0.440 C  
HETATM   30  O   UNL     1      -9.781  11.644  62.611  1.00  0.00    -0.217 OA 
BRANCH  29  31
HETATM   31  C   UNL     1     -11.937  12.452  63.274  1.00  0.00    -0.416 C  
HETATM   32  O   UNL     1     -12.877  11.452  62.903  1.00  0.00    -0.881 OA 
HETATM   33  H   UNL     1     -13.730  11.835  62.735  1.00  0.00     0.000 HD 
ENDBRANCH  29  31
ENDBRANCH  19  29
BRANCH  22  34
HETATM   34  O   UNL     1      -9.661  12.425  67.786  1.00  0.00    -0.190 OA 
BRANCH  34  35
HETATM   35  C   UNL     1      -9.242  13.659  67.243  1.00  0.00    -0.232 C  
HETATM   36  C   UNL     1      -9.996  14.933  67.638  1.00  0.00    -0.226 C  
HETATM   37  C   UNL     1      -9.792  15.325  69.109  1.00  0.00    -0.239 C  
HETATM   38  C   UNL     1      -8.314  15.204  69.545  1.00  0.00    -0.151 C  
HETATM   39  N   UNL     1     -10.289  16.700  69.343  1.00  0.00    -0.307 NA 
HETATM   40  C   UNL     1      -7.739  13.869  69.055  1.00  0.00     0.026 C  
HETATM   41  H2  UNL     1     -11.259  16.811  69.050  1.00  0.00     0.000 HD 
HETATM   42  O   UNL     1      -7.564  16.305  69.012  1.00  0.00    -0.198 OA 
HETATM   43  H1  UNL     1     -10.154  16.960  70.320  1.00  0.00     0.000 HD 
HETATM   44  C   UNL     1      -6.278  13.665  69.414  1.00  0.00    -0.109 C  
HETATM   45  H   UNL     1      -6.656  16.231  69.279  1.00  0.00     0.000 HD 
HETATM   46  O   UNL     1      -7.868  13.777  67.623  1.00  0.00    -0.149 OA 
ENDBRANCH  34  35
ENDBRANCH  22  34
ENDBRANCH   2   3
TORSDOF 5
ENDMDL
MODEL       32
REMARK 921   NORMALIZED FREE ENERGY PREDICTED BY IDOCK:   -6.48 KCAL/MOL
REMARK 922        TOTAL FREE ENERGY PREDICTED BY IDOCK:   -9.66 KCAL/MOL
REMARK 923 INTER-LIGAND FREE ENERGY PREDICTED BY IDOCK:   -8.28 KCAL/MOL
REMARK 924 INTRA-LIGAND FREE ENERGY PREDICTED BY IDOCK:   -1.38 KCAL/MOL
REMARK 927      BINDING AFFINITY PREDICTED BY RF-SCORE:    0.00 PKD
ROOT
HETATM    1  C   UNL     1     -10.467  14.204  65.143  1.00  0.00    -0.402 C  
HETATM    2  O   UNL     1      -9.919  14.053  66.448  1.00  0.00    -0.276 OA 
ENDROOT
BRANCH   2   3
HETATM    3  C   UNL     1     -10.730  14.364  67.508  1.00  0.00    -0.271 A  
HETATM    4  C   UNL     1     -11.184  15.671  67.738  1.00  0.00    -0.297 A  
HETATM    5  C   UNL     1     -11.976  15.965  68.845  1.00  0.00    -0.202 A  
HETATM    6  C   UNL     1     -12.310  14.955  69.738  1.00  0.00    -0.283 A  
HETATM    7  C   UNL     1     -11.855  13.643  69.527  1.00  0.00    -0.394 A  
HETATM    8  C   UNL     1     -11.068  13.336  68.417  1.00  0.00    -0.299 A  
HETATM    9  C   UNL     1     -10.638  11.928  68.224  1.00  0.00    -0.213 C  
HETATM   10  O   UNL     1      -9.919  11.584  67.290  1.00  0.00    -0.189 OA 
HETATM   11  C   UNL     1     -11.068  10.873  69.173  1.00  0.00    -0.301 A  
HETATM   12  C   UNL     1     -10.703   9.527  68.948  1.00  0.00    -0.195 A  
HETATM   13  O   UNL     1      -9.983   9.153  67.836  1.00  0.00    -0.168 OA 
HETATM   14  C   UNL     1     -11.020   8.505  69.866  1.00  0.00    -0.165 A  
HETATM   15  H   UNL     1      -9.738   8.248  67.685  1.00  0.00     0.000 HD 
HETATM   16  C   UNL     1     -11.701   8.850  71.050  1.00  0.00    -0.340 A  
HETATM   17  C   UNL     1     -12.121  10.186  71.237  1.00  0.00    -0.394 A  
HETATM   18  C   UNL     1     -11.987   7.806  72.115  1.00  0.00    -0.362 C  
HETATM   19  C   UNL     1     -11.176   6.503  72.001  1.00  0.00    -0.273 C  
HETATM   20  C   UNL     1     -11.804  11.201  70.308  1.00  0.00    -0.455 A  
HETATM   21  O   UNL     1     -12.822  10.527  72.362  1.00  0.00    -0.338 OA 
HETATM   22  C   UNL     1     -10.447   7.107  69.659  1.00  0.00    -0.229 C  
HETATM   23  C   UNL     1     -12.238  12.608  70.509  1.00  0.00    -0.299 C  
HETATM   24  C   UNL     1     -11.126   6.057  70.537  1.00  0.00    -0.385 C  
HETATM   25  O   UNL     1      -9.868   6.698  72.540  1.00  0.00    -0.165 OA 
HETATM   26  H   UNL     1     -13.105  11.425  72.487  1.00  0.00     0.000 HD 
HETATM   27  O   UNL     1     -12.928  12.957  71.459  1.00  0.00    -0.369 OA 
HETATM   28  H   UNL     1      -9.368   5.893  72.469  1.00  0.00     0.000 HD 
BRANCH  19  29
HETATM   29  C   UNL     1     -11.822   5.417  72.885  1.00  0.00    -0.077 C  
HETATM   30  O   UNL     1     -13.044   5.244  72.939  1.00  0.00     0.295 OA 
BRANCH  29  31
HETATM   31  C   UNL     1     -10.893   4.558  73.740  1.00  0.00    -0.287 C  
HETATM   32  O   UNL     1     -10.217   3.594  72.943  1.00  0.00    -0.150 OA 
HETATM   33  H   UNL     1      -9.639   3.060  73.475  1.00  0.00     0.000 HD 
ENDBRANCH  29  31
ENDBRANCH  19  29
BRANCH  22  34
HETATM   34  O   UNL     1      -9.096   7.310  70.034  1.00  0.00    -0.148 OA 
BRANCH  34  35
HETATM   35  C   UNL     1      -8.070   6.394  69.712  1.00  0.00    -0.121 C  
HETATM   36  C   UNL     1      -8.123   5.671  68.363  1.00  0.00    -0.103 C  
HETATM   37  C   UNL     1      -7.886   6.605  67.167  1.00  0.00    -0.105 C  
HETATM   38  C   UNL     1      -6.712   7.580  67.412  1.00  0.00    -0.067 C  
HETATM   39  N   UNL     1      -7.651   5.811  65.939  1.00  0.00    -0.085 NA 
HETATM   40  C   UNL     1      -6.836   8.196  68.812  1.00  0.00    -0.066 C  
HETATM   41  H2  UNL     1      -8.406   5.149  65.762  1.00  0.00     0.000 HD 
HETATM   42  O   UNL     1      -5.468   6.877  67.276  1.00  0.00    -0.015 OA 
HETATM   43  H1  UNL     1      -7.495   6.432  65.145  1.00  0.00     0.000 HD 
HETATM   44  C   UNL     1      -5.710   9.154  69.158  1.00  0.00    -0.036 C  
HETATM   45  H   UNL     1      -4.746   7.475  67.427  1.00  0.00     0.000 HD 
HETATM   46  O   UNL     1      -6.862   7.154  69.805  1.00  0.00    -0.047 OA 
ENDBRANCH  34  35
ENDBRANCH  22  34
ENDBRANCH   2   3
TORSDOF 5
ENDMDL
MODEL       33
REMARK 921   NORMALIZED FREE ENERGY PREDICTED BY IDOCK:   -6.48 KCAL/MOL
REMARK 922        TOTAL FREE ENERGY PREDICTED BY IDOCK:   -9.66 KCAL/MOL
REMARK 923 INTER-LIGAND FREE ENERGY PREDICTED BY IDOCK:   -9.87 KCAL/MOL
REMARK 924 INTRA-LIGAND FREE ENERGY PREDICTED BY IDOCK:    0.21 KCAL/MOL
REMARK 927      BINDING AFFINITY PREDICTED BY RF-SCORE:    0.00 PKD
ROOT
HETATM    1  C   UNL     1      -5.223  18.491  71.462  1.00  0.00    -0.204 C  
HETATM    2  O   UNL     1      -5.921  17.803  70.429  1.00  0.00    -0.153 OA 
ENDROOT
BRANCH   2   3
HETATM    3  C   UNL     1      -6.517  18.567  69.461  1.00  0.00    -0.206 A  
HETATM    4  C   UNL     1      -6.370  19.961  69.418  1.00  0.00    -0.374 A  
HETATM    5  C   UNL     1      -7.019  20.716  68.445  1.00  0.00    -0.110 A  
HETATM    6  C   UNL     1      -7.832  20.083  67.514  1.00  0.00    -0.337 A  
HETATM    7  C   UNL     1      -7.998  18.688  67.549  1.00  0.00    -0.256 A  
HETATM    8  C   UNL     1      -7.345  17.922  68.514  1.00  0.00    -0.268 A  
HETATM    9  C   UNL     1      -7.531  16.449  68.490  1.00  0.00    -0.181 C  
HETATM   10  O   UNL     1      -7.016  15.709  69.324  1.00  0.00    -0.152 OA 
HETATM   11  C   UNL     1      -8.362  15.812  67.440  1.00  0.00    -0.189 A  
HETATM   12  C   UNL     1      -8.484  14.405  67.390  1.00  0.00    -0.203 A  
HETATM   13  O   UNL     1      -7.812  13.593  68.275  1.00  0.00    -0.124 OA 
HETATM   14  C   UNL     1      -9.328  13.762  66.462  1.00  0.00    -0.249 A  
HETATM   15  H   UNL     1      -7.894  12.648  68.241  1.00  0.00     0.000 HD 
HETATM   16  C   UNL     1     -10.085  14.557  65.577  1.00  0.00    -0.394 A  
HETATM   17  C   UNL     1      -9.908  15.958  65.588  1.00  0.00    -0.302 A  
HETATM   18  C   UNL     1     -11.078  13.922  64.619  1.00  0.00    -0.389 C  
HETATM   19  C   UNL     1     -11.471  12.469  64.938  1.00  0.00    -0.325 C  
HETATM   20  C   UNL     1      -9.055  16.591  66.518  1.00  0.00    -0.307 A  
HETATM   21  O   UNL     1     -10.603  16.738  64.704  1.00  0.00    -0.614 OA 
HETATM   22  C   UNL     1      -9.556  12.259  66.572  1.00  0.00    -0.238 C  
HETATM   23  C   UNL     1      -8.875  18.066  66.536  1.00  0.00    -0.258 C  
HETATM   24  C   UNL     1     -10.223  11.673  65.328  1.00  0.00    -0.316 C  
HETATM   25  O   UNL     1     -12.456  12.450  65.973  1.00  0.00    -0.551 OA 
HETATM   26  H   UNL     1     -10.484  17.680  64.712  1.00  0.00     0.000 HD 
HETATM   27  O   UNL     1      -9.416  18.807  65.724  1.00  0.00    -0.414 OA 
HETATM   28  H   UNL     1     -12.699  11.553  66.170  1.00  0.00     0.000 HD 
BRANCH  19  29
HETATM   29  C   UNL     1     -12.162  11.843  63.710  1.00  0.00    -0.444 C  
HETATM   30  O   UNL     1     -13.344  12.066  63.426  1.00  0.00    -0.601 OA 
BRANCH  29  31
HETATM   31  C   UNL     1     -11.339  10.889  62.846  1.00  0.00     1.288 C  
HETATM   32  O   UNL     1     -10.108  11.487  62.462  1.00  0.00    -0.533 OA 
HETATM   33  H   UNL     1      -9.596  10.894  61.926  1.00  0.00     0.000 HD 
ENDBRANCH  29  31
ENDBRANCH  19  29
BRANCH  22  34
HETATM   34  O   UNL     1     -10.407  12.196  67.702  1.00  0.00    -0.199 OA 
BRANCH  34  35
HETATM   35  C   UNL     1     -11.318  11.138  67.912  1.00  0.00    -0.309 C  
HETATM   36  C   UNL     1     -10.806   9.838  68.541  1.00  0.00    -0.227 C  
HETATM   37  C   UNL     1     -10.400   9.998  70.014  1.00  0.00    -0.272 C  
HETATM   38  C   UNL     1     -11.432  10.824  70.816  1.00  0.00    -0.122 C  
HETATM   39  N   UNL     1     -10.208   8.667  70.636  1.00  0.00    -0.191 NA 
HETATM   40  C   UNL     1     -11.819  12.078  70.021  1.00  0.00    -0.314 C  
HETATM   41  H2  UNL     1      -9.541   8.096  70.117  1.00  0.00     0.000 HD 
HETATM   42  O   UNL     1     -12.588  10.017  71.086  1.00  0.00    -0.326 OA 
HETATM   43  H1  UNL     1      -9.938   8.774  71.614  1.00  0.00     0.000 HD 
HETATM   44  C   UNL     1     -12.851  12.947  70.718  1.00  0.00    -0.128 C  
HETATM   45  H   UNL     1     -13.222  10.525  71.578  1.00  0.00     0.000 HD 
HETATM   46  O   UNL     1     -12.344  11.698  68.735  1.00  0.00    -0.374 OA 
ENDBRANCH  34  35
ENDBRANCH  22  34
ENDBRANCH   2   3
TORSDOF 5
ENDMDL
MODEL       34
REMARK 921   NORMALIZED FREE ENERGY PREDICTED BY IDOCK:   -6.44 KCAL/MOL
REMARK 922        TOTAL FREE ENERGY PREDICTED BY IDOCK:   -9.61 KCAL/MOL
REMARK 923 INTER-LIGAND FREE ENERGY PREDICTED BY IDOCK:   -8.19 KCAL/MOL
REMARK 924 INTRA-LIGAND FREE ENERGY PREDICTED BY IDOCK:   -1.42 KCAL/MOL
REMARK 927      BINDING AFFINITY PREDICTED BY RF-SCORE:    0.00 PKD
ROOT
HETATM    1  C   UNL     1     -10.934   5.996  67.713  1.00  0.00    -0.234 C  
HETATM    2  O   UNL     1     -10.630   7.382  67.830  1.00  0.00    -0.219 OA 
ENDROOT
BRANCH   2   3
HETATM    3  C   UNL     1      -9.348   7.768  67.542  1.00  0.00    -0.139 A  
HETATM    4  C   UNL     1      -8.312   6.837  67.371  1.00  0.00    -0.122 A  
HETATM    5  C   UNL     1      -7.010   7.259  67.118  1.00  0.00    -0.078 A  
HETATM    6  C   UNL     1      -6.731   8.618  67.046  1.00  0.00    -0.062 A  
HETATM    7  C   UNL     1      -7.755   9.563  67.225  1.00  0.00    -0.091 A  
HETATM    8  C   UNL     1      -9.064   9.150  67.471  1.00  0.00    -0.137 A  
HETATM    9  C   UNL     1     -10.114  10.188  67.624  1.00  0.00    -0.190 C  
HETATM   10  O   UNL     1     -11.283   9.907  67.872  1.00  0.00    -0.226 OA 
HETATM   11  C   UNL     1      -9.779  11.626  67.481  1.00  0.00    -0.185 A  
HETATM   12  C   UNL     1     -10.796  12.602  67.569  1.00  0.00    -0.239 A  
HETATM   13  O   UNL     1     -12.115  12.253  67.745  1.00  0.00    -0.478 OA 
HETATM   14  C   UNL     1     -10.511  13.983  67.521  1.00  0.00    -0.252 A  
HETATM   15  H   UNL     1     -12.799  12.910  67.804  1.00  0.00     0.000 HD 
HETATM   16  C   UNL     1      -9.166  14.389  67.405  1.00  0.00    -0.199 A  
HETATM   17  C   UNL     1      -8.162  13.408  67.251  1.00  0.00    -0.154 A  
HETATM   18  C   UNL     1      -8.794  15.861  67.441  1.00  0.00    -0.201 C  
HETATM   19  C   UNL     1      -9.880  16.807  67.983  1.00  0.00    -0.265 C  
HETATM   20  C   UNL     1      -8.459  12.028  67.294  1.00  0.00    -0.175 A  
HETATM   21  O   UNL     1      -6.857  13.789  67.093  1.00  0.00    -0.419 OA 
HETATM   22  C   UNL     1     -11.623  14.987  67.800  1.00  0.00    -0.319 C  
HETATM   23  C   UNL     1      -7.402  10.995  67.141  1.00  0.00    -0.116 C  
HETATM   24  C   UNL     1     -11.240  16.413  67.402  1.00  0.00     0.041 C  
HETATM   25  O   UNL     1      -9.883  16.771  69.411  1.00  0.00    -0.205 OA 
HETATM   26  H   UNL     1      -6.182  13.129  66.989  1.00  0.00     0.000 HD 
HETATM   27  O   UNL     1      -6.229  11.277  66.925  1.00  0.00    -0.095 OA 
HETATM   28  H   UNL     1     -10.554  17.355  69.746  1.00  0.00     0.000 HD 
BRANCH  19  29
HETATM   29  C   UNL     1      -9.524  18.261  67.615  1.00  0.00    -0.272 C  
HETATM   30  O   UNL     1      -8.463  18.566  67.061  1.00  0.00    -0.252 OA 
BRANCH  29  31
HETATM   31  C   UNL     1     -10.527  19.350  67.990  1.00  0.00    -0.399 C  
HETATM   32  O   UNL     1     -10.318  19.794  69.324  1.00  0.00    -0.636 OA 
HETATM   33  H   UNL     1     -10.942  20.472  69.557  1.00  0.00     0.000 HD 
ENDBRANCH  29  31
ENDBRANCH  19  29
BRANCH  22  34
HETATM   34  O   UNL     1     -11.763  14.854  69.202  1.00  0.00    -0.282 OA 
BRANCH  34  35
HETATM   35  C   UNL     1     -13.022  14.830  69.843  1.00  0.00     0.157 C  
HETATM   36  C   UNL     1     -13.506  13.519  70.470  1.00  0.00     0.570 C  
HETATM   37  C   UNL     1     -12.689  13.099  71.701  1.00  0.00    -0.221 C  
HETATM   38  C   UNL     1     -12.414  14.287  72.650  1.00  0.00    -0.136 C  
HETATM   39  N   UNL     1     -13.383  12.009  72.425  1.00  0.00    -0.533 NA 
HETATM   40  C   UNL     1     -11.944  15.500  71.836  1.00  0.00    -0.427 C  
HETATM   41  H2  UNL     1     -13.590  11.218  71.816  1.00  0.00     0.000 HD 
HETATM   42  O   UNL     1     -13.605  14.601  73.385  1.00  0.00    -0.504 OA 
HETATM   43  H1  UNL     1     -12.840  11.730  73.242  1.00  0.00     0.000 HD 
HETATM   44  C   UNL     1     -11.668  16.731  72.680  1.00  0.00    -0.026 C  
HETATM   45  H   UNL     1     -13.436  15.332  73.969  1.00  0.00     0.000 HD 
HETATM   46  O   UNL     1     -12.936  15.842  70.851  1.00  0.00    -0.468 OA 
ENDBRANCH  34  35
ENDBRANCH  22  34
ENDBRANCH   2   3
TORSDOF 5
ENDMDL
MODEL       35
REMARK 921   NORMALIZED FREE ENERGY PREDICTED BY IDOCK:   -6.44 KCAL/MOL
REMARK 922        TOTAL FREE ENERGY PREDICTED BY IDOCK:   -9.60 KCAL/MOL
REMARK 923 INTER-LIGAND FREE ENERGY PREDICTED BY IDOCK:   -8.12 KCAL/MOL
REMARK 924 INTRA-LIGAND FREE ENERGY PREDICTED BY IDOCK:   -1.48 KCAL/MOL
REMARK 927      BINDING AFFINITY PREDICTED BY RF-SCORE:    0.00 PKD
ROOT
HETATM    1  C   UNL     1     -12.493  13.845  65.633  1.00  0.00    -0.505 C  
HETATM    2  O   UNL     1     -11.445  13.417  66.497  1.00  0.00    -0.317 OA 
ENDROOT
BRANCH   2   3
HETATM    3  C   UNL     1     -11.755  13.247  67.820  1.00  0.00    -0.358 A  
HETATM    4  C   UNL     1     -12.226  14.302  68.616  1.00  0.00    -0.205 A  
HETATM    5  C   UNL     1     -12.496  14.109  69.967  1.00  0.00    -0.352 A  
HETATM    6  C   UNL     1     -12.285  12.861  70.539  1.00  0.00    -0.395 A  
HETATM    7  C   UNL     1     -11.805  11.796  69.758  1.00  0.00    -0.420 A  
HETATM    8  C   UNL     1     -11.539  11.977  68.401  1.00  0.00    -0.368 A  
HETATM    9  C   UNL     1     -11.061  10.812  67.615  1.00  0.00    -0.319 C  
HETATM   10  O   UNL     1     -10.775  10.897  66.423  1.00  0.00    -0.249 OA 
HETATM   11  C   UNL     1     -10.906   9.483  68.255  1.00  0.00    -0.194 A  
HETATM   12  C   UNL     1     -10.507   8.368  67.485  1.00  0.00    -0.257 A  
HETATM   13  O   UNL     1     -10.294   8.469  66.129  1.00  0.00    -0.385 OA 
HETATM   14  C   UNL     1     -10.269   7.106  68.067  1.00  0.00    -0.223 A  
HETATM   15  H   UNL     1     -10.026   7.720  65.611  1.00  0.00     0.000 HD 
HETATM   16  C   UNL     1     -10.414   6.970  69.462  1.00  0.00    -0.235 A  
HETATM   17  C   UNL     1     -10.877   8.071  70.216  1.00  0.00    -0.241 A  
HETATM   18  C   UNL     1     -10.082   5.659  70.153  1.00  0.00    -0.293 C  
HETATM   19  C   UNL     1      -9.243   4.668  69.328  1.00  0.00    -0.127 C  
HETATM   20  C   UNL     1     -11.119   9.328  69.622  1.00  0.00    -0.134 A  
HETATM   21  O   UNL     1     -11.064   7.940  71.566  1.00  0.00    -0.235 OA 
HETATM   22  C   UNL     1      -9.670   5.990  67.218  1.00  0.00    -0.125 C  
HETATM   23  C   UNL     1     -11.597  10.490  70.417  1.00  0.00    -0.342 C  
HETATM   24  C   UNL     1      -9.770   4.622  67.892  1.00  0.00    -0.198 C  
HETATM   25  O   UNL     1      -7.865   5.043  69.374  1.00  0.00    -0.073 OA 
HETATM   26  H   UNL     1     -11.375   8.681  72.072  1.00  0.00     0.000 HD 
HETATM   27  O   UNL     1     -11.850  10.413  71.612  1.00  0.00    -0.249 OA 
HETATM   28  H   UNL     1      -7.347   4.431  68.865  1.00  0.00     0.000 HD 
BRANCH  19  29
HETATM   29  C   UNL     1      -9.305   3.273  69.982  1.00  0.00    -0.168 C  
HETATM   30  O   UNL     1      -9.673   3.102  71.149  1.00  0.00    -0.157 OA 
BRANCH  29  31
HETATM   31  C   UNL     1      -8.859   2.078  69.142  1.00  0.00    -0.088 C  
HETATM   32  O   UNL     1      -7.455   2.111  68.919  1.00  0.00    -0.043 OA 
HETATM   33  H   UNL     1      -7.178   1.368  68.397  1.00  0.00     0.000 HD 
ENDBRANCH  29  31
ENDBRANCH  19  29
BRANCH  22  34
HETATM   34  O   UNL     1      -8.327   6.424  67.109  1.00  0.00    -0.112 OA 
BRANCH  34  35
HETATM   35  C   UNL     1      -7.429   5.892  66.157  1.00  0.00    -0.085 C  
HETATM   36  C   UNL     1      -7.893   5.748  64.705  1.00  0.00    -0.116 C  
HETATM   37  C   UNL     1      -8.097   7.097  63.999  1.00  0.00    -0.018 C  
HETATM   38  C   UNL     1      -6.944   8.085  64.287  1.00  0.00    -0.072 C  
HETATM   39  N   UNL     1      -8.247   6.890  62.540  1.00  0.00    -0.276 NA 
HETATM   40  C   UNL     1      -6.626   8.083  65.789  1.00  0.00    -0.045 C  
HETATM   41  H2  UNL     1      -8.993   6.230  62.323  1.00  0.00     0.000 HD 
HETATM   42  O   UNL     1      -5.788   7.712  63.524  1.00  0.00    -0.051 OA 
HETATM   43  H1  UNL     1      -8.383   7.786  62.071  1.00  0.00     0.000 HD 
HETATM   44  C   UNL     1      -5.487   9.010  66.172  1.00  0.00    -0.041 C  
HETATM   45  H   UNL     1      -5.079   8.319  63.701  1.00  0.00     0.000 HD 
HETATM   46  O   UNL     1      -6.287   6.750  66.214  1.00  0.00    -0.042 OA 
ENDBRANCH  34  35
ENDBRANCH  22  34
ENDBRANCH   2   3
TORSDOF 5
ENDMDL
MODEL       36
REMARK 921   NORMALIZED FREE ENERGY PREDICTED BY IDOCK:   -6.43 KCAL/MOL
REMARK 922        TOTAL FREE ENERGY PREDICTED BY IDOCK:   -9.59 KCAL/MOL
REMARK 923 INTER-LIGAND FREE ENERGY PREDICTED BY IDOCK:   -8.63 KCAL/MOL
REMARK 924 INTRA-LIGAND FREE ENERGY PREDICTED BY IDOCK:   -0.96 KCAL/MOL
REMARK 927      BINDING AFFINITY PREDICTED BY RF-SCORE:    0.00 PKD
ROOT
HETATM    1  C   UNL     1     -10.272   6.467  74.322  1.00  0.00    -0.350 C  
HETATM    2  O   UNL     1     -10.255   5.671  73.143  1.00  0.00    -0.175 OA 
ENDROOT
BRANCH   2   3
HETATM    3  C   UNL     1      -9.030   5.287  72.665  1.00  0.00    -0.132 A  
HETATM    4  C   UNL     1      -8.170   4.459  73.401  1.00  0.00    -0.095 A  
HETATM    5  C   UNL     1      -6.914   4.117  72.907  1.00  0.00    -0.061 A  
HETATM    6  C   UNL     1      -6.502   4.612  71.677  1.00  0.00    -0.023 A  
HETATM    7  C   UNL     1      -7.347   5.451  70.931  1.00  0.00    -0.078 A  
HETATM    8  C   UNL     1      -8.610   5.793  71.413  1.00  0.00    -0.129 A  
HETATM    9  C   UNL     1      -9.476   6.659  70.574  1.00  0.00    -0.166 C  
HETATM   10  O   UNL     1     -10.588   7.029  70.941  1.00  0.00    -0.214 OA 
HETATM   11  C   UNL     1      -9.016   7.117  69.240  1.00  0.00    -0.138 A  
HETATM   12  C   UNL     1      -9.870   7.891  68.424  1.00  0.00    -0.173 A  
HETATM   13  O   UNL     1     -11.151   8.205  68.817  1.00  0.00    -0.417 OA 
HETATM   14  C   UNL     1      -9.445   8.415  67.186  1.00  0.00    -0.209 A  
HETATM   15  H   UNL     1     -11.725   8.726  68.268  1.00  0.00     0.000 HD 
HETATM   16  C   UNL     1      -8.120   8.173  66.770  1.00  0.00    -0.103 A  
HETATM   17  C   UNL     1      -7.293   7.343  67.560  1.00  0.00    -0.102 A  
HETATM   18  C   UNL     1      -7.582   8.789  65.491  1.00  0.00    -0.087 C  
HETATM   19  C   UNL     1      -8.408   9.954  64.918  1.00  0.00    -0.150 C  
HETATM   20  C   UNL     1      -7.731   6.818  68.795  1.00  0.00    -0.110 A  
HETATM   21  O   UNL     1      -6.019   7.063  67.147  1.00  0.00    -0.023 OA 
HETATM   22  C   UNL     1     -10.347   9.389  66.435  1.00  0.00    -0.167 C  
HETATM   23  C   UNL     1      -6.858   5.952  69.630  1.00  0.00    -0.061 C  
HETATM   24  C   UNL     1      -9.898   9.612  64.991  1.00  0.00    -0.141 C  
HETATM   25  O   UNL     1      -8.105  11.157  65.627  1.00  0.00    -0.348 OA 
HETATM   26  H   UNL     1      -5.463   6.505  67.677  1.00  0.00     0.000 HD 
HETATM   27  O   UNL     1      -5.736   5.610  69.278  1.00  0.00    -0.011 OA 
HETATM   28  H   UNL     1      -8.615  11.876  65.272  1.00  0.00     0.000 HD 
BRANCH  19  29
HETATM   29  C   UNL     1      -7.975  10.222  63.462  1.00  0.00    -0.143 C  
HETATM   30  O   UNL     1      -6.896   9.830  63.007  1.00  0.00    -0.104 OA 
BRANCH  29  31
HETATM   31  C   UNL     1      -8.924  11.032  62.581  1.00  0.00    -0.323 C  
HETATM   32  O   UNL     1      -9.388  12.189  63.265  1.00  0.00    -0.668 OA 
HETATM   33  H   UNL     1      -9.978  12.692  62.717  1.00  0.00     0.000 HD 
ENDBRANCH  29  31
ENDBRANCH  19  29
BRANCH  22  34
HETATM   34  O   UNL     1     -10.194  10.558  67.218  1.00  0.00    -0.195 OA 
BRANCH  34  35
HETATM   35  C   UNL     1     -11.254  11.121  67.963  1.00  0.00    -0.296 C  
HETATM   36  C   UNL     1     -10.929  12.168  69.033  1.00  0.00    -0.255 C  
HETATM   37  C   UNL     1     -10.422  13.493  68.448  1.00  0.00    -0.246 C  
HETATM   38  C   UNL     1     -11.257  13.950  67.229  1.00  0.00    -0.312 C  
HETATM   39  N   UNL     1     -10.417  14.543  69.493  1.00  0.00    -0.422 NA 
HETATM   40  C   UNL     1     -11.475  12.764  66.280  1.00  0.00    -0.354 C  
HETATM   41  H2  UNL     1      -9.884  14.261  70.315  1.00  0.00     0.000 HD 
HETATM   42  O   UNL     1     -12.513  14.478  67.678  1.00  0.00    -0.595 OA 
HETATM   43  H1  UNL     1     -10.079  15.424  69.104  1.00  0.00     0.000 HD 
HETATM   44  C   UNL     1     -12.309  13.106  65.059  1.00  0.00    -0.511 C  
HETATM   45  H   UNL     1     -13.027  14.758  66.930  1.00  0.00     0.000 HD 
HETATM   46  O   UNL     1     -12.126  11.689  66.983  1.00  0.00    -0.547 OA 
ENDBRANCH  34  35
ENDBRANCH  22  34
ENDBRANCH   2   3
TORSDOF 5
ENDMDL
MODEL       37
REMARK 921   NORMALIZED FREE ENERGY PREDICTED BY IDOCK:   -6.33 KCAL/MOL
REMARK 922        TOTAL FREE ENERGY PREDICTED BY IDOCK:   -9.47 KCAL/MOL
REMARK 923 INTER-LIGAND FREE ENERGY PREDICTED BY IDOCK:   -8.50 KCAL/MOL
REMARK 924 INTRA-LIGAND FREE ENERGY PREDICTED BY IDOCK:   -0.97 KCAL/MOL
REMARK 927      BINDING AFFINITY PREDICTED BY RF-SCORE:    0.00 PKD
ROOT
HETATM    1  C   UNL     1     -11.767  15.719  68.888  1.00  0.00    -0.394 C  
HETATM    2  O   UNL     1     -11.444  14.405  69.330  1.00  0.00    -0.258 OA 
ENDROOT
BRANCH   2   3
HETATM    3  C   UNL     1     -12.265  13.841  70.271  1.00  0.00    -0.359 A  
HETATM    4  C   UNL     1     -13.155  14.609  71.037  1.00  0.00    -0.427 A  
HETATM    5  C   UNL     1     -13.950  14.015  72.013  1.00  0.00    -0.598 A  
HETATM    6  C   UNL     1     -13.852  12.649  72.240  1.00  0.00    -0.310 A  
HETATM    7  C   UNL     1     -12.959  11.867  71.489  1.00  0.00    -0.427 A  
HETATM    8  C   UNL     1     -12.164  12.451  70.503  1.00  0.00    -0.382 A  
HETATM    9  C   UNL     1     -11.257  11.576  69.717  1.00  0.00    -0.161 C  
HETATM   10  O   UNL     1     -10.504  12.019  68.854  1.00  0.00    -0.202 OA 
HETATM   11  C   UNL     1     -11.229  10.113  69.956  1.00  0.00    -0.361 A  
HETATM   12  C   UNL     1     -10.407   9.282  69.163  1.00  0.00    -0.211 A  
HETATM   13  O   UNL     1      -9.650   9.791  68.132  1.00  0.00    -0.142 OA 
HETATM   14  C   UNL     1     -10.288   7.898  69.408  1.00  0.00    -0.220 A  
HETATM   15  H   UNL     1      -9.098   9.232  67.599  1.00  0.00     0.000 HD 
HETATM   16  C   UNL     1     -10.996   7.343  70.492  1.00  0.00    -0.270 A  
HETATM   17  C   UNL     1     -11.866   8.167  71.240  1.00  0.00    -0.287 A  
HETATM   18  C   UNL     1     -10.832   5.878  70.858  1.00  0.00    -0.347 C  
HETATM   19  C   UNL     1      -9.607   5.175  70.248  1.00  0.00    -0.184 C  
HETATM   20  C   UNL     1     -11.984   9.550  70.982  1.00  0.00    -0.407 A  
HETATM   21  O   UNL     1     -12.593   7.631  72.268  1.00  0.00    -0.479 OA 
HETATM   22  C   UNL     1      -9.253   7.087  68.636  1.00  0.00    -0.131 C  
HETATM   23  C   UNL     1     -12.893  10.419  71.773  1.00  0.00    -0.456 C  
HETATM   24  C   UNL     1      -9.462   5.580  68.779  1.00  0.00    -0.163 C  
HETATM   25  O   UNL     1      -8.438   5.495  71.004  1.00  0.00    -0.121 OA 
HETATM   26  H   UNL     1     -13.179   8.185  72.770  1.00  0.00     0.000 HD 
HETATM   27  O   UNL     1     -13.620   9.983  72.657  1.00  0.00    -0.152 OA 
HETATM   28  H   UNL     1      -7.682   5.061  70.627  1.00  0.00     0.000 HD 
BRANCH  19  29
HETATM   29  C   UNL     1      -9.772   3.648  70.384  1.00  0.00    -0.131 C  
HETATM   30  O   UNL     1      -9.730   2.885  69.413  1.00  0.00    -0.067 OA 
BRANCH  29  31
HETATM   31  C   UNL     1     -10.025   3.086  71.781  1.00  0.00    -0.122 C  
HETATM   32  O   UNL     1      -8.818   3.023  72.530  1.00  0.00    -0.081 OA 
HETATM   33  H   UNL     1      -8.976   2.675  73.399  1.00  0.00     0.000 HD 
ENDBRANCH  29  31
ENDBRANCH  19  29
BRANCH  22  34
HETATM   34  O   UNL     1      -8.055   7.512  69.261  1.00  0.00    -0.121 OA 
BRANCH  34  35
HETATM   35  C   UNL     1      -6.788   7.369  68.655  1.00  0.00    -0.073 C  
HETATM   36  C   UNL     1      -6.714   7.163  67.139  1.00  0.00    -0.067 C  
HETATM   37  C   UNL     1      -7.137   8.403  66.338  1.00  0.00    -0.071 C  
HETATM   38  C   UNL     1      -6.531   9.703  66.914  1.00  0.00    -0.067 C  
HETATM   39  N   UNL     1      -6.760   8.244  64.915  1.00  0.00    -0.066 NA 
HETATM   40  C   UNL     1      -6.701   9.721  68.439  1.00  0.00    -0.060 C  
HETATM   41  H2  UNL     1      -7.137   7.385  64.514  1.00  0.00     0.000 HD 
HETATM   42  O   UNL     1      -5.143   9.786  66.558  1.00  0.00    -0.038 OA 
HETATM   43  H1  UNL     1      -7.042   9.068  64.383  1.00  0.00     0.000 HD 
HETATM   44  C   UNL     1      -6.113  10.952  69.104  1.00  0.00    -0.044 C  
HETATM   45  H   UNL     1      -4.770  10.585  66.912  1.00  0.00     0.000 HD 
HETATM   46  O   UNL     1      -6.076   8.557  69.014  1.00  0.00    -0.042 OA 
ENDBRANCH  34  35
ENDBRANCH  22  34
ENDBRANCH   2   3
TORSDOF 5
ENDMDL
MODEL       38
REMARK 921   NORMALIZED FREE ENERGY PREDICTED BY IDOCK:   -6.25 KCAL/MOL
REMARK 922        TOTAL FREE ENERGY PREDICTED BY IDOCK:   -9.36 KCAL/MOL
REMARK 923 INTER-LIGAND FREE ENERGY PREDICTED BY IDOCK:   -8.87 KCAL/MOL
REMARK 924 INTRA-LIGAND FREE ENERGY PREDICTED BY IDOCK:   -0.49 KCAL/MOL
REMARK 927      BINDING AFFINITY PREDICTED BY RF-SCORE:    0.00 PKD
ROOT
HETATM    1  C   UNL     1      -6.873  17.702  65.652  1.00  0.00     0.019 C  
HETATM    2  O   UNL     1      -8.243  17.334  65.778  1.00  0.00    -0.533 OA 
ENDROOT
BRANCH   2   3
HETATM    3  C   UNL     1      -8.892  17.720  66.920  1.00  0.00    -0.248 A  
HETATM    4  C   UNL     1      -8.912  19.056  67.349  1.00  0.00    -0.318 A  
HETATM    5  C   UNL     1      -9.547  19.414  68.535  1.00  0.00    -0.472 A  
HETATM    6  C   UNL     1     -10.156  18.435  69.310  1.00  0.00    -0.045 A  
HETATM    7  C   UNL     1     -10.137  17.092  68.900  1.00  0.00    -0.307 A  
HETATM    8  C   UNL     1      -9.511  16.724  67.709  1.00  0.00    -0.228 A  
HETATM    9  C   UNL     1      -9.544  15.295  67.307  1.00  0.00    -0.211 C  
HETATM   10  O   UNL     1      -8.989  14.888  66.289  1.00  0.00    -0.258 OA 
HETATM   11  C   UNL     1     -10.257  14.295  68.137  1.00  0.00    -0.231 A  
HETATM   12  C   UNL     1     -10.333  12.949  67.715  1.00  0.00    -0.222 A  
HETATM   13  O   UNL     1      -9.792  12.539  66.518  1.00  0.00    -0.234 OA 
HETATM   14  C   UNL     1     -10.930  11.950  68.512  1.00  0.00    -0.277 A  
HETATM   15  H   UNL     1      -9.843  11.634  66.235  1.00  0.00     0.000 HD 
HETATM   16  C   UNL     1     -11.442  12.312  69.774  1.00  0.00    -0.237 A  
HETATM   17  C   UNL     1     -11.422  13.670  70.160  1.00  0.00    -0.041 A  
HETATM   18  C   UNL     1     -12.012  11.262  70.711  1.00  0.00    -0.383 C  
HETATM   19  C   UNL     1     -11.649   9.805  70.373  1.00  0.00    -0.258 C  
HETATM   20  C   UNL     1     -10.828  14.664  69.352  1.00  0.00    -0.261 A  
HETATM   21  O   UNL     1     -11.956  14.043  71.364  1.00  0.00    -0.413 OA 
HETATM   22  C   UNL     1     -10.824  10.490  68.086  1.00  0.00    -0.253 C  
HETATM   23  C   UNL     1     -10.798  16.092  69.763  1.00  0.00    -0.337 C  
HETATM   24  C   UNL     1     -11.775   9.581  68.864  1.00  0.00     0.620 C  
HETATM   25  O   UNL     1     -10.333   9.512  70.844  1.00  0.00    -0.291 OA 
HETATM   26  H   UNL     1     -11.943  14.956  71.624  1.00  0.00     0.000 HD 
HETATM   27  O   UNL     1     -11.323  16.493  70.794  1.00  0.00    -0.314 OA 
HETATM   28  H   UNL     1     -10.109   8.613  70.636  1.00  0.00     0.000 HD 
BRANCH  19  29
HETATM   29  C   UNL     1     -12.579   8.851  71.150  1.00  0.00    -0.185 C  
HETATM   30  O   UNL     1     -12.466   7.622  71.096  1.00  0.00    -0.307 OA 
BRANCH  29  31
HETATM   31  C   UNL     1     -13.693   9.477  71.987  1.00  0.00    -0.359 C  
HETATM   32  O   UNL     1     -13.919   8.726  73.173  1.00  0.00    -1.077 OA 
HETATM   33  H   UNL     1     -14.611   9.115  73.694  1.00  0.00     0.000 HD 
ENDBRANCH  29  31
ENDBRANCH  19  29
BRANCH  22  34
HETATM   34  O   UNL     1      -9.469  10.217  68.393  1.00  0.00    -0.139 OA 
BRANCH  34  35
HETATM   35  C   UNL     1      -8.611   9.529  67.506  1.00  0.00    -0.126 C  
HETATM   36  C   UNL     1      -7.184   9.208  67.961  1.00  0.00    -0.079 C  
HETATM   37  C   UNL     1      -7.128   8.163  69.085  1.00  0.00    -0.061 C  
HETATM   38  C   UNL     1      -8.080   6.974  68.822  1.00  0.00    -0.121 C  
HETATM   39  N   UNL     1      -5.739   7.682  69.264  1.00  0.00    -0.029 NA 
HETATM   40  C   UNL     1      -9.451   7.499  68.376  1.00  0.00    -0.148 C  
HETATM   41  H2  UNL     1      -5.087   8.449  69.425  1.00  0.00     0.000 HD 
HETATM   42  O   UNL     1      -7.515   6.117  67.819  1.00  0.00    -0.085 OA 
HETATM   43  H1  UNL     1      -5.701   6.988  70.011  1.00  0.00     0.000 HD 
HETATM   44  C   UNL     1     -10.454   6.402  68.069  1.00  0.00    -0.271 C  
HETATM   45  H   UNL     1      -8.100   5.386  67.657  1.00  0.00     0.000 HD 
HETATM   46  O   UNL     1      -9.302   8.315  67.199  1.00  0.00    -0.141 OA 
ENDBRANCH  34  35
ENDBRANCH  22  34
ENDBRANCH   2   3
TORSDOF 5
ENDMDL
MODEL       39
REMARK 921   NORMALIZED FREE ENERGY PREDICTED BY IDOCK:   -6.21 KCAL/MOL
REMARK 922        TOTAL FREE ENERGY PREDICTED BY IDOCK:   -9.30 KCAL/MOL
REMARK 923 INTER-LIGAND FREE ENERGY PREDICTED BY IDOCK:   -9.59 KCAL/MOL
REMARK 924 INTRA-LIGAND FREE ENERGY PREDICTED BY IDOCK:    0.28 KCAL/MOL
REMARK 927      BINDING AFFINITY PREDICTED BY RF-SCORE:    0.00 PKD
ROOT
HETATM    1  C   UNL     1      -9.713   5.061  69.246  1.00  0.00    -0.179 C  
HETATM    2  O   UNL     1      -9.471   6.361  69.773  1.00  0.00    -0.151 OA 
ENDROOT
BRANCH   2   3
HETATM    3  C   UNL     1     -10.493   6.956  70.465  1.00  0.00    -0.211 A  
HETATM    4  C   UNL     1     -11.337   6.229  71.317  1.00  0.00    -0.356 A  
HETATM    5  C   UNL     1     -12.392   6.853  71.977  1.00  0.00    -0.305 A  
HETATM    6  C   UNL     1     -12.620   8.208  71.779  1.00  0.00    -0.360 A  
HETATM    7  C   UNL     1     -11.790   8.949  70.921  1.00  0.00    -0.283 A  
HETATM    8  C   UNL     1     -10.726   8.335  70.261  1.00  0.00    -0.237 A  
HETATM    9  C   UNL     1      -9.862   9.169  69.388  1.00  0.00    -0.172 C  
HETATM   10  O   UNL     1      -8.924   8.697  68.750  1.00  0.00    -0.138 OA 
HETATM   11  C   UNL     1     -10.108  10.625  69.253  1.00  0.00    -0.227 A  
HETATM   12  C   UNL     1      -9.245  11.420  68.467  1.00  0.00    -0.174 A  
HETATM   13  O   UNL     1      -8.140  10.884  67.845  1.00  0.00    -0.109 OA 
HETATM   14  C   UNL     1      -9.489  12.791  68.245  1.00  0.00    -0.203 A  
HETATM   15  H   UNL     1      -7.560  11.418  67.317  1.00  0.00     0.000 HD 
HETATM   16  C   UNL     1     -10.643  13.370  68.810  1.00  0.00    -0.230 A  
HETATM   17  C   UNL     1     -11.466  12.586  69.649  1.00  0.00    -0.185 A  
HETATM   18  C   UNL     1     -11.003  14.818  68.528  1.00  0.00    -0.265 C  
HETATM   19  C   UNL     1     -10.281  15.460  67.331  1.00  0.00    -0.249 C  
HETATM   20  C   UNL     1     -11.209  11.215  69.870  1.00  0.00    -0.293 A  
HETATM   21  O   UNL     1     -12.565  13.146  70.239  1.00  0.00    -0.191 OA 
HETATM   22  C   UNL     1      -8.625  13.553  67.247  1.00  0.00    -0.213 C  
HETATM   23  C   UNL     1     -12.079  10.387  70.745  1.00  0.00    -0.364 C  
HETATM   24  C   UNL     1      -8.801  15.068  67.354  1.00  0.00    -0.202 C  
HETATM   25  O   UNL     1     -10.914  15.064  66.114  1.00  0.00    -0.327 OA 
HETATM   26  H   UNL     1     -13.118  12.619  70.803  1.00  0.00     0.000 HD 
HETATM   27  O   UNL     1     -13.034  10.851  71.355  1.00  0.00    -0.394 OA 
HETATM   28  H   UNL     1     -10.468  15.461  65.374  1.00  0.00     0.000 HD 
BRANCH  19  29
HETATM   29  C   UNL     1     -10.445  16.992  67.393  1.00  0.00    -0.322 C  
HETATM   30  O   UNL     1     -11.001  17.563  68.338  1.00  0.00    -0.251 OA 
BRANCH  29  31
HETATM   31  C   UNL     1      -9.919  17.808  66.215  1.00  0.00    -0.318 C  
HETATM   32  O   UNL     1     -10.893  17.895  65.182  1.00  0.00    -0.672 OA 
HETATM   33  H   UNL     1     -10.566  18.402  64.450  1.00  0.00     0.000 HD 
ENDBRANCH  29  31
ENDBRANCH  19  29
BRANCH  22  34
HETATM   34  O   UNL     1      -9.125  13.053  66.020  1.00  0.00    -0.007 OA 
BRANCH  34  35
HETATM   35  C   UNL     1      -9.737  11.785  65.906  1.00  0.00    -0.237 C  
HETATM   36  C   UNL     1     -11.040  11.664  65.112  1.00  0.00    -0.300 C  
HETATM   37  C   UNL     1     -10.853  11.889  63.604  1.00  0.00    -0.444 C  
HETATM   38  C   UNL     1      -9.609  11.153  63.056  1.00  0.00    -0.369 C  
HETATM   39  N   UNL     1     -12.069  11.465  62.871  1.00  0.00    -0.795 NA 
HETATM   40  C   UNL     1      -8.414  11.394  63.988  1.00  0.00     0.646 C  
HETATM   41  H2  UNL     1     -12.907  11.926  63.224  1.00  0.00     0.000 HD 
HETATM   42  O   UNL     1      -9.891   9.751  62.944  1.00  0.00    -0.497 OA 
HETATM   43  H1  UNL     1     -11.944  11.616  61.870  1.00  0.00     0.000 HD 
HETATM   44  C   UNL     1      -7.144  10.690  63.545  1.00  0.00     0.187 C  
HETATM   45  H   UNL     1      -9.126   9.298  62.607  1.00  0.00     0.000 HD 
HETATM   46  O   UNL     1      -8.736  10.949  65.319  1.00  0.00    -0.189 OA 
ENDBRANCH  34  35
ENDBRANCH  22  34
ENDBRANCH   2   3
TORSDOF 5
ENDMDL
MODEL       40
REMARK 921   NORMALIZED FREE ENERGY PREDICTED BY IDOCK:   -6.19 KCAL/MOL
REMARK 922        TOTAL FREE ENERGY PREDICTED BY IDOCK:   -9.29 KCAL/MOL
REMARK 923 INTER-LIGAND FREE ENERGY PREDICTED BY IDOCK:   -8.58 KCAL/MOL
REMARK 924 INTRA-LIGAND FREE ENERGY PREDICTED BY IDOCK:   -0.70 KCAL/MOL
REMARK 927      BINDING AFFINITY PREDICTED BY RF-SCORE:    0.00 PKD
ROOT
HETATM    1  C   UNL     1      -8.850  17.816  68.408  1.00  0.00    -0.285 C  
HETATM    2  O   UNL     1      -9.741  16.713  68.291  1.00  0.00    -0.232 OA 
ENDROOT
BRANCH   2   3
HETATM    3  C   UNL     1     -10.167  16.382  67.032  1.00  0.00    -0.282 A  
HETATM    4  C   UNL     1     -10.699  17.337  66.152  1.00  0.00    -0.095 A  
HETATM    5  C   UNL     1     -11.160  16.966  64.893  1.00  0.00     0.029 A  
HETATM    6  C   UNL     1     -11.104  15.634  64.506  1.00  0.00    -0.303 A  
HETATM    7  C   UNL     1     -10.583  14.664  65.378  1.00  0.00    -0.390 A  
HETATM    8  C   UNL     1     -10.111  15.026  66.639  1.00  0.00    -0.267 A  
HETATM    9  C   UNL     1      -9.544  13.967  67.512  1.00  0.00    -0.229 C  
HETATM   10  O   UNL     1      -9.136  14.200  68.647  1.00  0.00    -0.192 OA 
HETATM   11  C   UNL     1      -9.451  12.567  67.033  1.00  0.00    -0.217 A  
HETATM   12  C   UNL     1      -8.855  11.578  67.847  1.00  0.00    -0.152 A  
HETATM   13  O   UNL     1      -8.313  11.887  69.074  1.00  0.00    -0.364 OA 
HETATM   14  C   UNL     1      -8.819  10.220  67.467  1.00  0.00    -0.128 A  
HETATM   15  H   UNL     1      -7.912  11.222  69.621  1.00  0.00     0.000 HD 
HETATM   16  C   UNL     1      -9.418   9.847  66.247  1.00  0.00    -0.245 A  
HETATM   17  C   UNL     1      -9.953  10.849  65.408  1.00  0.00    -0.263 A  
HETATM   18  C   UNL     1      -9.490   8.388  65.832  1.00  0.00    -0.169 C  
HETATM   19  C   UNL     1      -9.236   7.365  66.954  1.00  0.00    -0.152 C  
HETATM   20  C   UNL     1      -9.978  12.206  65.796  1.00  0.00    -0.271 A  
HETATM   21  O   UNL     1     -10.499  10.506  64.201  1.00  0.00    -0.409 OA 
HETATM   22  C   UNL     1      -8.325   9.176  68.462  1.00  0.00    -0.123 C  
HETATM   23  C   UNL     1     -10.549  13.261  64.917  1.00  0.00    -0.366 C  
HETATM   24  C   UNL     1      -8.049   7.824  67.806  1.00  0.00    -0.125 C  
HETATM   25  O   UNL     1     -10.419   7.202  67.737  1.00  0.00    -0.191 OA 
HETATM   26  H   UNL     1     -10.858  11.180  63.637  1.00  0.00     0.000 HD 
HETATM   27  O   UNL     1     -10.985  13.022  63.798  1.00  0.00    -0.392 OA 
HETATM   28  H   UNL     1     -10.261   6.571  68.430  1.00  0.00     0.000 HD 
BRANCH  19  29
HETATM   29  C   UNL     1      -8.965   5.980  66.334  1.00  0.00    -0.145 C  
HETATM   30  O   UNL     1      -8.393   5.837  65.248  1.00  0.00    -0.137 OA 
BRANCH  29  31
HETATM   31  C   UNL     1      -9.463   4.755  67.098  1.00  0.00    -0.149 C  
HETATM   32  O   UNL     1     -10.862   4.578  66.917  1.00  0.00    -0.100 OA 
HETATM   33  H   UNL     1     -11.172   3.816  67.392  1.00  0.00     0.000 HD 
ENDBRANCH  29  31
ENDBRANCH  19  29
BRANCH  22  34
HETATM   34  O   UNL     1      -9.423   9.112  69.354  1.00  0.00    -0.154 OA 
BRANCH  34  35
HETATM   35  C   UNL     1      -9.357   9.596  70.680  1.00  0.00    -0.106 C  
HETATM   36  C   UNL     1     -10.539   9.338  71.619  1.00  0.00    -0.360 C  
HETATM   37  C   UNL     1     -10.702   7.857  71.994  1.00  0.00    -0.241 C  
HETATM   38  C   UNL     1      -9.350   7.194  72.345  1.00  0.00    -0.134 C  
HETATM   39  N   UNL     1     -11.653   7.719  73.121  1.00  0.00    -0.634 NA 
HETATM   40  C   UNL     1      -8.300   7.574  71.293  1.00  0.00    -0.111 C  
HETATM   41  H2  UNL     1     -12.549   8.162  72.920  1.00  0.00     0.000 HD 
HETATM   42  O   UNL     1      -8.933   7.615  73.652  1.00  0.00    -0.207 OA 
HETATM   43  H1  UNL     1     -11.761   6.735  73.369  1.00  0.00     0.000 HD 
HETATM   44  C   UNL     1      -6.926   6.987  71.563  1.00  0.00    -0.065 C  
HETATM   45  H   UNL     1      -8.103   7.207  73.868  1.00  0.00     0.000 HD 
HETATM   46  O   UNL     1      -8.173   9.006  71.224  1.00  0.00    -0.224 OA 
ENDBRANCH  34  35
ENDBRANCH  22  34
ENDBRANCH   2   3
TORSDOF 5
ENDMDL
MODEL       41
REMARK 921   NORMALIZED FREE ENERGY PREDICTED BY IDOCK:   -6.11 KCAL/MOL
REMARK 922        TOTAL FREE ENERGY PREDICTED BY IDOCK:   -9.18 KCAL/MOL
REMARK 923 INTER-LIGAND FREE ENERGY PREDICTED BY IDOCK:   -8.80 KCAL/MOL
REMARK 924 INTRA-LIGAND FREE ENERGY PREDICTED BY IDOCK:   -0.38 KCAL/MOL
REMARK 927      BINDING AFFINITY PREDICTED BY RF-SCORE:    0.00 PKD
ROOT
HETATM    1  C   UNL     1     -14.027   9.011  72.319  1.00  0.00    -0.455 C  
HETATM    2  O   UNL     1     -12.707   9.525  72.179  1.00  0.00    -0.380 OA 
ENDROOT
BRANCH   2   3
HETATM    3  C   UNL     1     -12.571  10.742  71.564  1.00  0.00    -0.395 A  
HETATM    4  C   UNL     1     -13.259  11.881  72.010  1.00  0.00    -0.461 A  
HETATM    5  C   UNL     1     -13.133  13.096  71.343  1.00  0.00    -0.352 A  
HETATM    6  C   UNL     1     -12.326  13.179  70.215  1.00  0.00    -0.319 A  
HETATM    7  C   UNL     1     -11.638  12.046  69.750  1.00  0.00    -0.348 A  
HETATM    8  C   UNL     1     -11.752  10.826  70.416  1.00  0.00    -0.445 A  
HETATM    9  C   UNL     1     -10.981   9.666  69.901  1.00  0.00    -0.252 C  
HETATM   10  O   UNL     1     -11.052   8.552  70.413  1.00  0.00    -0.244 OA 
HETATM   11  C   UNL     1     -10.087   9.817  68.728  1.00  0.00    -0.187 A  
HETATM   12  C   UNL     1      -9.313   8.723  68.281  1.00  0.00    -0.137 A  
HETATM   13  O   UNL     1      -9.332   7.513  68.937  1.00  0.00    -0.143 OA 
HETATM   14  C   UNL     1      -8.513   8.799  67.123  1.00  0.00    -0.110 A  
HETATM   15  H   UNL     1      -8.812   6.778  68.637  1.00  0.00     0.000 HD 
HETATM   16  C   UNL     1      -8.510   9.998  66.383  1.00  0.00    -0.132 A  
HETATM   17  C   UNL     1      -9.234  11.109  66.871  1.00  0.00    -0.169 A  
HETATM   18  C   UNL     1      -7.739  10.105  65.079  1.00  0.00    -0.141 C  
HETATM   19  C   UNL     1      -7.311   8.767  64.450  1.00  0.00    -0.103 C  
HETATM   20  C   UNL     1     -10.026  11.024  68.036  1.00  0.00    -0.188 A  
HETATM   21  O   UNL     1      -9.205  12.293  66.187  1.00  0.00    -0.329 OA 
HETATM   22  C   UNL     1      -7.842   7.537  66.592  1.00  0.00    -0.106 C  
HETATM   23  C   UNL     1     -10.796  12.190  68.545  1.00  0.00    -0.236 C  
HETATM   24  C   UNL     1      -6.774   7.837  65.541  1.00  0.00    -0.045 C  
HETATM   25  O   UNL     1      -8.413   8.185  63.753  1.00  0.00    -0.383 OA 
HETATM   26  H   UNL     1      -9.691  13.040  66.515  1.00  0.00     0.000 HD 
HETATM   27  O   UNL     1     -10.751  13.293  68.015  1.00  0.00    -0.230 OA 
HETATM   28  H   UNL     1      -8.149   7.359  63.365  1.00  0.00     0.000 HD 
BRANCH  19  29
HETATM   29  C   UNL     1      -6.241   9.026  63.372  1.00  0.00    -0.089 C  
HETATM   30  O   UNL     1      -5.924   8.177  62.531  1.00  0.00    -0.076 OA 
BRANCH  29  31
HETATM   31  C   UNL     1      -5.538  10.382  63.385  1.00  0.00    -0.154 C  
HETATM   32  O   UNL     1      -6.075  11.241  62.386  1.00  0.00    -0.353 OA 
HETATM   33  H   UNL     1      -5.639  12.084  62.395  1.00  0.00     0.000 HD 
ENDBRANCH  29  31
ENDBRANCH  19  29
BRANCH  22  34
HETATM   34  O   UNL     1      -8.951   6.856  66.033  1.00  0.00    -0.155 OA 
BRANCH  34  35
HETATM   35  C   UNL     1      -9.580   5.767  66.677  1.00  0.00    -0.152 C  
HETATM   36  C   UNL     1     -10.733   5.055  65.964  1.00  0.00    -0.241 C  
HETATM   37  C   UNL     1     -10.285   4.272  64.721  1.00  0.00    -0.145 C  
HETATM   38  C   UNL     1      -8.993   3.463  64.977  1.00  0.00    -0.135 C  
HETATM   39  N   UNL     1     -11.373   3.377  64.263  1.00  0.00    -0.458 NA 
HETATM   40  C   UNL     1      -7.966   4.345  65.699  1.00  0.00    -0.095 C  
HETATM   41  H2  UNL     1     -12.242   3.885  64.100  1.00  0.00     0.000 HD 
HETATM   42  O   UNL     1      -9.301   2.300  65.759  1.00  0.00    -0.313 OA 
HETATM   43  H1  UNL     1     -11.075   2.858  63.437  1.00  0.00     0.000 HD 
HETATM   44  C   UNL     1      -6.665   3.630  66.018  1.00  0.00    -0.041 C  
HETATM   45  H   UNL     1      -8.508   1.802  65.917  1.00  0.00     0.000 HD 
HETATM   46  O   UNL     1      -8.525   4.836  66.932  1.00  0.00    -0.107 OA 
ENDBRANCH  34  35
ENDBRANCH  22  34
ENDBRANCH   2   3
TORSDOF 5
ENDMDL
MODEL       42
REMARK 921   NORMALIZED FREE ENERGY PREDICTED BY IDOCK:   -6.08 KCAL/MOL
REMARK 922        TOTAL FREE ENERGY PREDICTED BY IDOCK:   -9.14 KCAL/MOL
REMARK 923 INTER-LIGAND FREE ENERGY PREDICTED BY IDOCK:  -10.05 KCAL/MOL
REMARK 924 INTRA-LIGAND FREE ENERGY PREDICTED BY IDOCK:    0.91 KCAL/MOL
REMARK 927      BINDING AFFINITY PREDICTED BY RF-SCORE:    0.00 PKD
ROOT
HETATM    1  C   UNL     1     -10.175   6.332  74.128  1.00  0.00    -0.324 C  
HETATM    2  O   UNL     1      -9.939   7.614  73.557  1.00  0.00    -0.315 OA 
ENDROOT
BRANCH   2   3
HETATM    3  C   UNL     1      -8.725   7.817  72.954  1.00  0.00    -0.166 A  
HETATM    4  C   UNL     1      -7.541   7.261  73.462  1.00  0.00    -0.110 A  
HETATM    5  C   UNL     1      -6.316   7.516  72.852  1.00  0.00    -0.060 A  
HETATM    6  C   UNL     1      -6.264   8.340  71.735  1.00  0.00    -0.050 A  
HETATM    7  C   UNL     1      -7.439   8.912  71.220  1.00  0.00    -0.127 A  
HETATM    8  C   UNL     1      -8.672   8.657  71.819  1.00  0.00    -0.266 A  
HETATM    9  C   UNL     1      -9.887   9.263  71.219  1.00  0.00    -0.248 C  
HETATM   10  O   UNL     1     -11.005   9.110  71.705  1.00  0.00    -0.353 OA 
HETATM   11  C   UNL     1      -9.789  10.089  69.991  1.00  0.00    -0.247 A  
HETATM   12  C   UNL     1     -10.958  10.612  69.394  1.00  0.00    -0.255 A  
HETATM   13  O   UNL     1     -12.208  10.340  69.901  1.00  0.00    -0.466 OA 
HETATM   14  C   UNL     1     -10.904  11.469  68.276  1.00  0.00    -0.257 A  
HETATM   15  H   UNL     1     -12.993  10.691  69.500  1.00  0.00     0.000 HD 
HETATM   16  C   UNL     1      -9.642  11.826  67.760  1.00  0.00    -0.184 A  
HETATM   17  C   UNL     1      -8.482  11.247  68.321  1.00  0.00    -0.152 A  
HETATM   18  C   UNL     1      -9.523  12.817  66.616  1.00  0.00    -0.249 C  
HETATM   19  C   UNL     1     -10.778  13.662  66.336  1.00  0.00    -0.281 C  
HETATM   20  C   UNL     1      -8.547  10.385  69.436  1.00  0.00    -0.143 A  
HETATM   21  O   UNL     1      -7.253  11.551  67.802  1.00  0.00    -0.085 OA 
HETATM   22  C   UNL     1     -12.182  12.142  67.786  1.00  0.00     0.351 C  
HETATM   23  C   UNL     1      -7.326   9.783  70.033  1.00  0.00    -0.144 C  
HETATM   24  C   UNL     1     -12.021  12.771  66.403  1.00  0.00    -0.443 C  
HETATM   25  O   UNL     1     -10.851  14.743  67.267  1.00  0.00    -0.294 OA 
HETATM   26  H   UNL     1      -6.473  11.162  68.179  1.00  0.00     0.000 HD 
HETATM   27  O   UNL     1      -6.207   9.962  69.567  1.00  0.00    -0.043 OA 
HETATM   28  H   UNL     1     -11.627  15.265  67.094  1.00  0.00     0.000 HD 
BRANCH  19  29
HETATM   29  C   UNL     1     -10.651  14.327  64.951  1.00  0.00    -0.431 C  
HETATM   30  O   UNL     1     -10.342  13.695  63.936  1.00  0.00    -0.100 OA 
BRANCH  29  31
HETATM   31  C   UNL     1     -10.892  15.833  64.866  1.00  0.00    -0.413 C  
HETATM   32  O   UNL     1     -11.658  16.160  63.714  1.00  0.00    -1.390 OA 
HETATM   33  H   UNL     1     -11.809  17.096  63.661  1.00  0.00     0.000 HD 
ENDBRANCH  29  31
ENDBRANCH  19  29
BRANCH  22  34
HETATM   34  O   UNL     1     -12.372  13.123  68.790  1.00  0.00    -0.146 OA 
BRANCH  34  35
HETATM   35  C   UNL     1     -11.431  13.354  69.818  1.00  0.00    -0.166 C  
HETATM   36  C   UNL     1     -10.786  14.738  69.931  1.00  0.00    -0.185 C  
HETATM   37  C   UNL     1     -11.773  15.832  70.366  1.00  0.00    -0.370 C  
HETATM   38  C   UNL     1     -12.681  15.368  71.528  1.00  0.00    -0.411 C  
HETATM   39  N   UNL     1     -11.038  17.061  70.744  1.00  0.00    -0.093 NA 
HETATM   40  C   UNL     1     -13.224  13.964  71.229  1.00  0.00    -0.282 C  
HETATM   41  H2  UNL     1     -10.420  17.380  69.998  1.00  0.00     0.000 HD 
HETATM   42  O   UNL     1     -11.933  15.372  72.753  1.00  0.00    -0.388 OA 
HETATM   43  H1  UNL     1     -11.694  17.787  71.032  1.00  0.00     0.000 HD 
HETATM   44  C   UNL     1     -14.112  13.408  72.328  1.00  0.00    -0.515 C  
HETATM   45  H   UNL     1     -12.491  15.086  73.467  1.00  0.00     0.000 HD 
HETATM   46  O   UNL     1     -12.131  13.049  71.027  1.00  0.00    -0.246 OA 
ENDBRANCH  34  35
ENDBRANCH  22  34
ENDBRANCH   2   3
TORSDOF 5
ENDMDL
MODEL       43
REMARK 921   NORMALIZED FREE ENERGY PREDICTED BY IDOCK:   -6.01 KCAL/MOL
REMARK 922        TOTAL FREE ENERGY PREDICTED BY IDOCK:   -9.05 KCAL/MOL
REMARK 923 INTER-LIGAND FREE ENERGY PREDICTED BY IDOCK:   -8.08 KCAL/MOL
REMARK 924 INTRA-LIGAND FREE ENERGY PREDICTED BY IDOCK:   -0.97 KCAL/MOL
REMARK 927      BINDING AFFINITY PREDICTED BY RF-SCORE:    0.00 PKD
ROOT
HETATM    1  C   UNL     1      -9.114   7.715  68.818  1.00  0.00    -0.139 C  
HETATM    2  O   UNL     1      -7.824   8.192  68.451  1.00  0.00    -0.114 OA 
ENDROOT
BRANCH   2   3
HETATM    3  C   UNL     1      -7.034   8.696  69.450  1.00  0.00    -0.053 A  
HETATM    4  C   UNL     1      -6.466   7.874  70.435  1.00  0.00    -0.037 A  
HETATM    5  C   UNL     1      -5.701   8.419  71.462  1.00  0.00    -0.037 A  
HETATM    6  C   UNL     1      -5.507   9.793  71.520  1.00  0.00    -0.072 A  
HETATM    7  C   UNL     1      -6.076  10.631  70.547  1.00  0.00    -0.113 A  
HETATM    8  C   UNL     1      -6.839  10.094  69.510  1.00  0.00    -0.079 A  
HETATM    9  C   UNL     1      -7.395  11.020  68.491  1.00  0.00    -0.101 C  
HETATM   10  O   UNL     1      -8.101  10.629  67.565  1.00  0.00    -0.110 OA 
HETATM   11  C   UNL     1      -7.113  12.474  68.560  1.00  0.00    -0.107 A  
HETATM   12  C   UNL     1      -7.596  13.339  67.554  1.00  0.00    -0.164 A  
HETATM   13  O   UNL     1      -8.298  12.861  66.471  1.00  0.00    -0.413 OA 
HETATM   14  C   UNL     1      -7.422  14.736  67.623  1.00  0.00    -0.203 A  
HETATM   15  H   UNL     1      -8.624  13.442  65.794  1.00  0.00     0.000 HD 
HETATM   16  C   UNL     1      -6.764  15.278  68.745  1.00  0.00    -0.103 A  
HETATM   17  C   UNL     1      -6.225  14.403  69.715  1.00  0.00    -0.139 A  
HETATM   18  C   UNL     1      -6.629  16.781  68.917  1.00  0.00    -0.189 C  
HETATM   19  C   UNL     1      -7.556  17.635  68.034  1.00  0.00    -0.226 C  
HETATM   20  C   UNL     1      -6.400  13.005  69.632  1.00  0.00    -0.089 A  
HETATM   21  O   UNL     1      -5.545  14.913  70.788  1.00  0.00    -0.139 OA 
HETATM   22  C   UNL     1      -8.118  15.630  66.603  1.00  0.00    -0.204 C  
HETATM   23  C   UNL     1      -5.841  12.085  70.657  1.00  0.00    -0.064 C  
HETATM   24  C   UNL     1      -7.584  17.062  66.615  1.00  0.00    -0.298 C  
HETATM   25  O   UNL     1      -8.862  17.684  68.611  1.00  0.00    -0.287 OA 
HETATM   26  H   UNL     1      -5.182  14.325  71.439  1.00  0.00     0.000 HD 
HETATM   27  O   UNL     1      -5.164  12.478  71.598  1.00  0.00    -0.315 OA 
HETATM   28  H   UNL     1      -9.435  18.212  68.065  1.00  0.00     0.000 HD 
BRANCH  19  29
HETATM   29  C   UNL     1      -7.060  19.094  68.029  1.00  0.00    -0.242 C  
HETATM   30  O   UNL     1      -6.212  19.511  68.826  1.00  0.00    -0.233 OA 
BRANCH  29  31
HETATM   31  C   UNL     1      -7.679  20.048  67.010  1.00  0.00    -0.294 C  
HETATM   32  O   UNL     1      -7.215  21.377  67.211  1.00  0.00    -0.751 OA 
HETATM   33  H   UNL     1      -7.599  21.970  66.577  1.00  0.00     0.000 HD 
ENDBRANCH  29  31
ENDBRANCH  19  29
BRANCH  22  34
HETATM   34  O   UNL     1      -9.458  15.566  67.057  1.00  0.00    -0.216 OA 
BRANCH  34  35
HETATM   35  C   UNL     1     -10.564  15.739  66.196  1.00  0.00    -0.313 C  
HETATM   36  C   UNL     1     -10.555  15.035  64.835  1.00  0.00    -0.400 C  
HETATM   37  C   UNL     1     -10.670  13.508  64.943  1.00  0.00    -0.381 C  
HETATM   38  C   UNL     1     -11.746  13.076  65.965  1.00  0.00    -0.393 C  
HETATM   39  N   UNL     1     -10.958  12.923  63.613  1.00  0.00    -0.550 NA 
HETATM   40  C   UNL     1     -11.590  13.893  67.255  1.00  0.00    -0.365 C  
HETATM   41  H2  UNL     1     -10.269  13.205  62.915  1.00  0.00     0.000 HD 
HETATM   42  O   UNL     1     -13.051  13.265  65.399  1.00  0.00    -0.606 OA 
HETATM   43  H1  UNL     1     -11.033  11.908  63.684  1.00  0.00     0.000 HD 
HETATM   44  C   UNL     1     -12.621  13.557  68.318  1.00  0.00     0.648 C  
HETATM   45  H   UNL     1     -13.712  12.999  66.028  1.00  0.00     0.000 HD 
HETATM   46  O   UNL     1     -11.691  15.298  66.957  1.00  0.00    -0.193 OA 
ENDBRANCH  34  35
ENDBRANCH  22  34
ENDBRANCH   2   3
TORSDOF 5
ENDMDL
MODEL       44
REMARK 921   NORMALIZED FREE ENERGY PREDICTED BY IDOCK:   -5.95 KCAL/MOL
REMARK 922        TOTAL FREE ENERGY PREDICTED BY IDOCK:   -8.97 KCAL/MOL
REMARK 923 INTER-LIGAND FREE ENERGY PREDICTED BY IDOCK:   -7.67 KCAL/MOL
REMARK 924 INTRA-LIGAND FREE ENERGY PREDICTED BY IDOCK:   -1.30 KCAL/MOL
REMARK 927      BINDING AFFINITY PREDICTED BY RF-SCORE:    0.00 PKD
ROOT
HETATM    1  C   UNL     1     -10.259   3.751  64.740  1.00  0.00    -0.150 C  
HETATM    2  O   UNL     1      -9.110   4.283  65.389  1.00  0.00    -0.127 OA 
ENDROOT
BRANCH   2   3
HETATM    3  C   UNL     1      -9.142   4.358  66.757  1.00  0.00    -0.128 A  
HETATM    4  C   UNL     1      -9.322   3.222  67.560  1.00  0.00    -0.250 A  
HETATM    5  C   UNL     1      -9.390   3.333  68.945  1.00  0.00    -0.232 A  
HETATM    6  C   UNL     1      -9.291   4.585  69.540  1.00  0.00    -0.221 A  
HETATM    7  C   UNL     1      -9.120   5.734  68.749  1.00  0.00    -0.118 A  
HETATM    8  C   UNL     1      -9.043   5.632  67.361  1.00  0.00    -0.110 A  
HETATM    9  C   UNL     1      -8.833   6.873  66.573  1.00  0.00    -0.140 C  
HETATM   10  O   UNL     1      -8.785   6.871  65.346  1.00  0.00    -0.094 OA 
HETATM   11  C   UNL     1      -8.675   8.181  67.255  1.00  0.00    -0.125 A  
HETATM   12  C   UNL     1      -8.417   9.347  66.501  1.00  0.00    -0.133 A  
HETATM   13  O   UNL     1      -8.264   9.300  65.134  1.00  0.00    -0.127 OA 
HETATM   14  C   UNL     1      -8.341  10.621  67.099  1.00  0.00    -0.125 A  
HETATM   15  H   UNL     1      -8.091  10.083  64.627  1.00  0.00     0.000 HD 
HETATM   16  C   UNL     1      -8.553  10.726  68.489  1.00  0.00    -0.148 A  
HETATM   17  C   UNL     1      -8.745   9.549  69.246  1.00  0.00    -0.151 A  
HETATM   18  C   UNL     1      -8.574  12.083  69.171  1.00  0.00     0.490 C  
HETATM   19  C   UNL     1      -8.736  13.293  68.235  1.00  0.00    -0.168 C  
HETATM   20  C   UNL     1      -8.812   8.277  68.637  1.00  0.00    -0.133 A  
HETATM   21  O   UNL     1      -8.908   9.633  70.602  1.00  0.00    -0.260 OA 
HETATM   22  C   UNL     1      -8.238  11.859  66.215  1.00  0.00     0.137 C  
HETATM   23  C   UNL     1      -9.024   7.040  69.433  1.00  0.00    -0.139 C  
HETATM   24  C   UNL     1      -7.848  13.111  67.001  1.00  0.00     0.034 C  
HETATM   25  O   UNL     1     -10.111  13.449  67.879  1.00  0.00    -0.226 OA 
HETATM   26  H   UNL     1      -9.037   8.842  71.111  1.00  0.00     0.000 HD 
HETATM   27  O   UNL     1      -9.104   7.046  70.655  1.00  0.00    -0.156 OA 
HETATM   28  H   UNL     1     -10.211  14.197  67.301  1.00  0.00     0.000 HD 
BRANCH  19  29
HETATM   29  C   UNL     1      -8.365  14.583  68.994  1.00  0.00    -0.061 C  
HETATM   30  O   UNL     1      -7.225  14.800  69.418  1.00  0.00    -0.154 OA 
BRANCH  29  31
HETATM   31  C   UNL     1      -9.476  15.600  69.244  1.00  0.00    -0.264 C  
HETATM   32  O   UNL     1     -10.438  15.086  70.157  1.00  0.00    -0.450 OA 
HETATM   33  H   UNL     1     -11.129  15.718  70.313  1.00  0.00     0.000 HD 
ENDBRANCH  29  31
ENDBRANCH  19  29
BRANCH  22  34
HETATM   34  O   UNL     1      -9.560  11.944  65.715  1.00  0.00    -0.236 OA 
BRANCH  34  35
HETATM   35  C   UNL     1      -9.845  12.190  64.354  1.00  0.00    -0.128 C  
HETATM   36  C   UNL     1     -11.080  11.535  63.728  1.00  0.00    -0.471 C  
HETATM   37  C   UNL     1     -12.402  12.093  64.274  1.00  0.00    -0.371 C  
HETATM   38  C   UNL     1     -12.385  13.636  64.377  1.00  0.00    -0.338 C  
HETATM   39  N   UNL     1     -13.533  11.645  63.428  1.00  0.00    -0.302 NA 
HETATM   40  C   UNL     1     -11.071  14.095  65.024  1.00  0.00    -0.370 C  
HETATM   41  H2  UNL     1     -13.558  10.630  63.332  1.00  0.00     0.000 HD 
HETATM   42  O   UNL     1     -12.532  14.207  63.069  1.00  0.00    -1.077 OA 
HETATM   43  H1  UNL     1     -14.411  12.016  63.791  1.00  0.00     0.000 HD 
HETATM   44  C   UNL     1     -10.947  15.603  65.149  1.00  0.00    -0.411 C  
HETATM   45  H   UNL     1     -12.521  15.154  63.132  1.00  0.00     0.000 HD 
HETATM   46  O   UNL     1      -9.953  13.612  64.255  1.00  0.00    -0.233 OA 
ENDBRANCH  34  35
ENDBRANCH  22  34
ENDBRANCH   2   3
TORSDOF 5
ENDMDL
MODEL       45
REMARK 921   NORMALIZED FREE ENERGY PREDICTED BY IDOCK:   -5.93 KCAL/MOL
REMARK 922        TOTAL FREE ENERGY PREDICTED BY IDOCK:   -8.95 KCAL/MOL
REMARK 923 INTER-LIGAND FREE ENERGY PREDICTED BY IDOCK:   -8.26 KCAL/MOL
REMARK 924 INTRA-LIGAND FREE ENERGY PREDICTED BY IDOCK:   -0.69 KCAL/MOL
REMARK 927      BINDING AFFINITY PREDICTED BY RF-SCORE:    0.00 PKD
ROOT
HETATM    1  C   UNL     1      -9.291  11.511  62.746  1.00  0.00    -0.181 C  
HETATM    2  O   UNL     1     -10.656  11.317  63.099  1.00  0.00    -0.310 OA 
ENDROOT
BRANCH   2   3
HETATM    3  C   UNL     1     -11.206  12.207  63.984  1.00  0.00    -0.390 A  
HETATM    4  C   UNL     1     -11.725  13.443  63.569  1.00  0.00    -0.301 A  
HETATM    5  C   UNL     1     -12.242  14.344  64.495  1.00  0.00    -0.483 A  
HETATM    6  C   UNL     1     -12.233  14.022  65.846  1.00  0.00    -0.481 A  
HETATM    7  C   UNL     1     -11.708  12.793  66.279  1.00  0.00    -0.460 A  
HETATM    8  C   UNL     1     -11.195  11.880  65.359  1.00  0.00    -0.351 A  
HETATM    9  C   UNL     1     -10.678  10.583  65.865  1.00  0.00     0.009 C  
HETATM   10  O   UNL     1     -10.182   9.740  65.122  1.00  0.00    -0.177 OA 
HETATM   11  C   UNL     1     -10.742  10.259  67.310  1.00  0.00    -0.323 A  
HETATM   12  C   UNL     1     -10.303   8.999  67.774  1.00  0.00    -0.246 A  
HETATM   13  O   UNL     1      -9.847   8.032  66.907  1.00  0.00    -0.203 OA 
HETATM   14  C   UNL     1     -10.270   8.680  69.147  1.00  0.00    -0.215 A  
HETATM   15  H   UNL     1      -9.552   7.185  67.219  1.00  0.00     0.000 HD 
HETATM   16  C   UNL     1     -10.667   9.661  70.077  1.00  0.00    -0.298 A  
HETATM   17  C   UNL     1     -11.168  10.895  69.603  1.00  0.00    -0.282 A  
HETATM   18  C   UNL     1     -10.565   9.404  71.570  1.00  0.00    -0.331 C  
HETATM   19  C   UNL     1      -9.674   8.218  71.979  1.00  0.00    -0.252 C  
HETATM   20  C   UNL     1     -11.203  11.202  68.226  1.00  0.00    -0.343 A  
HETATM   21  O   UNL     1     -11.599  11.840  70.493  1.00  0.00    -0.493 OA 
HETATM   22  C   UNL     1      -9.620   7.376  69.598  1.00  0.00    -0.156 C  
HETATM   23  C   UNL     1     -11.721  12.502  67.727  1.00  0.00    -0.359 C  
HETATM   24  C   UNL     1      -9.943   7.031  71.051  1.00  0.00    -0.196 C  
HETATM   25  O   UNL     1      -8.301   8.611  71.951  1.00  0.00    -0.211 OA 
HETATM   26  H   UNL     1     -11.936  12.669  70.175  1.00  0.00     0.000 HD 
HETATM   27  O   UNL     1     -12.185  13.357  68.471  1.00  0.00    -0.295 OA 
HETATM   28  H   UNL     1      -7.751   7.879  72.204  1.00  0.00     0.000 HD 
BRANCH  19  29
HETATM   29  C   UNL     1      -9.959   7.845  73.448  1.00  0.00    -0.206 C  
HETATM   30  O   UNL     1     -11.102   7.654  73.875  1.00  0.00     0.045 OA 
BRANCH  29  31
HETATM   31  C   UNL     1      -8.765   7.743  74.395  1.00  0.00    -0.115 C  
HETATM   32  O   UNL     1      -7.815   6.801  73.914  1.00  0.00    -0.098 OA 
HETATM   33  H   UNL     1      -7.072   6.738  74.503  1.00  0.00     0.000 HD 
ENDBRANCH  29  31
ENDBRANCH  19  29
BRANCH  22  34
HETATM   34  O   UNL     1      -8.249   7.683  69.424  1.00  0.00    -0.125 OA 
BRANCH  34  35
HETATM   35  C   UNL     1      -7.218   6.775  69.751  1.00  0.00    -0.077 C  
HETATM   36  C   UNL     1      -7.462   5.277  69.550  1.00  0.00    -0.065 C  
HETATM   37  C   UNL     1      -7.569   4.874  68.072  1.00  0.00    -0.082 C  
HETATM   38  C   UNL     1      -6.478   5.544  67.206  1.00  0.00    -0.048 C  
HETATM   39  N   UNL     1      -7.502   3.400  67.939  1.00  0.00    -0.058 NA 
HETATM   40  C   UNL     1      -6.384   7.034  67.556  1.00  0.00    -0.046 C  
HETATM   41  H2  UNL     1      -8.204   2.933  68.513  1.00  0.00     0.000 HD 
HETATM   42  O   UNL     1      -5.220   4.890  67.428  1.00  0.00    -0.007 OA 
HETATM   43  H1  UNL     1      -7.574   3.133  66.957  1.00  0.00     0.000 HD 
HETATM   44  C   UNL     1      -5.319   7.779  66.771  1.00  0.00    -0.028 C  
HETATM   45  H   UNL     1      -4.549   5.302  66.896  1.00  0.00     0.000 HD 
HETATM   46  O   UNL     1      -6.102   7.190  68.959  1.00  0.00    -0.022 OA 
ENDBRANCH  34  35
ENDBRANCH  22  34
ENDBRANCH   2   3
TORSDOF 5
ENDMDL
MODEL       46
REMARK 921   NORMALIZED FREE ENERGY PREDICTED BY IDOCK:   -5.91 KCAL/MOL
REMARK 922        TOTAL FREE ENERGY PREDICTED BY IDOCK:   -8.92 KCAL/MOL
REMARK 923 INTER-LIGAND FREE ENERGY PREDICTED BY IDOCK:   -8.61 KCAL/MOL
REMARK 924 INTRA-LIGAND FREE ENERGY PREDICTED BY IDOCK:   -0.31 KCAL/MOL
REMARK 927      BINDING AFFINITY PREDICTED BY RF-SCORE:    0.00 PKD
ROOT
HETATM    1  C   UNL     1     -11.676   4.975  73.326  1.00  0.00    -0.048 C  
HETATM    2  O   UNL     1     -11.544   5.863  72.221  1.00  0.00    -0.303 OA 
ENDROOT
BRANCH   2   3
HETATM    3  C   UNL     1     -10.353   5.846  71.543  1.00  0.00    -0.222 A  
HETATM    4  C   UNL     1      -9.434   4.795  71.681  1.00  0.00    -0.206 A  
HETATM    5  C   UNL     1      -8.215   4.823  71.011  1.00  0.00    -0.096 A  
HETATM    6  C   UNL     1      -7.898   5.909  70.206  1.00  0.00    -0.101 A  
HETATM    7  C   UNL     1      -8.803   6.974  70.064  1.00  0.00    -0.142 A  
HETATM    8  C   UNL     1     -10.031   6.952  70.725  1.00  0.00    -0.201 A  
HETATM    9  C   UNL     1     -10.964   8.089  70.520  1.00  0.00    -0.247 C  
HETATM   10  O   UNL     1     -12.050   8.158  71.090  1.00  0.00    -0.299 OA 
HETATM   11  C   UNL     1     -10.607   9.200  69.604  1.00  0.00    -0.237 A  
HETATM   12  C   UNL     1     -11.526  10.247  69.369  1.00  0.00    -0.186 A  
HETATM   13  O   UNL     1     -12.778  10.247  69.941  1.00  0.00    -0.563 OA 
HETATM   14  C   UNL     1     -11.197  11.363  68.572  1.00  0.00    -0.309 A  
HETATM   15  H   UNL     1     -13.395  10.951  69.783  1.00  0.00     0.000 HD 
HETATM   16  C   UNL     1      -9.904  11.436  68.017  1.00  0.00    -0.191 A  
HETATM   17  C   UNL     1      -9.013  10.355  68.201  1.00  0.00    -0.132 A  
HETATM   18  C   UNL     1      -9.466  12.657  67.227  1.00  0.00    -0.199 C  
HETATM   19  C   UNL     1     -10.343  13.910  67.402  1.00  0.00    -0.252 C  
HETATM   20  C   UNL     1      -9.355   9.240  68.996  1.00  0.00    -0.151 A  
HETATM   21  O   UNL     1      -7.770  10.394  67.631  1.00  0.00    -0.093 OA 
HETATM   22  C   UNL     1     -12.161  12.542  68.500  1.00  0.00    -0.080 C  
HETATM   23  C   UNL     1      -8.415   8.106  69.198  1.00  0.00    -0.135 C  
HETATM   24  C   UNL     1     -11.820  13.511  67.368  1.00  0.00    -0.423 C  
HETATM   25  O   UNL     1     -10.001  14.573  68.620  1.00  0.00    -0.227 OA 
HETATM   26  H   UNL     1      -7.172   9.667  67.755  1.00  0.00     0.000 HD 
HETATM   27  O   UNL     1      -7.319   8.053  68.655  1.00  0.00    -0.085 OA 
HETATM   28  H   UNL     1     -10.542  15.347  68.728  1.00  0.00     0.000 HD 
BRANCH  19  29
HETATM   29  C   UNL     1     -10.020  14.922  66.285  1.00  0.00    -0.282 C  
HETATM   30  O   UNL     1      -8.908  15.447  66.164  1.00  0.00    -0.307 OA 
BRANCH  29  31
HETATM   31  C   UNL     1     -11.146  15.296  65.324  1.00  0.00    -0.376 C  
HETATM   32  O   UNL     1     -11.054  14.548  64.118  1.00  0.00    -0.586 OA 
HETATM   33  H   UNL     1     -11.754  14.780  63.521  1.00  0.00     0.000 HD 
ENDBRANCH  29  31
ENDBRANCH  19  29
BRANCH  22  34
HETATM   34  O   UNL     1     -11.962  13.131  69.772  1.00  0.00    -0.313 OA 
BRANCH  34  35
HETATM   35  C   UNL     1     -12.949  13.913  70.412  1.00  0.00    -0.027 C  
HETATM   36  C   UNL     1     -13.143  13.763  71.924  1.00  0.00    -0.474 C  
HETATM   37  C   UNL     1     -11.958  14.298  72.741  1.00  0.00     0.382 C  
HETATM   38  C   UNL     1     -11.456  15.662  72.215  1.00  0.00    -0.365 C  
HETATM   39  N   UNL     1     -12.330  14.402  74.171  1.00  0.00    -0.127 NA 
HETATM   40  C   UNL     1     -11.330  15.611  70.687  1.00  0.00    -0.368 C  
HETATM   41  H2  UNL     1     -12.679  13.517  74.540  1.00  0.00     0.000 HD 
HETATM   42  O   UNL     1     -12.367  16.696  72.615  1.00  0.00    -0.374 OA 
HETATM   43  H1  UNL     1     -11.542  14.756  74.714  1.00  0.00     0.000 HD 
HETATM   44  C   UNL     1     -10.864  16.917  70.069  1.00  0.00     0.085 C  
HETATM   45  H   UNL     1     -12.059  17.535  72.291  1.00  0.00     0.000 HD 
HETATM   46  O   UNL     1     -12.600  15.265  70.103  1.00  0.00    -0.347 OA 
ENDBRANCH  34  35
ENDBRANCH  22  34
ENDBRANCH   2   3
TORSDOF 5
ENDMDL
MODEL       47
REMARK 921   NORMALIZED FREE ENERGY PREDICTED BY IDOCK:   -5.82 KCAL/MOL
REMARK 922        TOTAL FREE ENERGY PREDICTED BY IDOCK:   -8.80 KCAL/MOL
REMARK 923 INTER-LIGAND FREE ENERGY PREDICTED BY IDOCK:   -8.68 KCAL/MOL
REMARK 924 INTRA-LIGAND FREE ENERGY PREDICTED BY IDOCK:   -0.13 KCAL/MOL
REMARK 927      BINDING AFFINITY PREDICTED BY RF-SCORE:    0.00 PKD
ROOT
HETATM    1  C   UNL     1     -11.638  12.993  63.629  1.00  0.00    -0.449 C  
HETATM    2  O   UNL     1     -10.634  13.100  64.632  1.00  0.00    -0.347 OA 
ENDROOT
BRANCH   2   3
HETATM    3  C   UNL     1     -11.036  13.495  65.881  1.00  0.00    -0.278 A  
HETATM    4  C   UNL     1     -11.361  14.829  66.170  1.00  0.00    -0.330 A  
HETATM    5  C   UNL     1     -11.729  15.209  67.458  1.00  0.00    -0.214 A  
HETATM    6  C   UNL     1     -11.762  14.259  68.471  1.00  0.00    -0.376 A  
HETATM    7  C   UNL     1     -11.430  12.922  68.200  1.00  0.00    -0.354 A  
HETATM    8  C   UNL     1     -11.067  12.529  66.912  1.00  0.00    -0.323 A  
HETATM    9  C   UNL     1     -10.754  11.098  66.673  1.00  0.00    -0.269 C  
HETATM   10  O   UNL     1     -10.397  10.679  65.574  1.00  0.00    -0.266 OA 
HETATM   11  C   UNL     1     -10.859  10.109  67.773  1.00  0.00    -0.346 A  
HETATM   12  C   UNL     1     -10.616   8.740  67.521  1.00  0.00    -0.228 A  
HETATM   13  O   UNL     1     -10.319   8.283  66.257  1.00  0.00    -0.439 OA 
HETATM   14  C   UNL     1     -10.625   7.779  68.553  1.00  0.00    -0.153 A  
HETATM   15  H   UNL     1     -10.156   7.363  66.088  1.00  0.00     0.000 HD 
HETATM   16  C   UNL     1     -10.862   8.210  69.873  1.00  0.00    -0.215 A  
HETATM   17  C   UNL     1     -11.169   9.569  70.108  1.00  0.00    -0.234 A  
HETATM   18  C   UNL     1     -10.792   7.234  71.034  1.00  0.00    -0.258 C  
HETATM   19  C   UNL     1     -10.092   5.896  70.734  1.00  0.00    -0.199 C  
HETATM   20  C   UNL     1     -11.164  10.522  69.067  1.00  0.00    -0.316 A  
HETATM   21  O   UNL     1     -11.445   9.994  71.379  1.00  0.00    -0.360 OA 
HETATM   22  C   UNL     1     -10.181   6.352  68.251  1.00  0.00    -0.171 C  
HETATM   23  C   UNL     1     -11.479  11.954  69.315  1.00  0.00    -0.306 C  
HETATM   24  C   UNL     1     -10.545   5.375  69.368  1.00  0.00    -0.295 C  
HETATM   25  O   UNL     1      -8.675   6.068  70.791  1.00  0.00    -0.132 OA 
HETATM   26  H   UNL     1     -11.652  10.907  71.537  1.00  0.00     0.000 HD 
HETATM   27  O   UNL     1     -11.802  12.377  70.418  1.00  0.00    -0.299 OA 
HETATM   28  H   UNL     1      -8.243   5.242  70.607  1.00  0.00     0.000 HD 
BRANCH  19  29
HETATM   29  C   UNL     1     -10.423   4.883  71.848  1.00  0.00    -0.163 C  
HETATM   30  O   UNL     1     -11.208   5.138  72.767  1.00  0.00    -0.263 OA 
BRANCH  29  31
HETATM   31  C   UNL     1      -9.715   3.530  71.805  1.00  0.00    -0.164 C  
HETATM   32  O   UNL     1      -8.342   3.665  72.149  1.00  0.00    -0.081 OA 
HETATM   33  H   UNL     1      -7.902   2.824  72.123  1.00  0.00     0.000 HD 
ENDBRANCH  29  31
ENDBRANCH  19  29
BRANCH  22  34
HETATM   34  O   UNL     1      -8.780   6.523  68.139  1.00  0.00    -0.118 OA 
BRANCH  34  35
HETATM   35  C   UNL     1      -8.127   6.670  66.895  1.00  0.00    -0.113 C  
HETATM   36  C   UNL     1      -6.679   6.190  66.761  1.00  0.00    -0.061 C  
HETATM   37  C   UNL     1      -6.538   4.663  66.838  1.00  0.00    -0.050 C  
HETATM   38  C   UNL     1      -7.613   3.935  66.000  1.00  0.00    -0.089 C  
HETATM   39  N   UNL     1      -5.181   4.254  66.406  1.00  0.00    -0.008 NA 
HETATM   40  C   UNL     1      -8.988   4.560  66.270  1.00  0.00    -0.119 C  
HETATM   41  H2  UNL     1      -4.452   4.731  66.935  1.00  0.00     0.000 HD 
HETATM   42  O   UNL     1      -7.280   4.026  64.607  1.00  0.00    -0.063 OA 
HETATM   43  H1  UNL     1      -5.088   3.239  66.458  1.00  0.00     0.000 HD 
HETATM   44  C   UNL     1     -10.114   3.927  65.471  1.00  0.00    -0.078 C  
HETATM   45  H   UNL     1      -7.941   3.580  64.091  1.00  0.00     0.000 HD 
HETATM   46  O   UNL     1      -8.955   5.967  65.964  1.00  0.00    -0.151 OA 
ENDBRANCH  34  35
ENDBRANCH  22  34
ENDBRANCH   2   3
TORSDOF 5
ENDMDL
MODEL       48
REMARK 921   NORMALIZED FREE ENERGY PREDICTED BY IDOCK:   -5.79 KCAL/MOL
REMARK 922        TOTAL FREE ENERGY PREDICTED BY IDOCK:   -8.76 KCAL/MOL
REMARK 923 INTER-LIGAND FREE ENERGY PREDICTED BY IDOCK:   -7.58 KCAL/MOL
REMARK 924 INTRA-LIGAND FREE ENERGY PREDICTED BY IDOCK:   -1.18 KCAL/MOL
REMARK 927      BINDING AFFINITY PREDICTED BY RF-SCORE:    0.00 PKD
ROOT
HETATM    1  C   UNL     1     -10.673   4.985  72.050  1.00  0.00    -0.135 C  
HETATM    2  O   UNL     1     -11.063   5.893  71.026  1.00  0.00    -0.284 OA 
ENDROOT
BRANCH   2   3
HETATM    3  C   UNL     1     -11.972   6.861  71.362  1.00  0.00    -0.349 A  
HETATM    4  C   UNL     1     -13.120   6.574  72.116  1.00  0.00     0.071 A  
HETATM    5  C   UNL     1     -14.047   7.570  72.409  1.00  0.00     0.049 A  
HETATM    6  C   UNL     1     -13.840   8.861  71.940  1.00  0.00    -0.492 A  
HETATM    7  C   UNL     1     -12.700   9.163  71.176  1.00  0.00    -0.271 A  
HETATM    8  C   UNL     1     -11.762   8.174  70.883  1.00  0.00    -0.259 A  
HETATM    9  C   UNL     1     -10.561   8.552  70.096  1.00  0.00    -0.232 C  
HETATM   10  O   UNL     1      -9.705   7.733  69.772  1.00  0.00    -0.174 OA 
HETATM   11  C   UNL     1     -10.353   9.956  69.666  1.00  0.00    -0.265 A  
HETATM   12  C   UNL     1      -9.178  10.316  68.969  1.00  0.00    -0.183 A  
HETATM   13  O   UNL     1      -8.186   9.399  68.709  1.00  0.00    -0.105 OA 
HETATM   14  C   UNL     1      -8.977  11.620  68.471  1.00  0.00    -0.138 A  
HETATM   15  H   UNL     1      -7.396   9.642  68.240  1.00  0.00     0.000 HD 
HETATM   16  C   UNL     1      -9.994  12.577  68.659  1.00  0.00    -0.111 A  
HETATM   17  C   UNL     1     -11.136  12.228  69.413  1.00  0.00    -0.101 A  
HETATM   18  C   UNL     1      -9.871  13.969  68.064  1.00  0.00    -0.228 C  
HETATM   19  C   UNL     1      -8.803  14.129  66.967  1.00  0.00    -0.221 C  
HETATM   20  C   UNL     1     -11.324  10.922  69.914  1.00  0.00    -0.381 A  
HETATM   21  O   UNL     1     -12.112  13.160  69.641  1.00  0.00    -0.301 OA 
HETATM   22  C   UNL     1      -7.776  11.903  67.576  1.00  0.00    -0.151 C  
HETATM   23  C   UNL     1     -12.530  10.551  70.700  1.00  0.00    -0.366 C  
HETATM   24  C   UNL     1      -7.525  13.398  67.384  1.00  0.00    -0.134 C  
HETATM   25  O   UNL     1      -9.310  13.641  65.724  1.00  0.00    -0.494 OA 
HETATM   26  H   UNL     1     -12.879  12.926  70.148  1.00  0.00     0.000 HD 
HETATM   27  O   UNL     1     -13.400  11.361  70.995  1.00  0.00    -0.004 OA 
HETATM   28  H   UNL     1      -8.651  13.740  65.046  1.00  0.00     0.000 HD 
BRANCH  19  29
HETATM   29  C   UNL     1      -8.529  15.628  66.732  1.00  0.00    -0.272 C  
HETATM   30  O   UNL     1      -7.508  16.189  67.142  1.00  0.00    -0.169 OA 
BRANCH  29  31
HETATM   31  C   UNL     1      -9.593  16.432  65.987  1.00  0.00    -0.319 C  
HETATM   32  O   UNL     1      -9.160  17.770  65.774  1.00  0.00    -0.503 OA 
HETATM   33  H   UNL     1      -9.821  18.270  65.311  1.00  0.00     0.000 HD 
ENDBRANCH  29  31
ENDBRANCH  19  29
BRANCH  22  34
HETATM   34  O   UNL     1      -8.184  11.281  66.371  1.00  0.00    -0.165 OA 
BRANCH  34  35
HETATM   35  C   UNL     1      -7.288  10.582  65.532  1.00  0.00    -0.106 C  
HETATM   36  C   UNL     1      -7.104   9.076  65.742  1.00  0.00    -0.085 C  
HETATM   37  C   UNL     1      -8.348   8.257  65.369  1.00  0.00    -0.162 C  
HETATM   38  C   UNL     1      -8.972   8.722  64.034  1.00  0.00     0.306 C  
HETATM   39  N   UNL     1      -8.009   6.816  65.306  1.00  0.00    -0.121 NA 
HETATM   40  C   UNL     1      -9.069  10.253  64.015  1.00  0.00    -0.251 C  
HETATM   41  H2  UNL     1      -7.581   6.487  66.171  1.00  0.00     0.000 HD 
HETATM   42  O   UNL     1      -8.173   8.252  62.939  1.00  0.00    -0.216 OA 
HETATM   43  H1  UNL     1      -8.835   6.272  65.058  1.00  0.00     0.000 HD 
HETATM   44  C   UNL     1      -9.652  10.812  62.730  1.00  0.00    -0.337 C  
HETATM   45  H   UNL     1      -8.557   8.538  62.118  1.00  0.00     0.000 HD 
HETATM   46  O   UNL     1      -7.763  10.828  64.206  1.00  0.00     0.082 OA 
ENDBRANCH  34  35
ENDBRANCH  22  34
ENDBRANCH   2   3
TORSDOF 5
ENDMDL
MODEL       49
REMARK 921   NORMALIZED FREE ENERGY PREDICTED BY IDOCK:   -5.73 KCAL/MOL
REMARK 922        TOTAL FREE ENERGY PREDICTED BY IDOCK:   -8.68 KCAL/MOL
REMARK 923 INTER-LIGAND FREE ENERGY PREDICTED BY IDOCK:   -7.43 KCAL/MOL
REMARK 924 INTRA-LIGAND FREE ENERGY PREDICTED BY IDOCK:   -1.26 KCAL/MOL
REMARK 927      BINDING AFFINITY PREDICTED BY RF-SCORE:    0.00 PKD
ROOT
HETATM    1  C   UNL     1     -12.059  14.600  69.262  1.00  0.00    -0.272 C  
HETATM    2  O   UNL     1     -11.771  13.227  69.018  1.00  0.00    -0.281 OA 
ENDROOT
BRANCH   2   3
HETATM    3  C   UNL     1     -12.159  12.327  69.975  1.00  0.00    -0.273 A  
HETATM    4  C   UNL     1     -12.919  12.709  71.091  1.00  0.00    -0.239 A  
HETATM    5  C   UNL     1     -13.266  11.780  72.068  1.00  0.00    -0.460 A  
HETATM    6  C   UNL     1     -12.844  10.463  71.943  1.00  0.00    -0.519 A  
HETATM    7  C   UNL     1     -12.074  10.066  70.837  1.00  0.00    -0.448 A  
HETATM    8  C   UNL     1     -11.728  10.987  69.849  1.00  0.00    -0.424 A  
HETATM    9  C   UNL     1     -10.938  10.510  68.686  1.00  0.00    -0.248 C  
HETATM   10  O   UNL     1     -10.568  11.265  67.790  1.00  0.00    -0.185 OA 
HETATM   11  C   UNL     1     -10.560   9.082  68.567  1.00  0.00    -0.196 A  
HETATM   12  C   UNL     1      -9.859   8.627  67.427  1.00  0.00    -0.192 A  
HETATM   13  O   UNL     1      -9.547   9.474  66.389  1.00  0.00    -0.180 OA 
HETATM   14  C   UNL     1      -9.409   7.296  67.311  1.00  0.00    -0.156 A  
HETATM   15  H   UNL     1      -9.076   9.169  65.623  1.00  0.00     0.000 HD 
HETATM   16  C   UNL     1      -9.650   6.407  68.377  1.00  0.00    -0.125 A  
HETATM   17  C   UNL     1     -10.408   6.850  69.484  1.00  0.00    -0.207 A  
HETATM   18  C   UNL     1      -9.108   4.989  68.345  1.00  0.00    -0.137 C  
HETATM   19  C   UNL     1      -8.001   4.726  67.308  1.00  0.00    -0.102 C  
HETATM   20  C   UNL     1     -10.860   8.184  69.588  1.00  0.00    -0.162 A  
HETATM   21  O   UNL     1     -10.688   5.986  70.507  1.00  0.00    -0.244 OA 
HETATM   22  C   UNL     1      -8.507   6.910  66.144  1.00  0.00    -0.136 C  
HETATM   23  C   UNL     1     -11.650   8.653  70.756  1.00  0.00    -0.242 C  
HETATM   24  C   UNL     1      -8.370   5.396  65.983  1.00  0.00    -0.120 C  
HETATM   25  O   UNL     1      -6.748   5.195  67.809  1.00  0.00    -0.052 OA 
HETATM   26  H   UNL     1     -11.198   6.284  71.250  1.00  0.00     0.000 HD 
HETATM   27  O   UNL     1     -11.991   7.907  71.665  1.00  0.00    -0.273 OA 
HETATM   28  H   UNL     1      -6.065   5.032  67.169  1.00  0.00     0.000 HD 
BRANCH  19  29
HETATM   29  C   UNL     1      -7.821   3.205  67.125  1.00  0.00    -0.078 C  
HETATM   30  O   UNL     1      -7.885   2.657  66.020  1.00  0.00    -0.079 OA 
BRANCH  29  31
HETATM   31  C   UNL     1      -7.587   2.366  68.379  1.00  0.00    -0.054 C  
HETATM   32  O   UNL     1      -6.342   2.694  68.984  1.00  0.00    -0.028 OA 
HETATM   33  H   UNL     1      -6.197   2.172  69.764  1.00  0.00     0.000 HD 
ENDBRANCH  29  31
ENDBRANCH  19  29
BRANCH  22  34
HETATM   34  O   UNL     1      -7.285   7.508  66.538  1.00  0.00    -0.072 OA 
BRANCH  34  35
HETATM   35  C   UNL     1      -6.299   7.909  65.609  1.00  0.00    -0.042 C  
HETATM   36  C   UNL     1      -6.741   8.596  64.314  1.00  0.00    -0.074 C  
HETATM   37  C   UNL     1      -7.328   9.997  64.543  1.00  0.00    -0.142 C  
HETATM   38  C   UNL     1      -6.487  10.825  65.542  1.00  0.00    -0.005 C  
HETATM   39  N   UNL     1      -7.451  10.715  63.253  1.00  0.00    -0.348 NA 
HETATM   40  C   UNL     1      -6.143   9.964  66.765  1.00  0.00    -0.060 C  
HETATM   41  H2  UNL     1      -7.990  10.183  62.571  1.00  0.00     0.000 HD 
HETATM   42  O   UNL     1      -5.292  11.288  64.896  1.00  0.00    -0.500 OA 
HETATM   43  H1  UNL     1      -7.841  11.645  63.405  1.00  0.00     0.000 HD 
HETATM   44  C   UNL     1      -5.295  10.683  67.798  1.00  0.00    -0.040 C  
HETATM   45  H   UNL     1      -4.774  11.796  65.509  1.00  0.00     0.000 HD 
HETATM   46  O   UNL     1      -5.437   8.780  66.346  1.00  0.00    -0.034 OA 
ENDBRANCH  34  35
ENDBRANCH  22  34
ENDBRANCH   2   3
TORSDOF 5
ENDMDL
MODEL       50
REMARK 921   NORMALIZED FREE ENERGY PREDICTED BY IDOCK:   -5.64 KCAL/MOL
REMARK 922        TOTAL FREE ENERGY PREDICTED BY IDOCK:   -8.57 KCAL/MOL
REMARK 923 INTER-LIGAND FREE ENERGY PREDICTED BY IDOCK:   -7.33 KCAL/MOL
REMARK 924 INTRA-LIGAND FREE ENERGY PREDICTED BY IDOCK:   -1.24 KCAL/MOL
REMARK 927      BINDING AFFINITY PREDICTED BY RF-SCORE:    0.00 PKD
ROOT
HETATM    1  C   UNL     1     -10.431   6.188  67.112  1.00  0.00    -0.264 C  
HETATM    2  O   UNL     1      -9.330   7.089  67.152  1.00  0.00    -0.134 OA 
ENDROOT
BRANCH   2   3
HETATM    3  C   UNL     1      -8.611   7.147  68.317  1.00  0.00    -0.122 A  
HETATM    4  C   UNL     1      -8.425   6.020  69.133  1.00  0.00    -0.114 A  
HETATM    5  C   UNL     1      -7.723   6.118  70.331  1.00  0.00    -0.098 A  
HETATM    6  C   UNL     1      -7.213   7.346  70.730  1.00  0.00    -0.068 A  
HETATM    7  C   UNL     1      -7.399   8.485  69.930  1.00  0.00    -0.055 A  
HETATM    8  C   UNL     1      -8.093   8.397  68.724  1.00  0.00    -0.121 A  
HETATM    9  C   UNL     1      -8.237   9.625  67.901  1.00  0.00    -0.106 C  
HETATM   10  O   UNL     1      -8.861   9.636  66.843  1.00  0.00    -0.130 OA 
HETATM   11  C   UNL     1      -7.625  10.902  68.340  1.00  0.00    -0.104 A  
HETATM   12  C   UNL     1      -7.717  12.050  67.522  1.00  0.00    -0.155 A  
HETATM   13  O   UNL     1      -8.332  12.009  66.292  1.00  0.00    -0.387 OA 
HETATM   14  C   UNL     1      -7.221  13.303  67.937  1.00  0.00    -0.137 A  
HETATM   15  H   UNL     1      -8.394  12.780  65.742  1.00  0.00     0.000 HD 
HETATM   16  C   UNL     1      -6.638  13.407  69.216  1.00  0.00    -0.097 A  
HETATM   17  C   UNL     1      -6.490  12.242  70.001  1.00  0.00     0.069 A  
HETATM   18  C   UNL     1      -6.171  14.750  69.750  1.00  0.00    -0.144 C  
HETATM   19  C   UNL     1      -6.710  15.984  69.004  1.00  0.00    -0.157 C  
HETATM   20  C   UNL     1      -6.984  10.991  69.574  1.00  0.00    -0.126 A  
HETATM   21  O   UNL     1      -5.887  12.321  71.227  1.00  0.00    -0.490 OA 
HETATM   22  C   UNL     1      -7.507  14.539  67.091  1.00  0.00     0.032 C  
HETATM   23  C   UNL     1      -6.837   9.767  70.403  1.00  0.00    -0.135 C  
HETATM   24  C   UNL     1      -6.649  15.738  67.494  1.00  0.00    -0.213 C  
HETATM   25  O   UNL     1      -8.039  16.271  69.441  1.00  0.00    -0.208 OA 
HETATM   26  H   UNL     1      -5.787  11.538  71.754  1.00  0.00     0.000 HD 
HETATM   27  O   UNL     1      -6.244   9.763  71.475  1.00  0.00    -0.273 OA 
HETATM   28  H   UNL     1      -8.372  17.033  68.980  1.00  0.00     0.000 HD 
BRANCH  19  29
HETATM   29  C   UNL     1      -5.879  17.223  69.394  1.00  0.00    -0.222 C  
HETATM   30  O   UNL     1      -5.599  17.493  70.567  1.00  0.00    -0.248 OA 
BRANCH  29  31
HETATM   31  C   UNL     1      -5.423  18.150  68.270  1.00  0.00    -0.165 C  
HETATM   32  O   UNL     1      -5.656  19.511  68.609  1.00  0.00    -0.202 OA 
HETATM   33  H   UNL     1      -5.372  20.088  67.910  1.00  0.00     0.000 HD 
ENDBRANCH  29  31
ENDBRANCH  19  29
BRANCH  22  34
HETATM   34  O   UNL     1      -8.877  14.753  67.380  1.00  0.00    -0.174 OA 
BRANCH  34  35
HETATM   35  C   UNL     1      -9.728  15.492  66.529  1.00  0.00    -0.270 C  
HETATM   36  C   UNL     1     -10.066  14.922  65.148  1.00  0.00    -0.354 C  
HETATM   37  C   UNL     1     -10.948  13.667  65.210  1.00  0.00    -0.310 C  
HETATM   38  C   UNL     1     -12.105  13.818  66.225  1.00  0.00    -0.446 C  
HETATM   39  N   UNL     1     -11.480  13.350  63.864  1.00  0.00    -0.582 NA 
HETATM   40  C   UNL     1     -11.567  14.404  67.537  1.00  0.00    -0.373 C  
HETATM   41  H2  UNL     1     -10.736  13.259  63.173  1.00  0.00     0.000 HD 
HETATM   42  O   UNL     1     -13.122  14.665  65.670  1.00  0.00    -0.305 OA 
HETATM   43  H1  UNL     1     -12.065  12.516  63.906  1.00  0.00     0.000 HD 
HETATM   44  C   UNL     1     -12.636  14.614  68.594  1.00  0.00     0.367 C  
HETATM   45  H   UNL     1     -13.833  14.759  66.294  1.00  0.00     0.000 HD 
HETATM   46  O   UNL     1     -10.930  15.670  67.282  1.00  0.00    -0.311 OA 
ENDBRANCH  34  35
ENDBRANCH  22  34
ENDBRANCH   2   3
TORSDOF 5
ENDMDL
MODEL       51
REMARK 921   NORMALIZED FREE ENERGY PREDICTED BY IDOCK:   -5.62 KCAL/MOL
REMARK 922        TOTAL FREE ENERGY PREDICTED BY IDOCK:   -8.54 KCAL/MOL
REMARK 923 INTER-LIGAND FREE ENERGY PREDICTED BY IDOCK:   -7.43 KCAL/MOL
REMARK 924 INTRA-LIGAND FREE ENERGY PREDICTED BY IDOCK:   -1.11 KCAL/MOL
REMARK 927      BINDING AFFINITY PREDICTED BY RF-SCORE:    0.00 PKD
ROOT
HETATM    1  C   UNL     1      -5.803   1.689  65.457  1.00  0.00    -0.017 C  
HETATM    2  O   UNL     1      -6.747   2.609  65.994  1.00  0.00    -0.038 OA 
ENDROOT
BRANCH   2   3
HETATM    3  C   UNL     1      -6.856   3.827  65.375  1.00  0.00    -0.053 A  
HETATM    4  C   UNL     1      -6.195   4.111  64.171  1.00  0.00    -0.026 A  
HETATM    5  C   UNL     1      -6.292   5.369  63.585  1.00  0.00    -0.022 A  
HETATM    6  C   UNL     1      -7.043   6.359  64.205  1.00  0.00    -0.057 A  
HETATM    7  C   UNL     1      -7.704   6.095  65.416  1.00  0.00    -0.093 A  
HETATM    8  C   UNL     1      -7.619   4.835  66.008  1.00  0.00    -0.090 A  
HETATM    9  C   UNL     1      -8.359   4.598  67.272  1.00  0.00    -0.105 C  
HETATM   10  O   UNL     1      -8.310   3.526  67.870  1.00  0.00    -0.083 OA 
HETATM   11  C   UNL     1      -9.195   5.668  67.868  1.00  0.00    -0.108 A  
HETATM   12  C   UNL     1      -9.943   5.414  69.039  1.00  0.00    -0.190 A  
HETATM   13  O   UNL     1      -9.952   4.172  69.632  1.00  0.00    -0.195 OA 
HETATM   14  C   UNL     1     -10.686   6.425  69.684  1.00  0.00    -0.339 A  
HETATM   15  H   UNL     1     -10.455   4.001  70.419  1.00  0.00     0.000 HD 
HETATM   16  C   UNL     1     -10.656   7.728  69.148  1.00  0.00    -0.193 A  
HETATM   17  C   UNL     1      -9.960   7.960  67.941  1.00  0.00    -0.178 A  
HETATM   18  C   UNL     1     -11.362   8.873  69.853  1.00  0.00     0.006 C  
HETATM   19  C   UNL     1     -11.754   8.610  71.317  1.00  0.00    -0.289 C  
HETATM   20  C   UNL     1      -9.226   6.939  67.300  1.00  0.00    -0.137 A  
HETATM   21  O   UNL     1      -9.960   9.210  67.386  1.00  0.00    -0.178 OA 
HETATM   22  C   UNL     1     -11.325   6.136  71.037  1.00  0.00    -0.282 C  
HETATM   23  C   UNL     1      -8.486   7.184  66.034  1.00  0.00    -0.145 C  
HETATM   24  C   UNL     1     -12.341   7.202  71.446  1.00  0.00    -0.415 C  
HETATM   25  O   UNL     1     -10.617   8.789  72.163  1.00  0.00    -0.340 OA 
HETATM   26  H   UNL     1      -9.492   9.366  66.574  1.00  0.00     0.000 HD 
HETATM   27  O   UNL     1      -8.508   8.263  65.455  1.00  0.00    -0.163 OA 
HETATM   28  H   UNL     1     -10.860   8.627  73.067  1.00  0.00     0.000 HD 
BRANCH  19  29
HETATM   29  C   UNL     1     -12.771   9.675  71.775  1.00  0.00    -0.420 C  
HETATM   30  O   UNL     1     -12.498  10.878  71.823  1.00  0.00    -0.296 OA 
BRANCH  29  31
HETATM   31  C   UNL     1     -14.153   9.191  72.210  1.00  0.00    -0.366 C  
HETATM   32  O   UNL     1     -14.148   8.808  73.580  1.00  0.00    -1.099 OA 
HETATM   33  H   UNL     1     -15.008   8.508  73.851  1.00  0.00     0.000 HD 
ENDBRANCH  29  31
ENDBRANCH  19  29
BRANCH  22  34
HETATM   34  O   UNL     1     -10.188   6.145  71.881  1.00  0.00    -0.195 OA 
BRANCH  34  35
HETATM   35  C   UNL     1     -10.226   5.684  73.215  1.00  0.00    -0.197 C  
HETATM   36  C   UNL     1     -10.996   4.398  73.530  1.00  0.00    -0.379 C  
HETATM   37  C   UNL     1     -10.339   3.140  72.942  1.00  0.00    -0.164 C  
HETATM   38  C   UNL     1      -8.808   3.128  73.156  1.00  0.00    -0.080 C  
HETATM   39  N   UNL     1     -10.951   1.925  73.526  1.00  0.00    -0.149 NA 
HETATM   40  C   UNL     1      -8.225   4.500  72.791  1.00  0.00    -0.099 C  
HETATM   41  H2  UNL     1     -11.964   1.915  73.410  1.00  0.00     0.000 HD 
HETATM   42  O   UNL     1      -8.516   2.801  74.522  1.00  0.00    -0.067 OA 
HETATM   43  H1  UNL     1     -10.515   1.089  73.135  1.00  0.00     0.000 HD 
HETATM   44  C   UNL     1      -6.723   4.597  72.991  1.00  0.00    -0.061 C  
HETATM   45  H   UNL     1      -7.576   2.794  74.655  1.00  0.00     0.000 HD 
HETATM   46  O   UNL     1      -8.853   5.525  73.585  1.00  0.00    -0.125 OA 
ENDBRANCH  34  35
ENDBRANCH  22  34
ENDBRANCH   2   3
TORSDOF 5
ENDMDL
MODEL       52
REMARK 921   NORMALIZED FREE ENERGY PREDICTED BY IDOCK:   -5.60 KCAL/MOL
REMARK 922        TOTAL FREE ENERGY PREDICTED BY IDOCK:   -8.51 KCAL/MOL
REMARK 923 INTER-LIGAND FREE ENERGY PREDICTED BY IDOCK:   -7.32 KCAL/MOL
REMARK 924 INTRA-LIGAND FREE ENERGY PREDICTED BY IDOCK:   -1.19 KCAL/MOL
REMARK 927      BINDING AFFINITY PREDICTED BY RF-SCORE:    0.00 PKD
ROOT
HETATM    1  C   UNL     1     -11.109  16.161  64.237  1.00  0.00     0.105 C  
HETATM    2  O   UNL     1     -10.218  15.745  65.266  1.00  0.00    -0.375 OA 
ENDROOT
BRANCH   2   3
HETATM    3  C   UNL     1     -10.657  15.862  66.559  1.00  0.00    -0.297 A  
HETATM    4  C   UNL     1     -10.938  17.108  67.139  1.00  0.00     0.040 A  
HETATM    5  C   UNL     1     -11.345  17.200  68.467  1.00  0.00     0.251 A  
HETATM    6  C   UNL     1     -11.462  16.046  69.230  1.00  0.00    -0.350 A  
HETATM    7  C   UNL     1     -11.175  14.791  68.668  1.00  0.00    -0.288 A  
HETATM    8  C   UNL     1     -10.774  14.688  67.336  1.00  0.00    -0.280 A  
HETATM    9  C   UNL     1     -10.511  13.336  66.781  1.00  0.00    -0.270 C  
HETATM   10  O   UNL     1     -10.125  13.164  65.628  1.00  0.00    -0.284 OA 
HETATM   11  C   UNL     1     -10.705  12.127  67.618  1.00  0.00    -0.252 A  
HETATM   12  C   UNL     1     -10.509  10.843  67.064  1.00  0.00    -0.244 A  
HETATM   13  O   UNL     1     -10.177  10.674  65.739  1.00  0.00    -0.253 OA 
HETATM   14  C   UNL     1     -10.603   9.671  67.843  1.00  0.00    -0.308 A  
HETATM   15  H   UNL     1     -10.046   9.811  65.366  1.00  0.00     0.000 HD 
HETATM   16  C   UNL     1     -10.879   9.798  69.219  1.00  0.00    -0.240 A  
HETATM   17  C   UNL     1     -11.139  11.080  69.753  1.00  0.00    -0.235 A  
HETATM   18  C   UNL     1     -10.901   8.578  70.123  1.00  0.00    -0.238 C  
HETATM   19  C   UNL     1     -10.245   7.312  69.544  1.00  0.00    -0.198 C  
HETATM   20  C   UNL     1     -11.049  12.246  68.962  1.00  0.00    -0.289 A  
HETATM   21  O   UNL     1     -11.452  11.214  71.078  1.00  0.00    -0.206 OA 
HETATM   22  C   UNL     1     -10.207   8.332  67.233  1.00  0.00    -0.274 C  
HETATM   23  C   UNL     1     -11.313  13.596  69.525  1.00  0.00    -0.214 C  
HETATM   24  C   UNL     1     -10.660   7.143  68.081  1.00  0.00    -0.241 C  
HETATM   25  O   UNL     1      -8.827   7.394  69.686  1.00  0.00    -0.140 OA 
HETATM   26  H   UNL     1     -11.627  12.076  71.437  1.00  0.00     0.000 HD 
HETATM   27  O   UNL     1     -11.666  13.770  70.685  1.00  0.00    -0.231 OA 
HETATM   28  H   UNL     1      -8.422   6.612  69.329  1.00  0.00     0.000 HD 
BRANCH  19  29
HETATM   29  C   UNL     1     -10.667   6.088  70.381  1.00  0.00    -0.292 C  
HETATM   30  O   UNL     1     -10.777   4.957  69.895  1.00  0.00    -0.051 OA 
BRANCH  29  31
HETATM   31  C   UNL     1     -10.983   6.316  71.857  1.00  0.00    -0.256 C  
HETATM   32  O   UNL     1     -12.333   5.973  72.146  1.00  0.00    -0.365 OA 
HETATM   33  H   UNL     1     -12.529   6.114  73.064  1.00  0.00     0.000 HD 
ENDBRANCH  29  31
ENDBRANCH  19  29
BRANCH  22  34
HETATM   34  O   UNL     1      -8.797   8.452  67.209  1.00  0.00    -0.128 OA 
BRANCH  34  35
HETATM   35  C   UNL     1      -7.965   7.531  66.534  1.00  0.00    -0.107 C  
HETATM   36  C   UNL     1      -8.396   7.020  65.156  1.00  0.00    -0.078 C  
HETATM   37  C   UNL     1      -8.355   8.104  64.069  1.00  0.00    -0.001 C  
HETATM   38  C   UNL     1      -7.068   8.957  64.145  1.00  0.00    -0.090 C  
HETATM   39  N   UNL     1      -8.487   7.486  62.729  1.00  0.00    -0.374 NA 
HETATM   40  C   UNL     1      -6.806   9.366  65.601  1.00  0.00    -0.078 C  
HETATM   41  H2  UNL     1      -9.322   6.906  62.657  1.00  0.00     0.000 HD 
HETATM   42  O   UNL     1      -5.962   8.206  63.623  1.00  0.00    -0.065 OA 
HETATM   43  H1  UNL     1      -8.460   8.206  62.007  1.00  0.00     0.000 HD 
HETATM   44  C   UNL     1      -5.545  10.191  65.784  1.00  0.00    -0.069 C  
HETATM   45  H   UNL     1      -5.171   8.730  63.670  1.00  0.00     0.000 HD 
HETATM   46  O   UNL     1      -6.701   8.192  66.428  1.00  0.00    -0.060 OA 
ENDBRANCH  34  35
ENDBRANCH  22  34
ENDBRANCH   2   3
TORSDOF 5
ENDMDL
MODEL       53
REMARK 921   NORMALIZED FREE ENERGY PREDICTED BY IDOCK:   -5.55 KCAL/MOL
REMARK 922        TOTAL FREE ENERGY PREDICTED BY IDOCK:   -8.46 KCAL/MOL
REMARK 923 INTER-LIGAND FREE ENERGY PREDICTED BY IDOCK:   -7.06 KCAL/MOL
REMARK 924 INTRA-LIGAND FREE ENERGY PREDICTED BY IDOCK:   -1.40 KCAL/MOL
REMARK 927      BINDING AFFINITY PREDICTED BY RF-SCORE:    0.00 PKD
ROOT
HETATM    1  C   UNL     1      -9.600  16.528  68.985  1.00  0.00    -0.255 C  
HETATM    2  O   UNL     1      -9.487  15.197  68.494  1.00  0.00    -0.191 OA 
ENDROOT
BRANCH   2   3
HETATM    3  C   UNL     1      -9.980  14.949  67.240  1.00  0.00    -0.230 A  
HETATM    4  C   UNL     1     -10.753  15.891  66.545  1.00  0.00    -0.258 A  
HETATM    5  C   UNL     1     -11.275  15.597  65.289  1.00  0.00    -0.236 A  
HETATM    6  C   UNL     1     -11.038  14.351  64.721  1.00  0.00    -0.402 A  
HETATM    7  C   UNL     1     -10.274  13.393  65.408  1.00  0.00    -0.311 A  
HETATM    8  C   UNL     1      -9.741  13.681  66.664  1.00  0.00    -0.287 A  
HETATM    9  C   UNL     1      -8.917  12.644  67.335  1.00  0.00    -0.190 C  
HETATM   10  O   UNL     1      -8.438  12.809  68.454  1.00  0.00    -0.164 OA 
HETATM   11  C   UNL     1      -8.642  11.350  66.665  1.00  0.00    -0.170 A  
HETATM   12  C   UNL     1      -7.808  10.394  67.286  1.00  0.00    -0.106 A  
HETATM   13  O   UNL     1      -7.200  10.646  68.495  1.00  0.00    -0.079 OA 
HETATM   14  C   UNL     1      -7.586   9.120  66.724  1.00  0.00    -0.087 A  
HETATM   15  H   UNL     1      -6.639  10.003  68.912  1.00  0.00     0.000 HD 
HETATM   16  C   UNL     1      -8.239   8.793  65.518  1.00  0.00    -0.133 A  
HETATM   17  C   UNL     1      -9.018   9.777  64.869  1.00  0.00    -0.216 A  
HETATM   18  C   UNL     1      -8.109   7.405  64.916  1.00  0.00    -0.114 C  
HETATM   19  C   UNL     1      -7.572   6.318  65.864  1.00  0.00    -0.084 C  
HETATM   20  C   UNL     1      -9.228  11.051  65.438  1.00  0.00    -0.232 A  
HETATM   21  O   UNL     1      -9.621   9.488  63.675  1.00  0.00    -0.455 OA 
HETATM   22  C   UNL     1      -6.824   8.070  67.524  1.00  0.00    -0.070 C  
HETATM   23  C   UNL     1     -10.055  12.084  64.760  1.00  0.00    -0.257 C  
HETATM   24  C   UNL     1      -6.397   6.876  66.670  1.00  0.00    -0.046 C  
HETATM   25  O   UNL     1      -8.623   5.854  66.713  1.00  0.00    -0.112 OA 
HETATM   26  H   UNL     1     -10.145  10.149  63.239  1.00  0.00     0.000 HD 
HETATM   27  O   UNL     1     -10.559  11.907  63.658  1.00  0.00    -0.360 OA 
HETATM   28  H   UNL     1      -8.291   5.183  67.298  1.00  0.00     0.000 HD 
BRANCH  19  29
HETATM   29  C   UNL     1      -7.141   5.087  65.042  1.00  0.00    -0.062 C  
HETATM   30  O   UNL     1      -7.208   5.055  63.809  1.00  0.00    -0.048 OA 
BRANCH  29  31
HETATM   31  C   UNL     1      -6.644   3.864  65.810  1.00  0.00    -0.044 C  
HETATM   32  O   UNL     1      -7.528   3.541  66.876  1.00  0.00    -0.073 OA 
HETATM   33  H   UNL     1      -7.219   2.780  67.353  1.00  0.00     0.000 HD 
ENDBRANCH  29  31
ENDBRANCH  19  29
BRANCH  22  34
HETATM   34  O   UNL     1      -7.797   7.705  68.486  1.00  0.00    -0.116 OA 
BRANCH  34  35
HETATM   35  C   UNL     1      -7.486   6.938  69.631  1.00  0.00    -0.099 C  
HETATM   36  C   UNL     1      -7.299   7.655  70.971  1.00  0.00    -0.070 C  
HETATM   37  C   UNL     1      -8.602   8.252  71.525  1.00  0.00    -0.155 C  
HETATM   38  C   UNL     1      -9.791   7.274  71.396  1.00  0.00    -0.186 C  
HETATM   39  N   UNL     1      -8.416   8.658  72.937  1.00  0.00    -0.410 NA 
HETATM   40  C   UNL     1      -9.805   6.659  69.991  1.00  0.00    -0.165 C  
HETATM   41  H2  UNL     1      -7.627   9.294  73.051  1.00  0.00     0.000 HD 
HETATM   42  O   UNL     1      -9.682   6.250  72.396  1.00  0.00    -0.155 OA 
HETATM   43  H1  UNL     1      -9.281   9.055  73.304  1.00  0.00     0.000 HD 
HETATM   44  C   UNL     1     -10.928   5.661  69.772  1.00  0.00    -0.301 C  
HETATM   45  H   UNL     1     -10.412   5.648  72.318  1.00  0.00     0.000 HD 
HETATM   46  O   UNL     1      -8.554   5.992  69.737  1.00  0.00    -0.127 OA 
ENDBRANCH  34  35
ENDBRANCH  22  34
ENDBRANCH   2   3
TORSDOF 5
ENDMDL
MODEL       54
REMARK 921   NORMALIZED FREE ENERGY PREDICTED BY IDOCK:   -5.49 KCAL/MOL
REMARK 922        TOTAL FREE ENERGY PREDICTED BY IDOCK:   -8.37 KCAL/MOL
REMARK 923 INTER-LIGAND FREE ENERGY PREDICTED BY IDOCK:   -6.76 KCAL/MOL
REMARK 924 INTRA-LIGAND FREE ENERGY PREDICTED BY IDOCK:   -1.61 KCAL/MOL
REMARK 927      BINDING AFFINITY PREDICTED BY RF-SCORE:    0.00 PKD
ROOT
HETATM    1  C   UNL     1      -8.492   9.719  63.407  1.00  0.00    -0.186 C  
HETATM    2  O   UNL     1      -7.796   8.766  64.203  1.00  0.00    -0.123 OA 
ENDROOT
BRANCH   2   3
HETATM    3  C   UNL     1      -8.008   7.442  63.923  1.00  0.00    -0.082 A  
HETATM    4  C   UNL     1      -8.025   6.953  62.608  1.00  0.00    -0.102 A  
HETATM    5  C   UNL     1      -8.283   5.610  62.351  1.00  0.00    -0.106 A  
HETATM    6  C   UNL     1      -8.539   4.745  63.407  1.00  0.00    -0.131 A  
HETATM    7  C   UNL     1      -8.536   5.220  64.729  1.00  0.00    -0.149 A  
HETATM    8  C   UNL     1      -8.271   6.563  64.998  1.00  0.00    -0.115 A  
HETATM    9  C   UNL     1      -8.251   7.008  66.414  1.00  0.00    -0.117 C  
HETATM   10  O   UNL     1      -8.056   8.179  66.731  1.00  0.00    -0.101 OA 
HETATM   11  C   UNL     1      -8.473   6.037  67.512  1.00  0.00    -0.107 A  
HETATM   12  C   UNL     1      -8.393   6.459  68.858  1.00  0.00    -0.121 A  
HETATM   13  O   UNL     1      -8.071   7.756  69.187  1.00  0.00    -0.120 OA 
HETATM   14  C   UNL     1      -8.677   5.589  69.931  1.00  0.00    -0.127 A  
HETATM   15  H   UNL     1      -8.017   8.040  70.092  1.00  0.00     0.000 HD 
HETATM   16  C   UNL     1      -9.073   4.268  69.640  1.00  0.00    -0.179 A  
HETATM   17  C   UNL     1      -9.086   3.834  68.296  1.00  0.00    -0.143 A  
HETATM   18  C   UNL     1      -9.479   3.317  70.752  1.00  0.00    -0.237 C  
HETATM   19  C   UNL     1      -9.794   3.975  72.106  1.00  0.00    -0.168 C  
HETATM   20  C   UNL     1      -8.794   4.712  67.230  1.00  0.00    -0.107 A  
HETATM   21  O   UNL     1      -9.426   2.542  68.002  1.00  0.00    -0.212 OA 
HETATM   22  C   UNL     1      -8.748   6.146  71.348  1.00  0.00    -0.135 C  
HETATM   23  C   UNL     1      -8.817   4.259  65.814  1.00  0.00    -0.121 C  
HETATM   24  C   UNL     1      -8.746   5.048  72.412  1.00  0.00    -0.125 C  
HETATM   25  O   UNL     1     -11.116   4.516  72.085  1.00  0.00     0.079 OA 
HETATM   26  H   UNL     1      -9.435   2.250  67.098  1.00  0.00     0.000 HD 
HETATM   27  O   UNL     1      -9.043   3.098  65.497  1.00  0.00    -0.143 OA 
HETATM   28  H   UNL     1     -11.311   4.923  72.922  1.00  0.00     0.000 HD 
BRANCH  19  29
HETATM   29  C   UNL     1      -9.815   2.897  73.208  1.00  0.00    -0.106 C  
HETATM   30  O   UNL     1      -9.214   3.029  74.280  1.00  0.00    -0.081 OA 
BRANCH  29  31
HETATM   31  C   UNL     1     -10.593   1.613  72.926  1.00  0.00    -0.145 C  
HETATM   32  O   UNL     1     -11.924   1.707  73.417  1.00  0.00    -0.190 OA 
HETATM   33  H   UNL     1     -12.407   0.909  73.240  1.00  0.00     0.000 HD 
ENDBRANCH  29  31
ENDBRANCH  19  29
BRANCH  22  34
HETATM   34  O   UNL     1      -9.985   6.834  71.307  1.00  0.00    -0.178 OA 
BRANCH  34  35
HETATM   35  C   UNL     1     -10.295   7.898  72.182  1.00  0.00    -0.237 C  
HETATM   36  C   UNL     1     -10.189   9.335  71.662  1.00  0.00    -0.271 C  
HETATM   37  C   UNL     1     -11.252   9.677  70.608  1.00  0.00    -0.320 C  
HETATM   38  C   UNL     1     -12.654   9.161  71.006  1.00  0.00    -0.155 C  
HETATM   39  N   UNL     1     -11.287  11.139  70.375  1.00  0.00    -0.473 NA 
HETATM   40  C   UNL     1     -12.550   7.713  71.500  1.00  0.00    -0.343 C  
HETATM   41  H2  UNL     1     -10.369  11.507  70.124  1.00  0.00     0.000 HD 
HETATM   42  O   UNL     1     -13.205  10.007  72.026  1.00  0.00    -0.433 OA 
HETATM   43  H1  UNL     1     -11.993  11.366  69.674  1.00  0.00     0.000 HD 
HETATM   44  C   UNL     1     -13.877   7.121  71.939  1.00  0.00    -0.308 C  
HETATM   45  H   UNL     1     -14.067   9.690  72.271  1.00  0.00     0.000 HD 
HETATM   46  O   UNL     1     -11.635   7.639  72.610  1.00  0.00    -0.339 OA 
ENDBRANCH  34  35
ENDBRANCH  22  34
ENDBRANCH   2   3
TORSDOF 5
ENDMDL
MODEL       55
REMARK 921   NORMALIZED FREE ENERGY PREDICTED BY IDOCK:   -5.44 KCAL/MOL
REMARK 922        TOTAL FREE ENERGY PREDICTED BY IDOCK:   -8.31 KCAL/MOL
REMARK 923 INTER-LIGAND FREE ENERGY PREDICTED BY IDOCK:   -9.33 KCAL/MOL
REMARK 924 INTRA-LIGAND FREE ENERGY PREDICTED BY IDOCK:    1.02 KCAL/MOL
REMARK 927      BINDING AFFINITY PREDICTED BY RF-SCORE:    0.00 PKD
ROOT
HETATM    1  C   UNL     1      -7.337   4.439  71.269  1.00  0.00    -0.055 C  
HETATM    2  O   UNL     1      -7.719   5.797  71.456  1.00  0.00    -0.102 OA 
ENDROOT
BRANCH   2   3
HETATM    3  C   UNL     1      -9.048   6.050  71.669  1.00  0.00    -0.142 A  
HETATM    4  C   UNL     1      -9.856   5.192  72.430  1.00  0.00    -0.208 A  
HETATM    5  C   UNL     1     -11.213   5.453  72.596  1.00  0.00    -0.333 A  
HETATM    6  C   UNL     1     -11.777   6.569  71.992  1.00  0.00    -0.367 A  
HETATM    7  C   UNL     1     -10.984   7.433  71.219  1.00  0.00    -0.263 A  
HETATM    8  C   UNL     1      -9.622   7.185  71.052  1.00  0.00    -0.158 A  
HETATM    9  C   UNL     1      -8.823   8.145  70.249  1.00  0.00    -0.141 C  
HETATM   10  O   UNL     1      -7.625   7.980  70.031  1.00  0.00    -0.079 OA 
HETATM   11  C   UNL     1      -9.456   9.354  69.672  1.00  0.00    -0.200 A  
HETATM   12  C   UNL     1      -8.676  10.292  68.960  1.00  0.00    -0.163 A  
HETATM   13  O   UNL     1      -7.316  10.135  68.818  1.00  0.00    -0.077 OA 
HETATM   14  C   UNL     1      -9.250  11.412  68.325  1.00  0.00    -0.183 A  
HETATM   15  H   UNL     1      -6.791  10.765  68.339  1.00  0.00     0.000 HD 
HETATM   16  C   UNL     1     -10.648  11.580  68.389  1.00  0.00    -0.227 A  
HETATM   17  C   UNL     1     -11.414  10.676  69.158  1.00  0.00    -0.280 A  
HETATM   18  C   UNL     1     -11.329  12.717  67.648  1.00  0.00    -0.362 C  
HETATM   19  C   UNL     1     -10.483  13.399  66.558  1.00  0.00    -0.283 C  
HETATM   20  C   UNL     1     -10.828   9.561  69.795  1.00  0.00    -0.264 A  
HETATM   21  O   UNL     1     -12.767  10.852  69.266  1.00  0.00    -0.591 OA 
HETATM   22  C   UNL     1      -8.385  12.288  67.425  1.00  0.00    -0.177 C  
HETATM   23  C   UNL     1     -11.635   8.604  70.597  1.00  0.00    -0.200 C  
HETATM   24  C   UNL     1      -9.058  13.615  67.075  1.00  0.00    -0.254 C  
HETATM   25  O   UNL     1     -10.500  12.609  65.367  1.00  0.00    -0.273 OA 
HETATM   26  H   UNL     1     -13.282  10.244  69.783  1.00  0.00     0.000 HD 
HETATM   27  O   UNL     1     -12.836   8.751  70.787  1.00  0.00     0.031 OA 
HETATM   28  H   UNL     1      -9.977  13.031  64.694  1.00  0.00     0.000 HD 
BRANCH  19  29
HETATM   29  C   UNL     1     -11.135  14.739  66.165  1.00  0.00    -0.339 C  
HETATM   30  O   UNL     1     -11.009  15.764  66.843  1.00  0.00    -0.300 OA 
BRANCH  29  31
HETATM   31  C   UNL     1     -11.992  14.764  64.901  1.00  0.00    -0.358 C  
HETATM   32  O   UNL     1     -13.183  14.009  65.080  1.00  0.00    -0.768 OA 
HETATM   33  H   UNL     1     -13.716  14.025  64.294  1.00  0.00     0.000 HD 
ENDBRANCH  29  31
ENDBRANCH  19  29
BRANCH  22  34
HETATM   34  O   UNL     1      -8.248  11.454  66.288  1.00  0.00    -0.160 OA 
BRANCH  34  35
HETATM   35  C   UNL     1      -9.038  10.301  66.088  1.00  0.00    -0.155 C  
HETATM   36  C   UNL     1      -9.883  10.198  64.815  1.00  0.00    -0.382 C  
HETATM   37  C   UNL     1      -9.040  10.039  63.541  1.00  0.00    -0.272 C  
HETATM   38  C   UNL     1      -7.894   9.018  63.725  1.00  0.00    -0.137 C  
HETATM   39  N   UNL     1      -9.904   9.646  62.404  1.00  0.00    -0.485 NA 
HETATM   40  C   UNL     1      -7.174   9.284  65.054  1.00  0.00    -0.098 C  
HETATM   41  H2  UNL     1     -10.677  10.296  62.270  1.00  0.00     0.000 HD 
HETATM   42  O   UNL     1      -8.427   7.686  63.696  1.00  0.00    -0.374 OA 
HETATM   43  H1  UNL     1      -9.343   9.541  61.558  1.00  0.00     0.000 HD 
HETATM   44  C   UNL     1      -6.041   8.314  65.339  1.00  0.00    -0.045 C  
HETATM   45  H   UNL     1      -7.723   7.058  63.809  1.00  0.00     0.000 HD 
HETATM   46  O   UNL     1      -8.114   9.212  66.142  1.00  0.00    -0.105 OA 
ENDBRANCH  34  35
ENDBRANCH  22  34
ENDBRANCH   2   3
TORSDOF 5
ENDMDL
MODEL       56
REMARK 921   NORMALIZED FREE ENERGY PREDICTED BY IDOCK:   -5.41 KCAL/MOL
REMARK 922        TOTAL FREE ENERGY PREDICTED BY IDOCK:   -8.27 KCAL/MOL
REMARK 923 INTER-LIGAND FREE ENERGY PREDICTED BY IDOCK:   -8.07 KCAL/MOL
REMARK 924 INTRA-LIGAND FREE ENERGY PREDICTED BY IDOCK:   -0.20 KCAL/MOL
REMARK 927      BINDING AFFINITY PREDICTED BY RF-SCORE:    0.00 PKD
ROOT
HETATM    1  C   UNL     1     -12.745   8.891  72.656  1.00  0.00    -0.219 C  
HETATM    2  O   UNL     1     -12.356   7.676  72.024  1.00  0.00    -0.295 OA 
ENDROOT
BRANCH   2   3
HETATM    3  C   UNL     1     -11.077   7.238  72.245  1.00  0.00    -0.260 A  
HETATM    4  C   UNL     1     -10.687   6.669  73.467  1.00  0.00    -0.301 A  
HETATM    5  C   UNL     1      -9.371   6.268  73.677  1.00  0.00    -0.143 A  
HETATM    6  C   UNL     1      -8.430   6.445  72.671  1.00  0.00    -0.122 A  
HETATM    7  C   UNL     1      -8.802   7.022  71.445  1.00  0.00    -0.129 A  
HETATM    8  C   UNL     1     -10.119   7.420  71.222  1.00  0.00    -0.195 A  
HETATM    9  C   UNL     1     -10.467   7.997  69.899  1.00  0.00    -0.233 C  
HETATM   10  O   UNL     1     -11.597   8.399  69.635  1.00  0.00     0.224 OA 
HETATM   11  C   UNL     1      -9.441   8.113  68.834  1.00  0.00    -0.151 A  
HETATM   12  C   UNL     1      -9.795   8.609  67.560  1.00  0.00    -0.180 A  
HETATM   13  O   UNL     1     -11.092   8.956  67.258  1.00  0.00    -0.373 OA 
HETATM   14  C   UNL     1      -8.837   8.812  66.546  1.00  0.00    -0.156 A  
HETATM   15  H   UNL     1     -11.330   9.289  66.402  1.00  0.00     0.000 HD 
HETATM   16  C   UNL     1      -7.486   8.530  66.829  1.00  0.00    -0.083 A  
HETATM   17  C   UNL     1      -7.148   7.972  68.083  1.00  0.00    -0.089 A  
HETATM   18  C   UNL     1      -6.401   8.817  65.806  1.00  0.00    -0.056 C  
HETATM   19  C   UNL     1      -6.806   9.754  64.655  1.00  0.00    -0.123 C  
HETATM   20  C   UNL     1      -8.116   7.767  69.089  1.00  0.00    -0.125 A  
HETATM   21  O   UNL     1      -5.846   7.653  68.356  1.00  0.00    -0.029 OA 
HETATM   22  C   UNL     1      -9.248   9.515  65.257  1.00  0.00    -0.247 C  
HETATM   23  C   UNL     1      -7.760   7.189  70.411  1.00  0.00    -0.095 C  
HETATM   24  C   UNL     1      -8.201   9.375  64.152  1.00  0.00    -0.158 C  
HETATM   25  O   UNL     1      -6.752  11.112  65.094  1.00  0.00    -0.273 OA 
HETATM   26  H   UNL     1      -5.619   7.278  69.198  1.00  0.00     0.000 HD 
HETATM   27  O   UNL     1      -6.626   6.818  70.686  1.00  0.00    -0.050 OA 
HETATM   28  H   UNL     1      -7.002  11.690  64.383  1.00  0.00     0.000 HD 
BRANCH  19  29
HETATM   29  C   UNL     1      -5.766   9.653  63.521  1.00  0.00    -0.094 C  
HETATM   30  O   UNL     1      -5.292  10.649  62.963  1.00  0.00    -0.146 OA 
BRANCH  29  31
HETATM   31  C   UNL     1      -5.346   8.256  63.070  1.00  0.00    -0.063 C  
HETATM   32  O   UNL     1      -6.458   7.532  62.560  1.00  0.00    -0.068 OA 
HETATM   33  H   UNL     1      -6.197   6.663  62.279  1.00  0.00     0.000 HD 
ENDBRANCH  29  31
ENDBRANCH  19  29
BRANCH  22  34
HETATM   34  O   UNL     1      -9.363  10.853  65.703  1.00  0.00    -0.190 OA 
BRANCH  34  35
HETATM   35  C   UNL     1      -9.578  11.935  64.821  1.00  0.00    -0.041 C  
HETATM   36  C   UNL     1     -10.539  11.747  63.643  1.00  0.00    -0.496 C  
HETATM   37  C   UNL     1     -12.004  11.598  64.077  1.00  0.00    -0.184 C  
HETATM   38  C   UNL     1     -12.397  12.624  65.165  1.00  0.00    -0.484 C  
HETATM   39  N   UNL     1     -12.898  11.724  62.902  1.00  0.00    -0.816 NA 
HETATM   40  C   UNL     1     -11.312  12.668  66.248  1.00  0.00    -0.329 C  
HETATM   41  H2  UNL     1     -12.651  11.066  62.163  1.00  0.00     0.000 HD 
HETATM   42  O   UNL     1     -12.569  13.917  64.567  1.00  0.00    -0.629 OA 
HETATM   43  H1  UNL     1     -13.872  11.624  63.190  1.00  0.00     0.000 HD 
HETATM   44  C   UNL     1     -11.596  13.667  67.355  1.00  0.00    -0.389 C  
HETATM   45  H   UNL     1     -12.810  14.548  65.235  1.00  0.00     0.000 HD 
HETATM   46  O   UNL     1     -10.042  12.999  65.656  1.00  0.00    -0.279 OA 
ENDBRANCH  34  35
ENDBRANCH  22  34
ENDBRANCH   2   3
TORSDOF 5
ENDMDL
MODEL       57
REMARK 921   NORMALIZED FREE ENERGY PREDICTED BY IDOCK:   -5.38 KCAL/MOL
REMARK 922        TOTAL FREE ENERGY PREDICTED BY IDOCK:   -8.23 KCAL/MOL
REMARK 923 INTER-LIGAND FREE ENERGY PREDICTED BY IDOCK:   -8.00 KCAL/MOL
REMARK 924 INTRA-LIGAND FREE ENERGY PREDICTED BY IDOCK:   -0.24 KCAL/MOL
REMARK 927      BINDING AFFINITY PREDICTED BY RF-SCORE:    0.00 PKD
ROOT
HETATM    1  C   UNL     1      -6.161   3.627  65.967  1.00  0.00    -0.032 C  
HETATM    2  O   UNL     1      -7.173   4.473  66.502  1.00  0.00    -0.076 OA 
ENDROOT
BRANCH   2   3
HETATM    3  C   UNL     1      -7.829   4.035  67.622  1.00  0.00    -0.090 A  
HETATM    4  C   UNL     1      -7.807   2.689  68.018  1.00  0.00    -0.059 A  
HETATM    5  C   UNL     1      -8.515   2.265  69.138  1.00  0.00    -0.089 A  
HETATM    6  C   UNL     1      -9.262   3.182  69.866  1.00  0.00    -0.222 A  
HETATM    7  C   UNL     1      -9.303   4.531  69.478  1.00  0.00    -0.221 A  
HETATM    8  C   UNL     1      -8.591   4.968  68.361  1.00  0.00    -0.100 A  
HETATM    9  C   UNL     1      -8.644   6.409  68.010  1.00  0.00    -0.117 C  
HETATM   10  O   UNL     1      -8.070   6.866  67.025  1.00  0.00    -0.114 OA 
HETATM   11  C   UNL     1      -9.409   7.362  68.851  1.00  0.00    -0.145 A  
HETATM   12  C   UNL     1      -9.405   8.740  68.542  1.00  0.00    -0.141 A  
HETATM   13  O   UNL     1      -8.669   9.240  67.493  1.00  0.00    -0.116 OA 
HETATM   14  C   UNL     1     -10.182   9.669  69.265  1.00  0.00    -0.215 A  
HETATM   15  H   UNL     1      -8.666  10.167  67.285  1.00  0.00     0.000 HD 
HETATM   16  C   UNL     1     -11.001   9.194  70.309  1.00  0.00    -0.279 A  
HETATM   17  C   UNL     1     -10.950   7.825  70.654  1.00  0.00    -0.249 A  
HETATM   18  C   UNL     1     -11.928  10.134  71.059  1.00  0.00    -0.474 C  
HETATM   19  C   UNL     1     -12.192  11.488  70.377  1.00  0.00    -0.355 C  
HETATM   20  C   UNL     1     -10.163   6.905  69.929  1.00  0.00    -0.214 A  
HETATM   21  O   UNL     1     -11.706   7.357  71.695  1.00  0.00    -0.260 OA 
HETATM   22  C   UNL     1     -10.276  11.109  68.775  1.00  0.00    -0.206 C  
HETATM   23  C   UNL     1     -10.115   5.463  70.286  1.00  0.00    -0.248 C  
HETATM   24  C   UNL     1     -10.881  12.047  69.820  1.00  0.00     0.285 C  
HETATM   25  O   UNL     1     -13.177  11.331  69.355  1.00  0.00     0.381 OA 
HETATM   26  H   UNL     1     -11.671   6.437  71.927  1.00  0.00     0.000 HD 
HETATM   27  O   UNL     1     -10.714   5.001  71.249  1.00  0.00    -0.137 OA 
HETATM   28  H   UNL     1     -13.341  12.167  68.934  1.00  0.00     0.000 HD 
BRANCH  19  29
HETATM   29  C   UNL     1     -12.817  12.462  71.396  1.00  0.00    -0.260 C  
HETATM   30  O   UNL     1     -13.619  12.095  72.261  1.00  0.00    -0.432 OA 
BRANCH  29  31
HETATM   31  C   UNL     1     -12.435  13.937  71.289  1.00  0.00    -0.359 C  
HETATM   32  O   UNL     1     -13.399  14.657  70.531  1.00  0.00    -0.558 OA 
HETATM   33  H   UNL     1     -13.162  15.574  70.465  1.00  0.00     0.000 HD 
ENDBRANCH  29  31
ENDBRANCH  19  29
BRANCH  22  34
HETATM   34  O   UNL     1     -11.125  10.959  67.652  1.00  0.00    -0.273 OA 
BRANCH  34  35
HETATM   35  C   UNL     1     -11.657  12.060  66.946  1.00  0.00    -0.318 C  
HETATM   36  C   UNL     1     -10.971  13.423  67.080  1.00  0.00    -0.298 C  
HETATM   37  C   UNL     1      -9.582  13.468  66.426  1.00  0.00    -0.259 C  
HETATM   38  C   UNL     1      -9.571  12.795  65.035  1.00  0.00     0.183 C  
HETATM   39  N   UNL     1      -9.112  14.869  66.326  1.00  0.00    -0.449 NA 
HETATM   40  C   UNL     1     -10.306  11.449  65.107  1.00  0.00    -0.290 C  
HETATM   41  H2  UNL     1      -9.123  15.341  67.229  1.00  0.00     0.000 HD 
HETATM   42  O   UNL     1     -10.194  13.661  64.076  1.00  0.00    -0.701 OA 
HETATM   43  H1  UNL     1      -8.189  14.899  65.892  1.00  0.00     0.000 HD 
HETATM   44  C   UNL     1     -10.370  10.718  63.779  1.00  0.00    -0.294 C  
HETATM   45  H   UNL     1     -10.188  13.248  63.221  1.00  0.00     0.000 HD 
HETATM   46  O   UNL     1     -11.652  11.652  65.576  1.00  0.00    -0.199 OA 
ENDBRANCH  34  35
ENDBRANCH  22  34
ENDBRANCH   2   3
TORSDOF 5
ENDMDL
MODEL       58
REMARK 921   NORMALIZED FREE ENERGY PREDICTED BY IDOCK:   -5.34 KCAL/MOL
REMARK 922        TOTAL FREE ENERGY PREDICTED BY IDOCK:   -8.18 KCAL/MOL
REMARK 923 INTER-LIGAND FREE ENERGY PREDICTED BY IDOCK:   -7.10 KCAL/MOL
REMARK 924 INTRA-LIGAND FREE ENERGY PREDICTED BY IDOCK:   -1.08 KCAL/MOL
REMARK 927      BINDING AFFINITY PREDICTED BY RF-SCORE:    0.00 PKD
ROOT
HETATM    1  C   UNL     1      -6.042   3.466  63.086  1.00  0.00    -0.014 C  
HETATM    2  O   UNL     1      -6.881   4.245  63.932  1.00  0.00    -0.042 OA 
ENDROOT
BRANCH   2   3
HETATM    3  C   UNL     1      -6.952   5.589  63.677  1.00  0.00    -0.046 A  
HETATM    4  C   UNL     1      -6.284   6.176  62.592  1.00  0.00    -0.026 A  
HETATM    5  C   UNL     1      -6.342   7.550  62.380  1.00  0.00    -0.067 A  
HETATM    6  C   UNL     1      -7.059   8.352  63.259  1.00  0.00    -0.091 A  
HETATM    7  C   UNL     1      -7.726   7.781  64.356  1.00  0.00    -0.123 A  
HETATM    8  C   UNL     1      -7.680   6.404  64.573  1.00  0.00    -0.108 A  
HETATM    9  C   UNL     1      -8.426   5.847  65.730  1.00  0.00    -0.148 C  
HETATM   10  O   UNL     1      -8.410   4.650  66.006  1.00  0.00    -0.113 OA 
HETATM   11  C   UNL     1      -9.226   6.734  66.609  1.00  0.00    -0.184 A  
HETATM   12  C   UNL     1      -9.979   6.188  67.671  1.00  0.00    -0.131 A  
HETATM   13  O   UNL     1     -10.027   4.831  67.895  1.00  0.00    -0.152 OA 
HETATM   14  C   UNL     1     -10.687   7.001  68.579  1.00  0.00    -0.219 A  
HETATM   15  H   UNL     1     -10.533   4.463  68.610  1.00  0.00     0.000 HD 
HETATM   16  C   UNL     1     -10.617   8.400  68.427  1.00  0.00    -0.155 A  
HETATM   17  C   UNL     1      -9.917   8.937  67.324  1.00  0.00    -0.216 A  
HETATM   18  C   UNL     1     -11.284   9.325  69.429  1.00  0.00     0.030 C  
HETATM   19  C   UNL     1     -11.682   8.677  70.767  1.00  0.00    -0.210 C  
HETATM   20  C   UNL     1      -9.216   8.114  66.417  1.00  0.00    -0.250 A  
HETATM   21  O   UNL     1      -9.877  10.293  67.139  1.00  0.00    -0.173 OA 
HETATM   22  C   UNL     1     -11.333   6.367  69.806  1.00  0.00    -0.427 C  
HETATM   23  C   UNL     1      -8.471   8.679  65.261  1.00  0.00    -0.179 C  
HETATM   24  C   UNL     1     -12.314   7.308  70.506  1.00  0.00    -0.055 C  
HETATM   25  O   UNL     1     -10.538   8.580  71.617  1.00  0.00    -0.238 OA 
HETATM   26  H   UNL     1      -9.406  10.654  66.397  1.00  0.00     0.000 HD 
HETATM   27  O   UNL     1      -8.460   9.876  65.005  1.00  0.00    -0.136 OA 
HETATM   28  H   UNL     1     -10.784   8.180  72.443  1.00  0.00     0.000 HD 
BRANCH  19  29
HETATM   29  C   UNL     1     -12.663   9.603  71.514  1.00  0.00    -0.387 C  
HETATM   30  O   UNL     1     -12.408  10.788  71.754  1.00  0.00    -0.269 OA 
BRANCH  29  31
HETATM   31  C   UNL     1     -13.982   8.998  71.990  1.00  0.00    -0.410 C  
HETATM   32  O   UNL     1     -13.959   8.771  73.394  1.00  0.00    -1.132 OA 
HETATM   33  H   UNL     1     -14.779   8.395  73.690  1.00  0.00     0.000 HD 
ENDBRANCH  29  31
ENDBRANCH  19  29
BRANCH  22  34
HETATM   34  O   UNL     1     -10.195   6.107  70.607  1.00  0.00    -0.187 OA 
BRANCH  34  35
HETATM   35  C   UNL     1      -9.850   4.808  71.042  1.00  0.00    -0.197 C  
HETATM   36  C   UNL     1      -8.395   4.349  70.915  1.00  0.00    -0.096 C  
HETATM   37  C   UNL     1      -7.440   5.095  71.859  1.00  0.00    -0.094 C  
HETATM   38  C   UNL     1      -8.024   5.237  73.283  1.00  0.00    -0.108 C  
HETATM   39  N   UNL     1      -6.129   4.408  71.905  1.00  0.00    -0.016 NA 
HETATM   40  C   UNL     1      -9.484   5.701  73.199  1.00  0.00    -0.146 C  
HETATM   41  H2  UNL     1      -5.728   4.288  70.975  1.00  0.00     0.000 HD 
HETATM   42  O   UNL     1      -7.930   3.980  73.969  1.00  0.00    -0.082 OA 
HETATM   43  H1  UNL     1      -5.495   4.903  72.532  1.00  0.00     0.000 HD 
HETATM   44  C   UNL     1     -10.157   5.848  74.552  1.00  0.00    -0.312 C  
HETATM   45  H   UNL     1      -8.289   4.067  74.845  1.00  0.00     0.000 HD 
HETATM   46  O   UNL     1     -10.249   4.766  72.415  1.00  0.00    -0.182 OA 
ENDBRANCH  34  35
ENDBRANCH  22  34
ENDBRANCH   2   3
TORSDOF 5
ENDMDL
MODEL       59
REMARK 921   NORMALIZED FREE ENERGY PREDICTED BY IDOCK:   -5.29 KCAL/MOL
REMARK 922        TOTAL FREE ENERGY PREDICTED BY IDOCK:   -8.12 KCAL/MOL
REMARK 923 INTER-LIGAND FREE ENERGY PREDICTED BY IDOCK:   -8.77 KCAL/MOL
REMARK 924 INTRA-LIGAND FREE ENERGY PREDICTED BY IDOCK:    0.65 KCAL/MOL
REMARK 927      BINDING AFFINITY PREDICTED BY RF-SCORE:    0.00 PKD
ROOT
HETATM    1  C   UNL     1      -6.810   4.231  66.771  1.00  0.00    -0.052 C  
HETATM    2  O   UNL     1      -6.783   4.925  68.013  1.00  0.00    -0.051 OA 
ENDROOT
BRANCH   2   3
HETATM    3  C   UNL     1      -7.921   4.888  68.775  1.00  0.00    -0.080 A  
HETATM    4  C   UNL     1      -8.414   3.693  69.319  1.00  0.00    -0.096 A  
HETATM    5  C   UNL     1      -9.594   3.680  70.056  1.00  0.00    -0.244 A  
HETATM    6  C   UNL     1     -10.299   4.861  70.246  1.00  0.00    -0.252 A  
HETATM    7  C   UNL     1      -9.824   6.065  69.700  1.00  0.00    -0.205 A  
HETATM    8  C   UNL     1      -8.639   6.091  68.966  1.00  0.00    -0.120 A  
HETATM    9  C   UNL     1      -8.166   7.394  68.434  1.00  0.00    -0.125 C  
HETATM   10  O   UNL     1      -7.148   7.494  67.754  1.00  0.00    -0.080 OA 
HETATM   11  C   UNL     1      -8.921   8.639  68.711  1.00  0.00    -0.138 A  
HETATM   12  C   UNL     1      -8.431   9.882  68.252  1.00  0.00    -0.111 A  
HETATM   13  O   UNL     1      -7.234   9.980  67.580  1.00  0.00    -0.087 OA 
HETATM   14  C   UNL     1      -9.157  11.079  68.422  1.00  0.00    -0.161 A  
HETATM   15  H   UNL     1      -6.905  10.815  67.271  1.00  0.00     0.000 HD 
HETATM   16  C   UNL     1     -10.418  11.019  69.049  1.00  0.00    -0.242 A  
HETATM   17  C   UNL     1     -10.872   9.785  69.564  1.00  0.00    -0.240 A  
HETATM   18  C   UNL     1     -11.283  12.261  69.175  1.00  0.00    -0.300 C  
HETATM   19  C   UNL     1     -10.886  13.440  68.270  1.00  0.00    -0.256 C  
HETATM   20  C   UNL     1     -10.134   8.593  69.395  1.00  0.00    -0.204 A  
HETATM   21  O   UNL     1     -12.074   9.720  70.215  1.00  0.00    -0.447 OA 
HETATM   22  C   UNL     1      -8.664  12.356  67.750  1.00  0.00    -0.176 C  
HETATM   23  C   UNL     1     -10.614   7.292  69.929  1.00  0.00    -0.231 C  
HETATM   24  C   UNL     1      -9.365  13.607  68.280  1.00  0.00    -0.204 C  
HETATM   25  O   UNL     1     -11.386  13.225  66.949  1.00  0.00    -0.295 OA 
HETATM   26  H   UNL     1     -12.378   8.890  70.561  1.00  0.00     0.000 HD 
HETATM   27  O   UNL     1     -11.646   7.187  70.580  1.00  0.00    -0.301 OA 
HETATM   28  H   UNL     1     -11.141  13.954  66.389  1.00  0.00     0.000 HD 
BRANCH  19  29
HETATM   29  C   UNL     1     -11.584  14.724  68.763  1.00  0.00    -0.320 C  
HETATM   30  O   UNL     1     -11.689  15.735  68.061  1.00  0.00    -0.279 OA 
BRANCH  29  31
HETATM   31  C   UNL     1     -12.130  14.727  70.189  1.00  0.00    -0.327 C  
HETATM   32  O   UNL     1     -11.110  15.056  71.123  1.00  0.00    -0.516 OA 
HETATM   33  H   UNL     1     -11.449  15.059  72.009  1.00  0.00     0.000 HD 
ENDBRANCH  29  31
ENDBRANCH  19  29
BRANCH  22  34
HETATM   34  O   UNL     1      -9.002  12.099  66.399  1.00  0.00    -0.200 OA 
BRANCH  34  35
HETATM   35  C   UNL     1      -9.634  10.905  65.986  1.00  0.00    -0.209 C  
HETATM   36  C   UNL     1     -10.927  10.999  65.171  1.00  0.00    -0.103 C  
HETATM   37  C   UNL     1     -10.713  11.566  63.760  1.00  0.00    -0.408 C  
HETATM   38  C   UNL     1      -9.474  10.954  63.068  1.00  0.00    -0.352 C  
HETATM   39  N   UNL     1     -11.924  11.350  62.935  1.00  0.00    -0.768 NA 
HETATM   40  C   UNL     1      -8.289  10.946  64.043  1.00  0.00     0.174 C  
HETATM   41  H2  UNL     1     -12.760  11.733  63.377  1.00  0.00     0.000 HD 
HETATM   42  O   UNL     1      -9.777   9.623  62.628  1.00  0.00    -0.543 OA 
HETATM   43  H1  UNL     1     -11.782  11.728  61.998  1.00  0.00     0.000 HD 
HETATM   44  C   UNL     1      -7.025  10.340  63.462  1.00  0.00    -0.078 C  
HETATM   45  H   UNL     1      -9.015   9.246  62.203  1.00  0.00     0.000 HD 
HETATM   46  O   UNL     1      -8.638  10.209  65.230  1.00  0.00    -0.143 OA 
ENDBRANCH  34  35
ENDBRANCH  22  34
ENDBRANCH   2   3
TORSDOF 5
ENDMDL
MODEL       60
REMARK 921   NORMALIZED FREE ENERGY PREDICTED BY IDOCK:   -5.23 KCAL/MOL
REMARK 922        TOTAL FREE ENERGY PREDICTED BY IDOCK:   -8.04 KCAL/MOL
REMARK 923 INTER-LIGAND FREE ENERGY PREDICTED BY IDOCK:   -8.77 KCAL/MOL
REMARK 924 INTRA-LIGAND FREE ENERGY PREDICTED BY IDOCK:    0.73 KCAL/MOL
REMARK 927      BINDING AFFINITY PREDICTED BY RF-SCORE:    0.00 PKD
ROOT
HETATM    1  C   UNL     1     -10.430  19.514  67.427  1.00  0.00    -0.471 C  
HETATM    2  O   UNL     1     -10.157  18.524  68.413  1.00  0.00    -0.358 OA 
ENDROOT
BRANCH   2   3
HETATM    3  C   UNL     1      -8.843  18.195  68.622  1.00  0.00    -0.262 A  
HETATM    4  C   UNL     1      -7.841  19.171  68.735  1.00  0.00    -0.383 A  
HETATM    5  C   UNL     1      -6.509  18.806  68.908  1.00  0.00    -0.282 A  
HETATM    6  C   UNL     1      -6.166  17.461  68.956  1.00  0.00    -0.209 A  
HETATM    7  C   UNL     1      -7.156  16.472  68.835  1.00  0.00    -0.200 A  
HETATM    8  C   UNL     1      -8.494  16.826  68.669  1.00  0.00    -0.259 A  
HETATM    9  C   UNL     1      -9.504  15.743  68.575  1.00  0.00    -0.201 C  
HETATM   10  O   UNL     1     -10.698  15.972  68.397  1.00  0.00    -0.262 OA 
HETATM   11  C   UNL     1      -9.098  14.321  68.690  1.00  0.00    -0.160 A  
HETATM   12  C   UNL     1     -10.073  13.300  68.658  1.00  0.00    -0.146 A  
HETATM   13  O   UNL     1     -11.415  13.591  68.563  1.00  0.00    -0.266 OA 
HETATM   14  C   UNL     1      -9.725  11.934  68.683  1.00  0.00    -0.116 A  
HETATM   15  H   UNL     1     -12.071  12.904  68.542  1.00  0.00     0.000 HD 
HETATM   16  C   UNL     1      -8.359  11.588  68.717  1.00  0.00    -0.069 A  
HETATM   17  C   UNL     1      -7.392  12.613  68.815  1.00  0.00    -0.066 A  
HETATM   18  C   UNL     1      -7.925  10.135  68.651  1.00  0.00    -0.103 C  
HETATM   19  C   UNL     1      -8.998   9.142  68.171  1.00  0.00    -0.129 C  
HETATM   20  C   UNL     1      -7.752  13.978  68.797  1.00  0.00    -0.112 A  
HETATM   21  O   UNL     1      -6.065  12.290  68.893  1.00  0.00    -0.064 OA 
HETATM   22  C   UNL     1     -10.806  10.882  68.467  1.00  0.00    -0.220 C  
HETATM   23  C   UNL     1      -6.735  15.057  68.891  1.00  0.00    -0.099 C  
HETATM   24  C   UNL     1     -10.337   9.474  68.834  1.00  0.00    -0.225 C  
HETATM   25  O   UNL     1      -9.089   9.181  66.746  1.00  0.00    -0.137 OA 
HETATM   26  H   UNL     1      -5.415  12.979  68.960  1.00  0.00     0.000 HD 
HETATM   27  O   UNL     1      -5.540  14.827  69.035  1.00  0.00    -0.091 OA 
HETATM   28  H   UNL     1      -9.751   8.567  66.449  1.00  0.00     0.000 HD 
BRANCH  19  29
HETATM   29  C   UNL     1      -8.557   7.704  68.510  1.00  0.00    -0.129 C  
HETATM   30  O   UNL     1      -8.622   7.242  69.654  1.00  0.00    -0.135 OA 
BRANCH  29  31
HETATM   31  C   UNL     1      -7.992   6.852  67.375  1.00  0.00    -0.112 C  
HETATM   32  O   UNL     1      -6.693   7.297  67.005  1.00  0.00    -0.063 OA 
HETATM   33  H   UNL     1      -6.342   6.766  66.300  1.00  0.00     0.000 HD 
ENDBRANCH  29  31
ENDBRANCH  19  29
BRANCH  22  34
HETATM   34  O   UNL     1     -11.036  11.012  67.075  1.00  0.00    -0.288 OA 
BRANCH  34  35
HETATM   35  C   UNL     1     -10.267  11.864  66.253  1.00  0.00    -0.216 C  
HETATM   36  C   UNL     1      -9.719  11.317  64.931  1.00  0.00    -0.297 C  
HETATM   37  C   UNL     1     -10.815  11.034  63.893  1.00  0.00    -0.151 C  
HETATM   38  C   UNL     1     -11.855  12.174  63.818  1.00  0.00    -0.500 C  
HETATM   39  N   UNL     1     -10.207  10.801  62.562  1.00  0.00    -0.755 NA 
HETATM   40  C   UNL     1     -12.276  12.583  65.236  1.00  0.00    -0.433 C  
HETATM   41  H2  UNL     1      -9.506  10.061  62.587  1.00  0.00     0.000 HD 
HETATM   42  O   UNL     1     -11.294  13.292  63.114  1.00  0.00    -0.522 OA 
HETATM   43  H1  UNL     1     -10.935  10.612  61.873  1.00  0.00     0.000 HD 
HETATM   44  C   UNL     1     -13.282  13.718  65.271  1.00  0.00    -0.007 C  
HETATM   45  H   UNL     1     -11.933  13.993  63.069  1.00  0.00     0.000 HD 
HETATM   46  O   UNL     1     -11.118  12.984  65.993  1.00  0.00    -0.274 OA 
ENDBRANCH  34  35
ENDBRANCH  22  34
ENDBRANCH   2   3
TORSDOF 5
ENDMDL
MODEL       61
REMARK 921   NORMALIZED FREE ENERGY PREDICTED BY IDOCK:   -5.23 KCAL/MOL
REMARK 922        TOTAL FREE ENERGY PREDICTED BY IDOCK:   -8.03 KCAL/MOL
REMARK 923 INTER-LIGAND FREE ENERGY PREDICTED BY IDOCK:   -7.00 KCAL/MOL
REMARK 924 INTRA-LIGAND FREE ENERGY PREDICTED BY IDOCK:   -1.03 KCAL/MOL
REMARK 927      BINDING AFFINITY PREDICTED BY RF-SCORE:    0.00 PKD
ROOT
HETATM    1  C   UNL     1      -6.159  15.786  69.473  1.00  0.00    -0.147 C  
HETATM    2  O   UNL     1      -7.190  14.804  69.439  1.00  0.00    -0.154 OA 
ENDROOT
BRANCH   2   3
HETATM    3  C   UNL     1      -7.948  14.732  68.300  1.00  0.00    -0.130 A  
HETATM    4  C   UNL     1      -8.390  15.880  67.627  1.00  0.00    -0.165 A  
HETATM    5  C   UNL     1      -9.192  15.777  66.494  1.00  0.00    -0.314 A  
HETATM    6  C   UNL     1      -9.568  14.523  66.031  1.00  0.00    -0.305 A  
HETATM    7  C   UNL     1      -9.141  13.363  66.699  1.00  0.00    -0.180 A  
HETATM    8  C   UNL     1      -8.332  13.455  67.830  1.00  0.00    -0.166 A  
HETATM    9  C   UNL     1      -7.885  12.199  68.482  1.00  0.00    -0.122 C  
HETATM   10  O   UNL     1      -7.196  12.196  69.499  1.00  0.00     0.090 OA 
HETATM   11  C   UNL     1      -8.264  10.881  67.918  1.00  0.00    -0.114 A  
HETATM   12  C   UNL     1      -7.784   9.692  68.511  1.00  0.00    -0.081 A  
HETATM   13  O   UNL     1      -6.929   9.720  69.589  1.00  0.00    -0.061 OA 
HETATM   14  C   UNL     1      -8.185   8.418  68.058  1.00  0.00    -0.127 A  
HETATM   15  H   UNL     1      -6.607   8.920  69.988  1.00  0.00     0.000 HD 
HETATM   16  C   UNL     1      -9.109   8.340  66.996  1.00  0.00    -0.172 A  
HETATM   17  C   UNL     1      -9.533   9.531  66.365  1.00  0.00    -0.195 A  
HETATM   18  C   UNL     1      -9.645   6.999  66.529  1.00  0.00    -0.201 C  
HETATM   19  C   UNL     1      -9.429   5.824  67.500  1.00  0.00    -0.112 C  
HETATM   20  C   UNL     1      -9.120  10.801  66.823  1.00  0.00    -0.167 A  
HETATM   21  O   UNL     1     -10.396   9.469  65.305  1.00  0.00    -0.175 OA 
HETATM   22  C   UNL     1      -7.777   7.179  68.847  1.00  0.00    -0.113 C  
HETATM   23  C   UNL     1      -9.573  12.055  66.165  1.00  0.00    -0.239 C  
HETATM   24  C   UNL     1      -8.010   5.884  68.070  1.00  0.00    -0.105 C  
HETATM   25  O   UNL     1     -10.416   5.861  68.531  1.00  0.00    -0.192 OA 
HETATM   26  H   UNL     1     -10.680  10.269  64.881  1.00  0.00     0.000 HD 
HETATM   27  O   UNL     1     -10.287  12.057  65.170  1.00  0.00    -0.258 OA 
HETATM   28  H   UNL     1     -10.283   5.135  69.130  1.00  0.00     0.000 HD 
BRANCH  19  29
HETATM   29  C   UNL     1      -9.668   4.494  66.757  1.00  0.00    -0.206 C  
HETATM   30  O   UNL     1      -9.734   3.408  67.343  1.00  0.00    -0.163 OA 
BRANCH  29  31
HETATM   31  C   UNL     1      -9.792   4.547  65.236  1.00  0.00    -0.169 C  
HETATM   32  O   UNL     1     -11.158   4.541  64.838  1.00  0.00    -0.689 OA 
HETATM   33  H   UNL     1     -11.235   4.574  63.892  1.00  0.00     0.000 HD 
ENDBRANCH  29  31
ENDBRANCH  19  29
BRANCH  22  34
HETATM   34  O   UNL     1      -8.635   7.279  69.970  1.00  0.00    -0.138 OA 
BRANCH  34  35
HETATM   35  C   UNL     1      -8.177   7.113  71.295  1.00  0.00    -0.108 C  
HETATM   36  C   UNL     1      -8.984   7.738  72.438  1.00  0.00    -0.202 C  
HETATM   37  C   UNL     1     -10.349   7.068  72.652  1.00  0.00    -0.209 C  
HETATM   38  C   UNL     1     -10.254   5.526  72.603  1.00  0.00    -0.187 C  
HETATM   39  N   UNL     1     -10.936   7.508  73.938  1.00  0.00    -0.433 NA 
HETATM   40  C   UNL     1      -9.408   5.099  71.396  1.00  0.00    -0.148 C  
HETATM   41  H2  UNL     1     -10.997   8.524  74.002  1.00  0.00     0.000 HD 
HETATM   42  O   UNL     1      -9.677   5.040  73.824  1.00  0.00    -0.135 OA 
HETATM   43  H1  UNL     1     -11.843   7.063  74.080  1.00  0.00     0.000 HD 
HETATM   44  C   UNL     1      -9.235   3.595  71.274  1.00  0.00    -0.197 C  
HETATM   45  H   UNL     1      -9.619   4.092  73.794  1.00  0.00     0.000 HD 
HETATM   46  O   UNL     1      -8.100   5.697  71.480  1.00  0.00    -0.114 OA 
ENDBRANCH  34  35
ENDBRANCH  22  34
ENDBRANCH   2   3
TORSDOF 5
ENDMDL
MODEL       62
REMARK 921   NORMALIZED FREE ENERGY PREDICTED BY IDOCK:   -5.21 KCAL/MOL
REMARK 922        TOTAL FREE ENERGY PREDICTED BY IDOCK:   -8.01 KCAL/MOL
REMARK 923 INTER-LIGAND FREE ENERGY PREDICTED BY IDOCK:   -9.21 KCAL/MOL
REMARK 924 INTRA-LIGAND FREE ENERGY PREDICTED BY IDOCK:    1.20 KCAL/MOL
REMARK 927      BINDING AFFINITY PREDICTED BY RF-SCORE:    0.00 PKD
ROOT
HETATM    1  C   UNL     1     -10.893   5.597  69.889  1.00  0.00    -0.300 C  
HETATM    2  O   UNL     1      -9.654   5.900  69.258  1.00  0.00    -0.135 OA 
ENDROOT
BRANCH   2   3
HETATM    3  C   UNL     1      -8.651   6.391  70.051  1.00  0.00    -0.135 A  
HETATM    4  C   UNL     1      -8.001   5.595  71.006  1.00  0.00    -0.111 A  
HETATM    5  C   UNL     1      -7.012   6.131  71.825  1.00  0.00    -0.077 A  
HETATM    6  C   UNL     1      -6.673   7.472  71.706  1.00  0.00    -0.053 A  
HETATM    7  C   UNL     1      -7.321   8.286  70.761  1.00  0.00    -0.056 A  
HETATM    8  C   UNL     1      -8.308   7.757  69.930  1.00  0.00    -0.130 A  
HETATM    9  C   UNL     1      -8.942   8.651  68.929  1.00  0.00    -0.142 C  
HETATM   10  O   UNL     1      -9.839   8.269  68.182  1.00  0.00    -0.161 OA 
HETATM   11  C   UNL     1      -8.506  10.063  68.798  1.00  0.00    -0.126 A  
HETATM   12  C   UNL     1      -9.074  10.890  67.803  1.00  0.00    -0.149 A  
HETATM   13  O   UNL     1     -10.004  10.407  66.911  1.00  0.00    -0.190 OA 
HETATM   14  C   UNL     1      -8.749  12.258  67.696  1.00  0.00    -0.175 A  
HETATM   15  H   UNL     1     -10.385  10.963  66.242  1.00  0.00     0.000 HD 
HETATM   16  C   UNL     1      -7.849  12.812  68.627  1.00  0.00    -0.044 A  
HETATM   17  C   UNL     1      -7.235  11.965  69.578  1.00  0.00     0.209 A  
HETATM   18  C   UNL     1      -7.535  14.297  68.616  1.00  0.00    -0.127 C  
HETATM   19  C   UNL     1      -8.515  15.176  67.819  1.00  0.00    -0.150 C  
HETATM   20  C   UNL     1      -7.562  10.595  69.672  1.00  0.00    -0.100 A  
HETATM   21  O   UNL     1      -6.326  12.481  70.460  1.00  0.00    -0.489 OA 
HETATM   22  C   UNL     1      -9.524  13.137  66.720  1.00  0.00    -0.252 C  
HETATM   23  C   UNL     1      -6.924   9.706  70.677  1.00  0.00    -0.110 C  
HETATM   24  C   UNL     1      -8.855  14.492  66.492  1.00  0.00    -0.156 C  
HETATM   25  O   UNL     1      -9.684  15.428  68.600  1.00  0.00    -0.197 OA 
HETATM   26  H   UNL     1      -5.913  11.912  71.099  1.00  0.00     0.000 HD 
HETATM   27  O   UNL     1      -6.052  10.096  71.444  1.00  0.00    -0.301 OA 
HETATM   28  H   UNL     1     -10.289  15.971  68.107  1.00  0.00     0.000 HD 
BRANCH  19  29
HETATM   29  C   UNL     1      -7.882  16.561  67.578  1.00  0.00    -0.155 C  
HETATM   30  O   UNL     1      -7.364  16.877  66.502  1.00  0.00    -0.232 OA 
BRANCH  29  31
HETATM   31  C   UNL     1      -7.884  17.551  68.741  1.00  0.00    -0.242 C  
HETATM   32  O   UNL     1      -9.086  18.309  68.760  1.00  0.00    -0.300 OA 
HETATM   33  H   UNL     1      -9.087  18.924  69.484  1.00  0.00     0.000 HD 
ENDBRANCH  29  31
ENDBRANCH  19  29
BRANCH  22  34
HETATM   34  O   UNL     1     -10.760  13.270  67.399  1.00  0.00    -0.254 OA 
BRANCH  34  35
HETATM   35  C   UNL     1     -11.988  13.435  66.721  1.00  0.00    -0.394 C  
HETATM   36  C   UNL     1     -12.255  14.755  65.991  1.00  0.00    -0.044 C  
HETATM   37  C   UNL     1     -11.361  14.956  64.758  1.00  0.00    -0.397 C  
HETATM   38  C   UNL     1     -11.251  13.673  63.903  1.00  0.00    -0.039 C  
HETATM   39  N   UNL     1     -11.868  16.081  63.939  1.00  0.00    -1.338 NA 
HETATM   40  C   UNL     1     -10.987  12.466  64.813  1.00  0.00    -0.301 C  
HETATM   41  H2  UNL     1     -11.963  16.937  64.485  1.00  0.00     0.000 HD 
HETATM   42  O   UNL     1     -12.463  13.488  63.156  1.00  0.00    -0.948 OA 
HETATM   43  H1  UNL     1     -11.273  16.215  63.121  1.00  0.00     0.000 HD 
HETATM   44  C   UNL     1     -10.886  11.149  64.065  1.00  0.00    -0.351 C  
HETATM   45  H   UNL     1     -12.396  12.700  62.630  1.00  0.00     0.000 HD 
HETATM   46  O   UNL     1     -12.038  12.351  65.790  1.00  0.00    -0.561 OA 
ENDBRANCH  34  35
ENDBRANCH  22  34
ENDBRANCH   2   3
TORSDOF 5
ENDMDL
MODEL       63
REMARK 921   NORMALIZED FREE ENERGY PREDICTED BY IDOCK:   -5.20 KCAL/MOL
REMARK 922        TOTAL FREE ENERGY PREDICTED BY IDOCK:   -8.00 KCAL/MOL
REMARK 923 INTER-LIGAND FREE ENERGY PREDICTED BY IDOCK:   -6.60 KCAL/MOL
REMARK 924 INTRA-LIGAND FREE ENERGY PREDICTED BY IDOCK:   -1.40 KCAL/MOL
REMARK 927      BINDING AFFINITY PREDICTED BY RF-SCORE:    0.00 PKD
ROOT
HETATM    1  C   UNL     1      -7.731   2.301  72.827  1.00  0.00    -0.052 C  
HETATM    2  O   UNL     1      -8.644   2.759  71.835  1.00  0.00    -0.070 OA 
ENDROOT
BRANCH   2   3
HETATM    3  C   UNL     1      -9.604   3.651  72.232  1.00  0.00    -0.145 A  
HETATM    4  C   UNL     1     -10.410   3.425  73.358  1.00  0.00    -0.243 A  
HETATM    5  C   UNL     1     -11.405   4.330  73.715  1.00  0.00    -0.202 A  
HETATM    6  C   UNL     1     -11.611   5.464  72.941  1.00  0.00    -0.296 A  
HETATM    7  C   UNL     1     -10.820   5.702  71.805  1.00  0.00    -0.301 A  
HETATM    8  C   UNL     1      -9.815   4.805  71.443  1.00  0.00    -0.255 A  
HETATM    9  C   UNL     1      -8.988   5.116  70.250  1.00  0.00    -0.124 C  
HETATM   10  O   UNL     1      -8.105   4.362  69.849  1.00  0.00    -0.062 OA 
HETATM   11  C   UNL     1      -9.206   6.369  69.488  1.00  0.00    -0.144 A  
HETATM   12  C   UNL     1      -8.375   6.685  68.390  1.00  0.00    -0.122 A  
HETATM   13  O   UNL     1      -7.326   5.873  68.025  1.00  0.00    -0.077 OA 
HETATM   14  C   UNL     1      -8.599   7.824  67.589  1.00  0.00    -0.123 A  
HETATM   15  H   UNL     1      -6.768   6.085  67.287  1.00  0.00     0.000 HD 
HETATM   16  C   UNL     1      -9.699   8.652  67.887  1.00  0.00    -0.192 A  
HETATM   17  C   UNL     1     -10.486   8.367  69.025  1.00  0.00    -0.201 A  
HETATM   18  C   UNL     1     -10.041   9.838  67.002  1.00  0.00    -0.277 C  
HETATM   19  C   UNL     1      -9.380   9.841  65.612  1.00  0.00    -0.227 C  
HETATM   20  C   UNL     1     -10.250   7.228  69.824  1.00  0.00    -0.214 A  
HETATM   21  O   UNL     1     -11.532   9.187  69.351  1.00  0.00    -0.430 OA 
HETATM   22  C   UNL     1      -7.782   8.016  66.316  1.00  0.00    -0.091 C  
HETATM   23  C   UNL     1     -11.083   6.922  71.017  1.00  0.00    -0.266 C  
HETATM   24  C   UNL     1      -7.913   9.426  65.741  1.00  0.00    -0.110 C  
HETATM   25  O   UNL     1     -10.100   8.976  64.733  1.00  0.00     0.236 OA 
HETATM   26  H   UNL     1     -12.061   8.996  70.116  1.00  0.00     0.000 HD 
HETATM   27  O   UNL     1     -11.985   7.658  71.398  1.00  0.00    -0.292 OA 
HETATM   28  H   UNL     1      -9.692   8.978  63.874  1.00  0.00     0.000 HD 
BRANCH  19  29
HETATM   29  C   UNL     1      -9.502  11.246  64.989  1.00  0.00    -0.209 C  
HETATM   30  O   UNL     1      -9.551  12.274  65.672  1.00  0.00    -0.224 OA 
BRANCH  29  31
HETATM   31  C   UNL     1      -9.595  11.338  63.468  1.00  0.00    -0.303 C  
HETATM   32  O   UNL     1     -10.877  10.925  63.012  1.00  0.00    -0.757 OA 
HETATM   33  H   UNL     1     -10.936  10.983  62.066  1.00  0.00     0.000 HD 
ENDBRANCH  29  31
ENDBRANCH  19  29
BRANCH  22  34
HETATM   34  O   UNL     1      -8.371   7.047  65.468  1.00  0.00    -0.135 OA 
BRANCH  34  35
HETATM   35  C   UNL     1      -7.707   6.518  64.339  1.00  0.00    -0.109 C  
HETATM   36  C   UNL     1      -6.401   5.744  64.547  1.00  0.00    -0.033 C  
HETATM   37  C   UNL     1      -6.602   4.400  65.262  1.00  0.00    -0.047 C  
HETATM   38  C   UNL     1      -7.815   3.620  64.706  1.00  0.00    -0.082 C  
HETATM   39  N   UNL     1      -5.371   3.581  65.161  1.00  0.00    -0.009 NA 
HETATM   40  C   UNL     1      -9.017   4.565  64.568  1.00  0.00    -0.152 C  
HETATM   41  H2  UNL     1      -4.552   4.079  65.508  1.00  0.00     0.000 HD 
HETATM   42  O   UNL     1      -7.476   3.043  63.437  1.00  0.00    -0.059 OA 
HETATM   43  H1  UNL     1      -5.505   2.688  65.637  1.00  0.00     0.000 HD 
HETATM   44  C   UNL     1     -10.257   3.895  64.006  1.00  0.00    -0.216 C  
HETATM   45  H   UNL     1      -8.221   2.564  63.095  1.00  0.00     0.000 HD 
HETATM   46  O   UNL     1      -8.673   5.670  63.712  1.00  0.00     0.018 OA 
ENDBRANCH  34  35
ENDBRANCH  22  34
ENDBRANCH   2   3
TORSDOF 5
ENDMDL
MODEL       64
REMARK 921   NORMALIZED FREE ENERGY PREDICTED BY IDOCK:   -5.15 KCAL/MOL
REMARK 922        TOTAL FREE ENERGY PREDICTED BY IDOCK:   -7.93 KCAL/MOL
REMARK 923 INTER-LIGAND FREE ENERGY PREDICTED BY IDOCK:   -6.50 KCAL/MOL
REMARK 924 INTRA-LIGAND FREE ENERGY PREDICTED BY IDOCK:   -1.43 KCAL/MOL
REMARK 927      BINDING AFFINITY PREDICTED BY RF-SCORE:    0.00 PKD
ROOT
HETATM    1  C   UNL     1     -12.407  10.917  70.614  1.00  0.00    -0.376 C  
HETATM    2  O   UNL     1     -11.232  10.141  70.406  1.00  0.00    -0.284 OA 
ENDROOT
BRANCH   2   3
HETATM    3  C   UNL     1     -11.162   8.929  71.041  1.00  0.00    -0.281 A  
HETATM    4  C   UNL     1     -11.464   8.785  72.403  1.00  0.00    -0.301 A  
HETATM    5  C   UNL     1     -11.346   7.549  73.032  1.00  0.00    -0.313 A  
HETATM    6  C   UNL     1     -10.912   6.448  72.306  1.00  0.00    -0.289 A  
HETATM    7  C   UNL     1     -10.597   6.577  70.943  1.00  0.00    -0.275 A  
HETATM    8  C   UNL     1     -10.719   7.809  70.302  1.00  0.00    -0.237 A  
HETATM    9  C   UNL     1     -10.400   7.885  68.854  1.00  0.00    -0.213 C  
HETATM   10  O   UNL     1     -10.453   8.939  68.225  1.00  0.00    -0.215 OA 
HETATM   11  C   UNL     1      -9.996   6.670  68.106  1.00  0.00    -0.156 A  
HETATM   12  C   UNL     1      -9.752   6.742  66.716  1.00  0.00    -0.171 A  
HETATM   13  O   UNL     1      -9.920   7.915  66.016  1.00  0.00    -0.451 OA 
HETATM   14  C   UNL     1      -9.288   5.631  65.982  1.00  0.00    -0.150 A  
HETATM   15  H   UNL     1      -9.756   7.963  65.082  1.00  0.00     0.000 HD 
HETATM   16  C   UNL     1      -9.042   4.425  66.669  1.00  0.00    -0.130 A  
HETATM   17  C   UNL     1      -9.350   4.342  68.045  1.00  0.00    -0.152 A  
HETATM   18  C   UNL     1      -8.455   3.226  65.946  1.00  0.00    -0.111 C  
HETATM   19  C   UNL     1      -7.811   3.524  64.580  1.00  0.00    -0.085 C  
HETATM   20  C   UNL     1      -9.821   5.458  68.769  1.00  0.00    -0.208 A  
HETATM   21  O   UNL     1      -9.158   3.164  68.715  1.00  0.00    -0.121 OA 
HETATM   22  C   UNL     1      -8.874   5.815  64.527  1.00  0.00     0.205 C  
HETATM   23  C   UNL     1     -10.137   5.374  70.219  1.00  0.00    -0.248 C  
HETATM   24  C   UNL     1      -8.703   4.486  63.792  1.00  0.00    -0.139 C  
HETATM   25  O   UNL     1      -6.498   4.054  64.770  1.00  0.00    -0.039 OA 
HETATM   26  H   UNL     1      -9.365   3.108  69.640  1.00  0.00     0.000 HD 
HETATM   27  O   UNL     1     -10.053   4.330  70.853  1.00  0.00    -0.185 OA 
HETATM   28  H   UNL     1      -6.100   4.238  63.927  1.00  0.00     0.000 HD 
BRANCH  19  29
HETATM   29  C   UNL     1      -7.608   2.204  63.810  1.00  0.00    -0.059 C  
HETATM   30  O   UNL     1      -8.549   1.559  63.336  1.00  0.00    -0.071 OA 
BRANCH  29  31
HETATM   31  C   UNL     1      -6.180   1.682  63.667  1.00  0.00    -0.013 C  
HETATM   32  O   UNL     1      -5.472   2.406  62.669  1.00  0.00    -0.007 OA 
HETATM   33  H   UNL     1      -4.584   2.082  62.580  1.00  0.00     0.000 HD 
ENDBRANCH  29  31
ENDBRANCH  19  29
BRANCH  22  34
HETATM   34  O   UNL     1      -7.640   6.492  64.681  1.00  0.00    -0.086 OA 
BRANCH  34  35
HETATM   35  C   UNL     1      -7.041   7.232  63.637  1.00  0.00    -0.066 C  
HETATM   36  C   UNL     1      -7.923   8.146  62.781  1.00  0.00    -0.159 C  
HETATM   37  C   UNL     1      -8.464   9.359  63.551  1.00  0.00    -0.201 C  
HETATM   38  C   UNL     1      -7.377  10.027  64.423  1.00  0.00    -0.138 C  
HETATM   39  N   UNL     1      -9.046  10.343  62.608  1.00  0.00    -0.258 NA 
HETATM   40  C   UNL     1      -6.604   8.951  65.198  1.00  0.00    -0.065 C  
HETATM   41  H2  UNL     1      -9.757   9.923  62.010  1.00  0.00     0.000 HD 
HETATM   42  O   UNL     1      -6.490  10.787  63.589  1.00  0.00    -0.364 OA 
HETATM   43  H1  UNL     1      -9.406  11.149  63.120  1.00  0.00     0.000 HD 
HETATM   44  C   UNL     1      -5.493   9.507  66.070  1.00  0.00    -0.040 C  
HETATM   45  H   UNL     1      -5.822  11.197  64.125  1.00  0.00     0.000 HD 
HETATM   46  O   UNL     1      -6.024   8.008  64.277  1.00  0.00    -0.055 OA 
ENDBRANCH  34  35
ENDBRANCH  22  34
ENDBRANCH   2   3
TORSDOF 5
ENDMDL
MODEL       65
REMARK 921   NORMALIZED FREE ENERGY PREDICTED BY IDOCK:   -4.96 KCAL/MOL
REMARK 922        TOTAL FREE ENERGY PREDICTED BY IDOCK:   -7.70 KCAL/MOL
REMARK 923 INTER-LIGAND FREE ENERGY PREDICTED BY IDOCK:   -6.66 KCAL/MOL
REMARK 924 INTRA-LIGAND FREE ENERGY PREDICTED BY IDOCK:   -1.04 KCAL/MOL
REMARK 927      BINDING AFFINITY PREDICTED BY RF-SCORE:    0.00 PKD
ROOT
HETATM    1  C   UNL     1     -10.751  18.244  68.087  1.00  0.00    -0.199 C  
HETATM    2  O   UNL     1      -9.593  18.021  67.291  1.00  0.00    -0.261 OA 
ENDROOT
BRANCH   2   3
HETATM    3  C   UNL     1      -8.399  17.883  67.948  1.00  0.00    -0.247 A  
HETATM    4  C   UNL     1      -7.581  18.985  68.243  1.00  0.00    -0.331 A  
HETATM    5  C   UNL     1      -6.354  18.811  68.877  1.00  0.00    -0.268 A  
HETATM    6  C   UNL     1      -5.929  17.532  69.211  1.00  0.00    -0.224 A  
HETATM    7  C   UNL     1      -6.731  16.418  68.914  1.00  0.00    -0.174 A  
HETATM    8  C   UNL     1      -7.965  16.581  68.286  1.00  0.00    -0.177 A  
HETATM    9  C   UNL     1      -8.788  15.374  68.021  1.00  0.00    -0.165 C  
HETATM   10  O   UNL     1      -9.871  15.432  67.445  1.00  0.00    -0.216 OA 
HETATM   11  C   UNL     1      -8.318  14.034  68.448  1.00  0.00    -0.162 A  
HETATM   12  C   UNL     1      -9.134  12.899  68.244  1.00  0.00    -0.180 A  
HETATM   13  O   UNL     1     -10.389  13.006  67.689  1.00  0.00    -0.218 OA 
HETATM   14  C   UNL     1      -8.694  11.597  68.560  1.00  0.00    -0.130 A  
HETATM   15  H   UNL     1     -10.938  12.243  67.553  1.00  0.00     0.000 HD 
HETATM   16  C   UNL     1      -7.392  11.432  69.072  1.00  0.00    -0.108 A  
HETATM   17  C   UNL     1      -6.606  12.576  69.335  1.00  0.00    -0.073 A  
HETATM   18  C   UNL     1      -6.833  10.046  69.342  1.00  0.00    -0.064 C  
HETATM   19  C   UNL     1      -7.595   8.884  68.682  1.00  0.00    -0.096 C  
HETATM   20  C   UNL     1      -7.059  13.876  69.021  1.00  0.00    -0.098 A  
HETATM   21  O   UNL     1      -5.356  12.434  69.873  1.00  0.00    -0.077 OA 
HETATM   22  C   UNL     1      -9.546  10.400  68.154  1.00  0.00    -0.144 C  
HETATM   23  C   UNL     1      -6.229  15.080  69.289  1.00  0.00    -0.111 C  
HETATM   24  C   UNL     1      -9.102   9.105  68.835  1.00  0.00    -0.139 C  
HETATM   25  O   UNL     1      -7.213   8.772  67.311  1.00  0.00    -0.078 OA 
HETATM   26  H   UNL     1      -4.828  13.203  70.050  1.00  0.00     0.000 HD 
HETATM   27  O   UNL     1      -5.134  15.019  69.834  1.00  0.00    -0.090 OA 
HETATM   28  H   UNL     1      -7.683   8.053  66.903  1.00  0.00     0.000 HD 
BRANCH  19  29
HETATM   29  C   UNL     1      -7.166   7.553  69.333  1.00  0.00    -0.082 C  
HETATM   30  O   UNL     1      -6.168   7.459  70.056  1.00  0.00    -0.027 OA 
BRANCH  29  31
HETATM   31  C   UNL     1      -8.007   6.315  69.030  1.00  0.00    -0.110 C  
HETATM   32  O   UNL     1      -8.154   6.132  67.628  1.00  0.00    -0.111 OA 
HETATM   33  H   UNL     1      -8.676   5.362  67.439  1.00  0.00     0.000 HD 
ENDBRANCH  29  31
ENDBRANCH  19  29
BRANCH  22  34
HETATM   34  O   UNL     1      -9.313  10.364  66.757  1.00  0.00    -0.153 OA 
BRANCH  34  35
HETATM   35  C   UNL     1     -10.278   9.899  65.836  1.00  0.00    -0.194 C  
HETATM   36  C   UNL     1     -11.361  10.867  65.351  1.00  0.00     0.364 C  
HETATM   37  C   UNL     1     -10.813  11.991  64.459  1.00  0.00    -0.314 C  
HETATM   38  C   UNL     1      -9.803  11.464  63.414  1.00  0.00    -0.396 C  
HETATM   39  N   UNL     1     -11.928  12.699  63.789  1.00  0.00    -0.466 NA 
HETATM   40  C   UNL     1      -8.808  10.513  64.091  1.00  0.00    -0.194 C  
HETATM   41  H2  UNL     1     -12.617  13.044  64.457  1.00  0.00     0.000 HD 
HETATM   42  O   UNL     1     -10.509  10.793  62.359  1.00  0.00    -0.601 OA 
HETATM   43  H1  UNL     1     -11.564  13.446  63.197  1.00  0.00     0.000 HD 
HETATM   44  C   UNL     1      -7.785   9.922  63.138  1.00  0.00    -0.141 C  
HETATM   45  H   UNL     1      -9.888  10.469  61.717  1.00  0.00     0.000 HD 
HETATM   46  O   UNL     1      -9.518   9.429  64.719  1.00  0.00    -0.201 OA 
ENDBRANCH  34  35
ENDBRANCH  22  34
ENDBRANCH   2   3
TORSDOF 5
ENDMDL
MODEL       66
REMARK 921   NORMALIZED FREE ENERGY PREDICTED BY IDOCK:   -4.90 KCAL/MOL
REMARK 922        TOTAL FREE ENERGY PREDICTED BY IDOCK:   -7.62 KCAL/MOL
REMARK 923 INTER-LIGAND FREE ENERGY PREDICTED BY IDOCK:   -7.90 KCAL/MOL
REMARK 924 INTRA-LIGAND FREE ENERGY PREDICTED BY IDOCK:    0.28 KCAL/MOL
REMARK 927      BINDING AFFINITY PREDICTED BY RF-SCORE:    0.00 PKD
ROOT
HETATM    1  C   UNL     1     -11.533  14.138  65.567  1.00  0.00    -0.324 C  
HETATM    2  O   UNL     1     -11.086  12.983  66.268  1.00  0.00    -0.281 OA 
ENDROOT
BRANCH   2   3
HETATM    3  C   UNL     1     -11.437  12.878  67.589  1.00  0.00    -0.334 A  
HETATM    4  C   UNL     1     -11.879  13.984  68.330  1.00  0.00    -0.397 A  
HETATM    5  C   UNL     1     -12.192  13.856  69.681  1.00  0.00    -0.374 A  
HETATM    6  C   UNL     1     -12.053  12.623  70.304  1.00  0.00    -0.372 A  
HETATM    7  C   UNL     1     -11.602  11.508  69.578  1.00  0.00    -0.400 A  
HETATM    8  C   UNL     1     -11.294  11.623  68.223  1.00  0.00    -0.348 A  
HETATM    9  C   UNL     1     -10.849  10.408  67.494  1.00  0.00    -0.301 C  
HETATM   10  O   UNL     1     -10.530  10.435  66.309  1.00  0.00    -0.222 OA 
HETATM   11  C   UNL     1     -10.771   9.100  68.188  1.00  0.00    -0.186 A  
HETATM   12  C   UNL     1     -10.405   7.939  67.472  1.00  0.00    -0.259 A  
HETATM   13  O   UNL     1     -10.152   7.978  66.120  1.00  0.00    -0.475 OA 
HETATM   14  C   UNL     1     -10.239   6.692  68.108  1.00  0.00    -0.193 A  
HETATM   15  H   UNL     1      -9.906   7.197  65.638  1.00  0.00     0.000 HD 
HETATM   16  C   UNL     1     -10.425   6.616  69.503  1.00  0.00    -0.253 A  
HETATM   17  C   UNL     1     -10.856   7.766  70.202  1.00  0.00    -0.244 A  
HETATM   18  C   UNL     1     -10.170   5.320  70.252  1.00  0.00    -0.345 C  
HETATM   19  C   UNL     1      -9.357   4.261  69.487  1.00  0.00    -0.162 C  
HETATM   20  C   UNL     1     -11.025   9.009  69.554  1.00  0.00    -0.118 A  
HETATM   21  O   UNL     1     -11.083   7.697  71.549  1.00  0.00    -0.233 OA 
HETATM   22  C   UNL     1      -9.671   5.518  67.318  1.00  0.00    -0.139 C  
HETATM   23  C   UNL     1     -11.470  10.221  70.291  1.00  0.00    -0.317 C  
HETATM   24  C   UNL     1      -9.849   4.182  68.040  1.00  0.00    -0.088 C  
HETATM   25  O   UNL     1      -7.966   4.576  69.557  1.00  0.00    -0.061 OA 
HETATM   26  H   UNL     1     -11.373   8.469  72.019  1.00  0.00     0.000 HD 
HETATM   27  O   UNL     1     -11.757  10.202  71.481  1.00  0.00    -0.343 OA 
HETATM   28  H   UNL     1      -7.463   3.922  69.085  1.00  0.00     0.000 HD 
BRANCH  19  29
HETATM   29  C   UNL     1      -9.499   2.897  70.192  1.00  0.00    -0.127 C  
HETATM   30  O   UNL     1      -9.808   1.865  69.587  1.00  0.00     0.060 OA 
BRANCH  29  31
HETATM   31  C   UNL     1      -9.275   2.856  71.702  1.00  0.00    -0.111 C  
HETATM   32  O   UNL     1      -8.304   1.875  72.044  1.00  0.00    -0.051 OA 
HETATM   33  H   UNL     1      -8.164   1.850  72.983  1.00  0.00     0.000 HD 
ENDBRANCH  29  31
ENDBRANCH  19  29
BRANCH  22  34
HETATM   34  O   UNL     1      -8.306   5.887  67.229  1.00  0.00    -0.106 OA 
BRANCH  34  35
HETATM   35  C   UNL     1      -7.653   6.095  65.994  1.00  0.00    -0.087 C  
HETATM   36  C   UNL     1      -6.312   5.398  65.743  1.00  0.00    -0.035 C  
HETATM   37  C   UNL     1      -6.439   3.874  65.604  1.00  0.00    -0.033 C  
HETATM   38  C   UNL     1      -7.635   3.468  64.713  1.00  0.00    -0.077 C  
HETATM   39  N   UNL     1      -5.180   3.304  65.071  1.00  0.00    -0.009 NA 
HETATM   40  C   UNL     1      -8.877   4.275  65.117  1.00  0.00    -0.134 C  
HETATM   41  H2  UNL     1      -4.373   3.570  65.633  1.00  0.00     0.000 HD 
HETATM   42  O   UNL     1      -7.307   3.697  63.335  1.00  0.00    -0.049 OA 
HETATM   43  H1  UNL     1      -5.265   2.292  64.979  1.00  0.00     0.000 HD 
HETATM   44  C   UNL     1     -10.104   3.963  64.280  1.00  0.00    -0.216 C  
HETATM   45  H   UNL     1      -8.042   3.448  62.787  1.00  0.00     0.000 HD 
HETATM   46  O   UNL     1      -8.601   5.684  65.006  1.00  0.00    -0.149 OA 
ENDBRANCH  34  35
ENDBRANCH  22  34
ENDBRANCH   2   3
TORSDOF 5
ENDMDL
MODEL       67
REMARK 921   NORMALIZED FREE ENERGY PREDICTED BY IDOCK:   -4.89 KCAL/MOL
REMARK 922        TOTAL FREE ENERGY PREDICTED BY IDOCK:   -7.60 KCAL/MOL
REMARK 923 INTER-LIGAND FREE ENERGY PREDICTED BY IDOCK:   -9.08 KCAL/MOL
REMARK 924 INTRA-LIGAND FREE ENERGY PREDICTED BY IDOCK:    1.48 KCAL/MOL
REMARK 927      BINDING AFFINITY PREDICTED BY RF-SCORE:    0.00 PKD
ROOT
HETATM    1  C   UNL     1     -10.927  16.447  69.529  1.00  0.00    -0.317 C  
HETATM    2  O   UNL     1     -11.828  15.410  69.155  1.00  0.00    -0.330 OA 
ENDROOT
BRANCH   2   3
HETATM    3  C   UNL     1     -12.458  14.734  70.167  1.00  0.00    -0.309 A  
HETATM    4  C   UNL     1     -13.230  15.395  71.134  1.00  0.00    -0.583 A  
HETATM    5  C   UNL     1     -13.827  14.688  72.174  1.00  0.00    -0.569 A  
HETATM    6  C   UNL     1     -13.646  13.313  72.261  1.00  0.00    -0.703 A  
HETATM    7  C   UNL     1     -12.869  12.638  71.306  1.00  0.00    -0.344 A  
HETATM    8  C   UNL     1     -12.273  13.336  70.256  1.00  0.00    -0.391 A  
HETATM    9  C   UNL     1     -11.485  12.571  69.257  1.00  0.00    -0.293 C  
HETATM   10  O   UNL     1     -10.905  13.117  68.322  1.00  0.00    -0.236 OA 
HETATM   11  C   UNL     1     -11.368  11.097  69.359  1.00  0.00    -0.352 A  
HETATM   12  C   UNL     1     -10.666  10.371  68.370  1.00  0.00    -0.225 A  
HETATM   13  O   UNL     1     -10.113  10.997  67.276  1.00  0.00    -0.181 OA 
HETATM   14  C   UNL     1     -10.461   8.980  68.470  1.00  0.00    -0.232 A  
HETATM   15  H   UNL     1      -9.641  10.510  66.612  1.00  0.00     0.000 HD 
HETATM   16  C   UNL     1     -10.956   8.306  69.605  1.00  0.00    -0.092 A  
HETATM   17  C   UNL     1     -11.713   9.025  70.556  1.00  0.00    -0.126 A  
HETATM   18  C   UNL     1     -10.684   6.826  69.809  1.00  0.00    -0.288 C  
HETATM   19  C   UNL     1      -9.559   6.233  68.944  1.00  0.00    -0.126 C  
HETATM   20  C   UNL     1     -11.919  10.417  70.443  1.00  0.00    -0.409 A  
HETATM   21  O   UNL     1     -12.237   8.375  71.640  1.00  0.00    -0.289 OA 
HETATM   22  C   UNL     1      -9.547   8.284  67.469  1.00  0.00    -0.154 C  
HETATM   23  C   UNL     1     -12.708  11.176  71.448  1.00  0.00    -0.418 C  
HETATM   24  C   UNL     1      -9.679   6.762  67.512  1.00  0.00    -0.154 C  
HETATM   25  O   UNL     1      -8.290   6.546  69.519  1.00  0.00    -0.127 OA 
HETATM   26  H   UNL     1     -12.747   8.859  72.279  1.00  0.00     0.000 HD 
HETATM   27  O   UNL     1     -13.259  10.636  72.399  1.00  0.00    -0.287 OA 
HETATM   28  H   UNL     1      -7.594   6.180  68.985  1.00  0.00     0.000 HD 
BRANCH  19  29
HETATM   29  C   UNL     1      -9.647   4.694  68.971  1.00  0.00    -0.172 C  
HETATM   30  O   UNL     1      -9.778   4.054  70.020  1.00  0.00    -0.199 OA 
BRANCH  29  31
HETATM   31  C   UNL     1      -9.535   3.956  67.639  1.00  0.00    -0.185 C  
HETATM   32  O   UNL     1      -8.173   3.794  67.262  1.00  0.00    -0.090 OA 
HETATM   33  H   UNL     1      -8.104   3.334  66.434  1.00  0.00     0.000 HD 
ENDBRANCH  29  31
ENDBRANCH  19  29
BRANCH  22  34
HETATM   34  O   UNL     1      -8.275   8.713  67.920  1.00  0.00    -0.113 OA 
BRANCH  34  35
HETATM   35  C   UNL     1      -7.114   8.628  67.120  1.00  0.00    -0.075 C  
HETATM   36  C   UNL     1      -6.845   7.334  66.346  1.00  0.00    -0.061 C  
HETATM   37  C   UNL     1      -7.845   7.091  65.206  1.00  0.00    -0.121 C  
HETATM   38  C   UNL     1      -8.116   8.373  64.386  1.00  0.00    -0.158 C  
HETATM   39  N   UNL     1      -7.358   6.006  64.324  1.00  0.00    -0.064 NA 
HETATM   40  C   UNL     1      -8.358   9.553  65.336  1.00  0.00    -0.139 C  
HETATM   41  H2  UNL     1      -7.158   5.152  64.844  1.00  0.00     0.000 HD 
HETATM   42  O   UNL     1      -6.999   8.637  63.524  1.00  0.00    -0.088 OA 
HETATM   43  H1  UNL     1      -8.023   5.844  63.567  1.00  0.00     0.000 HD 
HETATM   44  C   UNL     1      -8.611  10.869  64.623  1.00  0.00     0.014 C  
HETATM   45  H   UNL     1      -7.165   9.425  63.020  1.00  0.00     0.000 HD 
HETATM   46  O   UNL     1      -7.222   9.722  66.205  1.00  0.00    -0.095 OA 
ENDBRANCH  34  35
ENDBRANCH  22  34
ENDBRANCH   2   3
TORSDOF 5
ENDMDL
MODEL       68
REMARK 921   NORMALIZED FREE ENERGY PREDICTED BY IDOCK:   -4.87 KCAL/MOL
REMARK 922        TOTAL FREE ENERGY PREDICTED BY IDOCK:   -7.57 KCAL/MOL
REMARK 923 INTER-LIGAND FREE ENERGY PREDICTED BY IDOCK:   -6.53 KCAL/MOL
REMARK 924 INTRA-LIGAND FREE ENERGY PREDICTED BY IDOCK:   -1.04 KCAL/MOL
REMARK 927      BINDING AFFINITY PREDICTED BY RF-SCORE:    0.00 PKD
ROOT
HETATM    1  C   UNL     1      -9.498  16.825  68.711  1.00  0.00    -0.259 C  
HETATM    2  O   UNL     1     -10.084  15.544  68.508  1.00  0.00    -0.206 OA 
ENDROOT
BRANCH   2   3
HETATM    3  C   UNL     1     -10.053  15.036  67.236  1.00  0.00    -0.235 A  
HETATM    4  C   UNL     1     -10.202  15.852  66.106  1.00  0.00    -0.340 A  
HETATM    5  C   UNL     1     -10.206  15.304  64.827  1.00  0.00    -0.041 A  
HETATM    6  C   UNL     1     -10.074  13.930  64.668  1.00  0.00    -0.144 A  
HETATM    7  C   UNL     1      -9.933  13.097  65.791  1.00  0.00    -0.260 A  
HETATM    8  C   UNL     1      -9.920  13.638  67.076  1.00  0.00    -0.248 A  
HETATM    9  C   UNL     1      -9.741  12.717  68.227  1.00  0.00    -0.216 C  
HETATM   10  O   UNL     1      -9.749  13.112  69.390  1.00  0.00     0.556 OA 
HETATM   11  C   UNL     1      -9.545  11.264  68.006  1.00  0.00    -0.182 A  
HETATM   12  C   UNL     1      -9.315  10.405  69.104  1.00  0.00    -0.199 A  
HETATM   13  O   UNL     1      -9.226  10.889  70.389  1.00  0.00     0.612 OA 
HETATM   14  C   UNL     1      -9.206   9.008  68.947  1.00  0.00    -0.140 A  
HETATM   15  H   UNL     1      -9.072  10.311  71.127  1.00  0.00     0.000 HD 
HETATM   16  C   UNL     1      -9.353   8.461  67.657  1.00  0.00    -0.158 A  
HETATM   17  C   UNL     1      -9.516   9.330  66.556  1.00  0.00    -0.202 A  
HETATM   18  C   UNL     1      -9.336   6.958  67.444  1.00  0.00    -0.144 C  
HETATM   19  C   UNL     1      -9.535   6.106  68.711  1.00  0.00    -0.121 C  
HETATM   20  C   UNL     1      -9.618  10.729  66.723  1.00  0.00    -0.201 A  
HETATM   21  O   UNL     1      -9.617   8.816  65.292  1.00  0.00    -0.430 OA 
HETATM   22  C   UNL     1      -9.137   8.119  70.184  1.00  0.00    -0.147 C  
HETATM   23  C   UNL     1      -9.799  11.644  65.566  1.00  0.00    -0.234 C  
HETATM   24  C   UNL     1      -8.706   6.690  69.857  1.00  0.00    -0.141 C  
HETATM   25  O   UNL     1     -10.924   6.045  69.039  1.00  0.00    -0.321 OA 
HETATM   26  H   UNL     1      -9.726   9.400  64.552  1.00  0.00     0.000 HD 
HETATM   27  O   UNL     1      -9.824  11.246  64.407  1.00  0.00    -0.239 OA 
HETATM   28  H   UNL     1     -11.047   5.519  69.821  1.00  0.00     0.000 HD 
BRANCH  19  29
HETATM   29  C   UNL     1      -9.123   4.649  68.420  1.00  0.00    -0.120 C  
HETATM   30  O   UNL     1      -8.427   3.987  69.197  1.00  0.00    -0.075 OA 
BRANCH  29  31
HETATM   31  C   UNL     1      -9.582   4.036  67.098  1.00  0.00    -0.196 C  
HETATM   32  O   UNL     1      -9.820   2.641  67.242  1.00  0.00    -0.329 OA 
HETATM   33  H   UNL     1     -10.106   2.260  66.421  1.00  0.00     0.000 HD 
ENDBRANCH  29  31
ENDBRANCH  19  29
BRANCH  22  34
HETATM   34  O   UNL     1     -10.480   8.173  70.630  1.00  0.00    -0.204 OA 
BRANCH  34  35
HETATM   35  C   UNL     1     -10.827   8.456  71.969  1.00  0.00    -0.320 C  
HETATM   36  C   UNL     1     -11.404   9.835  72.306  1.00  0.00     1.048 C  
HETATM   37  C   UNL     1     -12.806  10.063  71.723  1.00  0.00    -0.446 C  
HETATM   38  C   UNL     1     -13.725   8.835  71.919  1.00  0.00    -0.433 C  
HETATM   39  N   UNL     1     -13.419  11.269  72.326  1.00  0.00    -0.521 NA 
HETATM   40  C   UNL     1     -12.969   7.557  71.533  1.00  0.00    -0.359 C  
HETATM   41  H2  UNL     1     -12.825  12.091  72.223  1.00  0.00     0.000 HD 
HETATM   42  O   UNL     1     -14.160   8.774  73.285  1.00  0.00    -1.180 OA 
HETATM   43  H1  UNL     1     -14.350  11.420  71.939  1.00  0.00     0.000 HD 
HETATM   44  C   UNL     1     -13.782   6.289  71.715  1.00  0.00     0.530 C  
HETATM   45  H   UNL     1     -14.725   8.020  73.406  1.00  0.00     0.000 HD 
HETATM   46  O   UNL     1     -11.771   7.441  72.324  1.00  0.00    -0.286 OA 
ENDBRANCH  34  35
ENDBRANCH  22  34
ENDBRANCH   2   3
TORSDOF 5
ENDMDL
MODEL       69
REMARK 921   NORMALIZED FREE ENERGY PREDICTED BY IDOCK:   -4.81 KCAL/MOL
REMARK 922        TOTAL FREE ENERGY PREDICTED BY IDOCK:   -7.49 KCAL/MOL
REMARK 923 INTER-LIGAND FREE ENERGY PREDICTED BY IDOCK:   -6.79 KCAL/MOL
REMARK 924 INTRA-LIGAND FREE ENERGY PREDICTED BY IDOCK:   -0.70 KCAL/MOL
REMARK 927      BINDING AFFINITY PREDICTED BY RF-SCORE:    0.00 PKD
ROOT
HETATM    1  C   UNL     1     -10.902   5.898  70.845  1.00  0.00    -0.279 C  
HETATM    2  O   UNL     1     -10.320   6.640  69.779  1.00  0.00    -0.181 OA 
ENDROOT
BRANCH   2   3
HETATM    3  C   UNL     1      -8.972   6.877  69.844  1.00  0.00    -0.142 A  
HETATM    4  C   UNL     1      -8.057   5.873  70.193  1.00  0.00    -0.110 A  
HETATM    5  C   UNL     1      -6.697   6.153  70.290  1.00  0.00    -0.050 A  
HETATM    6  C   UNL     1      -6.242   7.443  70.049  1.00  0.00    -0.027 A  
HETATM    7  C   UNL     1      -7.146   8.461  69.707  1.00  0.00    -0.051 A  
HETATM    8  C   UNL     1      -8.510   8.190  69.600  1.00  0.00    -0.126 A  
HETATM    9  C   UNL     1      -9.421   9.295  69.208  1.00  0.00    -0.160 C  
HETATM   10  O   UNL     1     -10.637   9.145  69.122  1.00  0.00    -0.223 OA 
HETATM   11  C   UNL     1      -8.882  10.643  68.904  1.00  0.00    -0.160 A  
HETATM   12  C   UNL     1      -9.749  11.672  68.474  1.00  0.00    -0.184 A  
HETATM   13  O   UNL     1     -11.094  11.448  68.287  1.00  0.00    -0.207 OA 
HETATM   14  C   UNL     1      -9.293  12.988  68.253  1.00  0.00    -0.199 A  
HETATM   15  H   UNL     1     -11.677  12.140  67.998  1.00  0.00     0.000 HD 
HETATM   16  C   UNL     1      -7.936  13.280  68.493  1.00  0.00    -0.097 A  
HETATM   17  C   UNL     1      -7.061  12.232  68.858  1.00  0.00    -0.088 A  
HETATM   18  C   UNL     1      -7.411  14.699  68.360  1.00  0.00    -0.115 C  
HETATM   19  C   UNL     1      -8.482  15.803  68.336  1.00  0.00    -0.170 C  
HETATM   20  C   UNL     1      -7.527  10.917  69.071  1.00  0.00    -0.124 A  
HETATM   21  O   UNL     1      -5.732  12.493  69.052  1.00  0.00    -0.063 OA 
HETATM   22  C   UNL     1     -10.304  14.092  67.964  1.00  0.00    -0.231 C  
HETATM   23  C   UNL     1      -6.609   9.816  69.464  1.00  0.00    -0.051 C  
HETATM   24  C   UNL     1      -9.646  15.369  67.441  1.00  0.00    -0.210 C  
HETATM   25  O   UNL     1      -8.915  16.086  69.667  1.00  0.00    -0.162 OA 
HETATM   26  H   UNL     1      -5.144  11.788  69.297  1.00  0.00     0.000 HD 
HETATM   27  O   UNL     1      -5.400   9.974  69.582  1.00  0.00    -0.037 OA 
HETATM   28  H   UNL     1      -9.577  16.768  69.652  1.00  0.00     0.000 HD 
BRANCH  19  29
HETATM   29  C   UNL     1      -7.855  17.116  67.825  1.00  0.00    -0.182 C  
HETATM   30  O   UNL     1      -8.342  17.767  66.895  1.00  0.00    -0.222 OA 
BRANCH  29  31
HETATM   31  C   UNL     1      -6.566  17.589  68.493  1.00  0.00    -0.198 C  
HETATM   32  O   UNL     1      -6.570  17.280  69.881  1.00  0.00    -0.102 OA 
HETATM   33  H   UNL     1      -5.769  17.574  70.297  1.00  0.00     0.000 HD 
ENDBRANCH  29  31
ENDBRANCH  19  29
BRANCH  22  34
HETATM   34  O   UNL     1     -10.871  14.283  69.248  1.00  0.00    -0.249 OA 
BRANCH  34  35
HETATM   35  C   UNL     1     -12.261  14.210  69.485  1.00  0.00    -0.305 C  
HETATM   36  C   UNL     1     -12.853  12.898  70.008  1.00  0.00     0.420 C  
HETATM   37  C   UNL     1     -12.426  12.573  71.447  1.00  0.00    -0.099 C  
HETATM   38  C   UNL     1     -12.501  13.811  72.370  1.00  0.00     0.083 C  
HETATM   39  N   UNL     1     -13.257  11.474  71.990  1.00  0.00    -0.520 NA 
HETATM   40  C   UNL     1     -11.862  15.017  71.670  1.00  0.00    -0.378 C  
HETATM   41  H2  UNL     1     -13.236  10.649  71.390  1.00  0.00     0.000 HD 
HETATM   42  O   UNL     1     -13.871  14.083  72.699  1.00  0.00    -0.636 OA 
HETATM   43  H1  UNL     1     -12.973  11.258  72.945  1.00  0.00     0.000 HD 
HETATM   44  C   UNL     1     -11.908  16.294  72.490  1.00  0.00    -0.608 C  
HETATM   45  H   UNL     1     -13.918  14.844  73.267  1.00  0.00     0.000 HD 
HETATM   46  O   UNL     1     -12.527  15.263  70.416  1.00  0.00    -0.349 OA 
ENDBRANCH  34  35
ENDBRANCH  22  34
ENDBRANCH   2   3
TORSDOF 5
ENDMDL
MODEL       70
REMARK 921   NORMALIZED FREE ENERGY PREDICTED BY IDOCK:   -4.69 KCAL/MOL
REMARK 922        TOTAL FREE ENERGY PREDICTED BY IDOCK:   -7.34 KCAL/MOL
REMARK 923 INTER-LIGAND FREE ENERGY PREDICTED BY IDOCK:   -7.44 KCAL/MOL
REMARK 924 INTRA-LIGAND FREE ENERGY PREDICTED BY IDOCK:    0.10 KCAL/MOL
REMARK 927      BINDING AFFINITY PREDICTED BY RF-SCORE:    0.00 PKD
ROOT
HETATM    1  C   UNL     1      -5.431  16.033  72.414  1.00  0.00     0.936 C  
HETATM    2  O   UNL     1      -5.142  16.188  71.030  1.00  0.00    -0.186 OA 
ENDROOT
BRANCH   2   3
HETATM    3  C   UNL     1      -5.705  17.260  70.389  1.00  0.00    -0.119 A  
HETATM    4  C   UNL     1      -5.395  18.583  70.738  1.00  0.00    -0.252 A  
HETATM    5  C   UNL     1      -6.012  19.652  70.096  1.00  0.00    -0.323 A  
HETATM    6  C   UNL     1      -6.957  19.408  69.108  1.00  0.00    -0.390 A  
HETATM    7  C   UNL     1      -7.286  18.089  68.753  1.00  0.00    -0.279 A  
HETATM    8  C   UNL     1      -6.668  17.011  69.384  1.00  0.00    -0.208 A  
HETATM    9  C   UNL     1      -7.031  15.637  68.952  1.00  0.00    -0.130 C  
HETATM   10  O   UNL     1      -6.553  14.636  69.480  1.00  0.00    -0.126 OA 
HETATM   11  C   UNL     1      -8.001  15.426  67.852  1.00  0.00    -0.144 A  
HETATM   12  C   UNL     1      -8.296  14.117  67.408  1.00  0.00    -0.197 A  
HETATM   13  O   UNL     1      -7.668  13.017  67.947  1.00  0.00    -0.117 OA 
HETATM   14  C   UNL     1      -9.271  13.865  66.422  1.00  0.00    -0.174 A  
HETATM   15  H   UNL     1      -7.866  12.137  67.649  1.00  0.00     0.000 HD 
HETATM   16  C   UNL     1      -9.985  14.956  65.886  1.00  0.00    -0.357 A  
HETATM   17  C   UNL     1      -9.640  16.266  66.286  1.00  0.00    -0.308 A  
HETATM   18  C   UNL     1     -11.109  14.735  64.890  1.00  0.00    -0.416 C  
HETATM   19  C   UNL     1     -11.653  13.298  64.811  1.00  0.00    -0.332 C  
HETATM   20  C   UNL     1      -8.656  16.508  67.269  1.00  0.00    -0.202 A  
HETATM   21  O   UNL     1     -10.294  17.338  65.741  1.00  0.00    -0.531 OA 
HETATM   22  C   UNL     1      -9.671  12.427  66.114  1.00  0.00    -0.246 C  
HETATM   23  C   UNL     1      -8.299  17.886  67.697  1.00  0.00    -0.234 C  
HETATM   24  C   UNL     1     -10.486  12.307  64.826  1.00  0.00    -0.328 C  
HETATM   25  O   UNL     1     -12.560  13.064  65.889  1.00  0.00    -0.480 OA 
HETATM   26  H   UNL     1     -10.061  18.219  66.009  1.00  0.00     0.000 HD 
HETATM   27  O   UNL     1      -8.799  18.884  67.193  1.00  0.00    -0.276 OA 
HETATM   28  H   UNL     1     -12.896  12.176  65.841  1.00  0.00     0.000 HD 
BRANCH  19  29
HETATM   29  C   UNL     1     -12.495  13.137  63.530  1.00  0.00    -0.278 C  
HETATM   30  O   UNL     1     -12.682  14.065  62.736  1.00  0.00    -0.230 OA 
BRANCH  29  31
HETATM   31  C   UNL     1     -13.137  11.775  63.273  1.00  0.00     0.246 C  
HETATM   32  O   UNL     1     -12.207  10.880  62.677  1.00  0.00    -0.080 OA 
HETATM   33  H   UNL     1     -12.606  10.033  62.518  1.00  0.00     0.000 HD 
ENDBRANCH  29  31
ENDBRANCH  19  29
BRANCH  22  34
HETATM   34  O   UNL     1     -10.445  12.110  67.256  1.00  0.00    -0.214 OA 
BRANCH  34  35
HETATM   35  C   UNL     1     -11.233  10.941  67.342  1.00  0.00    -0.273 C  
HETATM   36  C   UNL     1     -10.900   9.758  66.428  1.00  0.00     0.118 C  
HETATM   37  C   UNL     1      -9.567   9.080  66.777  1.00  0.00    -0.200 C  
HETATM   38  C   UNL     1      -9.397   8.878  68.300  1.00  0.00    -0.143 C  
HETATM   39  N   UNL     1      -9.453   7.785  66.068  1.00  0.00    -0.411 NA 
HETATM   40  C   UNL     1      -9.780  10.167  69.038  1.00  0.00    -0.206 C  
HETATM   41  H2  UNL     1      -9.576   7.889  65.061  1.00  0.00     0.000 HD 
HETATM   42  O   UNL     1     -10.217   7.783  68.733  1.00  0.00    -0.193 OA 
HETATM   43  H1  UNL     1      -8.567   7.335  66.299  1.00  0.00     0.000 HD 
HETATM   44  C   UNL     1      -9.669  10.062  70.548  1.00  0.00     0.070 C  
HETATM   45  H   UNL     1     -10.113   7.658  69.669  1.00  0.00     0.000 HD 
HETATM   46  O   UNL     1     -11.134  10.534  68.710  1.00  0.00    -0.234 OA 
ENDBRANCH  34  35
ENDBRANCH  22  34
ENDBRANCH   2   3
TORSDOF 5
ENDMDL
MODEL       71
REMARK 921   NORMALIZED FREE ENERGY PREDICTED BY IDOCK:   -4.65 KCAL/MOL
REMARK 922        TOTAL FREE ENERGY PREDICTED BY IDOCK:   -7.30 KCAL/MOL
REMARK 923 INTER-LIGAND FREE ENERGY PREDICTED BY IDOCK:   -6.10 KCAL/MOL
REMARK 924 INTRA-LIGAND FREE ENERGY PREDICTED BY IDOCK:   -1.20 KCAL/MOL
REMARK 927      BINDING AFFINITY PREDICTED BY RF-SCORE:    0.00 PKD
ROOT
HETATM    1  C   UNL     1      -5.846   7.737  63.418  1.00  0.00    -0.058 C  
HETATM    2  O   UNL     1      -7.199   7.475  63.776  1.00  0.00    -0.068 OA 
ENDROOT
BRANCH   2   3
HETATM    3  C   UNL     1      -7.600   6.165  63.790  1.00  0.00    -0.089 A  
HETATM    4  C   UNL     1      -7.687   5.401  62.616  1.00  0.00    -0.070 A  
HETATM    5  C   UNL     1      -8.136   4.084  62.656  1.00  0.00    -0.075 A  
HETATM    6  C   UNL     1      -8.512   3.523  63.869  1.00  0.00    -0.090 A  
HETATM    7  C   UNL     1      -8.439   4.277  65.052  1.00  0.00    -0.117 A  
HETATM    8  C   UNL     1      -7.985   5.595  65.025  1.00  0.00    -0.115 A  
HETATM    9  C   UNL     1      -7.900   6.339  66.307  1.00  0.00    -0.104 C  
HETATM   10  O   UNL     1      -7.538   7.512  66.362  1.00  0.00    -0.085 OA 
HETATM   11  C   UNL     1      -8.257   5.679  67.586  1.00  0.00    -0.101 A  
HETATM   12  C   UNL     1      -8.116   6.377  68.806  1.00  0.00    -0.114 A  
HETATM   13  O   UNL     1      -7.611   7.656  68.849  1.00  0.00    -0.096 OA 
HETATM   14  C   UNL     1      -8.521   5.818  70.036  1.00  0.00    -0.124 A  
HETATM   15  H   UNL     1      -7.516   8.125  69.670  1.00  0.00     0.000 HD 
HETATM   16  C   UNL     1      -9.103   4.534  70.033  1.00  0.00    -0.161 A  
HETATM   17  C   UNL     1      -9.180   3.816  68.819  1.00  0.00    -0.156 A  
HETATM   18  C   UNL     1      -9.640   3.922  71.315  1.00  0.00    -0.241 C  
HETATM   19  C   UNL     1      -9.856   4.905  72.479  1.00  0.00    -0.157 C  
HETATM   20  C   UNL     1      -8.765   4.383  67.594  1.00  0.00    -0.113 A  
HETATM   21  O   UNL     1      -9.702   2.552  68.809  1.00  0.00    -0.080 OA 
HETATM   22  C   UNL     1      -8.510   6.682  71.291  1.00  0.00    -0.125 C  
HETATM   23  C   UNL     1      -8.854   3.632  66.315  1.00  0.00    -0.128 C  
HETATM   24  C   UNL     1      -8.665   5.861  72.571  1.00  0.00    -0.123 C  
HETATM   25  O   UNL     1     -11.087   5.607  72.297  1.00  0.00    -0.250 OA 
HETATM   26  H   UNL     1      -9.753   2.069  67.992  1.00  0.00     0.000 HD 
HETATM   27  O   UNL     1      -9.246   2.473  66.256  1.00  0.00    -0.122 OA 
HETATM   28  H   UNL     1     -11.220   6.214  73.017  1.00  0.00     0.000 HD 
BRANCH  19  29
HETATM   29  C   UNL     1     -10.031   4.115  73.792  1.00  0.00    -0.129 C  
HETATM   30  O   UNL     1     -11.015   4.255  74.526  1.00  0.00    -0.238 OA 
BRANCH  29  31
HETATM   31  C   UNL     1      -8.915   3.152  74.190  1.00  0.00    -0.079 C  
HETATM   32  O   UNL     1      -9.389   1.811  74.223  1.00  0.00    -0.066 OA 
HETATM   33  H   UNL     1      -8.695   1.212  74.470  1.00  0.00     0.000 HD 
ENDBRANCH  29  31
ENDBRANCH  19  29
BRANCH  22  34
HETATM   34  O   UNL     1      -9.636   7.510  71.060  1.00  0.00    -0.161 OA 
BRANCH  34  35
HETATM   35  C   UNL     1      -9.630   8.896  71.327  1.00  0.00    -0.278 C  
HETATM   36  C   UNL     1      -9.599   9.874  70.148  1.00  0.00    -0.237 C  
HETATM   37  C   UNL     1     -10.896   9.873  69.326  1.00  0.00    -0.227 C  
HETATM   38  C   UNL     1     -12.154   9.874  70.223  1.00  0.00    -0.096 C  
HETATM   39  N   UNL     1     -10.917  11.033  68.405  1.00  0.00    -0.210 NA 
HETATM   40  C   UNL     1     -11.992   8.835  71.341  1.00  0.00    -0.310 C  
HETATM   41  H2  UNL     1     -10.089  11.064  67.811  1.00  0.00     0.000 HD 
HETATM   42  O   UNL     1     -12.351  11.184  70.774  1.00  0.00    -0.353 OA 
HETATM   43  H1  UNL     1     -11.778  11.031  67.859  1.00  0.00     0.000 HD 
HETATM   44  C   UNL     1     -13.172   8.776  72.294  1.00  0.00    -0.456 C  
HETATM   45  H   UNL     1     -13.124  11.185  71.326  1.00  0.00     0.000 HD 
HETATM   46  O   UNL     1     -10.808   9.122  72.107  1.00  0.00    -0.297 OA 
ENDBRANCH  34  35
ENDBRANCH  22  34
ENDBRANCH   2   3
TORSDOF 5
ENDMDL
MODEL       72
REMARK 921   NORMALIZED FREE ENERGY PREDICTED BY IDOCK:   -4.57 KCAL/MOL
REMARK 922        TOTAL FREE ENERGY PREDICTED BY IDOCK:   -7.19 KCAL/MOL
REMARK 923 INTER-LIGAND FREE ENERGY PREDICTED BY IDOCK:   -6.11 KCAL/MOL
REMARK 924 INTRA-LIGAND FREE ENERGY PREDICTED BY IDOCK:   -1.08 KCAL/MOL
REMARK 927      BINDING AFFINITY PREDICTED BY RF-SCORE:    0.00 PKD
ROOT
HETATM    1  C   UNL     1     -12.131  14.210  63.911  1.00  0.00    -0.264 C  
HETATM    2  O   UNL     1     -11.990  14.341  65.321  1.00  0.00    -0.362 OA 
ENDROOT
BRANCH   2   3
HETATM    3  C   UNL     1     -10.846  14.936  65.784  1.00  0.00    -0.339 A  
HETATM    4  C   UNL     1     -10.494  16.247  65.429  1.00  0.00    -0.365 A  
HETATM    5  C   UNL     1      -9.306  16.812  65.882  1.00  0.00    -0.162 A  
HETATM    6  C   UNL     1      -8.452  16.066  66.684  1.00  0.00    -0.323 A  
HETATM    7  C   UNL     1      -8.785  14.748  67.040  1.00  0.00    -0.258 A  
HETATM    8  C   UNL     1      -9.977  14.175  66.598  1.00  0.00    -0.280 A  
HETATM    9  C   UNL     1     -10.295  12.790  67.026  1.00  0.00    -0.234 C  
HETATM   10  O   UNL     1     -11.309  12.205  66.655  1.00  0.00    -0.311 OA 
HETATM   11  C   UNL     1      -9.381  12.052  67.931  1.00  0.00    -0.190 A  
HETATM   12  C   UNL     1      -9.721  10.757  68.381  1.00  0.00    -0.174 A  
HETATM   13  O   UNL     1     -10.914  10.165  68.032  1.00  0.00    -0.265 OA 
HETATM   14  C   UNL     1      -8.845   9.989  69.174  1.00  0.00    -0.171 A  
HETATM   15  H   UNL     1     -11.142   9.295  68.334  1.00  0.00     0.000 HD 
HETATM   16  C   UNL     1      -7.586  10.529  69.504  1.00  0.00    -0.148 A  
HETATM   17  C   UNL     1      -7.279  11.849  69.107  1.00  0.00    -0.020 A  
HETATM   18  C   UNL     1      -6.568   9.710  70.278  1.00  0.00    -0.091 C  
HETATM   19  C   UNL     1      -6.836   8.195  70.329  1.00  0.00    -0.037 C  
HETATM   20  C   UNL     1      -8.166  12.613  68.318  1.00  0.00    -0.164 A  
HETATM   21  O   UNL     1      -6.077  12.403  69.458  1.00  0.00    -0.098 OA 
HETATM   22  C   UNL     1      -9.190   8.535  69.479  1.00  0.00    -0.150 C  
HETATM   23  C   UNL     1      -7.840  13.999  67.893  1.00  0.00    -0.160 C  
HETATM   24  C   UNL     1      -8.323   7.946  70.591  1.00  0.00    -0.123 C  
HETATM   25  O   UNL     1      -6.403   7.586  69.112  1.00  0.00    -0.034 OA 
HETATM   26  H   UNL     1      -5.871  13.290  69.192  1.00  0.00     0.000 HD 
HETATM   27  O   UNL     1      -6.812  14.570  68.237  1.00  0.00    -0.094 OA 
HETATM   28  H   UNL     1      -6.568   6.651  69.144  1.00  0.00     0.000 HD 
BRANCH  19  29
HETATM   29  C   UNL     1      -5.968   7.557  71.433  1.00  0.00    -0.036 C  
HETATM   30  O   UNL     1      -5.288   8.230  72.215  1.00  0.00    -0.035 OA 
BRANCH  29  31
HETATM   31  C   UNL     1      -5.943   6.033  71.519  1.00  0.00    -0.035 C  
HETATM   32  O   UNL     1      -5.367   5.604  72.746  1.00  0.00    -0.021 OA 
HETATM   33  H   UNL     1      -5.352   4.656  72.800  1.00  0.00     0.000 HD 
ENDBRANCH  29  31
ENDBRANCH  19  29
BRANCH  22  34
HETATM   34  O   UNL     1      -8.924   7.926  68.228  1.00  0.00    -0.133 OA 
BRANCH  34  35
HETATM   35  C   UNL     1      -9.811   7.009  67.623  1.00  0.00    -0.147 C  
HETATM   36  C   UNL     1      -9.817   6.885  66.097  1.00  0.00     0.105 C  
HETATM   37  C   UNL     1      -8.531   6.262  65.535  1.00  0.00    -0.144 C  
HETATM   38  C   UNL     1      -8.076   5.030  66.351  1.00  0.00    -0.108 C  
HETATM   39  N   UNL     1      -8.720   5.897  64.112  1.00  0.00    -0.343 NA 
HETATM   40  C   UNL     1      -8.143   5.351  67.850  1.00  0.00    -0.100 C  
HETATM   41  H2  UNL     1      -9.035   6.690  63.554  1.00  0.00     0.000 HD 
HETATM   42  O   UNL     1      -8.913   3.908  66.035  1.00  0.00    -0.122 OA 
HETATM   43  H1  UNL     1      -7.865   5.483  63.739  1.00  0.00     0.000 HD 
HETATM   44  C   UNL     1      -7.736   4.191  68.741  1.00  0.00    -0.058 C  
HETATM   45  H   UNL     1      -8.635   3.151  66.537  1.00  0.00     0.000 HD 
HETATM   46  O   UNL     1      -9.481   5.745  68.206  1.00  0.00    -0.115 OA 
ENDBRANCH  34  35
ENDBRANCH  22  34
ENDBRANCH   2   3
TORSDOF 5
ENDMDL
MODEL       73
REMARK 921   NORMALIZED FREE ENERGY PREDICTED BY IDOCK:   -4.55 KCAL/MOL
REMARK 922        TOTAL FREE ENERGY PREDICTED BY IDOCK:   -7.17 KCAL/MOL
REMARK 923 INTER-LIGAND FREE ENERGY PREDICTED BY IDOCK:   -7.74 KCAL/MOL
REMARK 924 INTRA-LIGAND FREE ENERGY PREDICTED BY IDOCK:    0.58 KCAL/MOL
REMARK 927      BINDING AFFINITY PREDICTED BY RF-SCORE:    0.00 PKD
ROOT
HETATM    1  C   UNL     1      -8.079   8.251  62.330  1.00  0.00    -0.172 C  
HETATM    2  O   UNL     1      -6.973   7.421  62.671  1.00  0.00    -0.067 OA 
ENDROOT
BRANCH   2   3
HETATM    3  C   UNL     1      -7.255   6.193  63.209  1.00  0.00    -0.056 A  
HETATM    4  C   UNL     1      -6.998   5.000  62.517  1.00  0.00    -0.030 A  
HETATM    5  C   UNL     1      -7.330   3.769  63.072  1.00  0.00    -0.050 A  
HETATM    6  C   UNL     1      -7.935   3.720  64.322  1.00  0.00    -0.086 A  
HETATM    7  C   UNL     1      -8.208   4.905  65.024  1.00  0.00    -0.129 A  
HETATM    8  C   UNL     1      -7.872   6.144  64.480  1.00  0.00    -0.114 A  
HETATM    9  C   UNL     1      -8.156   7.365  65.275  1.00  0.00    -0.131 C  
HETATM   10  O   UNL     1      -7.917   8.493  64.853  1.00  0.00    -0.120 OA 
HETATM   11  C   UNL     1      -8.749   7.260  66.630  1.00  0.00    -0.136 A  
HETATM   12  C   UNL     1      -8.961   8.423  67.403  1.00  0.00    -0.134 A  
HETATM   13  O   UNL     1      -8.589   9.667  66.947  1.00  0.00    -0.126 OA 
HETATM   14  C   UNL     1      -9.597   8.378  68.661  1.00  0.00    -0.153 A  
HETATM   15  H   UNL     1      -8.731  10.449  67.466  1.00  0.00     0.000 HD 
HETATM   16  C   UNL     1     -10.052   7.134  69.141  1.00  0.00    -0.183 A  
HETATM   17  C   UNL     1      -9.778   5.967  68.394  1.00  0.00    -0.129 A  
HETATM   18  C   UNL     1     -10.824   7.040  70.445  1.00  0.00    -0.283 C  
HETATM   19  C   UNL     1     -11.392   8.368  70.977  1.00  0.00    -0.266 C  
HETATM   20  C   UNL     1      -9.135   6.022  67.139  1.00  0.00    -0.113 A  
HETATM   21  O   UNL     1     -10.175   4.746  68.869  1.00  0.00    -0.131 OA 
HETATM   22  C   UNL     1      -9.956   9.681  69.365  1.00  0.00    -0.197 C  
HETATM   23  C   UNL     1      -8.855   4.795  66.348  1.00  0.00    -0.113 C  
HETATM   24  C   UNL     1     -10.341   9.470  70.830  1.00  0.00    -0.377 C  
HETATM   25  O   UNL     1     -12.598   8.690  70.284  1.00  0.00    -0.087 OA 
HETATM   26  H   UNL     1      -9.991   3.962  68.367  1.00  0.00     0.000 HD 
HETATM   27  O   UNL     1      -9.123   3.672  66.755  1.00  0.00    -0.140 OA 
HETATM   28  H   UNL     1     -12.949   9.510  70.613  1.00  0.00     0.000 HD 
BRANCH  19  29
HETATM   29  C   UNL     1     -11.805   8.195  72.452  1.00  0.00    -0.388 C  
HETATM   30  O   UNL     1     -11.078   7.646  73.287  1.00  0.00    -0.382 OA 
BRANCH  29  31
HETATM   31  C   UNL     1     -13.186   8.703  72.863  1.00  0.00     0.084 C  
HETATM   32  O   UNL     1     -13.417  10.011  72.354  1.00  0.00    -0.616 OA 
HETATM   33  H   UNL     1     -14.275  10.327  72.609  1.00  0.00     0.000 HD 
ENDBRANCH  29  31
ENDBRANCH  19  29
BRANCH  22  34
HETATM   34  O   UNL     1     -11.061  10.112  68.591  1.00  0.00    -0.235 OA 
BRANCH  34  35
HETATM   35  C   UNL     1     -11.752  11.316  68.852  1.00  0.00    -0.341 C  
HETATM   36  C   UNL     1     -10.991  12.478  69.497  1.00  0.00     0.029 C  
HETATM   37  C   UNL     1      -9.933  13.096  68.571  1.00  0.00    -0.180 C  
HETATM   38  C   UNL     1     -10.464  13.298  67.133  1.00  0.00    -0.248 C  
HETATM   39  N   UNL     1      -9.455  14.382  69.130  1.00  0.00    -0.404 NA 
HETATM   40  C   UNL     1     -11.195  12.031  66.670  1.00  0.00    -0.327 C  
HETATM   41  H2  UNL     1      -9.112  14.279  70.085  1.00  0.00     0.000 HD 
HETATM   42  O   UNL     1     -11.344  14.431  67.101  1.00  0.00    -0.315 OA 
HETATM   43  H1  UNL     1      -8.752  14.792  68.515  1.00  0.00     0.000 HD 
HETATM   44  C   UNL     1     -11.776  12.139  65.272  1.00  0.00    -0.364 C  
HETATM   45  H   UNL     1     -11.671  14.555  66.217  1.00  0.00     0.000 HD 
HETATM   46  O   UNL     1     -12.266  11.724  67.582  1.00  0.00    -0.534 OA 
ENDBRANCH  34  35
ENDBRANCH  22  34
ENDBRANCH   2   3
TORSDOF 5
ENDMDL
MODEL       74
REMARK 921   NORMALIZED FREE ENERGY PREDICTED BY IDOCK:   -4.55 KCAL/MOL
REMARK 922        TOTAL FREE ENERGY PREDICTED BY IDOCK:   -7.16 KCAL/MOL
REMARK 923 INTER-LIGAND FREE ENERGY PREDICTED BY IDOCK:   -7.83 KCAL/MOL
REMARK 924 INTRA-LIGAND FREE ENERGY PREDICTED BY IDOCK:    0.67 KCAL/MOL
REMARK 927      BINDING AFFINITY PREDICTED BY RF-SCORE:    0.00 PKD
ROOT
HETATM    1  C   UNL     1     -10.119   4.629  65.481  1.00  0.00    -0.183 C  
HETATM    2  O   UNL     1      -9.103   5.618  65.353  1.00  0.00    -0.122 OA 
ENDROOT
BRANCH   2   3
HETATM    3  C   UNL     1      -8.161   5.680  66.347  1.00  0.00    -0.107 A  
HETATM    4  C   UNL     1      -7.518   4.533  66.834  1.00  0.00    -0.082 A  
HETATM    5  C   UNL     1      -6.594   4.621  67.872  1.00  0.00    -0.046 A  
HETATM    6  C   UNL     1      -6.315   5.857  68.439  1.00  0.00    -0.044 A  
HETATM    7  C   UNL     1      -6.957   7.015  67.969  1.00  0.00    -0.083 A  
HETATM    8  C   UNL     1      -7.879   6.938  66.925  1.00  0.00    -0.107 A  
HETATM    9  C   UNL     1      -8.508   8.195  66.446  1.00  0.00    -0.130 C  
HETATM   10  O   UNL     1      -9.351   8.207  65.553  1.00  0.00    -0.000 OA 
HETATM   11  C   UNL     1      -8.136   9.500  67.044  1.00  0.00    -0.113 A  
HETATM   12  C   UNL     1      -8.696  10.695  66.541  1.00  0.00    -0.146 A  
HETATM   13  O   UNL     1      -9.560  10.690  65.470  1.00  0.00    -0.194 OA 
HETATM   14  C   UNL     1      -8.433  11.948  67.132  1.00  0.00    -0.173 A  
HETATM   15  H   UNL     1      -9.937  11.493  65.132  1.00  0.00     0.000 HD 
HETATM   16  C   UNL     1      -7.603  11.996  68.270  1.00  0.00    -0.117 A  
HETATM   17  C   UNL     1      -6.994  10.806  68.727  1.00  0.00    -0.075 A  
HETATM   18  C   UNL     1      -7.361  13.305  69.000  1.00  0.00     0.036 C  
HETATM   19  C   UNL     1      -8.344  14.441  68.670  1.00  0.00    -0.147 C  
HETATM   20  C   UNL     1      -7.259   9.557  68.124  1.00  0.00    -0.080 A  
HETATM   21  O   UNL     1      -6.151  10.844  69.804  1.00  0.00    -0.062 OA 
HETATM   22  C   UNL     1      -9.204  13.176  66.659  1.00  0.00    -0.215 C  
HETATM   23  C   UNL     1      -6.625   8.304  68.610  1.00  0.00    -0.054 C  
HETATM   24  C   UNL     1      -8.590  14.483  67.160  1.00  0.00    -0.242 C  
HETATM   25  O   UNL     1      -9.558  14.258  69.399  1.00  0.00    -0.404 OA 
HETATM   26  H   UNL     1      -5.741  10.044  70.111  1.00  0.00     0.000 HD 
HETATM   27  O   UNL     1      -5.809   8.287  69.523  1.00  0.00    -0.029 OA 
HETATM   28  H   UNL     1     -10.166  14.960  69.195  1.00  0.00     0.000 HD 
BRANCH  19  29
HETATM   29  C   UNL     1      -7.768  15.780  69.171  1.00  0.00    -0.220 C  
HETATM   30  O   UNL     1      -8.466  16.788  69.324  1.00  0.00    -0.140 OA 
BRANCH  29  31
HETATM   31  C   UNL     1      -6.269  15.843  69.453  1.00  0.00    -0.153 C  
HETATM   32  O   UNL     1      -5.920  17.076  70.070  1.00  0.00    -0.232 OA 
HETATM   33  H   UNL     1      -4.987  17.115  70.245  1.00  0.00     0.000 HD 
ENDBRANCH  29  31
ENDBRANCH  19  29
BRANCH  22  34
HETATM   34  O   UNL     1     -10.474  12.937  67.238  1.00  0.00    -0.232 OA 
BRANCH  34  35
HETATM   35  C   UNL     1     -11.576  13.797  67.038  1.00  0.00    -0.365 C  
HETATM   36  C   UNL     1     -11.328  15.189  66.447  1.00  0.00    -0.225 C  
HETATM   37  C   UNL     1     -10.882  15.151  64.978  1.00  0.00    -0.440 C  
HETATM   38  C   UNL     1     -11.719  14.157  64.141  1.00  0.00    -0.282 C  
HETATM   39  N   UNL     1     -10.953  16.509  64.389  1.00  0.00    -1.130 NA 
HETATM   40  C   UNL     1     -11.856  12.831  64.900  1.00  0.00    -0.379 C  
HETATM   41  H2  UNL     1     -10.420  17.188  64.932  1.00  0.00     0.000 HD 
HETATM   42  O   UNL     1     -13.010  14.723  63.871  1.00  0.00    -0.512 OA 
HETATM   43  H1  UNL     1     -10.656  16.484  63.414  1.00  0.00     0.000 HD 
HETATM   44  C   UNL     1     -12.684  11.791  64.167  1.00  0.00    -0.152 C  
HETATM   45  H   UNL     1     -13.524  14.112  63.356  1.00  0.00     0.000 HD 
HETATM   46  O   UNL     1     -12.460  13.064  66.186  1.00  0.00    -0.453 OA 
ENDBRANCH  34  35
ENDBRANCH  22  34
ENDBRANCH   2   3
TORSDOF 5
ENDMDL
MODEL       75
REMARK 921   NORMALIZED FREE ENERGY PREDICTED BY IDOCK:   -4.45 KCAL/MOL
REMARK 922        TOTAL FREE ENERGY PREDICTED BY IDOCK:   -7.03 KCAL/MOL
REMARK 923 INTER-LIGAND FREE ENERGY PREDICTED BY IDOCK:   -6.17 KCAL/MOL
REMARK 924 INTRA-LIGAND FREE ENERGY PREDICTED BY IDOCK:   -0.87 KCAL/MOL
REMARK 927      BINDING AFFINITY PREDICTED BY RF-SCORE:    0.00 PKD
ROOT
HETATM    1  C   UNL     1      -9.156   2.070  68.961  1.00  0.00    -0.123 C  
HETATM    2  O   UNL     1      -8.125   2.988  69.308  1.00  0.00    -0.051 OA 
ENDROOT
BRANCH   2   3
HETATM    3  C   UNL     1      -7.324   3.440  68.293  1.00  0.00    -0.050 A  
HETATM    4  C   UNL     1      -6.258   2.679  67.791  1.00  0.00    -0.031 A  
HETATM    5  C   UNL     1      -5.436   3.180  66.786  1.00  0.00    -0.020 A  
HETATM    6  C   UNL     1      -5.664   4.455  66.284  1.00  0.00    -0.022 A  
HETATM    7  C   UNL     1      -6.721   5.234  66.782  1.00  0.00    -0.061 A  
HETATM    8  C   UNL     1      -7.556   4.738  67.783  1.00  0.00    -0.082 A  
HETATM    9  C   UNL     1      -8.676   5.591  68.255  1.00  0.00    -0.098 C  
HETATM   10  O   UNL     1      -9.435   5.238  69.154  1.00  0.00    -0.120 OA 
HETATM   11  C   UNL     1      -8.917   6.922  67.648  1.00  0.00    -0.116 A  
HETATM   12  C   UNL     1     -10.020   7.700  68.062  1.00  0.00    -0.175 A  
HETATM   13  O   UNL     1     -10.917   7.237  68.998  1.00  0.00    -0.392 OA 
HETATM   14  C   UNL     1     -10.240   9.004  67.571  1.00  0.00    -0.302 A  
HETATM   15  H   UNL     1     -11.658   7.760  69.277  1.00  0.00     0.000 HD 
HETATM   16  C   UNL     1      -9.314   9.545  66.658  1.00  0.00    -0.207 A  
HETATM   17  C   UNL     1      -8.250   8.737  66.198  1.00  0.00    -0.117 A  
HETATM   18  C   UNL     1      -9.450  10.975  66.168  1.00  0.00    -0.230 C  
HETATM   19  C   UNL     1     -10.388  11.873  66.995  1.00  0.00    -0.212 C  
HETATM   20  C   UNL     1      -8.043   7.430  66.691  1.00  0.00    -0.123 A  
HETATM   21  O   UNL     1      -7.368   9.234  65.277  1.00  0.00    -0.091 OA 
HETATM   22  C   UNL     1     -11.342   9.860  68.186  1.00  0.00     0.044 C  
HETATM   23  C   UNL     1      -6.918   6.583  66.214  1.00  0.00    -0.066 C  
HETATM   24  C   UNL     1     -11.659  11.099  67.349  1.00  0.00    -0.157 C  
HETATM   25  O   UNL     1      -9.708  12.336  68.162  1.00  0.00    -0.202 OA 
HETATM   26  H   UNL     1      -6.653   8.691  64.968  1.00  0.00     0.000 HD 
HETATM   27  O   UNL     1      -6.141   6.948  65.341  1.00  0.00    -0.034 OA 
HETATM   28  H   UNL     1     -10.286  12.891  68.673  1.00  0.00     0.000 HD 
BRANCH  19  29
HETATM   29  C   UNL     1     -10.723  13.144  66.190  1.00  0.00    -0.278 C  
HETATM   30  O   UNL     1     -11.864  13.616  66.137  1.00  0.00    -0.354 OA 
BRANCH  29  31
HETATM   31  C   UNL     1      -9.589  13.808  65.413  1.00  0.00     0.090 C  
HETATM   32  O   UNL     1      -8.946  14.801  66.202  1.00  0.00    -0.482 OA 
HETATM   33  H   UNL     1      -8.240  15.213  65.719  1.00  0.00     0.000 HD 
ENDBRANCH  29  31
ENDBRANCH  19  29
BRANCH  22  34
HETATM   34  O   UNL     1     -10.756  10.203  69.429  1.00  0.00    -0.208 OA 
BRANCH  34  35
HETATM   35  C   UNL     1     -11.520  10.596  70.549  1.00  0.00    -0.317 C  
HETATM   36  C   UNL     1     -12.957  10.082  70.679  1.00  0.00    -0.250 C  
HETATM   37  C   UNL     1     -13.036   8.572  70.951  1.00  0.00     0.243 C  
HETATM   38  C   UNL     1     -12.014   8.118  72.017  1.00  0.00    -0.340 C  
HETATM   39  N   UNL     1     -14.410   8.200  71.361  1.00  0.00    -0.621 NA 
HETATM   40  C   UNL     1     -10.643   8.738  71.715  1.00  0.00    -0.347 C  
HETATM   41  H2  UNL     1     -15.107   8.502  70.680  1.00  0.00     0.000 HD 
HETATM   42  O   UNL     1     -12.472   8.508  73.320  1.00  0.00    -0.423 OA 
HETATM   43  H1  UNL     1     -14.463   7.197  71.540  1.00  0.00     0.000 HD 
HETATM   44  C   UNL     1      -9.571   8.369  72.725  1.00  0.00    -0.308 C  
HETATM   45  H   UNL     1     -11.843   8.230  73.975  1.00  0.00     0.000 HD 
HETATM   46  O   UNL     1     -10.754  10.174  71.680  1.00  0.00     0.466 OA 
ENDBRANCH  34  35
ENDBRANCH  22  34
ENDBRANCH   2   3
TORSDOF 5
ENDMDL
MODEL       76
REMARK 921   NORMALIZED FREE ENERGY PREDICTED BY IDOCK:   -4.45 KCAL/MOL
REMARK 922        TOTAL FREE ENERGY PREDICTED BY IDOCK:   -7.03 KCAL/MOL
REMARK 923 INTER-LIGAND FREE ENERGY PREDICTED BY IDOCK:   -8.75 KCAL/MOL
REMARK 924 INTRA-LIGAND FREE ENERGY PREDICTED BY IDOCK:    1.72 KCAL/MOL
REMARK 927      BINDING AFFINITY PREDICTED BY RF-SCORE:    0.00 PKD
ROOT
HETATM    1  C   UNL     1     -11.044  15.978  66.950  1.00  0.00    -0.039 C  
HETATM    2  O   UNL     1     -11.808  14.778  66.920  1.00  0.00    -0.354 OA 
ENDROOT
BRANCH   2   3
HETATM    3  C   UNL     1     -11.681  13.983  65.812  1.00  0.00    -0.363 A  
HETATM    4  C   UNL     1     -12.168  14.374  64.556  1.00  0.00    -0.483 A  
HETATM    5  C   UNL     1     -12.060  13.529  63.455  1.00  0.00    -0.425 A  
HETATM    6  C   UNL     1     -11.475  12.278  63.605  1.00  0.00    -0.572 A  
HETATM    7  C   UNL     1     -10.991  11.867  64.858  1.00  0.00    -0.367 A  
HETATM    8  C   UNL     1     -11.088  12.709  65.965  1.00  0.00    -0.321 A  
HETATM    9  C   UNL     1     -10.535  12.239  67.260  1.00  0.00    -0.218 C  
HETATM   10  O   UNL     1     -10.608  12.909  68.287  1.00  0.00    -0.232 OA 
HETATM   11  C   UNL     1      -9.867  10.919  67.359  1.00  0.00    -0.199 A  
HETATM   12  C   UNL     1      -9.292  10.505  68.581  1.00  0.00    -0.172 A  
HETATM   13  O   UNL     1      -9.297  11.320  69.691  1.00  0.00    -0.175 OA 
HETATM   14  C   UNL     1      -8.720   9.226  68.742  1.00  0.00    -0.132 A  
HETATM   15  H   UNL     1      -8.911  11.042  70.512  1.00  0.00     0.000 HD 
HETATM   16  C   UNL     1      -8.747   8.334  67.651  1.00  0.00    -0.133 A  
HETATM   17  C   UNL     1      -9.264   8.777  66.413  1.00  0.00    -0.189 A  
HETATM   18  C   UNL     1      -8.229   6.914  67.796  1.00  0.00    -0.117 C  
HETATM   19  C   UNL     1      -8.049   6.418  69.241  1.00  0.00    -0.111 C  
HETATM   20  C   UNL     1      -9.829  10.062  66.262  1.00  0.00    -0.297 A  
HETATM   21  O   UNL     1      -9.257   7.937  65.334  1.00  0.00    -0.394 OA 
HETATM   22  C   UNL     1      -8.277   8.772  70.128  1.00  0.00    -0.117 C  
HETATM   23  C   UNL     1     -10.380  10.526  64.962  1.00  0.00    -0.240 C  
HETATM   24  C   UNL     1      -7.403   7.520  70.085  1.00  0.00    -0.077 C  
HETATM   25  O   UNL     1      -9.310   6.013  69.775  1.00  0.00    -0.147 OA 
HETATM   26  H   UNL     1      -9.604   8.235  64.501  1.00  0.00     0.000 HD 
HETATM   27  O   UNL     1     -10.336   9.844  63.945  1.00  0.00     0.600 OA 
HETATM   28  H   UNL     1      -9.199   5.706  70.667  1.00  0.00     0.000 HD 
BRANCH  19  29
HETATM   29  C   UNL     1      -7.181   5.144  69.241  1.00  0.00    -0.057 C  
HETATM   30  O   UNL     1      -6.143   5.046  68.577  1.00  0.00    -0.027 OA 
BRANCH  29  31
HETATM   31  C   UNL     1      -7.662   3.961  70.080  1.00  0.00    -0.048 C  
HETATM   32  O   UNL     1      -7.700   4.301  71.460  1.00  0.00    -0.069 OA 
HETATM   33  H   UNL     1      -8.000   3.566  71.982  1.00  0.00     0.000 HD 
ENDBRANCH  29  31
ENDBRANCH  19  29
BRANCH  22  34
HETATM   34  O   UNL     1      -9.528   8.517  70.741  1.00  0.00    -0.162 OA 
BRANCH  34  35
HETATM   35  C   UNL     1     -10.683   8.177  70.003  1.00  0.00    -0.243 C  
HETATM   36  C   UNL     1     -11.555   7.016  70.491  1.00  0.00    -0.364 C  
HETATM   37  C   UNL     1     -12.287   7.321  71.806  1.00  0.00    -0.341 C  
HETATM   38  C   UNL     1     -12.910   8.736  71.811  1.00  0.00    -0.360 C  
HETATM   39  N   UNL     1     -13.328   6.297  72.059  1.00  0.00    -0.140 NA 
HETATM   40  C   UNL     1     -11.887   9.752  71.288  1.00  0.00    -0.399 C  
HETATM   41  H2  UNL     1     -12.944   5.353  72.047  1.00  0.00     0.000 HD 
HETATM   42  O   UNL     1     -14.093   8.743  70.999  1.00  0.00    -0.609 OA 
HETATM   43  H1  UNL     1     -13.814   6.500  72.933  1.00  0.00     0.000 HD 
HETATM   44  C   UNL     1     -12.414  11.175  71.232  1.00  0.00    -0.466 C  
HETATM   45  H   UNL     1     -14.476   9.612  71.001  1.00  0.00     0.000 HD 
HETATM   46  O   UNL     1     -11.459   9.378  69.965  1.00  0.00    -0.194 OA 
ENDBRANCH  34  35
ENDBRANCH  22  34
ENDBRANCH   2   3
TORSDOF 5
ENDMDL
MODEL       77
REMARK 921   NORMALIZED FREE ENERGY PREDICTED BY IDOCK:   -4.43 KCAL/MOL
REMARK 922        TOTAL FREE ENERGY PREDICTED BY IDOCK:   -7.01 KCAL/MOL
REMARK 923 INTER-LIGAND FREE ENERGY PREDICTED BY IDOCK:   -7.63 KCAL/MOL
REMARK 924 INTRA-LIGAND FREE ENERGY PREDICTED BY IDOCK:    0.62 KCAL/MOL
REMARK 927      BINDING AFFINITY PREDICTED BY RF-SCORE:    0.00 PKD
ROOT
HETATM    1  C   UNL     1     -11.831  15.077  67.569  1.00  0.00    -0.164 C  
HETATM    2  O   UNL     1     -11.288  14.662  68.818  1.00  0.00    -0.254 OA 
ENDROOT
BRANCH   2   3
HETATM    3  C   UNL     1     -12.176  14.331  69.808  1.00  0.00    -0.339 A  
HETATM    4  C   UNL     1     -13.054  15.273  70.364  1.00  0.00    -0.240 A  
HETATM    5  C   UNL     1     -13.917  14.918  71.396  1.00  0.00    -0.544 A  
HETATM    6  C   UNL     1     -13.901  13.620  71.890  1.00  0.00    -0.463 A  
HETATM    7  C   UNL     1     -13.021  12.667  71.350  1.00  0.00    -0.353 A  
HETATM    8  C   UNL     1     -12.157  13.011  70.311  1.00  0.00    -0.388 A  
HETATM    9  C   UNL     1     -11.267  11.959  69.756  1.00  0.00    -0.057 C  
HETATM   10  O   UNL     1     -10.458  12.190  68.862  1.00  0.00    -0.199 OA 
HETATM   11  C   UNL     1     -11.326  10.572  70.275  1.00  0.00    -0.407 A  
HETATM   12  C   UNL     1     -10.518   9.565  69.701  1.00  0.00    -0.223 A  
HETATM   13  O   UNL     1      -9.694   9.828  68.631  1.00  0.00    -0.150 OA 
HETATM   14  C   UNL     1     -10.482   8.253  70.216  1.00  0.00    -0.221 A  
HETATM   15  H   UNL     1      -9.151   9.152  68.245  1.00  0.00     0.000 HD 
HETATM   16  C   UNL     1     -11.262   7.953  71.351  1.00  0.00    -0.280 A  
HETATM   17  C   UNL     1     -12.117   8.946  71.880  1.00  0.00    -0.373 A  
HETATM   18  C   UNL     1     -11.191   6.584  72.003  1.00  0.00    -0.312 C  
HETATM   19  C   UNL     1      -9.981   5.721  71.602  1.00  0.00    -0.174 C  
HETATM   20  C   UNL     1     -12.151  10.255  71.352  1.00  0.00    -0.457 A  
HETATM   21  O   UNL     1     -12.913   8.656  72.955  1.00  0.00    -0.661 OA 
HETATM   22  C   UNL     1      -9.461   7.262  69.669  1.00  0.00    -0.155 C  
HETATM   23  C   UNL     1     -13.044  11.302  71.913  1.00  0.00    -0.405 C  
HETATM   24  C   UNL     1      -9.756   5.822  70.092  1.00  0.00    -0.219 C  
HETATM   25  O   UNL     1      -8.829   6.132  72.339  1.00  0.00    -0.136 OA 
HETATM   26  H   UNL     1     -13.488   9.323  73.309  1.00  0.00     0.000 HD 
HETATM   27  O   UNL     1     -13.828  11.080  72.827  1.00  0.00     0.643 OA 
HETATM   28  H   UNL     1      -8.082   5.599  72.092  1.00  0.00     0.000 HD 
BRANCH  19  29
HETATM   29  C   UNL     1     -10.232   4.259  72.024  1.00  0.00    -0.150 C  
HETATM   30  O   UNL     1     -10.725   3.957  73.116  1.00  0.00    -0.173 OA 
BRANCH  29  31
HETATM   31  C   UNL     1      -9.816   3.161  71.048  1.00  0.00    -0.027 C  
HETATM   32  O   UNL     1      -8.471   2.760  71.278  1.00  0.00    -0.061 OA 
HETATM   33  H   UNL     1      -8.213   2.077  70.671  1.00  0.00     0.000 HD 
ENDBRANCH  29  31
ENDBRANCH  19  29
BRANCH  22  34
HETATM   34  O   UNL     1      -8.269   7.748  70.259  1.00  0.00    -0.121 OA 
BRANCH  34  35
HETATM   35  C   UNL     1      -7.071   7.912  69.530  1.00  0.00    -0.059 C  
HETATM   36  C   UNL     1      -5.974   6.851  69.665  1.00  0.00    -0.023 C  
HETATM   37  C   UNL     1      -6.359   5.501  69.043  1.00  0.00    -0.034 C  
HETATM   38  C   UNL     1      -7.028   5.666  67.659  1.00  0.00    -0.066 C  
HETATM   39  N   UNL     1      -5.166   4.629  68.938  1.00  0.00    -0.004 NA 
HETATM   40  C   UNL     1      -8.090   6.772  67.729  1.00  0.00    -0.113 C  
HETATM   41  H2  UNL     1      -4.697   4.515  69.837  1.00  0.00     0.000 HD 
HETATM   42  O   UNL     1      -6.031   5.982  66.678  1.00  0.00    -0.020 OA 
HETATM   43  H1  UNL     1      -5.422   3.732  68.526  1.00  0.00     0.000 HD 
HETATM   44  C   UNL     1      -8.791   7.028  66.407  1.00  0.00    -0.158 C  
HETATM   45  H   UNL     1      -6.441   6.085  65.827  1.00  0.00     0.000 HD 
HETATM   46  O   UNL     1      -7.485   8.004  68.164  1.00  0.00    -0.096 OA 
ENDBRANCH  34  35
ENDBRANCH  22  34
ENDBRANCH   2   3
TORSDOF 5
ENDMDL
MODEL       78
REMARK 921   NORMALIZED FREE ENERGY PREDICTED BY IDOCK:   -4.43 KCAL/MOL
REMARK 922        TOTAL FREE ENERGY PREDICTED BY IDOCK:   -7.00 KCAL/MOL
REMARK 923 INTER-LIGAND FREE ENERGY PREDICTED BY IDOCK:   -7.25 KCAL/MOL
REMARK 924 INTRA-LIGAND FREE ENERGY PREDICTED BY IDOCK:    0.24 KCAL/MOL
REMARK 927      BINDING AFFINITY PREDICTED BY RF-SCORE:    0.00 PKD
ROOT
HETATM    1  C   UNL     1      -9.829  19.739  70.044  1.00  0.00     0.506 C  
HETATM    2  O   UNL     1      -9.931  18.476  69.396  1.00  0.00    -0.176 OA 
ENDROOT
BRANCH   2   3
HETATM    3  C   UNL     1     -10.229  18.480  68.059  1.00  0.00    -0.383 A  
HETATM    4  C   UNL     1     -10.669  19.637  67.399  1.00  0.00    -0.563 A  
HETATM    5  C   UNL     1     -11.003  19.603  66.048  1.00  0.00    -0.288 A  
HETATM    6  C   UNL     1     -10.910  18.407  65.348  1.00  0.00     0.304 A  
HETATM    7  C   UNL     1     -10.480  17.237  65.996  1.00  0.00    -0.285 A  
HETATM    8  C   UNL     1     -10.136  17.262  67.348  1.00  0.00    -0.307 A  
HETATM    9  C   UNL     1      -9.660  16.005  67.978  1.00  0.00    -0.215 C  
HETATM   10  O   UNL     1      -9.368  15.939  69.169  1.00  0.00    -0.222 OA 
HETATM   11  C   UNL     1      -9.522  14.766  67.176  1.00  0.00    -0.233 A  
HETATM   12  C   UNL     1      -9.012  13.590  67.771  1.00  0.00    -0.201 A  
HETATM   13  O   UNL     1      -8.594  13.571  69.082  1.00  0.00    -0.320 OA 
HETATM   14  C   UNL     1      -8.940  12.370  67.069  1.00  0.00    -0.209 A  
HETATM   15  H   UNL     1      -8.252  12.781  69.482  1.00  0.00     0.000 HD 
HETATM   16  C   UNL     1      -9.415  12.326  65.743  1.00  0.00    -0.128 A  
HETATM   17  C   UNL     1      -9.862  13.520  65.133  1.00  0.00    -0.075 A  
HETATM   18  C   UNL     1      -9.447  11.019  64.972  1.00  0.00    -0.269 C  
HETATM   19  C   UNL     1      -9.307   9.744  65.822  1.00  0.00    -0.221 C  
HETATM   20  C   UNL     1      -9.923  14.738  65.843  1.00  0.00    -0.351 A  
HETATM   21  O   UNL     1     -10.285  13.501  63.832  1.00  0.00    -0.676 OA 
HETATM   22  C   UNL     1      -8.550  11.099  67.815  1.00  0.00    -0.131 C  
HETATM   23  C   UNL     1     -10.402  15.992  65.205  1.00  0.00    -0.290 C  
HETATM   24  C   UNL     1      -8.212   9.944  66.871  1.00  0.00    -0.120 C  
HETATM   25  O   UNL     1     -10.563   9.422  66.422  1.00  0.00    -0.145 OA 
HETATM   26  H   UNL     1     -10.585  14.303  63.422  1.00  0.00     0.000 HD 
HETATM   27  O   UNL     1     -10.725  16.051  64.025  1.00  0.00     0.020 OA 
HETATM   28  H   UNL     1     -10.477   8.634  66.947  1.00  0.00     0.000 HD 
BRANCH  19  29
HETATM   29  C   UNL     1      -8.979   8.549  64.904  1.00  0.00     0.115 C  
HETATM   30  O   UNL     1      -8.865   7.395  65.331  1.00  0.00    -0.047 OA 
BRANCH  29  31
HETATM   31  C   UNL     1      -8.761   8.836  63.421  1.00  0.00     0.042 C  
HETATM   32  O   UNL     1      -8.420   7.648  62.718  1.00  0.00    -0.376 OA 
HETATM   33  H   UNL     1      -8.285   7.826  61.795  1.00  0.00     0.000 HD 
ENDBRANCH  29  31
ENDBRANCH  19  29
BRANCH  22  34
HETATM   34  O   UNL     1      -9.731  10.844  68.553  1.00  0.00    -0.168 OA 
BRANCH  34  35
HETATM   35  C   UNL     1     -10.184   9.537  68.839  1.00  0.00    -0.199 C  
HETATM   36  C   UNL     1      -9.403   8.690  69.848  1.00  0.00    -0.160 C  
HETATM   37  C   UNL     1      -9.507   9.216  71.287  1.00  0.00    -0.243 C  
HETATM   38  C   UNL     1     -10.952   9.619  71.657  1.00  0.00    -0.078 C  
HETATM   39  N   UNL     1      -8.993   8.203  72.238  1.00  0.00    -0.168 NA 
HETATM   40  C   UNL     1     -11.561  10.456  70.524  1.00  0.00    -0.344 C  
HETATM   41  H2  UNL     1      -8.045   7.910  72.007  1.00  0.00     0.000 HD 
HETATM   42  O   UNL     1     -11.735   8.440  71.893  1.00  0.00    -0.291 OA 
HETATM   43  H1  UNL     1      -9.062   8.553  73.194  1.00  0.00     0.000 HD 
HETATM   44  C   UNL     1     -12.995  10.882  70.784  1.00  0.00    -0.308 C  
HETATM   45  H   UNL     1     -12.623   8.687  72.121  1.00  0.00     0.000 HD 
HETATM   46  O   UNL     1     -11.529   9.709  69.294  1.00  0.00    -0.041 OA 
ENDBRANCH  34  35
ENDBRANCH  22  34
ENDBRANCH   2   3
TORSDOF 5
ENDMDL
MODEL       79
REMARK 921   NORMALIZED FREE ENERGY PREDICTED BY IDOCK:   -4.32 KCAL/MOL
REMARK 922        TOTAL FREE ENERGY PREDICTED BY IDOCK:   -6.86 KCAL/MOL
REMARK 923 INTER-LIGAND FREE ENERGY PREDICTED BY IDOCK:   -6.44 KCAL/MOL
REMARK 924 INTRA-LIGAND FREE ENERGY PREDICTED BY IDOCK:   -0.42 KCAL/MOL
REMARK 927      BINDING AFFINITY PREDICTED BY RF-SCORE:    0.00 PKD
ROOT
HETATM    1  C   UNL     1     -10.989   7.257  73.428  1.00  0.00    -0.244 C  
HETATM    2  O   UNL     1     -11.996   7.468  72.445  1.00  0.00    -0.284 OA 
ENDROOT
BRANCH   2   3
HETATM    3  C   UNL     1     -12.210   8.757  72.034  1.00  0.00    -0.377 A  
HETATM    4  C   UNL     1     -13.185   9.574  72.626  1.00  0.00    -0.216 A  
HETATM    5  C   UNL     1     -13.408  10.867  72.162  1.00  0.00    -0.294 A  
HETATM    6  C   UNL     1     -12.666  11.350  71.092  1.00  0.00    -0.479 A  
HETATM    7  C   UNL     1     -11.692  10.542  70.482  1.00  0.00    -0.443 A  
HETATM    8  C   UNL     1     -11.456   9.248  70.944  1.00  0.00    -0.367 A  
HETATM    9  C   UNL     1     -10.396   8.445  70.283  1.00  0.00    -0.205 C  
HETATM   10  O   UNL     1     -10.149   7.287  70.612  1.00  0.00    -0.194 OA 
HETATM   11  C   UNL     1      -9.589   9.024  69.182  1.00  0.00    -0.161 A  
HETATM   12  C   UNL     1      -8.544   8.273  68.600  1.00  0.00    -0.133 A  
HETATM   13  O   UNL     1      -8.220   7.016  69.057  1.00  0.00    -0.122 OA 
HETATM   14  C   UNL     1      -7.806   8.752  67.498  1.00  0.00    -0.102 A  
HETATM   15  H   UNL     1      -7.517   6.511  68.665  1.00  0.00     0.000 HD 
HETATM   16  C   UNL     1      -8.143  10.008  66.956  1.00  0.00    -0.117 A  
HETATM   17  C   UNL     1      -9.144  10.782  67.584  1.00  0.00    -0.147 A  
HETATM   18  C   UNL     1      -7.443  10.532  65.714  1.00  0.00    -0.139 C  
HETATM   19  C   UNL     1      -6.664   9.484  64.900  1.00  0.00    -0.094 C  
HETATM   20  C   UNL     1      -9.873  10.295  68.691  1.00  0.00    -0.180 A  
HETATM   21  O   UNL     1      -9.452  12.022  67.095  1.00  0.00    -0.181 OA 
HETATM   22  C   UNL     1      -6.814   7.827  66.802  1.00  0.00    -0.071 C  
HETATM   23  C   UNL     1     -10.933  11.105  69.347  1.00  0.00    -0.244 C  
HETATM   24  C   UNL     1      -5.880   8.576  65.851  1.00  0.00    -0.047 C  
HETATM   25  O   UNL     1      -7.565   8.739  64.080  1.00  0.00    -0.112 OA 
HETATM   26  H   UNL     1     -10.125  12.542  67.517  1.00  0.00     0.000 HD 
HETATM   27  O   UNL     1     -11.202  12.248  68.998  1.00  0.00    -0.243 OA 
HETATM   28  H   UNL     1      -7.084   8.092  63.577  1.00  0.00     0.000 HD 
BRANCH  19  29
HETATM   29  C   UNL     1      -5.717  10.199  63.916  1.00  0.00    -0.135 C  
HETATM   30  O   UNL     1      -5.137  11.253  64.198  1.00  0.00    -0.146 OA 
BRANCH  29  31
HETATM   31  C   UNL     1      -5.530   9.574  62.535  1.00  0.00    -0.084 C  
HETATM   32  O   UNL     1      -5.697   8.163  62.590  1.00  0.00    -0.071 OA 
HETATM   33  H   UNL     1      -5.581   7.775  61.731  1.00  0.00     0.000 HD 
ENDBRANCH  29  31
ENDBRANCH  19  29
BRANCH  22  34
HETATM   34  O   UNL     1      -7.693   6.965  66.102  1.00  0.00    -0.086 OA 
BRANCH  34  35
HETATM   35  C   UNL     1      -7.247   5.812  65.420  1.00  0.00    -0.070 C  
HETATM   36  C   UNL     1      -6.597   4.683  66.226  1.00  0.00    -0.045 C  
HETATM   37  C   UNL     1      -7.584   3.954  67.150  1.00  0.00    -0.080 C  
HETATM   38  C   UNL     1      -8.925   3.649  66.445  1.00  0.00    -0.145 C  
HETATM   39  N   UNL     1      -6.974   2.705  67.662  1.00  0.00    -0.048 NA 
HETATM   40  C   UNL     1      -9.408   4.896  65.693  1.00  0.00    -0.161 C  
HETATM   41  H2  UNL     1      -6.079   2.877  68.120  1.00  0.00     0.000 HD 
HETATM   42  O   UNL     1      -8.754   2.547  65.541  1.00  0.00    -0.108 OA 
HETATM   43  H1  UNL     1      -7.629   2.221  68.276  1.00  0.00     0.000 HD 
HETATM   44  C   UNL     1     -10.713   4.691  64.945  1.00  0.00     0.073 C  
HETATM   45  H   UNL     1      -9.578   2.360  65.108  1.00  0.00     0.000 HD 
HETATM   46  O   UNL     1      -8.407   5.315  64.747  1.00  0.00    -0.134 OA 
ENDBRANCH  34  35
ENDBRANCH  22  34
ENDBRANCH   2   3
TORSDOF 5
ENDMDL
MODEL       80
REMARK 921   NORMALIZED FREE ENERGY PREDICTED BY IDOCK:   -4.28 KCAL/MOL
REMARK 922        TOTAL FREE ENERGY PREDICTED BY IDOCK:   -6.81 KCAL/MOL
REMARK 923 INTER-LIGAND FREE ENERGY PREDICTED BY IDOCK:   -7.76 KCAL/MOL
REMARK 924 INTRA-LIGAND FREE ENERGY PREDICTED BY IDOCK:    0.95 KCAL/MOL
REMARK 927      BINDING AFFINITY PREDICTED BY RF-SCORE:    0.00 PKD
ROOT
HETATM    1  C   UNL     1     -12.313  16.349  68.455  1.00  0.00     1.147 C  
HETATM    2  O   UNL     1     -11.587  15.922  69.603  1.00  0.00    -0.326 OA 
ENDROOT
BRANCH   2   3
HETATM    3  C   UNL     1     -12.227  15.076  70.470  1.00  0.00    -0.337 A  
HETATM    4  C   UNL     1     -12.998  15.552  71.541  1.00  0.00    -0.545 A  
HETATM    5  C   UNL     1     -13.605  14.669  72.429  1.00  0.00    -0.555 A  
HETATM    6  C   UNL     1     -13.436  13.301  72.261  1.00  0.00    -0.679 A  
HETATM    7  C   UNL     1     -12.660  12.808  71.198  1.00  0.00    -0.365 A  
HETATM    8  C   UNL     1     -12.054  13.684  70.299  1.00  0.00    -0.427 A  
HETATM    9  C   UNL     1     -11.268  13.111  69.177  1.00  0.00    -0.247 C  
HETATM   10  O   UNL     1     -10.679  13.816  68.361  1.00  0.00    -0.240 OA 
HETATM   11  C   UNL     1     -11.164  11.642  69.003  1.00  0.00    -0.323 A  
HETATM   12  C   UNL     1     -10.464  11.107  67.898  1.00  0.00    -0.190 A  
HETATM   13  O   UNL     1      -9.900  11.921  66.941  1.00  0.00    -0.198 OA 
HETATM   14  C   UNL     1     -10.270   9.720  67.739  1.00  0.00    -0.254 A  
HETATM   15  H   UNL     1      -9.430  11.561  66.199  1.00  0.00     0.000 HD 
HETATM   16  C   UNL     1     -10.775   8.851  68.727  1.00  0.00    -0.123 A  
HETATM   17  C   UNL     1     -11.531   9.388  69.793  1.00  0.00     0.039 A  
HETATM   18  C   UNL     1     -10.517   7.357  68.653  1.00  0.00    -0.211 C  
HETATM   19  C   UNL     1      -9.392   6.925  67.696  1.00  0.00    -0.121 C  
HETATM   20  C   UNL     1     -11.724  10.778  69.940  1.00  0.00    -0.412 A  
HETATM   21  O   UNL     1     -12.064   8.552  70.736  1.00  0.00    -0.464 OA 
HETATM   22  C   UNL     1      -9.357   9.214  66.628  1.00  0.00    -0.177 C  
HETATM   23  C   UNL     1     -12.511  11.344  71.067  1.00  0.00    -0.383 C  
HETATM   24  C   UNL     1      -9.502   7.711  66.387  1.00  0.00    -0.224 C  
HETATM   25  O   UNL     1      -8.123   7.115  68.323  1.00  0.00    -0.121 OA 
HETATM   26  H   UNL     1     -12.573   8.913  71.453  1.00  0.00     0.000 HD 
HETATM   27  O   UNL     1     -13.071  10.642  71.899  1.00  0.00    -0.469 OA 
HETATM   28  H   UNL     1      -7.428   6.848  67.732  1.00  0.00     0.000 HD 
BRANCH  19  29
HETATM   29  C   UNL     1      -9.493   5.408  67.436  1.00  0.00    -0.120 C  
HETATM   30  O   UNL     1     -10.274   4.679  68.056  1.00  0.00    -0.061 OA 
BRANCH  29  31
HETATM   31  C   UNL     1      -8.558   4.807  66.390  1.00  0.00    -0.113 C  
HETATM   32  O   UNL     1      -7.197   5.004  66.752  1.00  0.00    -0.074 OA 
HETATM   33  H   UNL     1      -6.615   4.629  66.102  1.00  0.00     0.000 HD 
ENDBRANCH  29  31
ENDBRANCH  19  29
BRANCH  22  34
HETATM   34  O   UNL     1      -8.084   9.541  67.154  1.00  0.00    -0.105 OA 
BRANCH  34  35
HETATM   35  C   UNL     1      -7.050  10.087  66.363  1.00  0.00    -0.102 C  
HETATM   36  C   UNL     1      -6.040   9.138  65.711  1.00  0.00    -0.055 C  
HETATM   37  C   UNL     1      -6.653   8.272  64.601  1.00  0.00    -0.065 C  
HETATM   38  C   UNL     1      -7.574   9.089  63.666  1.00  0.00    -0.115 C  
HETATM   39  N   UNL     1      -5.582   7.609  63.820  1.00  0.00    -0.044 NA 
HETATM   40  C   UNL     1      -8.505   9.975  64.504  1.00  0.00    -0.174 C  
HETATM   41  H2  UNL     1      -4.951   7.074  64.417  1.00  0.00     0.000 HD 
HETATM   42  O   UNL     1      -6.775   9.887  62.781  1.00  0.00    -0.108 OA 
HETATM   43  H1  UNL     1      -5.990   7.034  63.084  1.00  0.00     0.000 HD 
HETATM   44  C   UNL     1      -9.437  10.839  63.673  1.00  0.00    -0.325 C  
HETATM   45  H   UNL     1      -7.340  10.390  62.207  1.00  0.00     0.000 HD 
HETATM   46  O   UNL     1      -7.724  10.840  65.351  1.00  0.00    -0.096 OA 
ENDBRANCH  34  35
ENDBRANCH  22  34
ENDBRANCH   2   3
TORSDOF 5
ENDMDL
MODEL       81
REMARK 921   NORMALIZED FREE ENERGY PREDICTED BY IDOCK:   -4.23 KCAL/MOL
REMARK 922        TOTAL FREE ENERGY PREDICTED BY IDOCK:   -6.75 KCAL/MOL
REMARK 923 INTER-LIGAND FREE ENERGY PREDICTED BY IDOCK:   -5.49 KCAL/MOL
REMARK 924 INTRA-LIGAND FREE ENERGY PREDICTED BY IDOCK:   -1.26 KCAL/MOL
REMARK 927      BINDING AFFINITY PREDICTED BY RF-SCORE:    0.00 PKD
ROOT
HETATM    1  C   UNL     1     -10.655  13.619  65.809  1.00  0.00    -0.285 C  
HETATM    2  O   UNL     1      -9.566  12.706  65.887  1.00  0.00    -0.236 OA 
ENDROOT
BRANCH   2   3
HETATM    3  C   UNL     1      -8.665  12.893  66.902  1.00  0.00    -0.161 A  
HETATM    4  C   UNL     1      -7.939  14.085  67.041  1.00  0.00     0.028 A  
HETATM    5  C   UNL     1      -7.001  14.233  68.059  1.00  0.00    -0.149 A  
HETATM    6  C   UNL     1      -6.771  13.183  68.939  1.00  0.00    -0.099 A  
HETATM    7  C   UNL     1      -7.483  11.979  68.807  1.00  0.00    -0.086 A  
HETATM    8  C   UNL     1      -8.430  11.824  67.796  1.00  0.00    -0.147 A  
HETATM    9  C   UNL     1      -9.175  10.542  67.718  1.00  0.00    -0.145 C  
HETATM   10  O   UNL     1     -10.003  10.317  66.839  1.00  0.00    -0.191 OA 
HETATM   11  C   UNL     1      -8.938   9.471  68.715  1.00  0.00    -0.133 A  
HETATM   12  C   UNL     1      -9.694   8.278  68.668  1.00  0.00    -0.156 A  
HETATM   13  O   UNL     1     -10.688   8.094  67.734  1.00  0.00    -0.422 OA 
HETATM   14  C   UNL     1      -9.445   7.202  69.544  1.00  0.00    -0.151 A  
HETATM   15  H   UNL     1     -11.196   7.292  67.702  1.00  0.00     0.000 HD 
HETATM   16  C   UNL     1      -8.395   7.321  70.476  1.00  0.00    -0.133 A  
HETATM   17  C   UNL     1      -7.687   8.540  70.562  1.00  0.00    -0.084 A  
HETATM   18  C   UNL     1      -8.024   6.159  71.381  1.00  0.00    -0.113 C  
HETATM   19  C   UNL     1      -8.579   4.787  70.960  1.00  0.00    -0.112 C  
HETATM   20  C   UNL     1      -7.948   9.614  69.684  1.00  0.00    -0.137 A  
HETATM   21  O   UNL     1      -6.693   8.685  71.492  1.00  0.00    -0.066 OA 
HETATM   22  C   UNL     1     -10.171   5.878  69.329  1.00  0.00    -0.213 C  
HETATM   23  C   UNL     1      -7.197  10.894  69.768  1.00  0.00    -0.054 C  
HETATM   24  C   UNL     1     -10.039   4.936  70.526  1.00  0.00    -0.312 C  
HETATM   25  O   UNL     1      -7.770   4.236  69.919  1.00  0.00    -0.053 OA 
HETATM   26  H   UNL     1      -6.218   9.505  71.550  1.00  0.00     0.000 HD 
HETATM   27  O   UNL     1      -6.348  11.106  70.625  1.00  0.00    -0.333 OA 
HETATM   28  H   UNL     1      -8.113   3.389  69.659  1.00  0.00     0.000 HD 
BRANCH  19  29
HETATM   29  C   UNL     1      -8.453   3.799  72.137  1.00  0.00    -0.088 C  
HETATM   30  O   UNL     1      -9.357   3.629  72.962  1.00  0.00    -0.101 OA 
BRANCH  29  31
HETATM   31  C   UNL     1      -7.137   3.038  72.282  1.00  0.00    -0.035 C  
HETATM   32  O   UNL     1      -6.052   3.934  72.489  1.00  0.00    -0.008 OA 
HETATM   33  H   UNL     1      -5.234   3.460  72.580  1.00  0.00     0.000 HD 
ENDBRANCH  29  31
ENDBRANCH  19  29
BRANCH  22  34
HETATM   34  O   UNL     1      -9.492   5.379  68.191  1.00  0.00    -0.111 OA 
BRANCH  34  35
HETATM   35  C   UNL     1     -10.156   4.708  67.141  1.00  0.00    -0.143 C  
HETATM   36  C   UNL     1     -10.110   5.310  65.734  1.00  0.00    -0.031 C  
HETATM   37  C   UNL     1      -8.712   5.260  65.100  1.00  0.00    -0.146 C  
HETATM   38  C   UNL     1      -8.023   3.893  65.316  1.00  0.00    -0.097 C  
HETATM   39  N   UNL     1      -8.797   5.573  63.655  1.00  0.00    -0.343 NA 
HETATM   40  C   UNL     1      -8.181   3.461  66.780  1.00  0.00    -0.095 C  
HETATM   41  H2  UNL     1      -9.261   6.465  63.484  1.00  0.00     0.000 HD 
HETATM   42  O   UNL     1      -8.601   2.919  64.435  1.00  0.00    -0.093 OA 
HETATM   43  H1  UNL     1      -7.868   5.540  63.234  1.00  0.00     0.000 HD 
HETATM   44  C   UNL     1      -7.556   2.113  67.089  1.00  0.00    -0.061 C  
HETATM   45  H   UNL     1      -8.178   2.079  64.568  1.00  0.00     0.000 HD 
HETATM   46  O   UNL     1      -9.578   3.399  67.123  1.00  0.00    -0.198 OA 
ENDBRANCH  34  35
ENDBRANCH  22  34
ENDBRANCH   2   3
TORSDOF 5
ENDMDL
MODEL       82
REMARK 921   NORMALIZED FREE ENERGY PREDICTED BY IDOCK:   -4.18 KCAL/MOL
REMARK 922        TOTAL FREE ENERGY PREDICTED BY IDOCK:   -6.68 KCAL/MOL
REMARK 923 INTER-LIGAND FREE ENERGY PREDICTED BY IDOCK:   -8.57 KCAL/MOL
REMARK 924 INTRA-LIGAND FREE ENERGY PREDICTED BY IDOCK:    1.89 KCAL/MOL
REMARK 927      BINDING AFFINITY PREDICTED BY RF-SCORE:    0.00 PKD
ROOT
HETATM    1  C   UNL     1      -5.228  18.412  71.580  1.00  0.00    -0.161 C  
HETATM    2  O   UNL     1      -5.530  18.000  70.251  1.00  0.00    -0.231 OA 
ENDROOT
BRANCH   2   3
HETATM    3  C   UNL     1      -6.193  18.896  69.454  1.00  0.00    -0.270 A  
HETATM    4  C   UNL     1      -5.998  20.280  69.569  1.00  0.00    -0.377 A  
HETATM    5  C   UNL     1      -6.715  21.169  68.773  1.00  0.00     0.686 A  
HETATM    6  C   UNL     1      -7.642  20.680  67.862  1.00  0.00    -0.141 A  
HETATM    7  C   UNL     1      -7.856  19.297  67.741  1.00  0.00    -0.310 A  
HETATM    8  C   UNL     1      -7.138  18.398  68.529  1.00  0.00    -0.285 A  
HETATM    9  C   UNL     1      -7.381  16.945  68.341  1.00  0.00    -0.202 C  
HETATM   10  O   UNL     1      -6.811  16.092  69.017  1.00  0.00    -0.151 OA 
HETATM   11  C   UNL     1      -8.339  16.468  67.315  1.00  0.00    -0.197 A  
HETATM   12  C   UNL     1      -8.519  15.082  67.104  1.00  0.00    -0.218 A  
HETATM   13  O   UNL     1      -7.791  14.147  67.804  1.00  0.00    -0.139 OA 
HETATM   14  C   UNL     1      -9.477  14.584  66.198  1.00  0.00    -0.290 A  
HETATM   15  H   UNL     1      -7.912  13.217  67.663  1.00  0.00     0.000 HD 
HETATM   16  C   UNL     1     -10.290  15.503  65.504  1.00  0.00    -0.419 A  
HETATM   17  C   UNL     1     -10.060  16.887  65.671  1.00  0.00    -0.150 A  
HETATM   18  C   UNL     1     -11.399  15.021  64.586  1.00  0.00    -0.357 C  
HETATM   19  C   UNL     1     -11.813  13.549  64.762  1.00  0.00    -0.381 C  
HETATM   20  C   UNL     1      -9.093  17.375  66.576  1.00  0.00    -0.288 A  
HETATM   21  O   UNL     1     -10.812  17.790  64.970  1.00  0.00    -0.774 OA 
HETATM   22  C   UNL     1      -9.749  13.085  66.144  1.00  0.00    -0.251 C  
HETATM   23  C   UNL     1      -8.856  18.831  66.758  1.00  0.00    -0.305 C  
HETATM   24  C   UNL     1     -10.562  12.679  64.915  1.00  0.00    -0.332 C  
HETATM   25  O   UNL     1     -12.686  13.423  65.886  1.00  0.00    -0.400 OA 
HETATM   26  H   UNL     1     -10.656  18.721  65.082  1.00  0.00     0.000 HD 
HETATM   27  O   UNL     1      -9.448  19.683  66.107  1.00  0.00    -0.380 OA 
HETATM   28  H   UNL     1     -12.941  12.514  65.994  1.00  0.00     0.000 HD 
BRANCH  19  29
HETATM   29  C   UNL     1     -12.649  13.102  63.547  1.00  0.00    -0.125 C  
HETATM   30  O   UNL     1     -13.080  13.899  62.707  1.00  0.00     0.416 OA 
BRANCH  29  31
HETATM   31  C   UNL     1     -12.969  11.614  63.418  1.00  0.00     0.113 C  
HETATM   32  O   UNL     1     -11.908  10.921  62.772  1.00  0.00    -0.161 OA 
HETATM   33  H   UNL     1     -12.107   9.996  62.692  1.00  0.00     0.000 HD 
ENDBRANCH  29  31
ENDBRANCH  19  29
BRANCH  22  34
HETATM   34  O   UNL     1     -10.481  12.900  67.342  1.00  0.00    -0.231 OA 
BRANCH  34  35
HETATM   35  C   UNL     1     -10.102  13.493  68.566  1.00  0.00    -0.215 C  
HETATM   36  C   UNL     1     -10.761  14.812  68.982  1.00  0.00    -0.251 C  
HETATM   37  C   UNL     1     -12.249  14.662  69.329  1.00  0.00    -0.212 C  
HETATM   38  C   UNL     1     -12.520  13.418  70.206  1.00  0.00    -0.215 C  
HETATM   39  N   UNL     1     -12.742  15.886  70.002  1.00  0.00    -0.615 NA 
HETATM   40  C   UNL     1     -11.775  12.207  69.630  1.00  0.00    -0.325 C  
HETATM   41  H2  UNL     1     -12.562  16.724  69.449  1.00  0.00     0.000 HD 
HETATM   42  O   UNL     1     -12.098  13.679  71.553  1.00  0.00    -0.307 OA 
HETATM   43  H1  UNL     1     -13.731  15.786  70.232  1.00  0.00     0.000 HD 
HETATM   44  C   UNL     1     -11.959  10.936  70.438  1.00  0.00    -0.453 C  
HETATM   45  H   UNL     1     -12.264  12.915  72.093  1.00  0.00     0.000 HD 
HETATM   46  O   UNL     1     -10.365  12.492  69.553  1.00  0.00     0.339 OA 
ENDBRANCH  34  35
ENDBRANCH  22  34
ENDBRANCH   2   3
TORSDOF 5
ENDMDL
MODEL       83
REMARK 921   NORMALIZED FREE ENERGY PREDICTED BY IDOCK:   -4.18 KCAL/MOL
REMARK 922        TOTAL FREE ENERGY PREDICTED BY IDOCK:   -6.68 KCAL/MOL
REMARK 923 INTER-LIGAND FREE ENERGY PREDICTED BY IDOCK:   -7.81 KCAL/MOL
REMARK 924 INTRA-LIGAND FREE ENERGY PREDICTED BY IDOCK:    1.13 KCAL/MOL
REMARK 927      BINDING AFFINITY PREDICTED BY RF-SCORE:    0.00 PKD
ROOT
HETATM    1  C   UNL     1     -11.846  15.425  68.543  1.00  0.00    -0.272 C  
HETATM    2  O   UNL     1     -12.248  14.098  68.219  1.00  0.00    -0.317 OA 
ENDROOT
BRANCH   2   3
HETATM    3  C   UNL     1     -11.966  13.650  66.956  1.00  0.00    -0.406 A  
HETATM    4  C   UNL     1     -12.409  14.328  65.810  1.00  0.00    -0.420 A  
HETATM    5  C   UNL     1     -12.142  13.828  64.539  1.00  0.00    -0.463 A  
HETATM    6  C   UNL     1     -11.439  12.637  64.403  1.00  0.00    -0.402 A  
HETATM    7  C   UNL     1     -10.996  11.941  65.540  1.00  0.00    -0.347 A  
HETATM    8  C   UNL     1     -11.253  12.437  66.818  1.00  0.00    -0.363 A  
HETATM    9  C   UNL     1     -10.738  11.679  67.986  1.00  0.00    -0.208 C  
HETATM   10  O   UNL     1     -10.948  12.033  69.143  1.00  0.00    -0.226 OA 
HETATM   11  C   UNL     1      -9.942  10.443  67.790  1.00  0.00    -0.203 A  
HETATM   12  C   UNL     1      -9.407   9.761  68.905  1.00  0.00    -0.158 A  
HETATM   13  O   UNL     1      -9.570  10.237  70.186  1.00  0.00    -0.401 OA 
HETATM   14  C   UNL     1      -8.715   8.540  68.771  1.00  0.00    -0.139 A  
HETATM   15  H   UNL     1      -9.210   9.779  70.936  1.00  0.00     0.000 HD 
HETATM   16  C   UNL     1      -8.578   7.981  67.485  1.00  0.00    -0.126 A  
HETATM   17  C   UNL     1      -9.057   8.700  66.368  1.00  0.00    -0.174 A  
HETATM   18  C   UNL     1      -7.923   6.624  67.293  1.00  0.00    -0.117 C  
HETATM   19  C   UNL     1      -7.785   5.768  68.564  1.00  0.00    -0.093 C  
HETATM   20  C   UNL     1      -9.743   9.926  66.512  1.00  0.00    -0.260 A  
HETATM   21  O   UNL     1      -8.892   8.191  65.108  1.00  0.00    -0.368 OA 
HETATM   22  C   UNL     1      -8.318   7.762  70.021  1.00  0.00    -0.130 C  
HETATM   23  C   UNL     1     -10.256  10.679  65.338  1.00  0.00    -0.273 C  
HETATM   24  C   UNL     1      -7.315   6.647  69.726  1.00  0.00    -0.086 C  
HETATM   25  O   UNL     1      -9.029   5.129  68.854  1.00  0.00    -0.098 OA 
HETATM   26  H   UNL     1      -9.214   8.675  64.358  1.00  0.00     0.000 HD 
HETATM   27  O   UNL     1     -10.075  10.308  64.185  1.00  0.00    -0.287 OA 
HETATM   28  H   UNL     1      -8.943   4.600  69.639  1.00  0.00     0.000 HD 
BRANCH  19  29
HETATM   29  C   UNL     1      -6.789   4.620  68.304  1.00  0.00    -0.055 C  
HETATM   30  O   UNL     1      -5.693   4.800  67.764  1.00  0.00    -0.016 OA 
BRANCH  29  31
HETATM   31  C   UNL     1      -7.214   3.211  68.714  1.00  0.00    -0.049 C  
HETATM   32  O   UNL     1      -7.598   3.175  70.082  1.00  0.00    -0.044 OA 
HETATM   33  H   UNL     1      -7.862   2.299  70.337  1.00  0.00     0.000 HD 
ENDBRANCH  29  31
ENDBRANCH  19  29
BRANCH  22  34
HETATM   34  O   UNL     1      -9.572   7.246  70.428  1.00  0.00    -0.166 OA 
BRANCH  34  35
HETATM   35  C   UNL     1      -9.957   7.160  71.784  1.00  0.00    -0.175 C  
HETATM   36  C   UNL     1     -10.307   5.787  72.366  1.00  0.00    -0.238 C  
HETATM   37  C   UNL     1      -9.095   4.851  72.482  1.00  0.00    -0.132 C  
HETATM   38  C   UNL     1      -7.854   5.575  73.052  1.00  0.00    -0.098 C  
HETATM   39  N   UNL     1      -9.437   3.676  73.316  1.00  0.00    -0.104 NA 
HETATM   40  C   UNL     1      -7.674   6.925  72.347  1.00  0.00    -0.095 C  
HETATM   41  H2  UNL     1     -10.262   3.189  72.969  1.00  0.00     0.000 HD 
HETATM   42  O   UNL     1      -8.012   5.758  74.467  1.00  0.00    -0.103 OA 
HETATM   43  H1  UNL     1      -8.631   3.054  73.392  1.00  0.00     0.000 HD 
HETATM   44  C   UNL     1      -6.489   7.726  72.856  1.00  0.00    -0.067 C  
HETATM   45  H   UNL     1      -7.249   6.203  74.817  1.00  0.00     0.000 HD 
HETATM   46  O   UNL     1      -8.861   7.724  72.510  1.00  0.00    -0.127 OA 
ENDBRANCH  34  35
ENDBRANCH  22  34
ENDBRANCH   2   3
TORSDOF 5
ENDMDL
MODEL       84
REMARK 921   NORMALIZED FREE ENERGY PREDICTED BY IDOCK:   -3.98 KCAL/MOL
REMARK 922        TOTAL FREE ENERGY PREDICTED BY IDOCK:   -6.42 KCAL/MOL
REMARK 923 INTER-LIGAND FREE ENERGY PREDICTED BY IDOCK:   -9.23 KCAL/MOL
REMARK 924 INTRA-LIGAND FREE ENERGY PREDICTED BY IDOCK:    2.82 KCAL/MOL
REMARK 927      BINDING AFFINITY PREDICTED BY RF-SCORE:    0.00 PKD
ROOT
HETATM    1  C   UNL     1     -10.840   6.809  67.433  1.00  0.00    -0.347 C  
HETATM    2  O   UNL     1     -10.558   7.653  68.544  1.00  0.00    -0.192 OA 
ENDROOT
BRANCH   2   3
HETATM    3  C   UNL     1      -9.263   8.070  68.700  1.00  0.00    -0.143 A  
HETATM    4  C   UNL     1      -8.216   7.169  68.945  1.00  0.00    -0.125 A  
HETATM    5  C   UNL     1      -6.915   7.625  69.139  1.00  0.00    -0.068 A  
HETATM    6  C   UNL     1      -6.653   8.989  69.103  1.00  0.00    -0.050 A  
HETATM    7  C   UNL     1      -7.692   9.905  68.868  1.00  0.00    -0.085 A  
HETATM    8  C   UNL     1      -8.997   9.458  68.665  1.00  0.00    -0.132 A  
HETATM    9  C   UNL     1     -10.053  10.465  68.392  1.00  0.00    -0.163 C  
HETATM   10  O   UNL     1     -11.231  10.154  68.233  1.00  0.00    -0.255 OA 
HETATM   11  C   UNL     1      -9.715  11.906  68.305  1.00  0.00    -0.200 A  
HETATM   12  C   UNL     1     -10.716  12.850  67.986  1.00  0.00    -0.228 A  
HETATM   13  O   UNL     1     -12.008  12.464  67.711  1.00  0.00    -0.429 OA 
HETATM   14  C   UNL     1     -10.457  14.236  67.973  1.00  0.00    -0.235 A  
HETATM   15  H   UNL     1     -12.681  13.099  67.497  1.00  0.00     0.000 HD 
HETATM   16  C   UNL     1      -9.164  14.683  68.310  1.00  0.00    -0.198 A  
HETATM   17  C   UNL     1      -8.152  13.731  68.563  1.00  0.00    -0.128 A  
HETATM   18  C   UNL     1      -8.854  16.167  68.401  1.00  0.00    -0.188 C  
HETATM   19  C   UNL     1     -10.078  17.096  68.486  1.00  0.00    -0.329 C  
HETATM   20  C   UNL     1      -8.420  12.345  68.567  1.00  0.00    -0.069 A  
HETATM   21  O   UNL     1      -6.881  14.150  68.849  1.00  0.00    -0.095 OA 
HETATM   22  C   UNL     1     -11.615  15.213  67.798  1.00  0.00    -0.289 C  
HETATM   23  C   UNL     1      -7.357  11.343  68.842  1.00  0.00    -0.114 C  
HETATM   24  C   UNL     1     -11.143  16.634  67.489  1.00  0.00    -0.055 C  
HETATM   25  O   UNL     1     -10.578  17.117  69.824  1.00  0.00    -0.296 OA 
HETATM   26  H   UNL     1      -6.200  13.510  69.018  1.00  0.00     0.000 HD 
HETATM   27  O   UNL     1      -6.189  11.656  69.033  1.00  0.00    -0.056 OA 
HETATM   28  H   UNL     1     -11.333  17.691  69.876  1.00  0.00     0.000 HD 
BRANCH  19  29
HETATM   29  C   UNL     1      -9.642  18.546  68.193  1.00  0.00    -0.327 C  
HETATM   30  O   UNL     1     -10.200  19.524  68.704  1.00  0.00    -0.428 OA 
BRANCH  29  31
HETATM   31  C   UNL     1      -8.495  18.754  67.206  1.00  0.00    -0.270 C  
HETATM   32  O   UNL     1      -8.941  18.580  65.867  1.00  0.00    -0.480 OA 
HETATM   33  H   UNL     1      -8.228  18.709  65.254  1.00  0.00     0.000 HD 
ENDBRANCH  29  31
ENDBRANCH  19  29
BRANCH  22  34
HETATM   34  O   UNL     1     -12.232  15.131  69.070  1.00  0.00    -0.231 OA 
BRANCH  34  35
HETATM   35  C   UNL     1     -11.497  15.131  70.276  1.00  0.00    -0.282 C  
HETATM   36  C   UNL     1     -11.982  16.006  71.436  1.00  0.00    -0.507 C  
HETATM   37  C   UNL     1     -13.302  15.517  72.051  1.00  0.00    -0.472 C  
HETATM   38  C   UNL     1     -13.316  13.984  72.254  1.00  0.00    -0.478 C  
HETATM   39  N   UNL     1     -13.553  16.211  73.335  1.00  0.00    -0.809 NA 
HETATM   40  C   UNL     1     -12.794  13.290  70.990  1.00  0.00    -0.232 C  
HETATM   41  H2  UNL     1     -13.534  17.225  73.230  1.00  0.00     0.000 HD 
HETATM   42  O   UNL     1     -12.508  13.643  73.390  1.00  0.00     0.211 OA 
HETATM   43  H1  UNL     1     -14.430  15.886  73.743  1.00  0.00     0.000 HD 
HETATM   44  C   UNL     1     -12.748  11.777  71.099  1.00  0.00    -0.405 C  
HETATM   45  H   UNL     1     -12.517  12.701  73.516  1.00  0.00     0.000 HD 
HETATM   46  O   UNL     1     -11.468  13.761  70.686  1.00  0.00    -0.055 OA 
ENDBRANCH  34  35
ENDBRANCH  22  34
ENDBRANCH   2   3
TORSDOF 5
ENDMDL
MODEL       85
REMARK 921   NORMALIZED FREE ENERGY PREDICTED BY IDOCK:   -3.92 KCAL/MOL
REMARK 922        TOTAL FREE ENERGY PREDICTED BY IDOCK:   -6.35 KCAL/MOL
REMARK 923 INTER-LIGAND FREE ENERGY PREDICTED BY IDOCK:   -6.92 KCAL/MOL
REMARK 924 INTRA-LIGAND FREE ENERGY PREDICTED BY IDOCK:    0.57 KCAL/MOL
REMARK 927      BINDING AFFINITY PREDICTED BY RF-SCORE:    0.00 PKD
ROOT
HETATM    1  C   UNL     1      -8.841   2.796  74.311  1.00  0.00    -0.075 C  
HETATM    2  O   UNL     1      -8.159   3.274  73.156  1.00  0.00    -0.071 OA 
ENDROOT
BRANCH   2   3
HETATM    3  C   UNL     1      -7.164   4.195  73.353  1.00  0.00    -0.070 A  
HETATM    4  C   UNL     1      -6.109   3.969  74.250  1.00  0.00    -0.028 A  
HETATM    5  C   UNL     1      -5.133   4.939  74.459  1.00  0.00    -0.009 A  
HETATM    6  C   UNL     1      -5.211   6.149  73.783  1.00  0.00    -0.039 A  
HETATM    7  C   UNL     1      -6.266   6.395  72.888  1.00  0.00    -0.055 A  
HETATM    8  C   UNL     1      -7.245   5.427  72.666  1.00  0.00    -0.090 A  
HETATM    9  C   UNL     1      -8.323   5.725  71.690  1.00  0.00    -0.124 C  
HETATM   10  O   UNL     1      -9.238   4.937  71.461  1.00  0.00    -0.139 OA 
HETATM   11  C   UNL     1      -8.333   7.008  70.947  1.00  0.00    -0.129 A  
HETATM   12  C   UNL     1      -9.330   7.258  69.977  1.00  0.00    -0.154 A  
HETATM   13  O   UNL     1     -10.283   6.315  69.666  1.00  0.00    -0.169 OA 
HETATM   14  C   UNL     1      -9.425   8.495  69.307  1.00  0.00    -0.158 A  
HETATM   15  H   UNL     1     -10.953   6.483  69.014  1.00  0.00     0.000 HD 
HETATM   16  C   UNL     1      -8.509   9.513  69.638  1.00  0.00    -0.174 A  
HETATM   17  C   UNL     1      -7.475   9.235  70.560  1.00  0.00    -0.130 A  
HETATM   18  C   UNL     1      -8.623  10.893  69.016  1.00  0.00    -0.110 C  
HETATM   19  C   UNL     1      -9.969  11.207  68.339  1.00  0.00    -0.187 C  
HETATM   20  C   UNL     1      -7.385   7.990  71.220  1.00  0.00    -0.067 A  
HETATM   21  O   UNL     1      -6.552  10.200  70.858  1.00  0.00    -0.310 OA 
HETATM   22  C   UNL     1     -10.624   8.767  68.406  1.00  0.00    -0.137 C  
HETATM   23  C   UNL     1      -6.303   7.700  72.197  1.00  0.00    -0.043 C  
HETATM   24  C   UNL     1     -10.425   9.997  67.519  1.00  0.00    -0.307 C  
HETATM   25  O   UNL     1     -10.934  11.571  69.327  1.00  0.00    -0.247 OA 
HETATM   26  H   UNL     1      -5.857  10.012  71.478  1.00  0.00     0.000 HD 
HETATM   27  O   UNL     1      -5.409   8.499  72.449  1.00  0.00    -0.038 OA 
HETATM   28  H   UNL     1     -11.765  11.765  68.909  1.00  0.00     0.000 HD 
BRANCH  19  29
HETATM   29  C   UNL     1      -9.815  12.452  67.443  1.00  0.00    -0.199 C  
HETATM   30  O   UNL     1      -8.928  12.551  66.589  1.00  0.00    -0.216 OA 
BRANCH  29  31
HETATM   31  C   UNL     1     -10.793  13.605  67.663  1.00  0.00    -0.256 C  
HETATM   32  O   UNL     1     -12.047  13.330  67.051  1.00  0.00    -0.375 OA 
HETATM   33  H   UNL     1     -12.654  14.047  67.188  1.00  0.00     0.000 HD 
ENDBRANCH  29  31
ENDBRANCH  19  29
BRANCH  22  34
HETATM   34  O   UNL     1     -11.644   8.973  69.366  1.00  0.00     0.265 OA 
BRANCH  34  35
HETATM   35  C   UNL     1     -11.391   8.983  70.756  1.00  0.00    -0.277 C  
HETATM   36  C   UNL     1     -11.696  10.255  71.553  1.00  0.00    -0.202 C  
HETATM   37  C   UNL     1     -13.199  10.555  71.660  1.00  0.00    -0.391 C  
HETATM   38  C   UNL     1     -14.024   9.289  71.987  1.00  0.00    -0.327 C  
HETATM   39  N   UNL     1     -13.437  11.605  72.677  1.00  0.00    -0.270 NA 
HETATM   40  C   UNL     1     -13.569   8.131  71.090  1.00  0.00    -0.009 C  
HETATM   41  H2  UNL     1     -12.892  12.446  72.492  1.00  0.00     0.000 HD 
HETATM   42  O   UNL     1     -13.859   8.953  73.372  1.00  0.00    -1.192 OA 
HETATM   43  H1  UNL     1     -14.435  11.804  72.748  1.00  0.00     0.000 HD 
HETATM   44  C   UNL     1     -14.307   6.830  71.353  1.00  0.00    -0.121 C  
HETATM   45  H   UNL     1     -14.366   8.175  73.574  1.00  0.00     0.000 HD 
HETATM   46  O   UNL     1     -12.160   7.894  71.274  1.00  0.00    -0.296 OA 
ENDBRANCH  34  35
ENDBRANCH  22  34
ENDBRANCH   2   3
TORSDOF 5
ENDMDL
MODEL       86
REMARK 921   NORMALIZED FREE ENERGY PREDICTED BY IDOCK:   -3.85 KCAL/MOL
REMARK 922        TOTAL FREE ENERGY PREDICTED BY IDOCK:   -6.26 KCAL/MOL
REMARK 923 INTER-LIGAND FREE ENERGY PREDICTED BY IDOCK:   -5.46 KCAL/MOL
REMARK 924 INTRA-LIGAND FREE ENERGY PREDICTED BY IDOCK:   -0.81 KCAL/MOL
REMARK 927      BINDING AFFINITY PREDICTED BY RF-SCORE:    0.00 PKD
ROOT
HETATM    1  C   UNL     1     -13.622   9.989  72.487  1.00  0.00     0.056 C  
HETATM    2  O   UNL     1     -13.848   8.967  71.523  1.00  0.00    -0.385 OA 
ENDROOT
BRANCH   2   3
HETATM    3  C   UNL     1     -12.948   7.935  71.482  1.00  0.00    -0.311 A  
HETATM    4  C   UNL     1     -12.971   6.891  72.419  1.00  0.00     0.233 A  
HETATM    5  C   UNL     1     -12.020   5.876  72.377  1.00  0.00    -0.206 A  
HETATM    6  C   UNL     1     -11.028   5.904  71.405  1.00  0.00    -0.327 A  
HETATM    7  C   UNL     1     -10.985   6.947  70.466  1.00  0.00    -0.313 A  
HETATM    8  C   UNL     1     -11.938   7.965  70.494  1.00  0.00     0.031 A  
HETATM    9  C   UNL     1     -11.865   9.029  69.461  1.00  0.00     0.799 C  
HETATM   10  O   UNL     1     -12.648   9.974  69.437  1.00  0.00     0.310 OA 
HETATM   11  C   UNL     1     -10.823   8.985  68.407  1.00  0.00    -0.062 A  
HETATM   12  C   UNL     1     -10.798   9.969  67.394  1.00  0.00    -0.249 A  
HETATM   13  O   UNL     1     -11.751  10.961  67.331  1.00  0.00    -0.510 OA 
HETATM   14  C   UNL     1      -9.778  10.013  66.421  1.00  0.00    -0.266 A  
HETATM   15  H   UNL     1     -11.734  11.622  66.650  1.00  0.00     0.000 HD 
HETATM   16  C   UNL     1      -8.746   9.056  66.484  1.00  0.00    -0.144 A  
HETATM   17  C   UNL     1      -8.813   8.036  67.459  1.00  0.00    -0.128 A  
HETATM   18  C   UNL     1      -7.575   9.112  65.519  1.00  0.00    -0.090 C  
HETATM   19  C   UNL     1      -7.398  10.443  64.768  1.00  0.00    -0.038 C  
HETATM   20  C   UNL     1      -9.842   7.997  68.424  1.00  0.00    -0.184 A  
HETATM   21  O   UNL     1      -7.840   7.074  67.503  1.00  0.00    -0.108 OA 
HETATM   22  C   UNL     1      -9.705  11.199  65.466  1.00  0.00    -0.228 C  
HETATM   23  C   UNL     1      -9.908   6.929  69.455  1.00  0.00    -0.159 C  
HETATM   24  C   UNL     1      -8.761  10.948  64.290  1.00  0.00    -0.005 C  
HETATM   25  O   UNL     1      -6.748  11.394  65.614  1.00  0.00    -0.317 OA 
HETATM   26  H   UNL     1      -7.885   6.388  68.158  1.00  0.00     0.000 HD 
HETATM   27  O   UNL     1      -9.107   6.003  69.499  1.00  0.00    -0.135 OA 
HETATM   28  H   UNL     1      -6.638  12.216  65.150  1.00  0.00     0.000 HD 
BRANCH  19  29
HETATM   29  C   UNL     1      -6.439  10.238  63.578  1.00  0.00    -0.105 C  
HETATM   30  O   UNL     1      -5.320  10.760  63.528  1.00  0.00    -0.165 OA 
BRANCH  29  31
HETATM   31  C   UNL     1      -6.929   9.376  62.417  1.00  0.00    -0.096 C  
HETATM   32  O   UNL     1      -7.100   8.024  62.825  1.00  0.00    -0.084 OA 
HETATM   33  H   UNL     1      -7.406   7.488  62.103  1.00  0.00     0.000 HD 
ENDBRANCH  29  31
ENDBRANCH  19  29
BRANCH  22  34
HETATM   34  O   UNL     1      -9.213  12.210  66.327  1.00  0.00    -0.220 OA 
BRANCH  34  35
HETATM   35  C   UNL     1      -9.466  13.583  66.112  1.00  0.00    -0.141 C  
HETATM   36  C   UNL     1     -10.787  14.176  66.610  1.00  0.00    -0.299 C  
HETATM   37  C   UNL     1     -10.886  14.231  68.142  1.00  0.00    -0.244 C  
HETATM   38  C   UNL     1      -9.581  14.743  68.792  1.00  0.00    -0.215 C  
HETATM   39  N   UNL     1     -12.033  15.076  68.549  1.00  0.00    -0.544 NA 
HETATM   40  C   UNL     1      -8.376  14.035  68.159  1.00  0.00    -0.164 C  
HETATM   41  H2  UNL     1     -12.905  14.767  68.121  1.00  0.00     0.000 HD 
HETATM   42  O   UNL     1      -9.483  16.164  68.617  1.00  0.00    -0.210 OA 
HETATM   43  H1  UNL     1     -12.098  15.112  69.566  1.00  0.00     0.000 HD 
HETATM   44  C   UNL     1      -7.039  14.489  68.716  1.00  0.00    -0.112 C  
HETATM   45  H   UNL     1      -8.680  16.480  69.017  1.00  0.00     0.000 HD 
HETATM   46  O   UNL     1      -8.371  14.257  66.736  1.00  0.00    -0.122 OA 
ENDBRANCH  34  35
ENDBRANCH  22  34
ENDBRANCH   2   3
TORSDOF 5
ENDMDL
MODEL       87
REMARK 921   NORMALIZED FREE ENERGY PREDICTED BY IDOCK:   -3.49 KCAL/MOL
REMARK 922        TOTAL FREE ENERGY PREDICTED BY IDOCK:   -5.79 KCAL/MOL
REMARK 923 INTER-LIGAND FREE ENERGY PREDICTED BY IDOCK:   -4.55 KCAL/MOL
REMARK 924 INTRA-LIGAND FREE ENERGY PREDICTED BY IDOCK:   -1.24 KCAL/MOL
REMARK 927      BINDING AFFINITY PREDICTED BY RF-SCORE:    0.00 PKD
ROOT
HETATM    1  C   UNL     1      -6.620  15.379  69.459  1.00  0.00    -0.166 C  
HETATM    2  O   UNL     1      -6.360  14.552  68.330  1.00  0.00    -0.086 OA 
ENDROOT
BRANCH   2   3
HETATM    3  C   UNL     1      -7.411  14.289  67.492  1.00  0.00    -0.182 A  
HETATM    4  C   UNL     1      -8.172  15.313  66.910  1.00  0.00    -0.263 A  
HETATM    5  C   UNL     1      -9.260  15.017  66.093  1.00  0.00    -0.294 A  
HETATM    6  C   UNL     1      -9.603  13.691  65.861  1.00  0.00    -0.140 A  
HETATM    7  C   UNL     1      -8.857  12.653  66.444  1.00  0.00     0.008 A  
HETATM    8  C   UNL     1      -7.761  12.940  67.258  1.00  0.00    -0.122 A  
HETATM    9  C   UNL     1      -6.989  11.806  67.827  1.00  0.00    -0.094 C  
HETATM   10  O   UNL     1      -6.031  11.976  68.576  1.00  0.00    -0.049 OA 
HETATM   11  C   UNL     1      -7.358  10.406  67.504  1.00  0.00    -0.092 A  
HETATM   12  C   UNL     1      -6.581   9.337  68.002  1.00  0.00    -0.060 A  
HETATM   13  O   UNL     1      -5.451   9.558  68.756  1.00  0.00    -0.037 OA 
HETATM   14  C   UNL     1      -6.942   7.990  67.789  1.00  0.00    -0.078 A  
HETATM   15  H   UNL     1      -4.929   8.839  69.090  1.00  0.00     0.000 HD 
HETATM   16  C   UNL     1      -8.126   7.715  67.076  1.00  0.00    -0.117 A  
HETATM   17  C   UNL     1      -8.862   8.788  66.525  1.00  0.00    -0.131 A  
HETATM   18  C   UNL     1      -8.611   6.287  66.896  1.00  0.00    -0.113 C  
HETATM   19  C   UNL     1      -7.971   5.247  67.833  1.00  0.00    -0.095 C  
HETATM   20  C   UNL     1      -8.488  10.132  66.739  1.00  0.00    -0.126 A  
HETATM   21  O   UNL     1      -9.990   8.533  65.793  1.00  0.00    -0.441 OA 
HETATM   22  C   UNL     1      -6.167   6.886  68.498  1.00  0.00    -0.031 C  
HETATM   23  C   UNL     1      -9.267  11.261  66.167  1.00  0.00    -0.206 C  
HETATM   24  C   UNL     1      -6.465   5.499  67.927  1.00  0.00    -0.047 C  
HETATM   25  O   UNL     1      -8.599   5.300  69.115  1.00  0.00    -0.100 OA 
HETATM   26  H   UNL     1     -10.484   9.254  65.422  1.00  0.00     0.000 HD 
HETATM   27  O   UNL     1     -10.242  11.092  65.446  1.00  0.00    -0.248 OA 
HETATM   28  H   UNL     1      -8.204   4.657  69.693  1.00  0.00     0.000 HD 
BRANCH  19  29
HETATM   29  C   UNL     1      -8.260   3.830  67.298  1.00  0.00    -0.091 C  
HETATM   30  O   UNL     1      -7.376   2.977  67.166  1.00  0.00    -0.060 OA 
BRANCH  29  31
HETATM   31  C   UNL     1      -9.697   3.505  66.896  1.00  0.00    -0.011 C  
HETATM   32  O   UNL     1      -9.742   2.360  66.055  1.00  0.00    -0.349 OA 
HETATM   33  H   UNL     1     -10.635   2.158  65.805  1.00  0.00     0.000 HD 
ENDBRANCH  29  31
ENDBRANCH  19  29
BRANCH  22  34
HETATM   34  O   UNL     1      -6.653   7.022  69.822  1.00  0.00    -0.042 OA 
BRANCH  34  35
HETATM   35  C   UNL     1      -6.103   6.312  70.912  1.00  0.00    -0.031 C  
HETATM   36  C   UNL     1      -5.259   7.073  71.938  1.00  0.00    -0.032 C  
HETATM   37  C   UNL     1      -6.077   8.060  72.783  1.00  0.00    -0.061 C  
HETATM   38  C   UNL     1      -7.410   7.444  73.268  1.00  0.00    -0.074 C  
HETATM   39  N   UNL     1      -5.276   8.530  73.937  1.00  0.00    -0.065 NA 
HETATM   40  C   UNL     1      -8.102   6.727  72.102  1.00  0.00    -0.100 C  
HETATM   41  H2  UNL     1      -4.384   8.928  73.644  1.00  0.00     0.000 HD 
HETATM   42  O   UNL     1      -7.154   6.531  74.345  1.00  0.00    -0.091 OA 
HETATM   43  H1  UNL     1      -5.820   9.186  74.498  1.00  0.00     0.000 HD 
HETATM   44  C   UNL     1      -9.414   6.066  72.484  1.00  0.00    -0.153 C  
HETATM   45  H   UNL     1      -7.973   6.152  74.643  1.00  0.00     0.000 HD 
HETATM   46  O   UNL     1      -7.229   5.716  71.563  1.00  0.00    -0.076 OA 
ENDBRANCH  34  35
ENDBRANCH  22  34
ENDBRANCH   2   3
TORSDOF 5
ENDMDL
MODEL       88
REMARK 921   NORMALIZED FREE ENERGY PREDICTED BY IDOCK:   -3.41 KCAL/MOL
REMARK 922        TOTAL FREE ENERGY PREDICTED BY IDOCK:   -5.69 KCAL/MOL
REMARK 923 INTER-LIGAND FREE ENERGY PREDICTED BY IDOCK:   -6.58 KCAL/MOL
REMARK 924 INTRA-LIGAND FREE ENERGY PREDICTED BY IDOCK:    0.89 KCAL/MOL
REMARK 927      BINDING AFFINITY PREDICTED BY RF-SCORE:    0.00 PKD
ROOT
HETATM    1  C   UNL     1      -5.871   2.024  68.091  1.00  0.00    -0.023 C  
HETATM    2  O   UNL     1      -6.981   1.879  67.212  1.00  0.00    -0.038 OA 
ENDROOT
BRANCH   2   3
HETATM    3  C   UNL     1      -7.248   2.923  66.365  1.00  0.00    -0.066 A  
HETATM    4  C   UNL     1      -6.724   2.979  65.065  1.00  0.00    -0.040 A  
HETATM    5  C   UNL     1      -6.980   4.070  64.240  1.00  0.00    -0.046 A  
HETATM    6  C   UNL     1      -7.754   5.122  64.714  1.00  0.00    -0.086 A  
HETATM    7  C   UNL     1      -8.278   5.086  66.017  1.00  0.00    -0.113 A  
HETATM    8  C   UNL     1      -8.033   3.994  66.848  1.00  0.00    -0.096 A  
HETATM    9  C   UNL     1      -8.634   3.992  68.206  1.00  0.00    -0.095 C  
HETATM   10  O   UNL     1      -8.441   3.082  69.008  1.00  0.00    -0.062 OA 
HETATM   11  C   UNL     1      -9.502   5.111  68.648  1.00  0.00    -0.178 A  
HETATM   12  C   UNL     1     -10.117   5.072  69.919  1.00  0.00    -0.274 A  
HETATM   13  O   UNL     1      -9.966   3.991  70.757  1.00  0.00    -0.188 OA 
HETATM   14  C   UNL     1     -10.881   6.149  70.411  1.00  0.00    -0.374 A  
HETATM   15  H   UNL     1     -10.380   3.965  71.612  1.00  0.00     0.000 HD 
HETATM   16  C   UNL     1     -11.011   7.303  69.613  1.00  0.00    -0.204 A  
HETATM   17  C   UNL     1     -10.449   7.310  68.317  1.00  0.00    -0.199 A  
HETATM   18  C   UNL     1     -11.745   8.528  70.130  1.00  0.00     0.192 C  
HETATM   19  C   UNL     1     -11.981   8.566  71.651  1.00  0.00    -0.316 C  
HETATM   20  C   UNL     1      -9.691   6.223  67.831  1.00  0.00    -0.123 A  
HETATM   21  O   UNL     1     -10.605   8.407  67.514  1.00  0.00    -0.343 OA 
HETATM   22  C   UNL     1     -11.370   6.123  71.855  1.00  0.00    -0.296 C  
HETATM   23  C   UNL     1      -9.091   6.233  66.471  1.00  0.00    -0.153 C  
HETATM   24  C   UNL     1     -12.432   7.186  72.135  1.00  0.00    -0.194 C  
HETATM   25  O   UNL     1     -10.792   8.997  72.314  1.00  0.00    -0.278 OA 
HETATM   26  H   UNL     1     -10.227   8.411  66.642  1.00  0.00     0.000 HD 
HETATM   27  O   UNL     1      -9.258   7.156  65.683  1.00  0.00     0.040 OA 
HETATM   28  H   UNL     1     -10.937   9.021  73.253  1.00  0.00     0.000 HD 
BRANCH  19  29
HETATM   29  C   UNL     1     -13.039   9.638  71.979  1.00  0.00    -0.445 C  
HETATM   30  O   UNL     1     -14.136   9.359  72.477  1.00  0.00    -0.388 OA 
BRANCH  29  31
HETATM   31  C   UNL     1     -12.706  11.089  71.637  1.00  0.00    -0.378 C  
HETATM   32  O   UNL     1     -13.320  11.981  72.559  1.00  0.00    -0.575 OA 
HETATM   33  H   UNL     1     -13.112  12.883  72.347  1.00  0.00     0.000 HD 
ENDBRANCH  29  31
ENDBRANCH  19  29
BRANCH  22  34
HETATM   34  O   UNL     1     -10.166   6.389  72.552  1.00  0.00    -0.180 OA 
BRANCH  34  35
HETATM   35  C   UNL     1      -8.898   6.324  71.934  1.00  0.00    -0.139 C  
HETATM   36  C   UNL     1      -7.971   7.540  72.024  1.00  0.00    -0.103 C  
HETATM   37  C   UNL     1      -7.446   7.797  73.444  1.00  0.00    -0.116 C  
HETATM   38  C   UNL     1      -6.989   6.496  74.141  1.00  0.00    -0.084 C  
HETATM   39  N   UNL     1      -6.339   8.781  73.408  1.00  0.00    -0.273 NA 
HETATM   40  C   UNL     1      -8.045   5.402  73.935  1.00  0.00    -0.108 C  
HETATM   41  H2  UNL     1      -6.611   9.645  72.940  1.00  0.00     0.000 HD 
HETATM   42  O   UNL     1      -5.722   6.084  73.607  1.00  0.00    -0.049 OA 
HETATM   43  H1  UNL     1      -5.991   8.952  74.352  1.00  0.00     0.000 HD 
HETATM   44  C   UNL     1      -7.675   4.071  74.565  1.00  0.00    -0.079 C  
HETATM   45  H   UNL     1      -5.441   5.284  74.035  1.00  0.00     0.000 HD 
HETATM   46  O   UNL     1      -8.261   5.189  72.527  1.00  0.00    -0.114 OA 
ENDBRANCH  34  35
ENDBRANCH  22  34
ENDBRANCH   2   3
TORSDOF 5
ENDMDL
MODEL       89
REMARK 921   NORMALIZED FREE ENERGY PREDICTED BY IDOCK:   -3.39 KCAL/MOL
REMARK 922        TOTAL FREE ENERGY PREDICTED BY IDOCK:   -5.66 KCAL/MOL
REMARK 923 INTER-LIGAND FREE ENERGY PREDICTED BY IDOCK:   -5.08 KCAL/MOL
REMARK 924 INTRA-LIGAND FREE ENERGY PREDICTED BY IDOCK:   -0.59 KCAL/MOL
REMARK 927      BINDING AFFINITY PREDICTED BY RF-SCORE:    0.00 PKD
ROOT
HETATM    1  C   UNL     1      -9.907   8.107  73.415  1.00  0.00     0.007 C  
HETATM    2  O   UNL     1      -8.891   7.173  73.066  1.00  0.00    -0.123 OA 
ENDROOT
BRANCH   2   3
HETATM    3  C   UNL     1      -9.214   5.843  73.130  1.00  0.00    -0.133 A  
HETATM    4  C   UNL     1      -9.420   5.186  74.353  1.00  0.00    -0.138 A  
HETATM    5  C   UNL     1      -9.708   3.825  74.390  1.00  0.00    -0.154 A  
HETATM    6  C   UNL     1      -9.782   3.106  73.204  1.00  0.00    -0.158 A  
HETATM    7  C   UNL     1      -9.569   3.747  71.972  1.00  0.00    -0.213 A  
HETATM    8  C   UNL     1      -9.287   5.111  71.923  1.00  0.00    -0.171 A  
HETATM    9  C   UNL     1      -9.099   5.746  70.594  1.00  0.00    -0.151 C  
HETATM   10  O   UNL     1      -8.818   6.936  70.469  1.00  0.00    -0.152 OA 
HETATM   11  C   UNL     1      -9.245   4.950  69.352  1.00  0.00    -0.160 A  
HETATM   12  C   UNL     1      -9.123   5.576  68.091  1.00  0.00    -0.108 A  
HETATM   13  O   UNL     1      -8.910   6.931  67.978  1.00  0.00    -0.125 OA 
HETATM   14  C   UNL     1      -9.172   4.844  66.887  1.00  0.00    -0.124 A  
HETATM   15  H   UNL     1      -8.828   7.352  67.131  1.00  0.00     0.000 HD 
HETATM   16  C   UNL     1      -9.326   3.445  66.955  1.00  0.00    -0.212 A  
HETATM   17  C   UNL     1      -9.513   2.834  68.215  1.00  0.00    -0.155 A  
HETATM   18  C   UNL     1      -9.294   2.598  65.695  1.00  0.00    -0.024 C  
HETATM   19  C   UNL     1      -8.716   3.287  64.447  1.00  0.00    -0.094 C  
HETATM   20  C   UNL     1      -9.469   3.577  69.414  1.00  0.00    -0.234 A  
HETATM   21  O   UNL     1      -9.708   1.482  68.293  1.00  0.00    -0.286 OA 
HETATM   22  C   UNL     1      -8.857   5.545  65.571  1.00  0.00    -0.144 C  
HETATM   23  C   UNL     1      -9.657   2.934  70.741  1.00  0.00    -0.125 C  
HETATM   24  C   UNL     1      -9.259   4.715  64.352  1.00  0.00    -0.090 C  
HETATM   25  O   UNL     1      -7.288   3.266  64.500  1.00  0.00    -0.067 OA 
HETATM   26  H   UNL     1      -9.834   1.072  69.140  1.00  0.00     0.000 HD 
HETATM   27  O   UNL     1      -9.905   1.742  70.867  1.00  0.00    -0.105 OA 
HETATM   28  H   UNL     1      -6.932   3.691  63.728  1.00  0.00     0.000 HD 
BRANCH  19  29
HETATM   29  C   UNL     1      -9.087   2.472  63.192  1.00  0.00    -0.091 C  
HETATM   30  O   UNL     1      -8.296   1.698  62.644  1.00  0.00    -0.059 OA 
BRANCH  29  31
HETATM   31  C   UNL     1     -10.484   2.672  62.608  1.00  0.00    -0.138 C  
HETATM   32  O   UNL     1     -11.464   2.013  63.399  1.00  0.00    -0.557 OA 
HETATM   33  H   UNL     1     -12.333   2.138  63.036  1.00  0.00     0.000 HD 
ENDBRANCH  29  31
ENDBRANCH  19  29
BRANCH  22  34
HETATM   34  O   UNL     1      -7.452   5.686  65.669  1.00  0.00    -0.072 OA 
BRANCH  34  35
HETATM   35  C   UNL     1      -6.697   6.454  64.755  1.00  0.00    -0.039 C  
HETATM   36  C   UNL     1      -7.422   7.477  63.875  1.00  0.00    -0.108 C  
HETATM   37  C   UNL     1      -7.979   8.669  64.668  1.00  0.00    -0.141 C  
HETATM   38  C   UNL     1      -6.962   9.206  65.702  1.00  0.00    -0.081 C  
HETATM   39  N   UNL     1      -8.392   9.749  63.741  1.00  0.00    -0.155 NA 
HETATM   40  C   UNL     1      -6.345   8.034  66.476  1.00  0.00    -0.050 C  
HETATM   41  H2  UNL     1      -9.053   9.416  63.039  1.00  0.00     0.000 HD 
HETATM   42  O   UNL     1      -5.945   9.961  65.028  1.00  0.00    -0.081 OA 
HETATM   43  H1  UNL     1      -8.762  10.540  64.268  1.00  0.00     0.000 HD 
HETATM   44  C   UNL     1      -5.312   8.459  67.504  1.00  0.00    -0.034 C  
HETATM   45  H   UNL     1      -5.320  10.291  65.663  1.00  0.00     0.000 HD 
HETATM   46  O   UNL     1      -5.718   7.119  65.558  1.00  0.00    -0.031 OA 
ENDBRANCH  34  35
ENDBRANCH  22  34
ENDBRANCH   2   3
TORSDOF 5
ENDMDL
MODEL       90
REMARK 921   NORMALIZED FREE ENERGY PREDICTED BY IDOCK:   -3.38 KCAL/MOL
REMARK 922        TOTAL FREE ENERGY PREDICTED BY IDOCK:   -5.65 KCAL/MOL
REMARK 923 INTER-LIGAND FREE ENERGY PREDICTED BY IDOCK:   -8.68 KCAL/MOL
REMARK 924 INTRA-LIGAND FREE ENERGY PREDICTED BY IDOCK:    3.02 KCAL/MOL
REMARK 927      BINDING AFFINITY PREDICTED BY RF-SCORE:    0.00 PKD
ROOT
HETATM    1  C   UNL     1      -9.553   6.309  71.027  1.00  0.00    -0.175 C  
HETATM    2  O   UNL     1      -9.634   7.510  70.267  1.00  0.00    -0.165 OA 
ENDROOT
BRANCH   2   3
HETATM    3  C   UNL     1      -9.526   7.397  68.905  1.00  0.00    -0.144 A  
HETATM    4  C   UNL     1      -9.221   6.177  68.283  1.00  0.00    -0.114 A  
HETATM    5  C   UNL     1      -9.079   6.100  66.900  1.00  0.00    -0.129 A  
HETATM    6  C   UNL     1      -9.230   7.246  66.129  1.00  0.00    -0.136 A  
HETATM    7  C   UNL     1      -9.526   8.476  66.738  1.00  0.00    -0.253 A  
HETATM    8  C   UNL     1      -9.678   8.563  68.122  1.00  0.00    -0.175 A  
HETATM    9  C   UNL     1     -10.019   9.881  68.713  1.00  0.00    -0.173 C  
HETATM   10  O   UNL     1     -10.139  10.046  69.924  1.00  0.00    -0.235 OA 
HETATM   11  C   UNL     1     -10.228  11.065  67.845  1.00  0.00    -0.207 A  
HETATM   12  C   UNL     1     -10.611  12.301  68.411  1.00  0.00    -0.235 A  
HETATM   13  O   UNL     1     -10.840  12.433  69.762  1.00  0.00    -0.429 OA 
HETATM   14  C   UNL     1     -10.740  13.470  67.634  1.00  0.00    -0.257 A  
HETATM   15  H   UNL     1     -11.097  13.263  70.143  1.00  0.00     0.000 HD 
HETATM   16  C   UNL     1     -10.455  13.398  66.256  1.00  0.00    -0.289 A  
HETATM   17  C   UNL     1     -10.137  12.146  65.684  1.00  0.00    -0.248 A  
HETATM   18  C   UNL     1     -10.488  14.644  65.389  1.00  0.00    -0.400 C  
HETATM   19  C   UNL     1     -10.466  15.982  66.149  1.00  0.00    -0.326 C  
HETATM   20  C   UNL     1     -10.017  10.980  66.471  1.00  0.00    -0.253 A  
HETATM   21  O   UNL     1      -9.900  12.052  64.340  1.00  0.00    -0.389 OA 
HETATM   22  C   UNL     1     -10.980  14.807  68.326  1.00  0.00    -0.258 C  
HETATM   23  C   UNL     1      -9.673   9.663  65.872  1.00  0.00    -0.275 C  
HETATM   24  C   UNL     1     -11.409  15.904  67.352  1.00  0.00    -0.048 C  
HETATM   25  O   UNL     1      -9.128  16.291  66.545  1.00  0.00    -0.222 OA 
HETATM   26  H   UNL     1      -9.687  11.210  63.956  1.00  0.00     0.000 HD 
HETATM   27  O   UNL     1      -9.521   9.506  64.667  1.00  0.00    -0.228 OA 
HETATM   28  H   UNL     1      -9.115  17.117  67.014  1.00  0.00     0.000 HD 
BRANCH  19  29
HETATM   29  C   UNL     1     -10.880  17.121  65.197  1.00  0.00     0.001 C  
HETATM   30  O   UNL     1     -11.309  16.911  64.057  1.00  0.00    -1.109 OA 
BRANCH  29  31
HETATM   31  C   UNL     1     -10.715  18.555  65.696  1.00  0.00    -0.053 C  
HETATM   32  O   UNL     1      -9.340  18.881  65.854  1.00  0.00    -0.454 OA 
HETATM   33  H   UNL     1      -9.237  19.773  66.164  1.00  0.00     0.000 HD 
ENDBRANCH  29  31
ENDBRANCH  19  29
BRANCH  22  34
HETATM   34  O   UNL     1      -9.699  15.063  68.873  1.00  0.00    -0.210 OA 
BRANCH  34  35
HETATM   35  C   UNL     1      -8.601  15.470  68.083  1.00  0.00    -0.152 C  
HETATM   36  C   UNL     1      -7.697  16.592  68.600  1.00  0.00    -0.224 C  
HETATM   37  C   UNL     1      -6.871  16.186  69.829  1.00  0.00    -0.060 C  
HETATM   38  C   UNL     1      -6.249  14.780  69.674  1.00  0.00    -0.133 C  
HETATM   39  N   UNL     1      -5.815  17.192  70.089  1.00  0.00    -0.230 NA 
HETATM   40  C   UNL     1      -7.307  13.803  69.145  1.00  0.00     0.019 C  
HETATM   41  H2  UNL     1      -6.199  18.133  70.181  1.00  0.00     0.000 HD 
HETATM   42  O   UNL     1      -5.128  14.846  68.780  1.00  0.00    -0.084 OA 
HETATM   43  H1  UNL     1      -5.267  16.923  70.906  1.00  0.00     0.000 HD 
HETATM   44  C   UNL     1      -6.784  12.393  68.935  1.00  0.00    -0.098 C  
HETATM   45  H   UNL     1      -4.745  13.982  68.684  1.00  0.00     0.000 HD 
HETATM   46  O   UNL     1      -7.830  14.281  67.891  1.00  0.00    -0.125 OA 
ENDBRANCH  34  35
ENDBRANCH  22  34
ENDBRANCH   2   3
TORSDOF 5
ENDMDL
MODEL       91
REMARK 921   NORMALIZED FREE ENERGY PREDICTED BY IDOCK:   -3.31 KCAL/MOL
REMARK 922        TOTAL FREE ENERGY PREDICTED BY IDOCK:   -5.56 KCAL/MOL
REMARK 923 INTER-LIGAND FREE ENERGY PREDICTED BY IDOCK:   -6.60 KCAL/MOL
REMARK 924 INTRA-LIGAND FREE ENERGY PREDICTED BY IDOCK:    1.04 KCAL/MOL
REMARK 927      BINDING AFFINITY PREDICTED BY RF-SCORE:    0.00 PKD
ROOT
HETATM    1  C   UNL     1     -12.252  15.286  68.277  1.00  0.00     0.178 C  
HETATM    2  O   UNL     1     -12.102  13.961  67.780  1.00  0.00    -0.371 OA 
ENDROOT
BRANCH   2   3
HETATM    3  C   UNL     1     -11.949  13.813  66.426  1.00  0.00    -0.438 A  
HETATM    4  C   UNL     1     -12.515  14.714  65.511  1.00  0.00    -0.142 A  
HETATM    5  C   UNL     1     -12.376  14.517  64.141  1.00  0.00    -0.317 A  
HETATM    6  C   UNL     1     -11.680  13.411  63.672  1.00  0.00    -0.376 A  
HETATM    7  C   UNL     1     -11.115  12.494  64.575  1.00  0.00    -0.357 A  
HETATM    8  C   UNL     1     -11.242  12.686  65.950  1.00  0.00    -0.350 A  
HETATM    9  C   UNL     1     -10.601  11.704  66.862  1.00  0.00    -0.241 C  
HETATM   10  O   UNL     1     -10.694  11.786  68.084  1.00  0.00    -0.197 OA 
HETATM   11  C   UNL     1      -9.818  10.570  66.316  1.00  0.00    -0.269 A  
HETATM   12  C   UNL     1      -9.163   9.675  67.191  1.00  0.00    -0.134 A  
HETATM   13  O   UNL     1      -9.197   9.850  68.556  1.00  0.00    -0.132 OA 
HETATM   14  C   UNL     1      -8.477   8.537  66.719  1.00  0.00    -0.111 A  
HETATM   15  H   UNL     1      -8.757   9.248  69.145  1.00  0.00     0.000 HD 
HETATM   16  C   UNL     1      -8.469   8.283  65.333  1.00  0.00    -0.189 A  
HETATM   17  C   UNL     1      -9.069   9.216  64.459  1.00  0.00    -0.007 A  
HETATM   18  C   UNL     1      -7.824   7.025  64.778  1.00  0.00    -0.126 C  
HETATM   19  C   UNL     1      -7.546   5.913  65.805  1.00  0.00    -0.087 C  
HETATM   20  C   UNL     1      -9.748  10.356  64.942  1.00  0.00    -0.372 A  
HETATM   21  O   UNL     1      -9.030   9.004  63.108  1.00  0.00    -0.431 OA 
HETATM   22  C   UNL     1      -7.945   7.516  67.718  1.00  0.00    -0.118 C  
HETATM   23  C   UNL     1     -10.387  11.334  64.023  1.00  0.00    -0.371 C  
HETATM   24  C   UNL     1      -6.967   6.527  67.082  1.00  0.00    -0.071 C  
HETATM   25  O   UNL     1      -8.747   5.184  66.066  1.00  0.00    -0.122 OA 
HETATM   26  H   UNL     1      -9.433   9.632  62.520  1.00  0.00     0.000 HD 
HETATM   27  O   UNL     1     -10.323  11.234  62.804  1.00  0.00    -0.152 OA 
HETATM   28  H   UNL     1      -8.575   4.498  66.701  1.00  0.00     0.000 HD 
BRANCH  19  29
HETATM   29  C   UNL     1      -6.572   4.884  65.198  1.00  0.00    -0.040 C  
HETATM   30  O   UNL     1      -5.726   4.290  65.874  1.00  0.00    -0.020 OA 
BRANCH  29  31
HETATM   31  C   UNL     1      -6.657   4.633  63.694  1.00  0.00    -0.038 C  
HETATM   32  O   UNL     1      -7.830   3.897  63.368  1.00  0.00    -0.075 OA 
HETATM   33  H   UNL     1      -7.883   3.741  62.433  1.00  0.00     0.000 HD 
ENDBRANCH  29  31
ENDBRANCH  19  29
BRANCH  22  34
HETATM   34  O   UNL     1      -9.144   6.880  68.120  1.00  0.00    -0.126 OA 
BRANCH  34  35
HETATM   35  C   UNL     1      -9.174   5.853  69.089  1.00  0.00    -0.121 C  
HETATM   36  C   UNL     1      -7.904   5.035  69.336  1.00  0.00    -0.075 C  
HETATM   37  C   UNL     1      -6.779   5.847  69.996  1.00  0.00    -0.052 C  
HETATM   38  C   UNL     1      -7.300   6.728  71.155  1.00  0.00    -0.079 C  
HETATM   39  N   UNL     1      -5.710   4.941  70.476  1.00  0.00    -0.015 NA 
HETATM   40  C   UNL     1      -8.574   7.461  70.714  1.00  0.00    -0.137 C  
HETATM   41  H2  UNL     1      -5.359   4.338  69.732  1.00  0.00     0.000 HD 
HETATM   42  O   UNL     1      -7.559   5.908  72.303  1.00  0.00    -0.098 OA 
HETATM   43  H1  UNL     1      -4.963   5.481  70.913  1.00  0.00     0.000 HD 
HETATM   44  C   UNL     1      -9.178   8.338  71.795  1.00  0.00    -0.261 C  
HETATM   45  H   UNL     1      -7.879   6.448  73.015  1.00  0.00     0.000 HD 
HETATM   46  O   UNL     1      -9.569   6.506  70.299  1.00  0.00    -0.161 OA 
ENDBRANCH  34  35
ENDBRANCH  22  34
ENDBRANCH   2   3
TORSDOF 5
ENDMDL
MODEL       92
REMARK 921   NORMALIZED FREE ENERGY PREDICTED BY IDOCK:   -3.23 KCAL/MOL
REMARK 922        TOTAL FREE ENERGY PREDICTED BY IDOCK:   -5.45 KCAL/MOL
REMARK 923 INTER-LIGAND FREE ENERGY PREDICTED BY IDOCK:   -5.44 KCAL/MOL
REMARK 924 INTRA-LIGAND FREE ENERGY PREDICTED BY IDOCK:   -0.01 KCAL/MOL
REMARK 927      BINDING AFFINITY PREDICTED BY RF-SCORE:    0.00 PKD
ROOT
HETATM    1  C   UNL     1     -11.483  16.194  64.514  1.00  0.00    -0.230 C  
HETATM    2  O   UNL     1     -10.491  15.312  65.026  1.00  0.00    -0.399 OA 
ENDROOT
BRANCH   2   3
HETATM    3  C   UNL     1      -9.626  15.817  65.961  1.00  0.00    -0.353 A  
HETATM    4  C   UNL     1      -9.334  17.187  66.040  1.00  0.00    -0.156 A  
HETATM    5  C   UNL     1      -8.421  17.667  66.975  1.00  0.00    -0.252 A  
HETATM    6  C   UNL     1      -7.783  16.779  67.831  1.00  0.00    -0.178 A  
HETATM    7  C   UNL     1      -8.057  15.403  67.758  1.00  0.00    -0.152 A  
HETATM    8  C   UNL     1      -8.976  14.912  66.830  1.00  0.00    -0.277 A  
HETATM    9  C   UNL     1      -9.251  13.453  66.814  1.00  0.00    -0.236 C  
HETATM   10  O   UNL     1     -10.023  12.941  66.007  1.00  0.00    -0.267 OA 
HETATM   11  C   UNL     1      -8.589  12.551  67.786  1.00  0.00    -0.178 A  
HETATM   12  C   UNL     1      -8.902  11.173  67.801  1.00  0.00    -0.135 A  
HETATM   13  O   UNL     1      -9.848  10.642  66.955  1.00  0.00    -0.178 OA 
HETATM   14  C   UNL     1      -8.238  10.267  68.652  1.00  0.00    -0.116 A  
HETATM   15  H   UNL     1     -10.059   9.716  66.965  1.00  0.00     0.000 HD 
HETATM   16  C   UNL     1      -7.217  10.755  69.492  1.00  0.00    -0.132 A  
HETATM   17  C   UNL     1      -6.955  12.143  69.520  1.00  0.00     0.113 A  
HETATM   18  C   UNL     1      -6.407   9.810  70.361  1.00  0.00    -0.093 C  
HETATM   19  C   UNL     1      -6.501   8.320  69.987  1.00  0.00    -0.035 C  
HETATM   20  C   UNL     1      -7.631  13.043  68.668  1.00  0.00    -0.089 A  
HETATM   21  O   UNL     1      -5.997  12.637  70.363  1.00  0.00    -0.242 OA 
HETATM   22  C   UNL     1      -8.492   8.771  68.498  1.00  0.00    -0.130 C  
HETATM   23  C   UNL     1      -7.349  14.502  68.690  1.00  0.00    -0.128 C  
HETATM   24  C   UNL     1      -7.956   7.960  69.678  1.00  0.00    -0.118 C  
HETATM   25  O   UNL     1      -5.641   8.043  68.881  1.00  0.00    -0.029 OA 
HETATM   26  H   UNL     1      -5.821  13.570  70.381  1.00  0.00     0.000 HD 
HETATM   27  O   UNL     1      -6.555  15.010  69.473  1.00  0.00    -0.129 OA 
HETATM   28  H   UNL     1      -5.699   7.123  68.650  1.00  0.00     0.000 HD 
BRANCH  19  29
HETATM   29  C   UNL     1      -5.957   7.464  71.148  1.00  0.00    -0.036 C  
HETATM   30  O   UNL     1      -5.220   7.925  72.026  1.00  0.00    -0.035 OA 
BRANCH  29  31
HETATM   31  C   UNL     1      -6.335   5.984  71.172  1.00  0.00    -0.044 C  
HETATM   32  O   UNL     1      -5.381   5.229  71.908  1.00  0.00    -0.008 OA 
HETATM   33  H   UNL     1      -5.616   4.309  71.923  1.00  0.00     0.000 HD 
ENDBRANCH  29  31
ENDBRANCH  19  29
BRANCH  22  34
HETATM   34  O   UNL     1      -7.778   8.497  67.306  1.00  0.00    -0.095 OA 
BRANCH  34  35
HETATM   35  C   UNL     1      -8.350   7.803  66.218  1.00  0.00    -0.131 C  
HETATM   36  C   UNL     1      -9.474   8.474  65.424  1.00  0.00     0.167 C  
HETATM   37  C   UNL     1      -9.000   9.688  64.610  1.00  0.00    -0.231 C  
HETATM   38  C   UNL     1      -7.670   9.410  63.873  1.00  0.00    -0.121 C  
HETATM   39  N   UNL     1     -10.048  10.098  63.648  1.00  0.00    -0.465 NA 
HETATM   40  C   UNL     1      -6.679   8.736  64.832  1.00  0.00    -0.069 C  
HETATM   41  H2  UNL     1     -10.941  10.273  64.108  1.00  0.00     0.000 HD 
HETATM   42  O   UNL     1      -7.918   8.577  62.731  1.00  0.00    -0.141 OA 
HETATM   43  H1  UNL     1      -9.733  10.904  63.108  1.00  0.00     0.000 HD 
HETATM   44  C   UNL     1      -5.344   8.399  64.192  1.00  0.00    -0.048 C  
HETATM   45  H   UNL     1      -7.100   8.406  62.278  1.00  0.00     0.000 HD 
HETATM   46  O   UNL     1      -7.251   7.519  65.348  1.00  0.00    -0.065 OA 
ENDBRANCH  34  35
ENDBRANCH  22  34
ENDBRANCH   2   3
TORSDOF 5
ENDMDL
MODEL       93
REMARK 921   NORMALIZED FREE ENERGY PREDICTED BY IDOCK:   -3.14 KCAL/MOL
REMARK 922        TOTAL FREE ENERGY PREDICTED BY IDOCK:   -5.34 KCAL/MOL
REMARK 923 INTER-LIGAND FREE ENERGY PREDICTED BY IDOCK:   -5.40 KCAL/MOL
REMARK 924 INTRA-LIGAND FREE ENERGY PREDICTED BY IDOCK:    0.05 KCAL/MOL
REMARK 927      BINDING AFFINITY PREDICTED BY RF-SCORE:    0.00 PKD
ROOT
HETATM    1  C   UNL     1      -8.863   1.851  66.225  1.00  0.00    -0.116 C  
HETATM    2  O   UNL     1      -9.081   3.079  65.540  1.00  0.00    -0.144 OA 
ENDROOT
BRANCH   2   3
HETATM    3  C   UNL     1      -8.001   3.650  64.918  1.00  0.00    -0.090 A  
HETATM    4  C   UNL     1      -7.182   2.926  64.039  1.00  0.00    -0.057 A  
HETATM    5  C   UNL     1      -6.068   3.520  63.452  1.00  0.00    -0.014 A  
HETATM    6  C   UNL     1      -5.757   4.840  63.750  1.00  0.00    -0.017 A  
HETATM    7  C   UNL     1      -6.562   5.576  64.636  1.00  0.00    -0.042 A  
HETATM    8  C   UNL     1      -7.684   4.993  65.223  1.00  0.00    -0.087 A  
HETATM    9  C   UNL     1      -8.518   5.822  66.129  1.00  0.00    -0.130 C  
HETATM   10  O   UNL     1      -9.503   5.373  66.709  1.00  0.00    -0.128 OA 
HETATM   11  C   UNL     1      -8.180   7.245  66.372  1.00  0.00    -0.120 A  
HETATM   12  C   UNL     1      -9.012   8.042  67.189  1.00  0.00    -0.135 A  
HETATM   13  O   UNL     1     -10.169   7.541  67.743  1.00  0.00    -0.177 OA 
HETATM   14  C   UNL     1      -8.685   9.375  67.512  1.00  0.00    -0.123 A  
HETATM   15  H   UNL     1     -10.728   8.077  68.292  1.00  0.00     0.000 HD 
HETATM   16  C   UNL     1      -7.479   9.911  67.019  1.00  0.00    -0.091 A  
HETATM   17  C   UNL     1      -6.685   9.132  66.149  1.00  0.00    -0.074 A  
HETATM   18  C   UNL     1      -7.033  11.309  67.410  1.00  0.00    -0.101 C  
HETATM   19  C   UNL     1      -7.748  11.916  68.630  1.00  0.00    -0.113 C  
HETATM   20  C   UNL     1      -7.025   7.800  65.827  1.00  0.00    -0.057 A  
HETATM   21  O   UNL     1      -5.533   9.655  65.628  1.00  0.00    -0.042 OA 
HETATM   22  C   UNL     1      -9.527  10.125  68.538  1.00  0.00    -0.158 C  
HETATM   23  C   UNL     1      -6.185   6.976  64.919  1.00  0.00    -0.037 C  
HETATM   24  C   UNL     1      -9.248  11.628  68.541  1.00  0.00    -0.163 C  
HETATM   25  O   UNL     1      -7.179  11.396  69.833  1.00  0.00    -0.351 OA 
HETATM   26  H   UNL     1      -4.999   9.131  65.043  1.00  0.00     0.000 HD 
HETATM   27  O   UNL     1      -5.183   7.414  64.367  1.00  0.00    -0.028 OA 
HETATM   28  H   UNL     1      -7.620  11.772  70.586  1.00  0.00     0.000 HD 
BRANCH  19  29
HETATM   29  C   UNL     1      -7.481  13.434  68.678  1.00  0.00    -0.104 C  
HETATM   30  O   UNL     1      -8.264  14.262  68.202  1.00  0.00    -0.129 OA 
BRANCH  29  31
HETATM   31  C   UNL     1      -6.175  13.902  69.318  1.00  0.00    -0.107 C  
HETATM   32  O   UNL     1      -6.297  15.232  69.805  1.00  0.00    -0.142 OA 
HETATM   33  H   UNL     1      -5.485  15.523  70.203  1.00  0.00     0.000 HD 
ENDBRANCH  29  31
ENDBRANCH  19  29
BRANCH  22  34
HETATM   34  O   UNL     1      -9.099   9.510  69.740  1.00  0.00    -0.172 OA 
BRANCH  34  35
HETATM   35  C   UNL     1      -9.531   8.224  70.133  1.00  0.00    -0.167 C  
HETATM   36  C   UNL     1      -8.802   7.521  71.282  1.00  0.00    -0.137 C  
HETATM   37  C   UNL     1      -9.030   8.192  72.644  1.00  0.00    -0.232 C  
HETATM   38  C   UNL     1     -10.511   8.575  72.864  1.00  0.00     0.135 C  
HETATM   39  N   UNL     1      -8.558   7.307  73.734  1.00  0.00    -0.150 NA 
HETATM   40  C   UNL     1     -11.059   9.261  71.606  1.00  0.00    -0.368 C  
HETATM   41  H2  UNL     1      -7.586   7.028  73.605  1.00  0.00     0.000 HD 
HETATM   42  O   UNL     1     -11.272   7.397  73.171  1.00  0.00    -0.518 OA 
HETATM   43  H1  UNL     1      -8.709   7.753  74.639  1.00  0.00     0.000 HD 
HETATM   44  C   UNL     1     -12.521   9.656  71.715  1.00  0.00    -0.487 C  
HETATM   45  H   UNL     1     -12.182   7.631  73.305  1.00  0.00     0.000 HD 
HETATM   46  O   UNL     1     -10.911   8.390  70.470  1.00  0.00    -0.224 OA 
ENDBRANCH  34  35
ENDBRANCH  22  34
ENDBRANCH   2   3
TORSDOF 5
ENDMDL
MODEL       94
REMARK 921   NORMALIZED FREE ENERGY PREDICTED BY IDOCK:   -3.09 KCAL/MOL
REMARK 922        TOTAL FREE ENERGY PREDICTED BY IDOCK:   -5.28 KCAL/MOL
REMARK 923 INTER-LIGAND FREE ENERGY PREDICTED BY IDOCK:   -3.88 KCAL/MOL
REMARK 924 INTRA-LIGAND FREE ENERGY PREDICTED BY IDOCK:   -1.40 KCAL/MOL
REMARK 927      BINDING AFFINITY PREDICTED BY RF-SCORE:    0.00 PKD
ROOT
HETATM    1  C   UNL     1      -8.311  17.070  65.989  1.00  0.00    -0.145 C  
HETATM    2  O   UNL     1      -9.561  16.442  66.254  1.00  0.00    -0.273 OA 
ENDROOT
BRANCH   2   3
HETATM    3  C   UNL     1     -10.165  16.731  67.449  1.00  0.00    -0.288 A  
HETATM    4  C   UNL     1     -10.328  18.050  67.900  1.00  0.00    -0.402 A  
HETATM    5  C   UNL     1     -10.910  18.312  69.137  1.00  0.00     0.839 A  
HETATM    6  C   UNL     1     -11.325  17.256  69.938  1.00  0.00     1.181 A  
HETATM    7  C   UNL     1     -11.161  15.930  69.505  1.00  0.00    -0.315 A  
HETATM    8  C   UNL     1     -10.585  15.657  68.265  1.00  0.00    -0.262 A  
HETATM    9  C   UNL     1     -10.461  14.239  67.842  1.00  0.00    -0.240 C  
HETATM   10  O   UNL     1      -9.938  13.915  66.778  1.00  0.00    -0.256 OA 
HETATM   11  C   UNL     1     -10.971  13.147  68.706  1.00  0.00    -0.298 A  
HETATM   12  C   UNL     1     -10.902  11.806  68.268  1.00  0.00    -0.220 A  
HETATM   13  O   UNL     1     -10.405  11.479  67.027  1.00  0.00    -0.209 OA 
HETATM   14  C   UNL     1     -11.299  10.731  69.090  1.00  0.00    -0.348 A  
HETATM   15  H   UNL     1     -10.358  10.578  66.733  1.00  0.00     0.000 HD 
HETATM   16  C   UNL     1     -11.755  11.013  70.393  1.00  0.00    -0.437 A  
HETATM   17  C   UNL     1     -11.884  12.360  70.801  1.00  0.00     0.218 A  
HETATM   18  C   UNL     1     -12.108   9.890  71.353  1.00  0.00    -0.501 C  
HETATM   19  C   UNL     1     -11.584   8.497  70.964  1.00  0.00    -0.279 C  
HETATM   20  C   UNL     1     -11.490  13.429  69.967  1.00  0.00    -0.126 A  
HETATM   21  O   UNL     1     -12.368  12.650  72.048  1.00  0.00     0.203 OA 
HETATM   22  C   UNL     1     -11.035   9.301  68.633  1.00  0.00     0.005 C  
HETATM   23  C   UNL     1     -11.617  14.845  70.398  1.00  0.00    -0.281 C  
HETATM   24  C   UNL     1     -11.795   8.269  69.465  1.00  0.00     1.033 C  
HETATM   25  O   UNL     1     -10.209   8.378  71.329  1.00  0.00    -0.193 OA 
HETATM   26  H   UNL     1     -12.455  13.555  72.321  1.00  0.00     0.000 HD 
HETATM   27  O   UNL     1     -12.108  15.167  71.473  1.00  0.00    -0.295 OA 
HETATM   28  H   UNL     1      -9.885   7.517  71.089  1.00  0.00     0.000 HD 
BRANCH  19  29
HETATM   29  C   UNL     1     -12.318   7.423  71.793  1.00  0.00    -0.333 C  
HETATM   30  O   UNL     1     -13.539   7.446  71.978  1.00  0.00    -0.237 OA 
BRANCH  29  31
HETATM   31  C   UNL     1     -11.473   6.318  72.423  1.00  0.00    -0.293 C  
HETATM   32  O   UNL     1     -12.267   5.173  72.709  1.00  0.00    -0.293 OA 
HETATM   33  H   UNL     1     -11.742   4.485  73.100  1.00  0.00     0.000 HD 
ENDBRANCH  29  31
ENDBRANCH  19  29
BRANCH  22  34
HETATM   34  O   UNL     1      -9.636   9.207  68.832  1.00  0.00    -0.149 OA 
BRANCH  34  35
HETATM   35  C   UNL     1      -8.818   8.329  68.087  1.00  0.00    -0.139 C  
HETATM   36  C   UNL     1      -8.023   8.887  66.903  1.00  0.00    -0.101 C  
HETATM   37  C   UNL     1      -6.896   9.840  67.326  1.00  0.00    -0.083 C  
HETATM   38  C   UNL     1      -6.096   9.296  68.532  1.00  0.00    -0.045 C  
HETATM   39  N   UNL     1      -5.992  10.099  66.182  1.00  0.00    -0.071 NA 
HETATM   40  C   UNL     1      -7.065   8.784  69.605  1.00  0.00    -0.054 C  
HETATM   41  H2  UNL     1      -6.498  10.446  65.367  1.00  0.00     0.000 HD 
HETATM   42  O   UNL     1      -5.222   8.245  68.095  1.00  0.00    -0.032 OA 
HETATM   43  H1  UNL     1      -5.243  10.733  66.463  1.00  0.00     0.000 HD 
HETATM   44  C   UNL     1      -6.373   8.205  70.826  1.00  0.00    -0.036 C  
HETATM   45  H   UNL     1      -4.730   7.911  68.836  1.00  0.00     0.000 HD 
HETATM   46  O   UNL     1      -7.919   7.767  69.047  1.00  0.00    -0.118 OA 
ENDBRANCH  34  35
ENDBRANCH  22  34
ENDBRANCH   2   3
TORSDOF 5
ENDMDL
MODEL       95
REMARK 921   NORMALIZED FREE ENERGY PREDICTED BY IDOCK:   -3.05 KCAL/MOL
REMARK 922        TOTAL FREE ENERGY PREDICTED BY IDOCK:   -5.22 KCAL/MOL
REMARK 923 INTER-LIGAND FREE ENERGY PREDICTED BY IDOCK:   -6.02 KCAL/MOL
REMARK 924 INTRA-LIGAND FREE ENERGY PREDICTED BY IDOCK:    0.80 KCAL/MOL
REMARK 927      BINDING AFFINITY PREDICTED BY RF-SCORE:    0.00 PKD
ROOT
HETATM    1  C   UNL     1      -6.594   9.906  63.278  1.00  0.00    -0.125 C  
HETATM    2  O   UNL     1      -7.781   9.388  63.869  1.00  0.00    -0.111 OA 
ENDROOT
BRANCH   2   3
HETATM    3  C   UNL     1      -7.956   8.029  63.835  1.00  0.00    -0.128 A  
HETATM    4  C   UNL     1      -8.022   7.318  62.628  1.00  0.00    -0.123 A  
HETATM    5  C   UNL     1      -8.240   5.943  62.623  1.00  0.00    -0.089 A  
HETATM    6  C   UNL     1      -8.406   5.270  63.827  1.00  0.00    -0.123 A  
HETATM    7  C   UNL     1      -8.353   5.969  65.044  1.00  0.00    -0.121 A  
HETATM    8  C   UNL     1      -8.127   7.345  65.060  1.00  0.00    -0.122 A  
HETATM    9  C   UNL     1      -8.051   8.032  66.374  1.00  0.00    -0.107 C  
HETATM   10  O   UNL     1      -7.886   9.246  66.471  1.00  0.00    -0.099 OA 
HETATM   11  C   UNL     1      -8.177   7.262  67.635  1.00  0.00    -0.114 A  
HETATM   12  C   UNL     1      -8.044   7.916  68.880  1.00  0.00    -0.125 A  
HETATM   13  O   UNL     1      -7.756   9.259  68.961  1.00  0.00    -0.073 OA 
HETATM   14  C   UNL     1      -8.237   7.239  70.102  1.00  0.00    -0.134 A  
HETATM   15  H   UNL     1      -7.666   9.699  69.798  1.00  0.00     0.000 HD 
HETATM   16  C   UNL     1      -8.595   5.877  70.069  1.00  0.00    -0.130 A  
HETATM   17  C   UNL     1      -8.661   5.214  68.823  1.00  0.00    -0.086 A  
HETATM   18  C   UNL     1      -8.904   5.123  71.350  1.00  0.00    -0.145 C  
HETATM   19  C   UNL     1      -9.174   5.999  72.586  1.00  0.00    -0.143 C  
HETATM   20  C   UNL     1      -8.460   5.899  67.605  1.00  0.00    -0.103 A  
HETATM   21  O   UNL     1      -8.965   3.880  68.778  1.00  0.00    -0.101 OA 
HETATM   22  C   UNL     1      -8.256   8.034  71.403  1.00  0.00    -0.112 C  
HETATM   23  C   UNL     1      -8.539   5.205  66.294  1.00  0.00    -0.114 C  
HETATM   24  C   UNL     1      -8.155   7.139  72.639  1.00  0.00    -0.118 C  
HETATM   25  O   UNL     1     -10.516   6.489  72.548  1.00  0.00    -0.195 OA 
HETATM   26  H   UNL     1      -9.009   3.435  67.940  1.00  0.00     0.000 HD 
HETATM   27  O   UNL     1      -8.736   4.000  66.196  1.00  0.00    -0.113 OA 
HETATM   28  H   UNL     1     -10.682   7.029  73.312  1.00  0.00     0.000 HD 
BRANCH  19  29
HETATM   29  C   UNL     1      -9.096   5.130  73.858  1.00  0.00    -0.119 C  
HETATM   30  O   UNL     1      -8.025   4.714  74.313  1.00  0.00    -0.098 OA 
BRANCH  29  31
HETATM   31  C   UNL     1     -10.409   4.760  74.543  1.00  0.00    -0.283 C  
HETATM   32  O   UNL     1     -10.931   3.546  74.018  1.00  0.00    -0.205 OA 
HETATM   33  H   UNL     1     -11.747   3.315  74.444  1.00  0.00     0.000 HD 
ENDBRANCH  29  31
ENDBRANCH  19  29
BRANCH  22  34
HETATM   34  O   UNL     1      -9.520   8.666  71.315  1.00  0.00    -0.180 OA 
BRANCH  34  35
HETATM   35  C   UNL     1     -10.442   8.385  70.284  1.00  0.00    -0.218 C  
HETATM   36  C   UNL     1     -11.888   8.045  70.659  1.00  0.00    -0.102 C  
HETATM   37  C   UNL     1     -12.657   9.239  71.244  1.00  0.00    -0.306 C  
HETATM   38  C   UNL     1     -12.412  10.538  70.444  1.00  0.00    -0.310 C  
HETATM   39  N   UNL     1     -14.105   8.933  71.301  1.00  0.00    -0.540 NA 
HETATM   40  C   UNL     1     -10.912  10.698  70.165  1.00  0.00    -0.222 C  
HETATM   41  H2  UNL     1     -14.293   8.071  71.812  1.00  0.00     0.000 HD 
HETATM   42  O   UNL     1     -13.154  10.494  69.216  1.00  0.00    -0.347 OA 
HETATM   43  H1  UNL     1     -14.616   9.726  71.690  1.00  0.00     0.000 HD 
HETATM   44  C   UNL     1     -10.569  11.938  69.360  1.00  0.00     0.068 C  
HETATM   45  H   UNL     1     -13.003  11.292  68.724  1.00  0.00     0.000 HD 
HETATM   46  O   UNL     1     -10.422   9.547  69.450  1.00  0.00    -0.201 OA 
ENDBRANCH  34  35
ENDBRANCH  22  34
ENDBRANCH   2   3
TORSDOF 5
ENDMDL
MODEL       96
REMARK 921   NORMALIZED FREE ENERGY PREDICTED BY IDOCK:   -2.94 KCAL/MOL
REMARK 922        TOTAL FREE ENERGY PREDICTED BY IDOCK:   -5.08 KCAL/MOL
REMARK 923 INTER-LIGAND FREE ENERGY PREDICTED BY IDOCK:   -5.65 KCAL/MOL
REMARK 924 INTRA-LIGAND FREE ENERGY PREDICTED BY IDOCK:    0.57 KCAL/MOL
REMARK 927      BINDING AFFINITY PREDICTED BY RF-SCORE:    0.00 PKD
ROOT
HETATM    1  C   UNL     1     -13.815   7.411  72.351  1.00  0.00     0.294 C  
HETATM    2  O   UNL     1     -13.114   6.398  71.637  1.00  0.00    -0.064 OA 
ENDROOT
BRANCH   2   3
HETATM    3  C   UNL     1     -11.832   6.124  72.036  1.00  0.00    -0.280 A  
HETATM    4  C   UNL     1     -11.545   5.596  73.304  1.00  0.00     0.063 A  
HETATM    5  C   UNL     1     -10.230   5.364  73.697  1.00  0.00    -0.237 A  
HETATM    6  C   UNL     1      -9.190   5.671  72.829  1.00  0.00    -0.135 A  
HETATM    7  C   UNL     1      -9.460   6.209  71.560  1.00  0.00    -0.161 A  
HETATM    8  C   UNL     1     -10.774   6.438  71.154  1.00  0.00    -0.293 A  
HETATM    9  C   UNL     1     -11.007   6.981  69.792  1.00  0.00    -0.250 C  
HETATM   10  O   UNL     1     -12.132   7.239  69.372  1.00  0.00     0.606 OA 
HETATM   11  C   UNL     1      -9.867   7.239  68.879  1.00  0.00    -0.158 A  
HETATM   12  C   UNL     1     -10.102   7.699  67.564  1.00  0.00    -0.202 A  
HETATM   13  O   UNL     1     -11.379   7.881  67.084  1.00  0.00    -0.207 OA 
HETATM   14  C   UNL     1      -9.047   8.035  66.691  1.00  0.00    -0.199 A  
HETATM   15  H   UNL     1     -11.538   8.191  66.200  1.00  0.00     0.000 HD 
HETATM   16  C   UNL     1      -7.723   7.924  67.161  1.00  0.00    -0.101 A  
HETATM   17  C   UNL     1      -7.493   7.400  68.452  1.00  0.00    -0.105 A  
HETATM   18  C   UNL     1      -6.553   8.359  66.296  1.00  0.00    -0.058 C  
HETATM   19  C   UNL     1      -6.912   9.249  65.093  1.00  0.00    -0.085 C  
HETATM   20  C   UNL     1      -8.557   7.062  69.316  1.00  0.00    -0.136 A  
HETATM   21  O   UNL     1      -6.211   7.247  68.905  1.00  0.00    -0.032 OA 
HETATM   22  C   UNL     1      -9.363   8.693  65.353  1.00  0.00     0.048 C  
HETATM   23  C   UNL     1      -8.316   6.519  70.679  1.00  0.00    -0.133 C  
HETATM   24  C   UNL     1      -8.165   8.701  64.404  1.00  0.00    -0.163 C  
HETATM   25  O   UNL     1      -7.094  10.598  65.526  1.00  0.00    -0.257 OA 
HETATM   26  H   UNL     1      -6.057   6.894  69.773  1.00  0.00     0.000 HD 
HETATM   27  O   UNL     1      -7.192   6.293  71.110  1.00  0.00    -0.075 OA 
HETATM   28  H   UNL     1      -7.316  11.148  64.783  1.00  0.00     0.000 HD 
BRANCH  19  29
HETATM   29  C   UNL     1      -5.722   9.295  64.115  1.00  0.00    -0.070 C  
HETATM   30  O   UNL     1      -5.163   8.274  63.699  1.00  0.00    -0.047 OA 
BRANCH  29  31
HETATM   31  C   UNL     1      -5.214  10.669  63.684  1.00  0.00    -0.160 C  
HETATM   32  O   UNL     1      -5.954  11.158  62.573  1.00  0.00    -0.345 OA 
HETATM   33  H   UNL     1      -5.639  12.013  62.305  1.00  0.00     0.000 HD 
ENDBRANCH  29  31
ENDBRANCH  19  29
BRANCH  22  34
HETATM   34  O   UNL     1      -9.709  10.001  65.770  1.00  0.00    -0.218 OA 
BRANCH  34  35
HETATM   35  C   UNL     1     -10.257  10.275  67.043  1.00  0.00    -0.228 C  
HETATM   36  C   UNL     1      -9.360  10.909  68.111  1.00  0.00    -0.165 C  
HETATM   37  C   UNL     1      -8.967  12.358  67.789  1.00  0.00    -0.182 C  
HETATM   38  C   UNL     1     -10.167  13.187  67.278  1.00  0.00    -0.243 C  
HETATM   39  N   UNL     1      -8.365  13.000  68.981  1.00  0.00    -0.291 NA 
HETATM   40  C   UNL     1     -10.938  12.383  66.222  1.00  0.00    -0.286 C  
HETATM   41  H2  UNL     1      -7.579  12.464  69.346  1.00  0.00     0.000 HD 
HETATM   42  O   UNL     1     -11.021  13.526  68.380  1.00  0.00    -0.247 OA 
HETATM   43  H1  UNL     1      -8.104  13.962  68.766  1.00  0.00     0.000 HD 
HETATM   44  C   UNL     1     -12.155  13.106  65.674  1.00  0.00    -0.501 C  
HETATM   45  H   UNL     1     -11.759  14.035  68.067  1.00  0.00     0.000 HD 
HETATM   46  O   UNL     1     -11.373  11.130  66.784  1.00  0.00    -0.341 OA 
ENDBRANCH  34  35
ENDBRANCH  22  34
ENDBRANCH   2   3
TORSDOF 5
ENDMDL
MODEL       97
REMARK 921   NORMALIZED FREE ENERGY PREDICTED BY IDOCK:   -2.90 KCAL/MOL
REMARK 922        TOTAL FREE ENERGY PREDICTED BY IDOCK:   -5.02 KCAL/MOL
REMARK 923 INTER-LIGAND FREE ENERGY PREDICTED BY IDOCK:   -6.23 KCAL/MOL
REMARK 924 INTRA-LIGAND FREE ENERGY PREDICTED BY IDOCK:    1.21 KCAL/MOL
REMARK 927      BINDING AFFINITY PREDICTED BY RF-SCORE:    0.00 PKD
ROOT
HETATM    1  C   UNL     1      -8.856   3.223  71.784  1.00  0.00    -0.087 C  
HETATM    2  O   UNL     1      -8.594   4.176  70.760  1.00  0.00    -0.073 OA 
ENDROOT
BRANCH   2   3
HETATM    3  C   UNL     1      -7.496   4.979  70.919  1.00  0.00    -0.077 A  
HETATM    4  C   UNL     1      -6.317   4.516  71.521  1.00  0.00    -0.019 A  
HETATM    5  C   UNL     1      -5.230   5.365  71.706  1.00  0.00    -0.009 A  
HETATM    6  C   UNL     1      -5.318   6.690  71.300  1.00  0.00    -0.027 A  
HETATM    7  C   UNL     1      -6.494   7.173  70.704  1.00  0.00    -0.043 A  
HETATM    8  C   UNL     1      -7.586   6.328  70.508  1.00  0.00    -0.096 A  
HETATM    9  C   UNL     1      -8.796   6.880  69.847  1.00  0.00    -0.142 C  
HETATM   10  O   UNL     1      -9.809   6.209  69.667  1.00  0.00    -0.155 OA 
HETATM   11  C   UNL     1      -8.822   8.287  69.378  1.00  0.00    -0.146 A  
HETATM   12  C   UNL     1      -9.956   8.786  68.698  1.00  0.00    -0.182 A  
HETATM   13  O   UNL     1     -11.037   7.982  68.417  1.00  0.00    -0.414 OA 
HETATM   14  C   UNL     1     -10.056  10.137  68.307  1.00  0.00    -0.179 A  
HETATM   15  H   UNL     1     -11.799   8.317  67.959  1.00  0.00     0.000 HD 
HETATM   16  C   UNL     1      -9.000  11.012  68.630  1.00  0.00    -0.167 A  
HETATM   17  C   UNL     1      -7.842  10.493  69.251  1.00  0.00    -0.144 A  
HETATM   18  C   UNL     1      -9.096  12.494  68.315  1.00  0.00    -0.183 C  
HETATM   19  C   UNL     1     -10.509  13.016  68.000  1.00  0.00    -0.228 C  
HETATM   20  C   UNL     1      -7.749   9.137  69.632  1.00  0.00    -0.082 A  
HETATM   21  O   UNL     1      -6.791  11.322  69.530  1.00  0.00    -0.118 OA 
HETATM   22  C   UNL     1     -11.372  10.656  67.738  1.00  0.00    -0.244 C  
HETATM   23  C   UNL     1      -6.535   8.591  70.293  1.00  0.00    -0.038 C  
HETATM   24  C   UNL     1     -11.227  12.027  67.078  1.00  0.00    -0.377 C  
HETATM   25  O   UNL     1     -11.230  13.225  69.215  1.00  0.00    -0.313 OA 
HETATM   26  H   UNL     1      -6.012  10.973  69.947  1.00  0.00     0.000 HD 
HETATM   27  O   UNL     1      -5.537   9.270  70.503  1.00  0.00    -0.032 OA 
HETATM   28  H   UNL     1     -12.102  13.548  69.021  1.00  0.00     0.000 HD 
BRANCH  19  29
HETATM   29  C   UNL     1     -10.408  14.407  67.343  1.00  0.00    -0.252 C  
HETATM   30  O   UNL     1     -11.253  14.828  66.546  1.00  0.00    -0.335 OA 
BRANCH  29  31
HETATM   31  C   UNL     1      -9.191  15.263  67.685  1.00  0.00    -0.187 C  
HETATM   32  O   UNL     1      -9.558  16.361  68.511  1.00  0.00    -0.215 OA 
HETATM   33  H   UNL     1      -8.801  16.893  68.724  1.00  0.00     0.000 HD 
ENDBRANCH  29  31
ENDBRANCH  19  29
BRANCH  22  34
HETATM   34  O   UNL     1     -12.167  10.719  68.909  1.00  0.00    -0.447 OA 
BRANCH  34  35
HETATM   35  C   UNL     1     -11.622  10.597  70.207  1.00  0.00    -0.336 C  
HETATM   36  C   UNL     1     -12.062  11.590  71.287  1.00  0.00    -0.025 C  
HETATM   37  C   UNL     1     -13.528  11.415  71.709  1.00  0.00    -0.117 C  
HETATM   38  C   UNL     1     -13.904   9.929  71.907  1.00  0.00    -0.099 C  
HETATM   39  N   UNL     1     -13.798  12.185  72.945  1.00  0.00    -0.060 NA 
HETATM   40  C   UNL     1     -13.376   9.101  70.728  1.00  0.00     0.247 C  
HETATM   41  H2  UNL     1     -13.544  13.167  72.846  1.00  0.00     0.000 HD 
HETATM   42  O   UNL     1     -13.354   9.455  73.145  1.00  0.00    -0.648 OA 
HETATM   43  H1  UNL     1     -14.772  12.069  73.225  1.00  0.00     0.000 HD 
HETATM   44  C   UNL     1     -13.675   7.617  70.841  1.00  0.00     0.070 C  
HETATM   45  H   UNL     1     -13.585   8.541  73.267  1.00  0.00     0.000 HD 
HETATM   46  O   UNL     1     -11.949   9.266  70.615  1.00  0.00    -0.253 OA 
ENDBRANCH  34  35
ENDBRANCH  22  34
ENDBRANCH   2   3
TORSDOF 5
ENDMDL
MODEL       98
REMARK 921   NORMALIZED FREE ENERGY PREDICTED BY IDOCK:   -2.88 KCAL/MOL
REMARK 922        TOTAL FREE ENERGY PREDICTED BY IDOCK:   -5.01 KCAL/MOL
REMARK 923 INTER-LIGAND FREE ENERGY PREDICTED BY IDOCK:   -4.57 KCAL/MOL
REMARK 924 INTRA-LIGAND FREE ENERGY PREDICTED BY IDOCK:   -0.44 KCAL/MOL
REMARK 927      BINDING AFFINITY PREDICTED BY RF-SCORE:    0.00 PKD
ROOT
HETATM    1  C   UNL     1      -5.817  11.759  66.617  1.00  0.00    -0.049 C  
HETATM    2  O   UNL     1      -6.918  11.014  66.110  1.00  0.00    -0.125 OA 
ENDROOT
BRANCH   2   3
HETATM    3  C   UNL     1      -6.651   9.772  65.597  1.00  0.00    -0.087 A  
HETATM    4  C   UNL     1      -6.210   9.592  64.277  1.00  0.00    -0.103 A  
HETATM    5  C   UNL     1      -5.983   8.316  63.770  1.00  0.00    -0.067 A  
HETATM    6  C   UNL     1      -6.208   7.207  64.575  1.00  0.00    -0.037 A  
HETATM    7  C   UNL     1      -6.659   7.369  65.895  1.00  0.00    -0.045 A  
HETATM    8  C   UNL     1      -6.881   8.644  66.416  1.00  0.00    -0.071 A  
HETATM    9  C   UNL     1      -7.329   8.761  67.827  1.00  0.00    -0.088 C  
HETATM   10  O   UNL     1      -7.576   9.846  68.348  1.00  0.00    -0.082 OA 
HETATM   11  C   UNL     1      -7.500   7.551  68.666  1.00  0.00    -0.101 A  
HETATM   12  C   UNL     1      -7.869   7.677  70.024  1.00  0.00    -0.101 A  
HETATM   13  O   UNL     1      -8.039   8.910  70.612  1.00  0.00    -0.111 OA 
HETATM   14  C   UNL     1      -8.122   6.552  70.836  1.00  0.00    -0.123 A  
HETATM   15  H   UNL     1      -8.287   8.994  71.524  1.00  0.00     0.000 HD 
HETATM   16  C   UNL     1      -8.022   5.270  70.260  1.00  0.00    -0.084 A  
HETATM   17  C   UNL     1      -7.588   5.149  68.921  1.00  0.00    -0.081 A  
HETATM   18  C   UNL     1      -8.372   4.029  71.062  1.00  0.00    -0.090 C  
HETATM   19  C   UNL     1      -9.180   4.276  72.348  1.00  0.00    -0.117 C  
HETATM   20  C   UNL     1      -7.331   6.282  68.119  1.00  0.00    -0.089 A  
HETATM   21  O   UNL     1      -7.444   3.908  68.362  1.00  0.00    -0.058 OA 
HETATM   22  C   UNL     1      -8.688   6.752  72.237  1.00  0.00    -0.128 C  
HETATM   23  C   UNL     1      -6.884   6.156  66.707  1.00  0.00    -0.062 C  
HETATM   24  C   UNL     1      -8.606   5.486  73.090  1.00  0.00    -0.117 C  
HETATM   25  O   UNL     1     -10.559   4.458  72.025  1.00  0.00    -0.117 OA 
HETATM   26  H   UNL     1      -7.152   3.827  67.462  1.00  0.00     0.000 HD 
HETATM   27  O   UNL     1      -6.669   5.073  66.177  1.00  0.00    -0.051 OA 
HETATM   28  H   UNL     1     -11.058   4.611  72.820  1.00  0.00     0.000 HD 
BRANCH  19  29
HETATM   29  C   UNL     1      -9.134   3.015  73.234  1.00  0.00    -0.085 C  
HETATM   30  O   UNL     1      -9.999   2.764  74.080  1.00  0.00    -0.094 OA 
BRANCH  29  31
HETATM   31  C   UNL     1      -7.945   2.071  73.059  1.00  0.00    -0.049 C  
HETATM   32  O   UNL     1      -6.848   2.483  73.864  1.00  0.00    -0.025 OA 
HETATM   33  H   UNL     1      -6.109   1.896  73.756  1.00  0.00     0.000 HD 
ENDBRANCH  29  31
ENDBRANCH  19  29
BRANCH  22  34
HETATM   34  O   UNL     1     -10.029   7.097  71.940  1.00  0.00    -0.168 OA 
BRANCH  34  35
HETATM   35  C   UNL     1     -10.637   8.277  72.424  1.00  0.00    -0.337 C  
HETATM   36  C   UNL     1     -10.560   9.549  71.573  1.00  0.00    -0.219 C  
HETATM   37  C   UNL     1     -11.382   9.461  70.279  1.00  0.00    -0.220 C  
HETATM   38  C   UNL     1     -12.778   8.843  70.517  1.00  0.00     0.491 C  
HETATM   39  N   UNL     1     -11.509  10.804  69.665  1.00  0.00    -0.278 NA 
HETATM   40  C   UNL     1     -12.645   7.587  71.388  1.00  0.00    -0.351 C  
HETATM   41  H2  UNL     1     -10.600  11.240  69.511  1.00  0.00     0.000 HD 
HETATM   42  O   UNL     1     -13.631   9.809  71.148  1.00  0.00    -0.423 OA 
HETATM   43  H1  UNL     1     -12.055  10.745  68.805  1.00  0.00     0.000 HD 
HETATM   44  C   UNL     1     -13.971   6.917  71.698  1.00  0.00    -0.298 C  
HETATM   45  H   UNL     1     -14.489   9.429  71.294  1.00  0.00     0.000 HD 
HETATM   46  O   UNL     1     -12.006   7.922  72.634  1.00  0.00    -0.327 OA 
ENDBRANCH  34  35
ENDBRANCH  22  34
ENDBRANCH   2   3
TORSDOF 5
ENDMDL
MODEL       99
REMARK 921   NORMALIZED FREE ENERGY PREDICTED BY IDOCK:   -2.68 KCAL/MOL
REMARK 922        TOTAL FREE ENERGY PREDICTED BY IDOCK:   -4.74 KCAL/MOL
REMARK 923 INTER-LIGAND FREE ENERGY PREDICTED BY IDOCK:   -3.64 KCAL/MOL
REMARK 924 INTRA-LIGAND FREE ENERGY PREDICTED BY IDOCK:   -1.11 KCAL/MOL
REMARK 927      BINDING AFFINITY PREDICTED BY RF-SCORE:    0.00 PKD
ROOT
HETATM    1  C   UNL     1      -6.478   9.938  63.414  1.00  0.00    -0.126 C  
HETATM    2  O   UNL     1      -5.378   9.183  63.908  1.00  0.00    -0.060 OA 
ENDROOT
BRANCH   2   3
HETATM    3  C   UNL     1      -5.438   7.822  63.767  1.00  0.00    -0.045 A  
HETATM    4  C   UNL     1      -5.261   7.195  62.524  1.00  0.00    -0.033 A  
HETATM    5  C   UNL     1      -5.367   5.813  62.402  1.00  0.00    -0.014 A  
HETATM    6  C   UNL     1      -5.663   5.046  63.522  1.00  0.00    -0.017 A  
HETATM    7  C   UNL     1      -5.852   5.658  64.772  1.00  0.00    -0.021 A  
HETATM    8  C   UNL     1      -5.741   7.042  64.906  1.00  0.00    -0.032 A  
HETATM    9  C   UNL     1      -5.922   7.637  66.254  1.00  0.00    -0.037 C  
HETATM   10  O   UNL     1      -5.870   8.849  66.448  1.00  0.00    -0.052 OA 
HETATM   11  C   UNL     1      -6.179   6.772  67.431  1.00  0.00    -0.040 A  
HETATM   12  C   UNL     1      -6.290   7.343  68.718  1.00  0.00    -0.036 A  
HETATM   13  O   UNL     1      -6.125   8.694  68.923  1.00  0.00    -0.043 OA 
HETATM   14  C   UNL     1      -6.615   6.569  69.851  1.00  0.00    -0.048 A  
HETATM   15  H   UNL     1      -6.200   9.077  69.788  1.00  0.00     0.000 HD 
HETATM   16  C   UNL     1      -6.855   5.191  69.680  1.00  0.00    -0.053 A  
HETATM   17  C   UNL     1      -6.678   4.616  68.402  1.00  0.00    -0.050 A  
HETATM   18  C   UNL     1      -7.298   4.329  70.848  1.00  0.00    -0.044 C  
HETATM   19  C   UNL     1      -7.823   5.094  72.076  1.00  0.00    -0.111 C  
HETATM   20  C   UNL     1      -6.346   5.399  67.275  1.00  0.00    -0.039 A  
HETATM   21  O   UNL     1      -6.865   3.272  68.230  1.00  0.00    -0.047 OA 
HETATM   22  C   UNL     1      -6.896   7.266  71.178  1.00  0.00    -0.055 C  
HETATM   23  C   UNL     1      -6.167   4.796  65.928  1.00  0.00    -0.031 C  
HETATM   24  C   UNL     1      -6.917   6.295  72.358  1.00  0.00    -0.078 C  
HETATM   25  O   UNL     1      -9.177   5.492  71.856  1.00  0.00    -0.141 OA 
HETATM   26  H   UNL     1      -6.745   2.885  67.371  1.00  0.00     0.000 HD 
HETATM   27  O   UNL     1      -6.252   3.590  65.729  1.00  0.00    -0.029 OA 
HETATM   28  H   UNL     1      -9.501   5.964  72.614  1.00  0.00     0.000 HD 
BRANCH  19  29
HETATM   29  C   UNL     1      -7.873   4.144  73.290  1.00  0.00    -0.085 C  
HETATM   30  O   UNL     1      -6.865   3.591  73.743  1.00  0.00    -0.041 OA 
BRANCH  29  31
HETATM   31  C   UNL     1      -9.238   3.870  73.917  1.00  0.00    -0.092 C  
HETATM   32  O   UNL     1     -10.094   3.204  72.999  1.00  0.00    -0.131 OA 
HETATM   33  H   UNL     1     -10.943   3.033  73.389  1.00  0.00     0.000 HD 
ENDBRANCH  29  31
ENDBRANCH  19  29
BRANCH  22  34
HETATM   34  O   UNL     1      -8.177   7.815  70.929  1.00  0.00    -0.103 OA 
BRANCH  34  35
HETATM   35  C   UNL     1      -8.444   9.199  71.021  1.00  0.00    -0.165 C  
HETATM   36  C   UNL     1      -8.925   9.942  69.771  1.00  0.00    -0.242 C  
HETATM   37  C   UNL     1     -10.339   9.534  69.331  1.00  0.00    -0.214 C  
HETATM   38  C   UNL     1     -11.315   9.435  70.526  1.00  0.00    -0.274 C  
HETATM   39  N   UNL     1     -10.854  10.487  68.321  1.00  0.00    -0.228 NA 
HETATM   40  C   UNL     1     -10.651   8.662  71.673  1.00  0.00    -0.303 C  
HETATM   41  H2  UNL     1     -10.220  10.581  67.527  1.00  0.00     0.000 HD 
HETATM   42  O   UNL     1     -11.687  10.754  70.952  1.00  0.00    -0.320 OA 
HETATM   43  H1  UNL     1     -11.792  10.215  68.028  1.00  0.00     0.000 HD 
HETATM   44  C   UNL     1     -11.525   8.532  72.907  1.00  0.00     0.091 C  
HETATM   45  H   UNL     1     -12.286  10.694  71.687  1.00  0.00     0.000 HD 
HETATM   46  O   UNL     1      -9.424   9.313  72.055  1.00  0.00    -0.246 OA 
ENDBRANCH  34  35
ENDBRANCH  22  34
ENDBRANCH   2   3
TORSDOF 5
ENDMDL
MODEL      100
REMARK 921   NORMALIZED FREE ENERGY PREDICTED BY IDOCK:   -2.65 KCAL/MOL
REMARK 922        TOTAL FREE ENERGY PREDICTED BY IDOCK:   -4.70 KCAL/MOL
REMARK 923 INTER-LIGAND FREE ENERGY PREDICTED BY IDOCK:   -5.33 KCAL/MOL
REMARK 924 INTRA-LIGAND FREE ENERGY PREDICTED BY IDOCK:    0.63 KCAL/MOL
REMARK 927      BINDING AFFINITY PREDICTED BY RF-SCORE:    0.00 PKD
ROOT
HETATM    1  C   UNL     1     -10.253   6.461  74.535  1.00  0.00    -0.288 C  
HETATM    2  O   UNL     1      -9.146   5.666  74.125  1.00  0.00    -0.122 OA 
ENDROOT
BRANCH   2   3
HETATM    3  C   UNL     1      -9.421   4.420  73.626  1.00  0.00    -0.116 A  
HETATM    4  C   UNL     1      -9.692   3.327  74.463  1.00  0.00    -0.153 A  
HETATM    5  C   UNL     1      -9.928   2.064  73.930  1.00  0.00    -0.139 A  
HETATM    6  C   UNL     1      -9.884   1.880  72.554  1.00  0.00    -0.188 A  
HETATM    7  C   UNL     1      -9.605   2.961  71.702  1.00  0.00    -0.222 A  
HETATM    8  C   UNL     1      -9.373   4.233  72.226  1.00  0.00    -0.168 A  
HETATM    9  C   UNL     1      -9.111   5.348  71.281  1.00  0.00    -0.142 C  
HETATM   10  O   UNL     1      -8.868   6.489  71.665  1.00  0.00    -0.135 OA 
HETATM   11  C   UNL     1      -9.131   5.115  69.817  1.00  0.00    -0.154 A  
HETATM   12  C   UNL     1      -8.939   6.194  68.926  1.00  0.00    -0.124 A  
HETATM   13  O   UNL     1      -8.772   7.482  69.381  1.00  0.00    -0.136 OA 
HETATM   14  C   UNL     1      -8.869   6.005  67.530  1.00  0.00    -0.109 A  
HETATM   15  H   UNL     1      -8.643   8.207  68.781  1.00  0.00     0.000 HD 
HETATM   16  C   UNL     1      -8.972   4.695  67.022  1.00  0.00    -0.115 A  
HETATM   17  C   UNL     1      -9.230   3.630  67.913  1.00  0.00    -0.176 A  
HETATM   18  C   UNL     1      -8.812   4.423  65.536  1.00  0.00    -0.127 C  
HETATM   19  C   UNL     1      -8.169   5.558  64.720  1.00  0.00    -0.133 C  
HETATM   20  C   UNL     1      -9.305   3.831  69.308  1.00  0.00    -0.244 A  
HETATM   21  O   UNL     1      -9.376   2.358  67.429  1.00  0.00    -0.292 OA 
HETATM   22  C   UNL     1      -8.483   7.177  66.634  1.00  0.00    -0.121 C  
HETATM   23  C   UNL     1      -9.567   2.709  70.247  1.00  0.00    -0.044 C  
HETATM   24  C   UNL     1      -8.759   6.902  65.156  1.00  0.00     0.133 C  
HETATM   25  O   UNL     1      -6.750   5.526  64.880  1.00  0.00    -0.042 OA 
HETATM   26  H   UNL     1      -9.550   1.642  68.028  1.00  0.00     0.000 HD 
HETATM   27  O   UNL     1      -9.777   1.564  69.866  1.00  0.00    -0.054 OA 
HETATM   28  H   UNL     1      -6.353   6.227  64.376  1.00  0.00     0.000 HD 
BRANCH  19  29
HETATM   29  C   UNL     1      -8.413   5.312  63.217  1.00  0.00    -0.096 C  
HETATM   30  O   UNL     1      -8.652   6.228  62.424  1.00  0.00    -0.044 OA 
BRANCH  29  31
HETATM   31  C   UNL     1      -8.381   3.867  62.725  1.00  0.00    -0.082 C  
HETATM   32  O   UNL     1      -7.080   3.310  62.867  1.00  0.00    -0.044 OA 
HETATM   33  H   UNL     1      -7.061   2.411  62.561  1.00  0.00     0.000 HD 
ENDBRANCH  29  31
ENDBRANCH  19  29
BRANCH  22  34
HETATM   34  O   UNL     1      -7.096   7.275  66.899  1.00  0.00    -0.081 OA 
BRANCH  34  35
HETATM   35  C   UNL     1      -6.501   8.443  67.425  1.00  0.00    -0.058 C  
HETATM   36  C   UNL     1      -5.575   9.268  66.526  1.00  0.00    -0.053 C  
HETATM   37  C   UNL     1      -6.313   9.965  65.374  1.00  0.00    -0.089 C  
HETATM   38  C   UNL     1      -7.630  10.625  65.842  1.00  0.00    -0.138 C  
HETATM   39  N   UNL     1      -5.429  10.969  64.737  1.00  0.00    -0.479 NA 
HETATM   40  C   UNL     1      -8.411   9.647  66.728  1.00  0.00    -0.127 C  
HETATM   41  H2  UNL     1      -4.546  10.561  64.432  1.00  0.00     0.000 HD 
HETATM   42  O   UNL     1      -7.334  11.833  66.557  1.00  0.00    -0.349 OA 
HETATM   43  H1  UNL     1      -5.919  11.432  63.972  1.00  0.00     0.000 HD 
HETATM   44  C   UNL     1      -9.716  10.214  67.259  1.00  0.00    -0.203 C  
HETATM   45  H   UNL     1      -8.144  12.239  66.845  1.00  0.00     0.000 HD 
HETATM   46  O   UNL     1      -7.601   9.251  67.851  1.00  0.00    -0.084 OA 
ENDBRANCH  34  35
ENDBRANCH  22  34
ENDBRANCH   2   3
TORSDOF 5
ENDMDL
MODEL      101
REMARK 921   NORMALIZED FREE ENERGY PREDICTED BY IDOCK:   -2.57 KCAL/MOL
REMARK 922        TOTAL FREE ENERGY PREDICTED BY IDOCK:   -4.60 KCAL/MOL
REMARK 923 INTER-LIGAND FREE ENERGY PREDICTED BY IDOCK:   -6.16 KCAL/MOL
REMARK 924 INTRA-LIGAND FREE ENERGY PREDICTED BY IDOCK:    1.56 KCAL/MOL
REMARK 927      BINDING AFFINITY PREDICTED BY RF-SCORE:    0.00 PKD
ROOT
HETATM    1  C   UNL     1     -12.087  16.205  69.498  1.00  0.00     0.044 C  
HETATM    2  O   UNL     1     -11.954  15.836  70.866  1.00  0.00    -0.354 OA 
ENDROOT
BRANCH   2   3
HETATM    3  C   UNL     1     -12.663  14.743  71.291  1.00  0.00    -0.336 A  
HETATM    4  C   UNL     1     -13.709  14.851  72.219  1.00  0.00    -0.564 A  
HETATM    5  C   UNL     1     -14.386  13.718  72.663  1.00  0.00    -0.004 A  
HETATM    6  C   UNL     1     -14.013  12.466  72.191  1.00  0.00     0.076 A  
HETATM    7  C   UNL     1     -12.962  12.341  71.268  1.00  0.00    -0.299 A  
HETATM    8  C   UNL     1     -12.282  13.470  70.812  1.00  0.00    -0.417 A  
HETATM    9  C   UNL     1     -11.197  13.285  69.815  1.00  0.00     0.039 C  
HETATM   10  O   UNL     1     -10.532  14.225  69.387  1.00  0.00    -0.160 OA 
HETATM   11  C   UNL     1     -10.873  11.934  69.295  1.00  0.00    -0.157 A  
HETATM   12  C   UNL     1      -9.880  11.776  68.304  1.00  0.00    -0.198 A  
HETATM   13  O   UNL     1      -9.221  12.859  67.766  1.00  0.00    -0.184 OA 
HETATM   14  C   UNL     1      -9.483  10.505  67.841  1.00  0.00    -0.157 A  
HETATM   15  H   UNL     1      -8.553  12.752  67.100  1.00  0.00     0.000 HD 
HETATM   16  C   UNL     1     -10.086   9.364  68.408  1.00  0.00    -0.208 A  
HETATM   17  C   UNL     1     -11.124   9.531  69.351  1.00  0.00    -0.110 A  
HETATM   18  C   UNL     1      -9.632   7.969  68.014  1.00  0.00    -0.170 C  
HETATM   19  C   UNL     1      -8.275   7.892  67.293  1.00  0.00    -0.122 C  
HETATM   20  C   UNL     1     -11.518  10.809  69.802  1.00  0.00    -0.386 A  
HETATM   21  O   UNL     1     -11.748   8.433  69.877  1.00  0.00    -0.422 OA 
HETATM   22  C   UNL     1      -8.286  10.388  66.904  1.00  0.00    -0.124 C  
HETATM   23  C   UNL     1     -12.605  10.986  70.801  1.00  0.00    -0.369 C  
HETATM   24  C   UNL     1      -8.183   9.010  66.251  1.00  0.00    -0.115 C  
HETATM   25  O   UNL     1      -7.215   7.969  68.247  1.00  0.00    -0.088 OA 
HETATM   26  H   UNL     1     -12.447   8.545  70.510  1.00  0.00     0.000 HD 
HETATM   27  O   UNL     1     -13.246  10.045  71.252  1.00  0.00    -0.381 OA 
HETATM   28  H   UNL     1      -6.376   7.921  67.802  1.00  0.00     0.000 HD 
BRANCH  19  29
HETATM   29  C   UNL     1      -8.124   6.508  66.630  1.00  0.00    -0.110 C  
HETATM   30  O   UNL     1      -9.023   5.990  65.960  1.00  0.00    -0.151 OA 
BRANCH  29  31
HETATM   31  C   UNL     1      -6.812   5.757  66.853  1.00  0.00    -0.063 C  
HETATM   32  O   UNL     1      -5.721   6.459  66.272  1.00  0.00    -0.013 OA 
HETATM   33  H   UNL     1      -4.906   5.993  66.411  1.00  0.00     0.000 HD 
ENDBRANCH  29  31
ENDBRANCH  19  29
BRANCH  22  34
HETATM   34  O   UNL     1      -7.216  10.625  67.801  1.00  0.00    -0.086 OA 
BRANCH  34  35
HETATM   35  C   UNL     1      -6.178  11.542  67.524  1.00  0.00    -0.075 C  
HETATM   36  C   UNL     1      -6.545  12.984  67.162  1.00  0.00     0.178 C  
HETATM   37  C   UNL     1      -7.145  13.769  68.337  1.00  0.00    -0.105 C  
HETATM   38  C   UNL     1      -6.364  13.537  69.651  1.00  0.00    -0.105 C  
HETATM   39  N   UNL     1      -7.194  15.214  68.013  1.00  0.00    -0.116 NA 
HETATM   40  C   UNL     1      -6.092  12.038  69.832  1.00  0.00    -0.150 C  
HETATM   41  H2  UNL     1      -7.692  15.392  67.142  1.00  0.00     0.000 HD 
HETATM   42  O   UNL     1      -5.134  14.276  69.616  1.00  0.00    -0.091 OA 
HETATM   43  H1  UNL     1      -7.593  15.735  68.794  1.00  0.00     0.000 HD 
HETATM   44  C   UNL     1      -5.306  11.709  71.088  1.00  0.00    -0.061 C  
HETATM   45  H   UNL     1      -4.654  14.133  70.423  1.00  0.00     0.000 HD 
HETATM   46  O   UNL     1      -5.362  11.534  68.698  1.00  0.00    -0.043 OA 
ENDBRANCH  34  35
ENDBRANCH  22  34
ENDBRANCH   2   3
TORSDOF 5
ENDMDL
MODEL      102
REMARK 921   NORMALIZED FREE ENERGY PREDICTED BY IDOCK:   -2.57 KCAL/MOL
REMARK 922        TOTAL FREE ENERGY PREDICTED BY IDOCK:   -4.60 KCAL/MOL
REMARK 923 INTER-LIGAND FREE ENERGY PREDICTED BY IDOCK:   -3.97 KCAL/MOL
REMARK 924 INTRA-LIGAND FREE ENERGY PREDICTED BY IDOCK:   -0.63 KCAL/MOL
REMARK 927      BINDING AFFINITY PREDICTED BY RF-SCORE:    0.00 PKD
ROOT
HETATM    1  C   UNL     1      -5.325   7.463  63.412  1.00  0.00    -0.034 C  
HETATM    2  O   UNL     1      -6.715   7.313  63.677  1.00  0.00    -0.050 OA 
ENDROOT
BRANCH   2   3
HETATM    3  C   UNL     1      -7.233   6.047  63.602  1.00  0.00    -0.060 A  
HETATM    4  C   UNL     1      -7.341   5.358  62.384  1.00  0.00    -0.046 A  
HETATM    5  C   UNL     1      -7.908   4.088  62.332  1.00  0.00    -0.061 A  
HETATM    6  C   UNL     1      -8.383   3.500  63.497  1.00  0.00    -0.090 A  
HETATM    7  C   UNL     1      -8.291   4.180  64.723  1.00  0.00    -0.103 A  
HETATM    8  C   UNL     1      -7.719   5.449  64.787  1.00  0.00    -0.090 A  
HETATM    9  C   UNL     1      -7.619   6.113  66.112  1.00  0.00    -0.090 C  
HETATM   10  O   UNL     1      -7.156   7.242  66.247  1.00  0.00    -0.073 OA 
HETATM   11  C   UNL     1      -8.088   5.422  67.338  1.00  0.00    -0.101 A  
HETATM   12  C   UNL     1      -7.935   6.037  68.600  1.00  0.00    -0.104 A  
HETATM   13  O   UNL     1      -7.318   7.259  68.735  1.00  0.00    -0.090 OA 
HETATM   14  C   UNL     1      -8.439   5.452  69.780  1.00  0.00    -0.100 A  
HETATM   15  H   UNL     1      -7.215   7.673  69.583  1.00  0.00     0.000 HD 
HETATM   16  C   UNL     1      -9.134   4.230  69.684  1.00  0.00    -0.179 A  
HETATM   17  C   UNL     1      -9.225   3.589  68.428  1.00  0.00    -0.168 A  
HETATM   18  C   UNL     1      -9.777   3.603  70.908  1.00  0.00    -0.229 C  
HETATM   19  C   UNL     1      -9.951   4.538  72.118  1.00  0.00    -0.183 C  
HETATM   20  C   UNL     1      -8.711   4.179  67.254  1.00  0.00    -0.113 A  
HETATM   21  O   UNL     1      -9.859   2.380  68.327  1.00  0.00    -0.164 OA 
HETATM   22  C   UNL     1      -8.402   6.244  71.083  1.00  0.00    -0.124 C  
HETATM   23  C   UNL     1      -8.815   3.509  65.931  1.00  0.00    -0.128 C  
HETATM   24  C   UNL     1      -8.683   5.373  72.307  1.00  0.00    -0.129 C  
HETATM   25  O   UNL     1     -11.104   5.360  71.932  1.00  0.00    -0.207 OA 
HETATM   26  H   UNL     1      -9.920   1.949  67.483  1.00  0.00     0.000 HD 
HETATM   27  O   UNL     1      -9.307   2.396  65.792  1.00  0.00    -0.087 OA 
HETATM   28  H   UNL     1     -11.212   5.937  72.679  1.00  0.00     0.000 HD 
BRANCH  19  29
HETATM   29  C   UNL     1     -10.250   3.698  73.376  1.00  0.00    -0.148 C  
HETATM   30  O   UNL     1     -11.401   3.456  73.755  1.00  0.00    -0.198 OA 
BRANCH  29  31
HETATM   31  C   UNL     1      -9.059   3.185  74.183  1.00  0.00    -0.082 C  
HETATM   32  O   UNL     1      -8.466   2.058  73.550  1.00  0.00    -0.057 OA 
HETATM   33  H   UNL     1      -7.725   1.739  74.051  1.00  0.00     0.000 HD 
ENDBRANCH  29  31
ENDBRANCH  19  29
BRANCH  22  34
HETATM   34  O   UNL     1      -9.438   7.183  70.858  1.00  0.00    -0.160 OA 
BRANCH  34  35
HETATM   35  C   UNL     1      -9.457   8.457  71.468  1.00  0.00    -0.203 C  
HETATM   36  C   UNL     1      -8.125   9.119  71.834  1.00  0.00     0.345 C  
HETATM   37  C   UNL     1      -7.301   9.539  70.608  1.00  0.00    -0.120 C  
HETATM   38  C   UNL     1      -8.170  10.226  69.530  1.00  0.00    -0.155 C  
HETATM   39  N   UNL     1      -6.191  10.429  71.020  1.00  0.00    -0.335 NA 
HETATM   40  C   UNL     1      -9.454   9.416  69.309  1.00  0.00    -0.164 C  
HETATM   41  H2  UNL     1      -5.610  10.004  71.743  1.00  0.00     0.000 HD 
HETATM   42  O   UNL     1      -8.479  11.565  69.943  1.00  0.00     0.542 OA 
HETATM   43  H1  UNL     1      -5.643  10.707  70.206  1.00  0.00     0.000 HD 
HETATM   44  C   UNL     1     -10.390  10.025  68.280  1.00  0.00    -0.224 C  
HETATM   45  H   UNL     1      -9.014  11.987  69.281  1.00  0.00     0.000 HD 
HETATM   46  O   UNL     1     -10.172   9.289  70.551  1.00  0.00    -0.213 OA 
ENDBRANCH  34  35
ENDBRANCH  22  34
ENDBRANCH   2   3
TORSDOF 5
ENDMDL
MODEL      103
REMARK 921   NORMALIZED FREE ENERGY PREDICTED BY IDOCK:   -2.55 KCAL/MOL
REMARK 922        TOTAL FREE ENERGY PREDICTED BY IDOCK:   -4.58 KCAL/MOL
REMARK 923 INTER-LIGAND FREE ENERGY PREDICTED BY IDOCK:   -7.24 KCAL/MOL
REMARK 924 INTRA-LIGAND FREE ENERGY PREDICTED BY IDOCK:    2.67 KCAL/MOL
REMARK 927      BINDING AFFINITY PREDICTED BY RF-SCORE:    0.00 PKD
ROOT
HETATM    1  C   UNL     1     -10.185  20.271  69.992  1.00  0.00     0.610 C  
HETATM    2  O   UNL     1      -9.379  19.578  69.046  1.00  0.00    -0.377 OA 
ENDROOT
BRANCH   2   3
HETATM    3  C   UNL     1      -9.871  19.460  67.772  1.00  0.00    -0.347 A  
HETATM    4  C   UNL     1     -10.328  20.570  67.045  1.00  0.00    -0.189 A  
HETATM    5  C   UNL     1     -10.859  20.414  65.769  1.00  0.00     0.178 A  
HETATM    6  C   UNL     1     -10.950  19.145  65.212  1.00  0.00     0.466 A  
HETATM    7  C   UNL     1     -10.506  18.023  65.930  1.00  0.00    -0.268 A  
HETATM    8  C   UNL     1      -9.965  18.168  67.207  1.00  0.00    -0.336 A  
HETATM    9  C   UNL     1      -9.484  16.953  67.912  1.00  0.00    -0.239 C  
HETATM   10  O   UNL     1      -9.024  16.994  69.050  1.00  0.00    -0.238 OA 
HETATM   11  C   UNL     1      -9.547  15.626  67.255  1.00  0.00    -0.220 A  
HETATM   12  C   UNL     1      -9.033  14.485  67.910  1.00  0.00    -0.187 A  
HETATM   13  O   UNL     1      -8.428  14.576  69.143  1.00  0.00    -0.322 OA 
HETATM   14  C   UNL     1      -9.146  13.193  67.358  1.00  0.00    -0.208 A  
HETATM   15  H   UNL     1      -8.082  13.809  69.584  1.00  0.00     0.000 HD 
HETATM   16  C   UNL     1      -9.814  13.043  66.126  1.00  0.00    -0.275 A  
HETATM   17  C   UNL     1     -10.268  14.194  65.445  1.00  0.00    -0.358 A  
HETATM   18  C   UNL     1     -10.046  11.665  65.530  1.00  0.00    -0.285 C  
HETATM   19  C   UNL     1      -9.865  10.484  66.500  1.00  0.00    -0.206 C  
HETATM   20  C   UNL     1     -10.143  15.485  66.004  1.00  0.00    -0.354 A  
HETATM   21  O   UNL     1     -10.879  14.068  64.227  1.00  0.00    -0.594 OA 
HETATM   22  C   UNL     1      -8.734  11.984  68.190  1.00  0.00    -0.177 C  
HETATM   23  C   UNL     1     -10.628  16.696  65.292  1.00  0.00    -0.205 C  
HETATM   24  C   UNL     1      -8.615  10.709  67.355  1.00  0.00    -0.122 C  
HETATM   25  O   UNL     1     -11.036  10.335  67.304  1.00  0.00    -0.264 OA 
HETATM   26  H   UNL     1     -11.183  14.842  63.769  1.00  0.00     0.000 HD 
HETATM   27  O   UNL     1     -11.117  16.651  64.170  1.00  0.00    -1.005 OA 
HETATM   28  H   UNL     1     -10.925   9.606  67.903  1.00  0.00     0.000 HD 
BRANCH  19  29
HETATM   29  C   UNL     1      -9.755   9.173  65.697  1.00  0.00    -0.177 C  
HETATM   30  O   UNL     1      -9.644   9.154  64.467  1.00  0.00     0.194 OA 
BRANCH  29  31
HETATM   31  C   UNL     1      -9.819   7.860  66.476  1.00  0.00    -0.202 C  
HETATM   32  O   UNL     1     -11.154   7.569  66.870  1.00  0.00    -0.501 OA 
HETATM   33  H   UNL     1     -11.194   6.753  67.353  1.00  0.00     0.000 HD 
ENDBRANCH  29  31
ENDBRANCH  19  29
BRANCH  22  34
HETATM   34  O   UNL     1      -9.807  11.910  69.111  1.00  0.00     0.055 OA 
BRANCH  34  35
HETATM   35  C   UNL     1     -11.159  12.015  68.715  1.00  0.00    -0.249 C  
HETATM   36  C   UNL     1     -12.181  11.047  69.318  1.00  0.00    -0.280 C  
HETATM   37  C   UNL     1     -12.431  11.286  70.814  1.00  0.00    -0.376 C  
HETATM   38  C   UNL     1     -12.584  12.788  71.146  1.00  0.00    -0.271 C  
HETATM   39  N   UNL     1     -13.628  10.534  71.257  1.00  0.00    -0.043 NA 
HETATM   40  C   UNL     1     -11.474  13.586  70.451  1.00  0.00     0.143 C  
HETATM   41  H2  UNL     1     -13.558   9.541  71.036  1.00  0.00     0.000 HD 
HETATM   42  O   UNL     1     -13.878  13.244  70.724  1.00  0.00     0.609 OA 
HETATM   43  H1  UNL     1     -13.793  10.693  72.251  1.00  0.00     0.000 HD 
HETATM   44  C   UNL     1     -11.552  15.082  70.698  1.00  0.00    -0.358 C  
HETATM   45  H   UNL     1     -13.972  14.167  70.928  1.00  0.00     0.000 HD 
HETATM   46  O   UNL     1     -11.526  13.361  69.030  1.00  0.00    -0.263 OA 
ENDBRANCH  34  35
ENDBRANCH  22  34
ENDBRANCH   2   3
TORSDOF 5
ENDMDL
MODEL      104
REMARK 921   NORMALIZED FREE ENERGY PREDICTED BY IDOCK:   -2.46 KCAL/MOL
REMARK 922        TOTAL FREE ENERGY PREDICTED BY IDOCK:   -4.46 KCAL/MOL
REMARK 923 INTER-LIGAND FREE ENERGY PREDICTED BY IDOCK:   -6.12 KCAL/MOL
REMARK 924 INTRA-LIGAND FREE ENERGY PREDICTED BY IDOCK:    1.66 KCAL/MOL
REMARK 927      BINDING AFFINITY PREDICTED BY RF-SCORE:    0.00 PKD
ROOT
HETATM    1  C   UNL     1     -12.905   9.332  72.759  1.00  0.00     0.005 C  
HETATM    2  O   UNL     1     -12.764   9.285  71.343  1.00  0.00    -0.315 OA 
ENDROOT
BRANCH   2   3
HETATM    3  C   UNL     1     -12.332  10.426  70.720  1.00  0.00    -0.367 A  
HETATM    4  C   UNL     1     -12.788  11.698  71.098  1.00  0.00    -0.392 A  
HETATM    5  C   UNL     1     -12.363  12.837  70.421  1.00  0.00    -0.324 A  
HETATM    6  C   UNL     1     -11.487  12.712  69.350  1.00  0.00    -0.330 A  
HETATM    7  C   UNL     1     -11.029  11.445  68.952  1.00  0.00    -0.276 A  
HETATM    8  C   UNL     1     -11.443  10.298  69.629  1.00  0.00    -0.297 A  
HETATM    9  C   UNL     1     -10.908   8.986  69.187  1.00  0.00    -0.089 C  
HETATM   10  O   UNL     1     -11.247   7.929  69.711  1.00  0.00    -0.143 OA 
HETATM   11  C   UNL     1      -9.929   8.908  68.075  1.00  0.00    -0.215 A  
HETATM   12  C   UNL     1      -9.381   7.661  67.701  1.00  0.00    -0.142 A  
HETATM   13  O   UNL     1      -9.700   6.503  68.374  1.00  0.00    -0.131 OA 
HETATM   14  C   UNL     1      -8.511   7.529  66.598  1.00  0.00    -0.130 A  
HETATM   15  H   UNL     1      -9.331   5.665  68.122  1.00  0.00     0.000 HD 
HETATM   16  C   UNL     1      -8.205   8.677  65.841  1.00  0.00    -0.123 A  
HETATM   17  C   UNL     1      -8.704   9.931  66.260  1.00  0.00    -0.139 A  
HETATM   18  C   UNL     1      -7.349   8.578  64.591  1.00  0.00    -0.092 C  
HETATM   19  C   UNL     1      -7.178   7.161  64.015  1.00  0.00    -0.070 C  
HETATM   20  C   UNL     1      -9.569  10.052  67.369  1.00  0.00    -0.182 A  
HETATM   21  O   UNL     1      -8.380  11.060  65.559  1.00  0.00    -0.306 OA 
HETATM   22  C   UNL     1      -8.094   6.138  66.136  1.00  0.00    -0.115 C  
HETATM   23  C   UNL     1     -10.102  11.370  67.805  1.00  0.00    -0.181 C  
HETATM   24  C   UNL     1      -6.922   6.171  65.155  1.00  0.00    -0.056 C  
HETATM   25  O   UNL     1      -8.333   6.805  63.254  1.00  0.00    -0.327 OA 
HETATM   26  H   UNL     1      -8.715  11.903  65.841  1.00  0.00     0.000 HD 
HETATM   27  O   UNL     1      -9.788  12.421  67.261  1.00  0.00    -0.203 OA 
HETATM   28  H   UNL     1      -8.227   5.930  62.899  1.00  0.00     0.000 HD 
BRANCH  19  29
HETATM   29  C   UNL     1      -6.011   7.153  63.008  1.00  0.00    -0.041 C  
HETATM   30  O   UNL     1      -5.473   8.191  62.606  1.00  0.00    -0.066 OA 
BRANCH  29  31
HETATM   31  C   UNL     1      -5.542   5.799  62.479  1.00  0.00    -0.014 C  
HETATM   32  O   UNL     1      -6.571   4.824  62.599  1.00  0.00    -0.025 OA 
HETATM   33  H   UNL     1      -6.280   3.983  62.270  1.00  0.00     0.000 HD 
ENDBRANCH  29  31
ENDBRANCH  19  29
BRANCH  22  34
HETATM   34  O   UNL     1      -9.286   5.691  65.514  1.00  0.00    -0.118 OA 
BRANCH  34  35
HETATM   35  C   UNL     1      -9.637   4.325  65.433  1.00  0.00    -0.187 C  
HETATM   36  C   UNL     1      -8.778   3.392  64.576  1.00  0.00    -0.101 C  
HETATM   37  C   UNL     1      -7.372   3.164  65.153  1.00  0.00    -0.071 C  
HETATM   38  C   UNL     1      -7.403   2.910  66.677  1.00  0.00    -0.070 C  
HETATM   39  N   UNL     1      -6.712   2.036  64.455  1.00  0.00    -0.026 NA 
HETATM   40  C   UNL     1      -8.315   3.942  67.354  1.00  0.00    -0.098 C  
HETATM   41  H2  UNL     1      -6.692   2.172  63.444  1.00  0.00     0.000 HD 
HETATM   42  O   UNL     1      -7.866   1.577  66.934  1.00  0.00    -0.063 OA 
HETATM   43  H1  UNL     1      -5.779   1.885  64.837  1.00  0.00     0.000 HD 
HETATM   44  C   UNL     1      -8.430   3.761  68.857  1.00  0.00    -0.101 C  
HETATM   45  H   UNL     1      -7.885   1.421  67.871  1.00  0.00     0.000 HD 
HETATM   46  O   UNL     1      -9.638   3.869  66.789  1.00  0.00    -0.198 OA 
ENDBRANCH  34  35
ENDBRANCH  22  34
ENDBRANCH   2   3
TORSDOF 5
ENDMDL
MODEL      105
REMARK 921   NORMALIZED FREE ENERGY PREDICTED BY IDOCK:   -2.45 KCAL/MOL
REMARK 922        TOTAL FREE ENERGY PREDICTED BY IDOCK:   -4.45 KCAL/MOL
REMARK 923 INTER-LIGAND FREE ENERGY PREDICTED BY IDOCK:   -3.52 KCAL/MOL
REMARK 924 INTRA-LIGAND FREE ENERGY PREDICTED BY IDOCK:   -0.93 KCAL/MOL
REMARK 927      BINDING AFFINITY PREDICTED BY RF-SCORE:    0.00 PKD
ROOT
HETATM    1  C   UNL     1      -5.143  13.628  72.117  1.00  0.00    -0.176 C  
HETATM    2  O   UNL     1      -6.322  13.328  71.378  1.00  0.00     0.179 OA 
ENDROOT
BRANCH   2   3
HETATM    3  C   UNL     1      -6.190  13.175  70.023  1.00  0.00    -0.073 A  
HETATM    4  C   UNL     1      -6.119  14.274  69.155  1.00  0.00    -0.095 A  
HETATM    5  C   UNL     1      -6.025  14.089  67.778  1.00  0.00    -0.115 A  
HETATM    6  C   UNL     1      -6.014  12.801  67.258  1.00  0.00    -0.031 A  
HETATM    7  C   UNL     1      -6.093  11.690  68.114  1.00  0.00    -0.046 A  
HETATM    8  C   UNL     1      -6.181  11.864  69.494  1.00  0.00    -0.117 A  
HETATM    9  C   UNL     1      -6.234  10.657  70.356  1.00  0.00    -0.129 C  
HETATM   10  O   UNL     1      -6.342  10.727  71.578  1.00  0.00     0.059 OA 
HETATM   11  C   UNL     1      -6.160   9.301  69.760  1.00  0.00    -0.039 A  
HETATM   12  C   UNL     1      -6.152   8.160  70.592  1.00  0.00    -0.032 A  
HETATM   13  O   UNL     1      -6.169   8.270  71.964  1.00  0.00    -0.048 OA 
HETATM   14  C   UNL     1      -6.165   6.852  70.065  1.00  0.00    -0.031 A  
HETATM   15  H   UNL     1      -6.163   7.503  72.523  1.00  0.00     0.000 HD 
HETATM   16  C   UNL     1      -6.211   6.690  68.666  1.00  0.00    -0.027 A  
HETATM   17  C   UNL     1      -6.152   7.834  67.839  1.00  0.00    -0.045 A  
HETATM   18  C   UNL     1      -6.320   5.308  68.047  1.00  0.00    -0.039 C  
HETATM   19  C   UNL     1      -6.754   4.184  69.006  1.00  0.00    -0.046 C  
HETATM   20  C   UNL     1      -6.132   9.139  68.377  1.00  0.00    -0.045 A  
HETATM   21  O   UNL     1      -6.152   7.689  66.478  1.00  0.00    -0.042 OA 
HETATM   22  C   UNL     1      -6.335   5.667  71.008  1.00  0.00    -0.035 C  
HETATM   23  C   UNL     1      -6.080  10.343  67.507  1.00  0.00    -0.053 C  
HETATM   24  C   UNL     1      -6.014   4.331  70.337  1.00  0.00    -0.017 C  
HETATM   25  O   UNL     1      -8.171   4.219  69.181  1.00  0.00    -0.070 OA 
HETATM   26  H   UNL     1      -6.112   8.458  65.922  1.00  0.00     0.000 HD 
HETATM   27  O   UNL     1      -6.005  10.273  66.287  1.00  0.00    -0.061 OA 
HETATM   28  H   UNL     1      -8.439   3.525  69.772  1.00  0.00     0.000 HD 
BRANCH  19  29
HETATM   29  C   UNL     1      -6.459   2.816  68.360  1.00  0.00    -0.029 C  
HETATM   30  O   UNL     1      -6.604   1.749  68.966  1.00  0.00    -0.029 OA 
BRANCH  29  31
HETATM   31  C   UNL     1      -5.939   2.810  66.924  1.00  0.00    -0.024 C  
HETATM   32  O   UNL     1      -6.233   1.575  66.283  1.00  0.00    -0.019 OA 
HETATM   33  H   UNL     1      -5.910   1.572  65.390  1.00  0.00     0.000 HD 
ENDBRANCH  29  31
ENDBRANCH  19  29
BRANCH  22  34
HETATM   34  O   UNL     1      -7.710   5.773  71.331  1.00  0.00    -0.102 OA 
BRANCH  34  35
HETATM   35  C   UNL     1      -8.179   5.814  72.663  1.00  0.00    -0.112 C  
HETATM   36  C   UNL     1      -9.205   6.882  73.052  1.00  0.00    -0.153 C  
HETATM   37  C   UNL     1     -10.580   6.665  72.402  1.00  0.00    -0.214 C  
HETATM   38  C   UNL     1     -11.026   5.186  72.466  1.00  0.00    -0.215 C  
HETATM   39  N   UNL     1     -11.590   7.537  73.044  1.00  0.00    -0.612 NA 
HETATM   40  C   UNL     1      -9.864   4.277  72.046  1.00  0.00    -0.175 C  
HETATM   41  H2  UNL     1     -11.312   8.518  73.028  1.00  0.00     0.000 HD 
HETATM   42  O   UNL     1     -11.460   4.872  73.797  1.00  0.00    -0.398 OA 
HETATM   43  H1  UNL     1     -12.503   7.393  72.612  1.00  0.00     0.000 HD 
HETATM   44  C   UNL     1     -10.197   2.797  72.098  1.00  0.00    -0.158 C  
HETATM   45  H   UNL     1     -11.734   3.963  73.837  1.00  0.00     0.000 HD 
HETATM   46  O   UNL     1      -8.726   4.514  72.896  1.00  0.00    -0.111 OA 
ENDBRANCH  34  35
ENDBRANCH  22  34
ENDBRANCH   2   3
TORSDOF 5
ENDMDL
MODEL      106
REMARK 921   NORMALIZED FREE ENERGY PREDICTED BY IDOCK:   -2.26 KCAL/MOL
REMARK 922        TOTAL FREE ENERGY PREDICTED BY IDOCK:   -4.20 KCAL/MOL
REMARK 923 INTER-LIGAND FREE ENERGY PREDICTED BY IDOCK:   -7.23 KCAL/MOL
REMARK 924 INTRA-LIGAND FREE ENERGY PREDICTED BY IDOCK:    3.03 KCAL/MOL
REMARK 927      BINDING AFFINITY PREDICTED BY RF-SCORE:    0.00 PKD
ROOT
HETATM    1  C   UNL     1      -9.208   2.623  67.885  1.00  0.00    -0.205 C  
HETATM    2  O   UNL     1      -8.734   3.521  66.888  1.00  0.00    -0.107 OA 
ENDROOT
BRANCH   2   3
HETATM    3  C   UNL     1      -7.541   4.150  67.127  1.00  0.00    -0.077 A  
HETATM    4  C   UNL     1      -6.340   3.438  67.264  1.00  0.00    -0.036 A  
HETATM    5  C   UNL     1      -5.148   4.100  67.546  1.00  0.00    -0.011 A  
HETATM    6  C   UNL     1      -5.151   5.480  67.706  1.00  0.00    -0.004 A  
HETATM    7  C   UNL     1      -6.346   6.206  67.582  1.00  0.00    -0.041 A  
HETATM    8  C   UNL     1      -7.544   5.553  67.292  1.00  0.00    -0.089 A  
HETATM    9  C   UNL     1      -8.775   6.370  67.142  1.00  0.00    -0.110 C  
HETATM   10  O   UNL     1      -9.873   5.868  66.917  1.00  0.00    -0.136 OA 
HETATM   11  C   UNL     1      -8.718   7.847  67.264  1.00  0.00    -0.131 A  
HETATM   12  C   UNL     1      -9.883   8.620  67.061  1.00  0.00    -0.220 A  
HETATM   13  O   UNL     1     -11.079   8.039  66.708  1.00  0.00    -0.265 OA 
HETATM   14  C   UNL     1      -9.892  10.018  67.247  1.00  0.00    -0.225 A  
HETATM   15  H   UNL     1     -11.862   8.558  66.571  1.00  0.00     0.000 HD 
HETATM   16  C   UNL     1      -8.706  10.649  67.670  1.00  0.00    -0.121 A  
HETATM   17  C   UNL     1      -7.529   9.880  67.807  1.00  0.00    -0.090 A  
HETATM   18  C   UNL     1      -8.683  12.137  67.974  1.00  0.00    -0.180 C  
HETATM   19  C   UNL     1     -10.061  12.796  68.163  1.00  0.00    -0.239 C  
HETATM   20  C   UNL     1      -7.528   8.482  67.611  1.00  0.00    -0.094 A  
HETATM   21  O   UNL     1      -6.359  10.487  68.174  1.00  0.00    -0.057 OA 
HETATM   22  C   UNL     1     -11.216  10.772  67.188  1.00  0.00    -0.147 C  
HETATM   23  C   UNL     1      -6.292   7.671  67.764  1.00  0.00    -0.050 C  
HETATM   24  C   UNL     1     -11.025  12.286  67.090  1.00  0.00    -0.308 C  
HETATM   25  O   UNL     1     -10.546  12.533  69.481  1.00  0.00    -0.419 OA 
HETATM   26  H   UNL     1      -5.567   9.971  68.265  1.00  0.00     0.000 HD 
HETATM   27  O   UNL     1      -5.203   8.169  68.021  1.00  0.00    -0.031 OA 
HETATM   28  H   UNL     1     -11.397  12.940  69.598  1.00  0.00     0.000 HD 
BRANCH  19  29
HETATM   29  C   UNL     1      -9.911  14.329  68.086  1.00  0.00    -0.230 C  
HETATM   30  O   UNL     1      -9.343  14.894  67.145  1.00  0.00    -0.204 OA 
BRANCH  29  31
HETATM   31  C   UNL     1     -10.469  15.153  69.244  1.00  0.00    -0.260 C  
HETATM   32  O   UNL     1     -11.865  15.372  69.085  1.00  0.00    -0.330 OA 
HETATM   33  H   UNL     1     -12.212  15.884  69.805  1.00  0.00     0.000 HD 
ENDBRANCH  29  31
ENDBRANCH  19  29
BRANCH  22  34
HETATM   34  O   UNL     1     -11.797  10.395  68.423  1.00  0.00    -0.304 OA 
BRANCH  34  35
HETATM   35  C   UNL     1     -11.173  10.641  69.665  1.00  0.00    -0.289 C  
HETATM   36  C   UNL     1     -12.036  11.083  70.850  1.00  0.00    -0.444 C  
HETATM   37  C   UNL     1     -12.978   9.980  71.357  1.00  0.00    -0.418 C  
HETATM   38  C   UNL     1     -12.269   8.611  71.459  1.00  0.00    -0.318 C  
HETATM   39  N   UNL     1     -13.553  10.364  72.667  1.00  0.00    -0.283 NA 
HETATM   40  C   UNL     1     -11.457   8.353  70.183  1.00  0.00     0.012 C  
HETATM   41  H2  UNL     1     -14.015  11.272  72.630  1.00  0.00     0.000 HD 
HETATM   42  O   UNL     1     -11.418   8.595  72.614  1.00  0.00    -0.301 OA 
HETATM   43  H1  UNL     1     -14.179   9.632  73.004  1.00  0.00     0.000 HD 
HETATM   44  C   UNL     1     -10.701   7.037  70.197  1.00  0.00    -0.265 C  
HETATM   45  H   UNL     1     -10.981   7.754  72.677  1.00  0.00     0.000 HD 
HETATM   46  O   UNL     1     -10.507   9.417  69.986  1.00  0.00    -0.205 OA 
ENDBRANCH  34  35
ENDBRANCH  22  34
ENDBRANCH   2   3
TORSDOF 5
ENDMDL
MODEL      107
REMARK 921   NORMALIZED FREE ENERGY PREDICTED BY IDOCK:   -1.92 KCAL/MOL
REMARK 922        TOTAL FREE ENERGY PREDICTED BY IDOCK:   -3.76 KCAL/MOL
REMARK 923 INTER-LIGAND FREE ENERGY PREDICTED BY IDOCK:   -6.94 KCAL/MOL
REMARK 924 INTRA-LIGAND FREE ENERGY PREDICTED BY IDOCK:    3.18 KCAL/MOL
REMARK 927      BINDING AFFINITY PREDICTED BY RF-SCORE:    0.00 PKD
ROOT
HETATM    1  C   UNL     1      -7.021  18.276  69.336  1.00  0.00    -0.077 C  
HETATM    2  O   UNL     1      -7.333  17.105  68.590  1.00  0.00    -0.216 OA 
ENDROOT
BRANCH   2   3
HETATM    3  C   UNL     1      -8.653  16.885  68.293  1.00  0.00    -0.230 A  
HETATM    4  C   UNL     1      -9.607  17.913  68.343  1.00  0.00    -0.320 A  
HETATM    5  C   UNL     1     -10.948  17.652  68.075  1.00  0.00    -0.107 A  
HETATM    6  C   UNL     1     -11.348  16.358  67.767  1.00  0.00    -0.034 A  
HETATM    7  C   UNL     1     -10.407  15.317  67.722  1.00  0.00    -0.244 A  
HETATM    8  C   UNL     1      -9.060  15.568  67.981  1.00  0.00    -0.182 A  
HETATM    9  C   UNL     1      -8.101  14.438  67.893  1.00  0.00    -0.151 C  
HETATM   10  O   UNL     1      -6.905  14.572  68.137  1.00  0.00    -0.100 OA 
HETATM   11  C   UNL     1      -8.565  13.085  67.503  1.00  0.00    -0.192 A  
HETATM   12  C   UNL     1      -7.636  12.030  67.364  1.00  0.00    -0.151 A  
HETATM   13  O   UNL     1      -6.287  12.232  67.542  1.00  0.00    -0.106 OA 
HETATM   14  C   UNL     1      -8.043  10.711  67.075  1.00  0.00    -0.120 A  
HETATM   15  H   UNL     1      -5.662  11.522  67.449  1.00  0.00     0.000 HD 
HETATM   16  C   UNL     1      -9.421  10.444  66.946  1.00  0.00    -0.196 A  
HETATM   17  C   UNL     1     -10.339  11.515  67.021  1.00  0.00    -0.220 A  
HETATM   18  C   UNL     1      -9.920   9.027  66.727  1.00  0.00    -0.332 C  
HETATM   19  C   UNL     1      -8.907   7.911  67.037  1.00  0.00    -0.130 C  
HETATM   20  C   UNL     1      -9.920  12.833  67.304  1.00  0.00    -0.219 A  
HETATM   21  O   UNL     1     -11.676  11.277  66.854  1.00  0.00    -0.464 OA 
HETATM   22  C   UNL     1      -7.016   9.585  67.114  1.00  0.00    -0.085 C  
HETATM   23  C   UNL     1     -10.886  13.959  67.391  1.00  0.00    -0.285 C  
HETATM   24  C   UNL     1      -7.535   8.295  66.478  1.00  0.00    -0.081 C  
HETATM   25  O   UNL     1      -8.859   7.678  68.445  1.00  0.00    -0.130 OA 
HETATM   26  H   UNL     1     -12.293  11.998  66.904  1.00  0.00     0.000 HD 
HETATM   27  O   UNL     1     -12.085  13.819  67.180  1.00  0.00    -0.398 OA 
HETATM   28  H   UNL     1      -8.233   6.989  68.636  1.00  0.00     0.000 HD 
BRANCH  19  29
HETATM   29  C   UNL     1      -9.400   6.585  66.423  1.00  0.00    -0.143 C  
HETATM   30  O   UNL     1      -8.742   5.953  65.590  1.00  0.00    -0.152 OA 
BRANCH  29  31
HETATM   31  C   UNL     1     -10.771   6.073  66.857  1.00  0.00    -0.334 C  
HETATM   32  O   UNL     1     -10.784   5.770  68.246  1.00  0.00    -0.236 OA 
HETATM   33  H   UNL     1     -11.637   5.451  68.516  1.00  0.00     0.000 HD 
ENDBRANCH  29  31
ENDBRANCH  19  29
BRANCH  22  34
HETATM   34  O   UNL     1      -6.824   9.442  68.509  1.00  0.00    -0.061 OA 
BRANCH  34  35
HETATM   35  C   UNL     1      -7.610  10.129  69.461  1.00  0.00    -0.139 C  
HETATM   36  C   UNL     1      -8.927   9.499  69.923  1.00  0.00    -0.231 C  
HETATM   37  C   UNL     1      -8.729   8.229  70.763  1.00  0.00    -0.140 C  
HETATM   38  C   UNL     1      -7.608   8.395  71.814  1.00  0.00    -0.112 C  
HETATM   39  N   UNL     1     -10.001   7.849  71.420  1.00  0.00    -0.170 NA 
HETATM   40  C   UNL     1      -6.380   9.042  71.161  1.00  0.00    -0.065 C  
HETATM   41  H2  UNL     1     -10.761   7.747  70.749  1.00  0.00     0.000 HD 
HETATM   42  O   UNL     1      -8.085   9.198  72.903  1.00  0.00    -0.027 OA 
HETATM   43  H1  UNL     1      -9.869   7.004  71.978  1.00  0.00     0.000 HD 
HETATM   44  C   UNL     1      -5.227   9.270  72.122  1.00  0.00    -0.074 C  
HETATM   45  H   UNL     1      -7.396   9.301  73.549  1.00  0.00     0.000 HD 
HETATM   46  O   UNL     1      -6.744  10.311  70.585  1.00  0.00    -0.287 OA 
ENDBRANCH  34  35
ENDBRANCH  22  34
ENDBRANCH   2   3
TORSDOF 5
ENDMDL
MODEL      108
REMARK 921   NORMALIZED FREE ENERGY PREDICTED BY IDOCK:   -1.76 KCAL/MOL
REMARK 922        TOTAL FREE ENERGY PREDICTED BY IDOCK:   -3.56 KCAL/MOL
REMARK 923 INTER-LIGAND FREE ENERGY PREDICTED BY IDOCK:   -5.39 KCAL/MOL
REMARK 924 INTRA-LIGAND FREE ENERGY PREDICTED BY IDOCK:    1.83 KCAL/MOL
REMARK 927      BINDING AFFINITY PREDICTED BY RF-SCORE:    0.00 PKD
ROOT
HETATM    1  C   UNL     1      -8.947  10.896  62.738  1.00  0.00    -0.305 C  
HETATM    2  O   UNL     1      -7.541  10.764  62.920  1.00  0.00    -0.065 OA 
ENDROOT
BRANCH   2   3
HETATM    3  C   UNL     1      -7.066   9.521  63.245  1.00  0.00    -0.103 A  
HETATM    4  C   UNL     1      -6.334   8.744  62.334  1.00  0.00    -0.095 A  
HETATM    5  C   UNL     1      -5.897   7.468  62.678  1.00  0.00    -0.051 A  
HETATM    6  C   UNL     1      -6.201   6.952  63.931  1.00  0.00    -0.036 A  
HETATM    7  C   UNL     1      -6.941   7.713  64.851  1.00  0.00    -0.055 A  
HETATM    8  C   UNL     1      -7.377   8.996  64.519  1.00  0.00    -0.099 A  
HETATM    9  C   UNL     1      -8.132   9.769  65.537  1.00  0.00    -0.125 C  
HETATM   10  O   UNL     1      -8.575  10.892  65.312  1.00  0.00    -0.172 OA 
HETATM   11  C   UNL     1      -8.382   9.200  66.884  1.00  0.00    -0.119 A  
HETATM   12  C   UNL     1      -9.049   9.967  67.865  1.00  0.00    -0.131 A  
HETATM   13  O   UNL     1      -9.444  11.262  67.619  1.00  0.00    -0.164 OA 
HETATM   14  C   UNL     1      -9.379   9.436  69.129  1.00  0.00    -0.159 A  
HETATM   15  H   UNL     1      -9.892  11.777  68.278  1.00  0.00     0.000 HD 
HETATM   16  C   UNL     1      -9.050   8.094  69.403  1.00  0.00    -0.148 A  
HETATM   17  C   UNL     1      -8.325   7.354  68.443  1.00  0.00    -0.125 A  
HETATM   18  C   UNL     1      -9.464   7.444  70.711  1.00  0.00    -0.167 C  
HETATM   19  C   UNL     1     -10.552   8.188  71.506  1.00  0.00    -0.228 C  
HETATM   20  C   UNL     1      -7.993   7.896  67.183  1.00  0.00    -0.117 A  
HETATM   21  O   UNL     1      -7.961   6.063  68.713  1.00  0.00    -0.101 OA 
HETATM   22  C   UNL     1     -10.254  10.250  70.077  1.00  0.00    -0.162 C  
HETATM   23  C   UNL     1      -7.238   7.115  66.168  1.00  0.00    -0.074 C  
HETATM   24  C   UNL     1     -10.256   9.690  71.499  1.00  0.00     0.185 C  
HETATM   25  O   UNL     1     -11.837   7.899  70.955  1.00  0.00    -0.328 OA 
HETATM   26  H   UNL     1      -7.473   5.565  68.068  1.00  0.00     0.000 HD 
HETATM   27  O   UNL     1      -6.824   5.982  66.382  1.00  0.00    -0.058 OA 
HETATM   28  H   UNL     1     -12.509   8.358  71.446  1.00  0.00     0.000 HD 
BRANCH  19  29
HETATM   29  C   UNL     1     -10.597   7.643  72.948  1.00  0.00    -0.354 C  
HETATM   30  O   UNL     1     -11.626   7.658  73.632  1.00  0.00     0.194 OA 
BRANCH  29  31
HETATM   31  C   UNL     1      -9.299   7.098  73.538  1.00  0.00    -0.191 C  
HETATM   32  O   UNL     1      -8.390   8.153  73.827  1.00  0.00    -0.228 OA 
HETATM   33  H   UNL     1      -7.583   7.814  74.194  1.00  0.00     0.000 HD 
ENDBRANCH  29  31
ENDBRANCH  19  29
BRANCH  22  34
HETATM   34  O   UNL     1     -11.520  10.115  69.458  1.00  0.00    -0.229 OA 
BRANCH  34  35
HETATM   35  C   UNL     1     -12.568  11.041  69.660  1.00  0.00    -0.017 C  
HETATM   36  C   UNL     1     -12.353  12.196  70.642  1.00  0.00    -0.385 C  
HETATM   37  C   UNL     1     -11.323  13.224  70.150  1.00  0.00     0.174 C  
HETATM   38  C   UNL     1     -11.520  13.578  68.659  1.00  0.00    -0.308 C  
HETATM   39  N   UNL     1     -11.384  14.446  70.984  1.00  0.00    -0.501 NA 
HETATM   40  C   UNL     1     -11.722  12.293  67.845  1.00  0.00    -0.347 C  
HETATM   41  H2  UNL     1     -11.271  14.237  71.976  1.00  0.00     0.000 HD 
HETATM   42  O   UNL     1     -12.651  14.450  68.517  1.00  0.00    -0.533 OA 
HETATM   43  H1  UNL     1     -10.699  15.128  70.658  1.00  0.00     0.000 HD 
HETATM   44  C   UNL     1     -11.949  12.539  66.364  1.00  0.00    -0.386 C  
HETATM   45  H   UNL     1     -12.773  14.669  67.601  1.00  0.00     0.000 HD 
HETATM   46  O   UNL     1     -12.850  11.561  68.358  1.00  0.00     0.724 OA 
ENDBRANCH  34  35
ENDBRANCH  22  34
ENDBRANCH   2   3
TORSDOF 5
ENDMDL
MODEL      109
REMARK 921   NORMALIZED FREE ENERGY PREDICTED BY IDOCK:   -1.74 KCAL/MOL
REMARK 922        TOTAL FREE ENERGY PREDICTED BY IDOCK:   -3.53 KCAL/MOL
REMARK 923 INTER-LIGAND FREE ENERGY PREDICTED BY IDOCK:   -5.07 KCAL/MOL
REMARK 924 INTRA-LIGAND FREE ENERGY PREDICTED BY IDOCK:    1.54 KCAL/MOL
REMARK 927      BINDING AFFINITY PREDICTED BY RF-SCORE:    0.00 PKD
ROOT
HETATM    1  C   UNL     1      -5.538   6.255  64.594  1.00  0.00    -0.022 C  
HETATM    2  O   UNL     1      -6.908   5.930  64.389  1.00  0.00    -0.047 OA 
ENDROOT
BRANCH   2   3
HETATM    3  C   UNL     1      -7.538   5.221  65.378  1.00  0.00    -0.082 A  
HETATM    4  C   UNL     1      -7.494   3.820  65.433  1.00  0.00    -0.077 A  
HETATM    5  C   UNL     1      -8.176   3.125  66.427  1.00  0.00    -0.090 A  
HETATM    6  C   UNL     1      -8.920   3.825  67.368  1.00  0.00    -0.159 A  
HETATM    7  C   UNL     1      -8.982   5.228  67.322  1.00  0.00    -0.111 A  
HETATM    8  C   UNL     1      -8.296   5.934  66.335  1.00  0.00    -0.114 A  
HETATM    9  C   UNL     1      -8.371   7.417  66.347  1.00  0.00    -0.127 C  
HETATM   10  O   UNL     1      -7.820   8.109  65.495  1.00  0.00    -0.093 OA 
HETATM   11  C   UNL     1      -9.130   8.124  67.407  1.00  0.00    -0.148 A  
HETATM   12  C   UNL     1      -9.146   9.536  67.445  1.00  0.00    -0.130 A  
HETATM   13  O   UNL     1      -8.435  10.288  66.537  1.00  0.00    -0.123 OA 
HETATM   14  C   UNL     1      -9.920  10.248  68.384  1.00  0.00    -0.173 A  
HETATM   15  H   UNL     1      -8.446  11.237  66.563  1.00  0.00     0.000 HD 
HETATM   16  C   UNL     1     -10.714   9.521  69.293  1.00  0.00    -0.240 A  
HETATM   17  C   UNL     1     -10.642   8.110  69.293  1.00  0.00    -0.182 A  
HETATM   18  C   UNL     1     -11.636  10.236  70.264  1.00  0.00    -0.396 C  
HETATM   19  C   UNL     1     -11.927  11.712  69.938  1.00  0.00    -0.340 C  
HETATM   20  C   UNL     1      -9.858   7.407  68.352  1.00  0.00    -0.165 A  
HETATM   21  O   UNL     1     -11.373   7.392  70.199  1.00  0.00    -0.375 OA 
HETATM   22  C   UNL     1     -10.037  11.764  68.262  1.00  0.00    -0.197 C  
HETATM   23  C   UNL     1      -9.789   5.922  68.346  1.00  0.00    -0.134 C  
HETATM   24  C   UNL     1     -10.632  12.409  69.514  1.00  0.00     0.345 C  
HETATM   25  O   UNL     1     -12.930  11.794  68.924  1.00  0.00     0.732 OA 
HETATM   26  H   UNL     1     -11.325   6.444  70.199  1.00  0.00     0.000 HD 
HETATM   27  O   UNL     1     -10.365   5.231  69.177  1.00  0.00    -0.220 OA 
HETATM   28  H   UNL     1     -13.110  12.705  68.723  1.00  0.00     0.000 HD 
BRANCH  19  29
HETATM   29  C   UNL     1     -12.543  12.399  71.174  1.00  0.00    -0.251 C  
HETATM   30  O   UNL     1     -12.289  13.568  71.480  1.00  0.00    -0.257 OA 
BRANCH  29  31
HETATM   31  C   UNL     1     -13.476  11.568  72.052  1.00  0.00    -0.193 C  
HETATM   32  O   UNL     1     -13.941  10.419  71.354  1.00  0.00     0.173 OA 
HETATM   33  H   UNL     1     -14.521   9.902  71.901  1.00  0.00     0.000 HD 
ENDBRANCH  29  31
ENDBRANCH  19  29
BRANCH  22  34
HETATM   34  O   UNL     1     -10.905  11.879  67.150  1.00  0.00    -0.232 OA 
BRANCH  34  35
HETATM   35  C   UNL     1     -10.583  12.645  66.008  1.00  0.00    -0.270 C  
HETATM   36  C   UNL     1     -11.300  13.981  65.789  1.00  0.00    -0.312 C  
HETATM   37  C   UNL     1     -10.911  15.052  66.818  1.00  0.00    -0.318 C  
HETATM   38  C   UNL     1      -9.386  15.091  67.071  1.00  0.00    -0.224 C  
HETATM   39  N   UNL     1     -11.396  16.381  66.379  1.00  0.00     0.365 NA 
HETATM   40  C   UNL     1      -8.858  13.663  67.262  1.00  0.00    -0.224 C  
HETATM   41  H2  UNL     1     -12.398  16.378  66.191  1.00  0.00     0.000 HD 
HETATM   42  O   UNL     1      -8.732  15.730  65.965  1.00  0.00    -0.327 OA 
HETATM   43  H1  UNL     1     -11.138  17.092  67.063  1.00  0.00     0.000 HD 
HETATM   44  C   UNL     1      -7.360  13.594  67.494  1.00  0.00    -0.178 C  
HETATM   45  H   UNL     1      -7.795  15.754  66.120  1.00  0.00     0.000 HD 
HETATM   46  O   UNL     1      -9.173  12.867  66.105  1.00  0.00    -0.154 OA 
ENDBRANCH  34  35
ENDBRANCH  22  34
ENDBRANCH   2   3
TORSDOF 5
ENDMDL
MODEL      110
REMARK 921   NORMALIZED FREE ENERGY PREDICTED BY IDOCK:   -1.43 KCAL/MOL
REMARK 922        TOTAL FREE ENERGY PREDICTED BY IDOCK:   -3.13 KCAL/MOL
REMARK 923 INTER-LIGAND FREE ENERGY PREDICTED BY IDOCK:   -5.50 KCAL/MOL
REMARK 924 INTRA-LIGAND FREE ENERGY PREDICTED BY IDOCK:    2.37 KCAL/MOL
REMARK 927      BINDING AFFINITY PREDICTED BY RF-SCORE:    0.00 PKD
ROOT
HETATM    1  C   UNL     1     -10.408   6.925  66.409  1.00  0.00     0.101 C  
HETATM    2  O   UNL     1      -9.546   6.755  65.289  1.00  0.00     0.673 OA 
ENDROOT
BRANCH   2   3
HETATM    3  C   UNL     1      -8.239   7.136  65.441  1.00  0.00    -0.137 A  
HETATM    4  C   UNL     1      -7.177   6.238  65.255  1.00  0.00    -0.070 A  
HETATM    5  C   UNL     1      -5.860   6.643  65.455  1.00  0.00    -0.030 A  
HETATM    6  C   UNL     1      -5.595   7.947  65.854  1.00  0.00    -0.036 A  
HETATM    7  C   UNL     1      -6.648   8.855  66.054  1.00  0.00    -0.065 A  
HETATM    8  C   UNL     1      -7.970   8.462  65.849  1.00  0.00    -0.099 A  
HETATM    9  C   UNL     1      -9.044   9.468  66.046  1.00  0.00    -0.176 C  
HETATM   10  O   UNL     1     -10.234   9.192  65.915  1.00  0.00    -0.209 OA 
HETATM   11  C   UNL     1      -8.709  10.864  66.416  1.00  0.00    -0.174 A  
HETATM   12  C   UNL     1      -9.734  11.829  66.543  1.00  0.00    -0.206 A  
HETATM   13  O   UNL     1     -11.050  11.517  66.290  1.00  0.00    -0.302 OA 
HETATM   14  C   UNL     1      -9.470  13.145  66.973  1.00  0.00    -0.242 A  
HETATM   15  H   UNL     1     -11.739  12.165  66.375  1.00  0.00     0.000 HD 
HETATM   16  C   UNL     1      -8.145  13.493  67.304  1.00  0.00    -0.141 A  
HETATM   17  C   UNL     1      -7.116  12.544  67.112  1.00  0.00    -0.053 A  
HETATM   18  C   UNL     1      -7.818  14.868  67.859  1.00  0.00    -0.145 C  
HETATM   19  C   UNL     1      -9.020  15.675  68.381  1.00  0.00    -0.185 C  
HETATM   20  C   UNL     1      -7.391  11.230  66.675  1.00  0.00    -0.131 A  
HETATM   21  O   UNL     1      -5.819  12.882  67.388  1.00  0.00    -0.248 OA 
HETATM   22  C   UNL     1     -10.634  14.087  67.261  1.00  0.00    -0.273 C  
HETATM   23  C   UNL     1      -6.310  10.228  66.481  1.00  0.00    -0.078 C  
HETATM   24  C   UNL     1     -10.190  15.543  67.404  1.00  0.00    -0.255 C  
HETATM   25  O   UNL     1      -9.370  15.228  69.691  1.00  0.00    -0.372 OA 
HETATM   26  H   UNL     1      -5.128  12.244  67.258  1.00  0.00     0.000 HD 
HETATM   27  O   UNL     1      -5.126  10.495  66.643  1.00  0.00    -0.039 OA 
HETATM   28  H   UNL     1     -10.112  15.727  70.014  1.00  0.00     0.000 HD 
BRANCH  19  29
HETATM   29  C   UNL     1      -8.610  17.152  68.552  1.00  0.00    -0.258 C  
HETATM   30  O   UNL     1      -9.371  18.088  68.283  1.00  0.00    -0.277 OA 
BRANCH  29  31
HETATM   31  C   UNL     1      -7.194  17.440  69.046  1.00  0.00    -0.224 C  
HETATM   32  O   UNL     1      -6.549  18.392  68.210  1.00  0.00    -0.211 OA 
HETATM   33  H   UNL     1      -5.669  18.572  68.517  1.00  0.00     0.000 HD 
ENDBRANCH  29  31
ENDBRANCH  19  29
BRANCH  22  34
HETATM   34  O   UNL     1     -11.109  13.561  68.487  1.00  0.00    -0.249 OA 
BRANCH  34  35
HETATM   35  C   UNL     1     -12.208  12.677  68.562  1.00  0.00     0.086 C  
HETATM   36  C   UNL     1     -11.944  11.191  68.822  1.00  0.00    -0.337 C  
HETATM   37  C   UNL     1     -11.413  10.910  70.236  1.00  0.00    -0.302 C  
HETATM   38  C   UNL     1     -12.187  11.700  71.316  1.00  0.00    -0.044 C  
HETATM   39  N   UNL     1     -11.467   9.457  70.520  1.00  0.00    -0.288 NA 
HETATM   40  C   UNL     1     -12.352  13.159  70.871  1.00  0.00    -0.307 C  
HETATM   41  H2  UNL     1     -10.975   8.912  69.813  1.00  0.00     0.000 HD 
HETATM   42  O   UNL     1     -13.467  11.089  71.534  1.00  0.00    -0.229 OA 
HETATM   43  H1  UNL     1     -11.114   9.271  71.459  1.00  0.00     0.000 HD 
HETATM   44  C   UNL     1     -13.123  14.015  71.859  1.00  0.00    -0.467 C  
HETATM   45  H   UNL     1     -13.943  11.574  72.198  1.00  0.00     0.000 HD 
HETATM   46  O   UNL     1     -13.033  13.209  69.603  1.00  0.00     0.503 OA 
ENDBRANCH  34  35
ENDBRANCH  22  34
ENDBRANCH   2   3
TORSDOF 5
ENDMDL
MODEL      111
REMARK 921   NORMALIZED FREE ENERGY PREDICTED BY IDOCK:   -1.42 KCAL/MOL
REMARK 922        TOTAL FREE ENERGY PREDICTED BY IDOCK:   -3.12 KCAL/MOL
REMARK 923 INTER-LIGAND FREE ENERGY PREDICTED BY IDOCK:   -3.19 KCAL/MOL
REMARK 924 INTRA-LIGAND FREE ENERGY PREDICTED BY IDOCK:    0.07 KCAL/MOL
REMARK 927      BINDING AFFINITY PREDICTED BY RF-SCORE:    0.00 PKD
ROOT
HETATM    1  C   UNL     1      -5.127  13.728  72.923  1.00  0.00    -0.179 C  
HETATM    2  O   UNL     1      -6.307  13.863  72.138  1.00  0.00     0.071 OA 
ENDROOT
BRANCH   2   3
HETATM    3  C   UNL     1      -6.144  14.147  70.807  1.00  0.00    -0.165 A  
HETATM    4  C   UNL     1      -6.050  15.465  70.335  1.00  0.00    -0.046 A  
HETATM    5  C   UNL     1      -5.925  15.725  68.973  1.00  0.00    -0.108 A  
HETATM    6  C   UNL     1      -5.906  14.670  68.071  1.00  0.00    -0.154 A  
HETATM    7  C   UNL     1      -6.010  13.345  68.527  1.00  0.00    -0.088 A  
HETATM    8  C   UNL     1      -6.127  13.073  69.889  1.00  0.00    -0.125 A  
HETATM    9  C   UNL     1      -6.205  11.654  70.322  1.00  0.00    -0.068 C  
HETATM   10  O   UNL     1      -6.340  11.334  71.500  1.00  0.00     0.517 OA 
HETATM   11  C   UNL     1      -6.122  10.558  69.326  1.00  0.00    -0.039 A  
HETATM   12  C   UNL     1      -6.137   9.211  69.753  1.00  0.00    -0.038 A  
HETATM   13  O   UNL     1      -6.185   8.880  71.088  1.00  0.00    -0.044 OA 
HETATM   14  C   UNL     1      -6.143   8.139  68.837  1.00  0.00    -0.040 A  
HETATM   15  H   UNL     1      -6.195   7.975  71.374  1.00  0.00     0.000 HD 
HETATM   16  C   UNL     1      -6.157   8.430  67.459  1.00  0.00    -0.052 A  
HETATM   17  C   UNL     1      -6.076   9.777  67.039  1.00  0.00    -0.063 A  
HETATM   18  C   UNL     1      -6.257   7.317  66.430  1.00  0.00    -0.040 C  
HETATM   19  C   UNL     1      -6.717   5.953  66.973  1.00  0.00    -0.061 C  
HETATM   20  C   UNL     1      -6.064  10.843  67.965  1.00  0.00    -0.049 A  
HETATM   21  O   UNL     1      -6.045  10.073  65.704  1.00  0.00    -0.072 OA 
HETATM   22  C   UNL     1      -6.339   6.717  69.351  1.00  0.00    -0.042 C  
HETATM   23  C   UNL     1      -5.987  12.261  67.524  1.00  0.00    -0.136 C  
HETATM   24  C   UNL     1      -6.007   5.661  68.297  1.00  0.00    -0.017 C  
HETATM   25  O   UNL     1      -8.138   5.945  67.121  1.00  0.00    -0.102 OA 
HETATM   26  H   UNL     1      -5.990  10.978  65.422  1.00  0.00     0.000 HD 
HETATM   27  O   UNL     1      -5.885  12.581  66.347  1.00  0.00     0.242 OA 
HETATM   28  H   UNL     1      -8.422   5.102  67.455  1.00  0.00     0.000 HD 
BRANCH  19  29
HETATM   29  C   UNL     1      -6.412   4.857  65.931  1.00  0.00    -0.040 C  
HETATM   30  O   UNL     1      -5.323   4.276  65.878  1.00  0.00    -0.009 OA 
BRANCH  29  31
HETATM   31  C   UNL     1      -7.506   4.520  64.920  1.00  0.00    -0.073 C  
HETATM   32  O   UNL     1      -7.319   5.244  63.710  1.00  0.00    -0.049 OA 
HETATM   33  H   UNL     1      -7.998   5.034  63.081  1.00  0.00     0.000 HD 
ENDBRANCH  29  31
ENDBRANCH  19  29
BRANCH  22  34
HETATM   34  O   UNL     1      -7.720   6.730  69.663  1.00  0.00    -0.105 OA 
BRANCH  34  35
HETATM   35  C   UNL     1      -8.207   7.042  70.952  1.00  0.00    -0.121 C  
HETATM   36  C   UNL     1      -9.353   8.049  71.083  1.00  0.00    -0.176 C  
HETATM   37  C   UNL     1     -10.686   7.525  70.529  1.00  0.00    -0.235 C  
HETATM   38  C   UNL     1     -10.962   6.066  70.959  1.00  0.00    -0.286 C  
HETATM   39  N   UNL     1     -11.797   8.407  70.954  1.00  0.00    -0.401 NA 
HETATM   40  C   UNL     1      -9.698   5.220  70.755  1.00  0.00    -0.185 C  
HETATM   41  H2  UNL     1     -11.632   9.380  70.694  1.00  0.00     0.000 HD 
HETATM   42  O   UNL     1     -11.373   6.039  72.333  1.00  0.00    -0.273 OA 
HETATM   43  H1  UNL     1     -12.682   8.059  70.585  1.00  0.00     0.000 HD 
HETATM   44  C   UNL     1      -9.861   3.769  71.173  1.00  0.00    -0.213 C  
HETATM   45  H   UNL     1     -11.543   5.143  72.598  1.00  0.00     0.000 HD 
HETATM   46  O   UNL     1      -8.606   5.785  71.504  1.00  0.00    -0.130 OA 
ENDBRANCH  34  35
ENDBRANCH  22  34
ENDBRANCH   2   3
TORSDOF 5
ENDMDL
MODEL      112
REMARK 921   NORMALIZED FREE ENERGY PREDICTED BY IDOCK:   -1.18 KCAL/MOL
REMARK 922        TOTAL FREE ENERGY PREDICTED BY IDOCK:   -2.81 KCAL/MOL
REMARK 923 INTER-LIGAND FREE ENERGY PREDICTED BY IDOCK:   -5.60 KCAL/MOL
REMARK 924 INTRA-LIGAND FREE ENERGY PREDICTED BY IDOCK:    2.79 KCAL/MOL
REMARK 927      BINDING AFFINITY PREDICTED BY RF-SCORE:    0.00 PKD
ROOT
HETATM    1  C   UNL     1      -9.006  14.950  65.491  1.00  0.00     0.932 C  
HETATM    2  O   UNL     1     -10.056  15.890  65.686  1.00  0.00    -0.327 OA 
ENDROOT
BRANCH   2   3
HETATM    3  C   UNL     1     -10.535  16.037  66.961  1.00  0.00    -0.307 A  
HETATM    4  C   UNL     1     -10.774  17.300  67.525  1.00  0.00    -0.278 A  
HETATM    5  C   UNL     1     -11.224  17.420  68.836  1.00  0.00     0.512 A  
HETATM    6  C   UNL     1     -11.426  16.279  69.601  1.00  0.00    -0.213 A  
HETATM    7  C   UNL     1     -11.183  15.007  69.055  1.00  0.00    -0.279 A  
HETATM    8  C   UNL     1     -10.740  14.875  67.740  1.00  0.00    -0.271 A  
HETATM    9  C   UNL     1     -10.525  13.508  67.201  1.00  0.00    -0.256 C  
HETATM   10  O   UNL     1     -10.106  13.309  66.064  1.00  0.00    -0.288 OA 
HETATM   11  C   UNL     1     -10.810  12.316  68.036  1.00  0.00    -0.253 A  
HETATM   12  C   UNL     1     -10.659  11.020  67.496  1.00  0.00    -0.227 A  
HETATM   13  O   UNL     1     -10.288  10.826  66.185  1.00  0.00    -0.243 OA 
HETATM   14  C   UNL     1     -10.840   9.860  68.277  1.00  0.00    -0.275 A  
HETATM   15  H   UNL     1     -10.187   9.955  65.822  1.00  0.00     0.000 HD 
HETATM   16  C   UNL     1     -11.159  10.010  69.642  1.00  0.00    -0.300 A  
HETATM   17  C   UNL     1     -11.373  11.307  70.159  1.00  0.00    -0.164 A  
HETATM   18  C   UNL     1     -11.275   8.799  70.550  1.00  0.00    -0.278 C  
HETATM   19  C   UNL     1     -10.664   7.498  70.002  1.00  0.00    -0.240 C  
HETATM   20  C   UNL     1     -11.196  12.462  69.366  1.00  0.00    -0.225 A  
HETATM   21  O   UNL     1     -11.727  11.466  71.472  1.00  0.00     0.256 OA 
HETATM   22  C   UNL     1     -10.491   8.498  67.688  1.00  0.00    -0.241 C  
HETATM   23  C   UNL     1     -11.412  13.827  69.913  1.00  0.00    -0.160 C  
HETATM   24  C   UNL     1     -11.033   7.340  68.525  1.00  0.00    -0.029 C  
HETATM   25  O   UNL     1      -9.249   7.509  70.195  1.00  0.00    -0.154 OA 
HETATM   26  H   UNL     1     -11.871  12.337  71.819  1.00  0.00     0.000 HD 
HETATM   27  O   UNL     1     -11.798  14.026  71.058  1.00  0.00    -0.283 OA 
HETATM   28  H   UNL     1      -8.871   6.705  69.857  1.00  0.00     0.000 HD 
BRANCH  19  29
HETATM   29  C   UNL     1     -11.176   6.301  70.829  1.00  0.00    -0.324 C  
HETATM   30  O   UNL     1     -10.580   5.220  70.873  1.00  0.00    -0.236 OA 
BRANCH  29  31
HETATM   31  C   UNL     1     -12.490   6.478  71.588  1.00  0.00    -0.216 C  
HETATM   32  O   UNL     1     -12.437   5.827  72.851  1.00  0.00    -0.452 OA 
HETATM   33  H   UNL     1     -13.254   5.937  73.323  1.00  0.00     0.000 HD 
ENDBRANCH  29  31
ENDBRANCH  19  29
BRANCH  22  34
HETATM   34  O   UNL     1      -9.076   8.547  67.716  1.00  0.00    -0.135 OA 
BRANCH  34  35
HETATM   35  C   UNL     1      -8.287   8.446  66.549  1.00  0.00    -0.111 C  
HETATM   36  C   UNL     1      -6.818   8.035  66.684  1.00  0.00    -0.068 C  
HETATM   37  C   UNL     1      -6.636   6.577  67.129  1.00  0.00    -0.055 C  
HETATM   38  C   UNL     1      -7.581   5.615  66.374  1.00  0.00    -0.091 C  
HETATM   39  N   UNL     1      -5.225   6.162  66.950  1.00  0.00    -0.005 NA 
HETATM   40  C   UNL     1      -8.998   6.202  66.343  1.00  0.00    -0.150 C  
HETATM   41  H2  UNL     1      -4.579   6.789  67.428  1.00  0.00     0.000 HD 
HETATM   42  O   UNL     1      -7.090   5.407  65.041  1.00  0.00    -0.062 OA 
HETATM   43  H1  UNL     1      -5.105   5.193  67.246  1.00  0.00     0.000 HD 
HETATM   44  C   UNL     1     -10.000   5.339  65.599  1.00  0.00     0.031 C  
HETATM   45  H   UNL     1      -7.671   4.816  64.576  1.00  0.00     0.000 HD 
HETATM   46  O   UNL     1      -8.976   7.502  65.724  1.00  0.00    -0.135 OA 
ENDBRANCH  34  35
ENDBRANCH  22  34
ENDBRANCH   2   3
TORSDOF 5
ENDMDL
MODEL      113
REMARK 921   NORMALIZED FREE ENERGY PREDICTED BY IDOCK:   -1.16 KCAL/MOL
REMARK 922        TOTAL FREE ENERGY PREDICTED BY IDOCK:   -2.78 KCAL/MOL
REMARK 923 INTER-LIGAND FREE ENERGY PREDICTED BY IDOCK:   -6.53 KCAL/MOL
REMARK 924 INTRA-LIGAND FREE ENERGY PREDICTED BY IDOCK:    3.75 KCAL/MOL
REMARK 927      BINDING AFFINITY PREDICTED BY RF-SCORE:    0.00 PKD
ROOT
HETATM    1  C   UNL     1      -9.884   3.971  72.541  1.00  0.00    -0.157 C  
HETATM    2  O   UNL     1      -9.371   5.000  71.701  1.00  0.00    -0.142 OA 
ENDROOT
BRANCH   2   3
HETATM    3  C   UNL     1      -8.996   4.643  70.433  1.00  0.00    -0.101 A  
HETATM    4  C   UNL     1      -8.427   3.392  70.150  1.00  0.00    -0.094 A  
HETATM    5  C   UNL     1      -8.018   3.072  68.859  1.00  0.00    -0.065 A  
HETATM    6  C   UNL     1      -8.163   4.005  67.841  1.00  0.00    -0.094 A  
HETATM    7  C   UNL     1      -8.722   5.266  68.109  1.00  0.00    -0.102 A  
HETATM    8  C   UNL     1      -9.141   5.594  69.398  1.00  0.00    -0.134 A  
HETATM    9  C   UNL     1      -9.752   6.929  69.622  1.00  0.00    -0.155 C  
HETATM   10  O   UNL     1     -10.118   7.304  70.733  1.00  0.00    -0.190 OA 
HETATM   11  C   UNL     1      -9.939   7.871  68.493  1.00  0.00    -0.200 A  
HETATM   12  C   UNL     1     -10.575   9.115  68.706  1.00  0.00    -0.181 A  
HETATM   13  O   UNL     1     -11.069   9.468  69.941  1.00  0.00    -0.236 OA 
HETATM   14  C   UNL     1     -10.700  10.074  67.680  1.00  0.00    -0.340 A  
HETATM   15  H   UNL     1     -11.496  10.304  70.084  1.00  0.00     0.000 HD 
HETATM   16  C   UNL     1     -10.153   9.782  66.414  1.00  0.00    -0.313 A  
HETATM   17  C   UNL     1      -9.578   8.511  66.190  1.00  0.00    -0.206 A  
HETATM   18  C   UNL     1     -10.178  10.813  65.300  1.00  0.00    -0.351 C  
HETATM   19  C   UNL     1     -10.468  12.259  65.741  1.00  0.00    -0.255 C  
HETATM   20  C   UNL     1      -9.463   7.556  67.223  1.00  0.00    -0.186 A  
HETATM   21  O   UNL     1      -9.082   8.198  64.954  1.00  0.00    -0.370 OA 
HETATM   22  C   UNL     1     -11.233  11.462  68.013  1.00  0.00    -0.281 C  
HETATM   23  C   UNL     1      -8.850   6.222  66.990  1.00  0.00    -0.108 C  
HETATM   24  C   UNL     1     -11.605  12.264  66.766  1.00  0.00    -0.434 C  
HETATM   25  O   UNL     1      -9.279  12.853  66.266  1.00  0.00    -0.396 OA 
HETATM   26  H   UNL     1      -8.696   7.343  64.803  1.00  0.00     0.000 HD 
HETATM   27  O   UNL     1      -8.455   5.860  65.889  1.00  0.00    -0.129 OA 
HETATM   28  H   UNL     1      -9.458  13.745  66.538  1.00  0.00     0.000 HD 
BRANCH  19  29
HETATM   29  C   UNL     1     -10.835  13.108  64.508  1.00  0.00    -0.383 C  
HETATM   30  O   UNL     1     -11.490  12.658  63.562  1.00  0.00    -0.461 OA 
BRANCH  29  31
HETATM   31  C   UNL     1     -10.330  14.549  64.466  1.00  0.00     0.089 C  
HETATM   32  O   UNL     1     -11.334  15.424  63.969  1.00  0.00    -0.632 OA 
HETATM   33  H   UNL     1     -11.020  16.320  63.943  1.00  0.00     0.000 HD 
ENDBRANCH  29  31
ENDBRANCH  19  29
BRANCH  22  34
HETATM   34  O   UNL     1     -10.121  12.024  68.686  1.00  0.00    -0.212 OA 
BRANCH  34  35
HETATM   35  C   UNL     1      -9.055  12.651  68.004  1.00  0.00    -0.207 C  
HETATM   36  C   UNL     1      -8.390  13.876  68.640  1.00  0.00    -0.088 C  
HETATM   37  C   UNL     1      -7.596  13.541  69.910  1.00  0.00     1.123 C  
HETATM   38  C   UNL     1      -6.736  12.267  69.741  1.00  0.00     0.120 C  
HETATM   39  N   UNL     1      -6.745  14.691  70.297  1.00  0.00    -0.319 NA 
HETATM   40  C   UNL     1      -7.576  11.161  69.088  1.00  0.00    -0.098 C  
HETATM   41  H2  UNL     1      -7.287  15.548  70.401  1.00  0.00     0.000 HD 
HETATM   42  O   UNL     1      -5.583  12.568  68.942  1.00  0.00    -0.061 OA 
HETATM   43  H1  UNL     1      -6.218  14.468  71.141  1.00  0.00     0.000 HD 
HETATM   44  C   UNL     1      -6.810   9.871  68.857  1.00  0.00    -0.057 C  
HETATM   45  H   UNL     1      -5.055  11.785  68.838  1.00  0.00     0.000 HD 
HETATM   46  O   UNL     1      -8.083  11.618  67.820  1.00  0.00    -0.127 OA 
ENDBRANCH  34  35
ENDBRANCH  22  34
ENDBRANCH   2   3
TORSDOF 5
ENDMDL
MODEL      114
REMARK 921   NORMALIZED FREE ENERGY PREDICTED BY IDOCK:   -1.11 KCAL/MOL
REMARK 922        TOTAL FREE ENERGY PREDICTED BY IDOCK:   -2.72 KCAL/MOL
REMARK 923 INTER-LIGAND FREE ENERGY PREDICTED BY IDOCK:   -6.66 KCAL/MOL
REMARK 924 INTRA-LIGAND FREE ENERGY PREDICTED BY IDOCK:    3.94 KCAL/MOL
REMARK 927      BINDING AFFINITY PREDICTED BY RF-SCORE:    0.00 PKD
ROOT
HETATM    1  C   UNL     1     -12.505  14.207  64.964  1.00  0.00    -0.419 C  
HETATM    2  O   UNL     1     -11.153  14.195  64.518  1.00  0.00    -0.376 OA 
ENDROOT
BRANCH   2   3
HETATM    3  C   UNL     1     -10.199  14.630  65.400  1.00  0.00    -0.387 A  
HETATM    4  C   UNL     1      -9.668  15.927  65.340  1.00  0.00    -0.093 A  
HETATM    5  C   UNL     1      -8.671  16.330  66.223  1.00  0.00    -0.370 A  
HETATM    6  C   UNL     1      -8.187  15.433  67.167  1.00  0.00    -0.250 A  
HETATM    7  C   UNL     1      -8.702  14.128  67.235  1.00  0.00    -0.229 A  
HETATM    8  C   UNL     1      -9.706  13.717  66.359  1.00  0.00    -0.300 A  
HETATM    9  C   UNL     1     -10.236  12.336  66.490  1.00  0.00    -0.214 C  
HETATM   10  O   UNL     1     -11.098  11.890  65.738  1.00  0.00    -0.306 OA 
HETATM   11  C   UNL     1      -9.729  11.433  67.552  1.00  0.00    -0.191 A  
HETATM   12  C   UNL     1     -10.281  10.142  67.707  1.00  0.00    -0.191 A  
HETATM   13  O   UNL     1     -11.319   9.704  66.916  1.00  0.00     0.026 OA 
HETATM   14  C   UNL     1      -9.775   9.222  68.648  1.00  0.00    -0.158 A  
HETATM   15  H   UNL     1     -11.690   8.836  67.020  1.00  0.00     0.000 HD 
HETATM   16  C   UNL     1      -8.672   9.604  69.437  1.00  0.00    -0.173 A  
HETATM   17  C   UNL     1      -8.167  10.919  69.323  1.00  0.00    -0.036 A  
HETATM   18  C   UNL     1      -8.029   8.622  70.400  1.00  0.00    -0.101 C  
HETATM   19  C   UNL     1      -8.391   7.143  70.180  1.00  0.00    -0.137 C  
HETATM   20  C   UNL     1      -8.686  11.834  68.382  1.00  0.00    -0.155 A  
HETATM   21  O   UNL     1      -7.124  11.317  70.115  1.00  0.00    -0.440 OA 
HETATM   22  C   UNL     1     -10.292   7.788  68.646  1.00  0.00    -0.199 C  
HETATM   23  C   UNL     1      -8.150  13.215  68.256  1.00  0.00    -0.152 C  
HETATM   24  C   UNL     1      -9.891   7.017  69.904  1.00  0.00    -0.173 C  
HETATM   25  O   UNL     1      -7.609   6.608  69.111  1.00  0.00    -0.096 OA 
HETATM   26  H   UNL     1      -6.786  12.201  70.039  1.00  0.00     0.000 HD 
HETATM   27  O   UNL     1      -7.267  13.649  68.985  1.00  0.00    -0.107 OA 
HETATM   28  H   UNL     1      -7.833   5.694  68.975  1.00  0.00     0.000 HD 
BRANCH  19  29
HETATM   29  C   UNL     1      -7.989   6.325  71.424  1.00  0.00    -0.109 C  
HETATM   30  O   UNL     1      -8.744   5.498  71.948  1.00  0.00    -0.133 OA 
BRANCH  29  31
HETATM   31  C   UNL     1      -6.612   6.590  72.029  1.00  0.00    -0.058 C  
HETATM   32  O   UNL     1      -6.149   5.455  72.750  1.00  0.00    -0.029 OA 
HETATM   33  H   UNL     1      -5.292   5.620  73.126  1.00  0.00     0.000 HD 
ENDBRANCH  29  31
ENDBRANCH  19  29
BRANCH  22  34
HETATM   34  O   UNL     1      -9.655   7.272  67.491  1.00  0.00    -0.136 OA 
BRANCH  34  35
HETATM   35  C   UNL     1      -8.256   7.323  67.305  1.00  0.00    -0.115 C  
HETATM   36  C   UNL     1      -7.549   6.112  66.689  1.00  0.00    -0.095 C  
HETATM   37  C   UNL     1      -7.902   5.893  65.210  1.00  0.00    -0.105 C  
HETATM   38  C   UNL     1      -7.889   7.214  64.407  1.00  0.00    -0.115 C  
HETATM   39  N   UNL     1      -6.972   4.912  64.605  1.00  0.00    -0.049 NA 
HETATM   40  C   UNL     1      -8.640   8.300  65.188  1.00  0.00    -0.105 C  
HETATM   41  H2  UNL     1      -6.951   4.035  65.125  1.00  0.00     0.000 HD 
HETATM   42  O   UNL     1      -6.533   7.614  64.161  1.00  0.00    -0.051 OA 
HETATM   43  H1  UNL     1      -7.206   4.766  63.623  1.00  0.00     0.000 HD 
HETATM   44  C   UNL     1      -8.663   9.648  64.490  1.00  0.00    -0.227 C  
HETATM   45  H   UNL     1      -6.524   8.426  63.668  1.00  0.00     0.000 HD 
HETATM   46  O   UNL     1      -8.039   8.474  66.485  1.00  0.00    -0.101 OA 
ENDBRANCH  34  35
ENDBRANCH  22  34
ENDBRANCH   2   3
TORSDOF 5
ENDMDL
MODEL      115
REMARK 921   NORMALIZED FREE ENERGY PREDICTED BY IDOCK:   -1.09 KCAL/MOL
REMARK 922        TOTAL FREE ENERGY PREDICTED BY IDOCK:   -2.68 KCAL/MOL
REMARK 923 INTER-LIGAND FREE ENERGY PREDICTED BY IDOCK:   -4.94 KCAL/MOL
REMARK 924 INTRA-LIGAND FREE ENERGY PREDICTED BY IDOCK:    2.26 KCAL/MOL
REMARK 927      BINDING AFFINITY PREDICTED BY RF-SCORE:    0.00 PKD
ROOT
HETATM    1  C   UNL     1     -10.637   4.193  64.940  1.00  0.00    -0.148 C  
HETATM    2  O   UNL     1      -9.446   4.746  65.489  1.00  0.00    -0.158 OA 
ENDROOT
BRANCH   2   3
HETATM    3  C   UNL     1      -9.261   4.617  66.841  1.00  0.00    -0.127 A  
HETATM    4  C   UNL     1      -9.564   3.429  67.523  1.00  0.00    -0.152 A  
HETATM    5  C   UNL     1      -9.403   3.340  68.902  1.00  0.00    -0.232 A  
HETATM    6  C   UNL     1      -8.950   4.443  69.614  1.00  0.00    -0.152 A  
HETATM    7  C   UNL     1      -8.651   5.643  68.947  1.00  0.00    -0.101 A  
HETATM    8  C   UNL     1      -8.801   5.740  67.565  1.00  0.00    -0.106 A  
HETATM    9  C   UNL     1      -8.445   7.022  66.905  1.00  0.00    -0.119 C  
HETATM   10  O   UNL     1      -8.578   7.197  65.696  1.00  0.00    -0.148 OA 
HETATM   11  C   UNL     1      -7.909   8.154  67.698  1.00  0.00    -0.114 A  
HETATM   12  C   UNL     1      -7.517   9.348  67.054  1.00  0.00    -0.091 A  
HETATM   13  O   UNL     1      -7.580   9.481  65.685  1.00  0.00    -0.097 OA 
HETATM   14  C   UNL     1      -7.080  10.477  67.776  1.00  0.00    -0.083 A  
HETATM   15  H   UNL     1      -7.316  10.284  65.252  1.00  0.00     0.000 HD 
HETATM   16  C   UNL     1      -7.059  10.410  69.184  1.00  0.00    -0.080 A  
HETATM   17  C   UNL     1      -7.389   9.192  69.818  1.00  0.00    -0.064 A  
HETATM   18  C   UNL     1      -6.685  11.625  70.014  1.00  0.00     0.147 C  
HETATM   19  C   UNL     1      -6.716  12.972  69.271  1.00  0.00    -0.062 C  
HETATM   20  C   UNL     1      -7.819   8.065  69.085  1.00  0.00    -0.108 A  
HETATM   21  O   UNL     1      -7.330   9.098  71.182  1.00  0.00    -0.160 OA 
HETATM   22  C   UNL     1      -6.841  11.791  67.040  1.00  0.00    -0.137 C  
HETATM   23  C   UNL     1      -8.175   6.786  69.753  1.00  0.00    -0.127 C  
HETATM   24  C   UNL     1      -6.079  12.809  67.888  1.00  0.00    -0.116 C  
HETATM   25  O   UNL     1      -8.061  13.444  69.182  1.00  0.00    -0.328 OA 
HETATM   26  H   UNL     1      -7.551   8.279  71.609  1.00  0.00     0.000 HD 
HETATM   27  O   UNL     1      -8.073   6.622  70.962  1.00  0.00    -0.116 OA 
HETATM   28  H   UNL     1      -8.080  14.276  68.723  1.00  0.00     0.000 HD 
BRANCH  19  29
HETATM   29  C   UNL     1      -5.968  14.034  70.101  1.00  0.00    -0.151 C  
HETATM   30  O   UNL     1      -5.128  13.737  70.957  1.00  0.00    -0.107 OA 
BRANCH  29  31
HETATM   31  C   UNL     1      -6.320  15.499  69.855  1.00  0.00    -0.151 C  
HETATM   32  O   UNL     1      -5.301  16.356  70.354  1.00  0.00    -0.175 OA 
HETATM   33  H   UNL     1      -5.519  17.268  70.201  1.00  0.00     0.000 HD 
ENDBRANCH  29  31
ENDBRANCH  19  29
BRANCH  22  34
HETATM   34  O   UNL     1      -8.172  12.207  66.792  1.00  0.00    -0.164 OA 
BRANCH  34  35
HETATM   35  C   UNL     1      -9.284  11.359  66.986  1.00  0.00    -0.169 C  
HETATM   36  C   UNL     1     -10.634  11.984  67.350  1.00  0.00    -0.253 C  
HETATM   37  C   UNL     1     -11.251  12.801  66.205  1.00  0.00    -0.300 C  
HETATM   38  C   UNL     1     -11.143  12.073  64.846  1.00  0.00    -0.316 C  
HETATM   39  N   UNL     1     -12.666  13.118  66.510  1.00  0.00    -0.082 NA 
HETATM   40  C   UNL     1      -9.724  11.518  64.669  1.00  0.00    -0.212 C  
HETATM   41  H2  UNL     1     -12.766  13.587  67.410  1.00  0.00     0.000 HD 
HETATM   42  O   UNL     1     -12.112  11.016  64.788  1.00  0.00     0.628 OA 
HETATM   43  H1  UNL     1     -13.075  13.661  65.750  1.00  0.00     0.000 HD 
HETATM   44  C   UNL     1      -9.522  10.762  63.369  1.00  0.00    -0.345 C  
HETATM   45  H   UNL     1     -12.045  10.569  63.953  1.00  0.00     0.000 HD 
HETATM   46  O   UNL     1      -9.406  10.632  65.760  1.00  0.00    -0.171 OA 
ENDBRANCH  34  35
ENDBRANCH  22  34
ENDBRANCH   2   3
TORSDOF 5
ENDMDL
MODEL      116
REMARK 921   NORMALIZED FREE ENERGY PREDICTED BY IDOCK:   -0.47 KCAL/MOL
REMARK 922        TOTAL FREE ENERGY PREDICTED BY IDOCK:   -1.89 KCAL/MOL
REMARK 923 INTER-LIGAND FREE ENERGY PREDICTED BY IDOCK:   -3.30 KCAL/MOL
REMARK 924 INTRA-LIGAND FREE ENERGY PREDICTED BY IDOCK:    1.40 KCAL/MOL
REMARK 927      BINDING AFFINITY PREDICTED BY RF-SCORE:    0.00 PKD
ROOT
HETATM    1  C   UNL     1     -14.143  11.050  72.590  1.00  0.00     1.359 C  
HETATM    2  O   UNL     1     -12.884  11.711  72.640  1.00  0.00     0.419 OA 
ENDROOT
BRANCH   2   3
HETATM    3  C   UNL     1     -12.742  12.844  71.883  1.00  0.00    -0.096 A  
HETATM    4  C   UNL     1     -13.430  14.029  72.183  1.00  0.00    -0.567 A  
HETATM    5  C   UNL     1     -13.297  15.154  71.374  1.00  0.00    -0.547 A  
HETATM    6  C   UNL     1     -12.483  15.099  70.250  1.00  0.00    -0.388 A  
HETATM    7  C   UNL     1     -11.794  13.917  69.930  1.00  0.00    -0.394 A  
HETATM    8  C   UNL     1     -11.915  12.787  70.739  1.00  0.00    -0.085 A  
HETATM    9  C   UNL     1     -11.143  11.572  70.373  1.00  0.00     0.613 C  
HETATM   10  O   UNL     1     -11.220  10.528  71.016  1.00  0.00    -0.187 OA 
HETATM   11  C   UNL     1     -10.241  11.578  69.196  1.00  0.00    -0.038 A  
HETATM   12  C   UNL     1      -9.467  10.437  68.891  1.00  0.00    -0.186 A  
HETATM   13  O   UNL     1      -9.493   9.316  69.689  1.00  0.00    -0.163 OA 
HETATM   14  C   UNL     1      -8.659  10.370  67.738  1.00  0.00    -0.122 A  
HETATM   15  H   UNL     1      -8.972   8.549  69.484  1.00  0.00     0.000 HD 
HETATM   16  C   UNL     1      -8.649  11.471  66.858  1.00  0.00    -0.163 A  
HETATM   17  C   UNL     1      -9.373  12.634  67.202  1.00  0.00    -0.210 A  
HETATM   18  C   UNL     1      -7.870  11.418  65.555  1.00  0.00     0.477 C  
HETATM   19  C   UNL     1      -7.440  10.013  65.097  1.00  0.00    -0.139 C  
HETATM   20  C   UNL     1     -10.174  12.692  68.364  1.00  0.00    -0.233 A  
HETATM   21  O   UNL     1      -9.338  13.726  66.379  1.00  0.00    -0.373 OA 
HETATM   22  C   UNL     1      -7.988   9.052  67.368  1.00  0.00    -0.100 C  
HETATM   23  C   UNL     1     -10.944  13.912  68.723  1.00  0.00    -0.263 C  
HETATM   24  C   UNL     1      -6.912   9.221  66.295  1.00  0.00    -0.087 C  
HETATM   25  O   UNL     1      -8.540   9.352  64.468  1.00  0.00    -0.176 OA 
HETATM   26  H   UNL     1      -9.824  14.508  66.611  1.00  0.00     0.000 HD 
HETATM   27  O   UNL     1     -10.893  14.943  68.063  1.00  0.00    -0.251 OA 
HETATM   28  H   UNL     1      -8.274   8.484  64.185  1.00  0.00     0.000 HD 
BRANCH  19  29
HETATM   29  C   UNL     1      -6.362  10.138  64.001  1.00  0.00    -0.126 C  
HETATM   30  O   UNL     1      -5.468  10.989  64.043  1.00  0.00    -0.072 OA 
BRANCH  29  31
HETATM   31  C   UNL     1      -6.446   9.179  62.815  1.00  0.00    -0.094 C  
HETATM   32  O   UNL     1      -7.755   8.637  62.693  1.00  0.00    -0.110 OA 
HETATM   33  H   UNL     1      -7.807   8.041  61.955  1.00  0.00     0.000 HD 
ENDBRANCH  29  31
ENDBRANCH  19  29
BRANCH  22  34
HETATM   34  O   UNL     1      -9.095   8.310  66.889  1.00  0.00    -0.138 OA 
BRANCH  34  35
HETATM   35  C   UNL     1      -9.438   7.039  67.399  1.00  0.00    -0.133 C  
HETATM   36  C   UNL     1      -9.291   5.815  66.491  1.00  0.00    -0.162 C  
HETATM   37  C   UNL     1      -7.829   5.471  66.171  1.00  0.00    -0.100 C  
HETATM   38  C   UNL     1      -6.926   5.546  67.423  1.00  0.00    -0.069 C  
HETATM   39  N   UNL     1      -7.745   4.128  65.553  1.00  0.00    -0.085 NA 
HETATM   40  C   UNL     1      -7.224   6.836  68.198  1.00  0.00    -0.091 C  
HETATM   41  H2  UNL     1      -8.344   4.048  64.731  1.00  0.00     0.000 HD 
HETATM   42  O   UNL     1      -7.152   4.394  68.248  1.00  0.00    -0.058 OA 
HETATM   43  H1  UNL     1      -6.774   3.900  65.339  1.00  0.00     0.000 HD 
HETATM   44  C   UNL     1      -6.400   6.991  69.464  1.00  0.00    -0.035 C  
HETATM   45  H   UNL     1      -6.598   4.440  69.018  1.00  0.00     0.000 HD 
HETATM   46  O   UNL     1      -8.617   6.878  68.559  1.00  0.00    -0.123 OA 
ENDBRANCH  34  35
ENDBRANCH  22  34
ENDBRANCH   2   3
TORSDOF 5
ENDMDL
MODEL      117
REMARK 921   NORMALIZED FREE ENERGY PREDICTED BY IDOCK:   -0.14 KCAL/MOL
REMARK 922        TOTAL FREE ENERGY PREDICTED BY IDOCK:   -1.46 KCAL/MOL
REMARK 923 INTER-LIGAND FREE ENERGY PREDICTED BY IDOCK:   -5.38 KCAL/MOL
REMARK 924 INTRA-LIGAND FREE ENERGY PREDICTED BY IDOCK:    3.92 KCAL/MOL
REMARK 927      BINDING AFFINITY PREDICTED BY RF-SCORE:    0.00 PKD
ROOT
HETATM    1  C   UNL     1      -5.966  16.548  69.702  1.00  0.00    -0.200 C  
HETATM    2  O   UNL     1      -6.117  16.059  68.374  1.00  0.00    -0.099 OA 
ENDROOT
BRANCH   2   3
HETATM    3  C   UNL     1      -7.367  16.127  67.819  1.00  0.00    -0.135 A  
HETATM    4  C   UNL     1      -7.824  17.274  67.153  1.00  0.00    -0.223 A  
HETATM    5  C   UNL     1      -9.114  17.330  66.634  1.00  0.00    -0.286 A  
HETATM    6  C   UNL     1      -9.964  16.242  66.787  1.00  0.00    -0.268 A  
HETATM    7  C   UNL     1      -9.525  15.089  67.460  1.00  0.00    -0.203 A  
HETATM    8  C   UNL     1      -8.232  15.020  67.977  1.00  0.00    -0.138 A  
HETATM    9  C   UNL     1      -7.809  13.769  68.654  1.00  0.00    -0.108 C  
HETATM   10  O   UNL     1      -6.698  13.641  69.163  1.00  0.00    -0.108 OA 
HETATM   11  C   UNL     1      -8.732  12.611  68.743  1.00  0.00     0.169 A  
HETATM   12  C   UNL     1      -8.299  11.404  69.336  1.00  0.00     0.421 A  
HETATM   13  O   UNL     1      -7.014  11.253  69.806  1.00  0.00    -0.276 OA 
HETATM   14  C   UNL     1      -9.167  10.308  69.515  1.00  0.00    -0.191 A  
HETATM   15  H   UNL     1      -6.724  10.442  70.204  1.00  0.00     0.000 HD 
HETATM   16  C   UNL     1     -10.510  10.438  69.107  1.00  0.00    -0.248 A  
HETATM   17  C   UNL     1     -10.918  11.623  68.455  1.00  0.00    -0.220 A  
HETATM   18  C   UNL     1     -11.510   9.324  69.359  1.00  0.00     0.246 C  
HETATM   19  C   UNL     1     -11.078   8.265  70.388  1.00  0.00    -0.235 C  
HETATM   20  C   UNL     1     -10.039  12.712  68.275  1.00  0.00    -0.233 A  
HETATM   21  O   UNL     1     -12.208  11.746  68.013  1.00  0.00    -0.518 OA 
HETATM   22  C   UNL     1      -8.695   9.102  70.320  1.00  0.00    -0.200 C  
HETATM   23  C   UNL     1     -10.471  13.963  67.597  1.00  0.00    -0.245 C  
HETATM   24  C   UNL     1      -9.613   7.890  70.155  1.00  0.00    -0.175 C  
HETATM   25  O   UNL     1     -11.294   8.759  71.711  1.00  0.00    -0.292 OA 
HETATM   26  H   UNL     1     -12.482  12.542  67.575  1.00  0.00     0.000 HD 
HETATM   27  O   UNL     1     -11.590  14.102  67.119  1.00  0.00    -0.336 OA 
HETATM   28  H   UNL     1     -11.027   8.105  72.347  1.00  0.00     0.000 HD 
BRANCH  19  29
HETATM   29  C   UNL     1     -11.989   7.027  70.265  1.00  0.00    -0.147 C  
HETATM   30  O   UNL     1     -11.980   6.291  69.272  1.00  0.00     0.123 OA 
BRANCH  29  31
HETATM   31  C   UNL     1     -12.952   6.741  71.415  1.00  0.00    -0.186 C  
HETATM   32  O   UNL     1     -13.621   7.928  71.824  1.00  0.00    -0.344 OA 
HETATM   33  H   UNL     1     -14.220   7.750  72.539  1.00  0.00     0.000 HD 
ENDBRANCH  29  31
ENDBRANCH  19  29
BRANCH  22  34
HETATM   34  O   UNL     1      -8.743   9.620  71.637  1.00  0.00     0.082 OA 
BRANCH  34  35
HETATM   35  C   UNL     1      -8.794   8.792  72.780  1.00  0.00     0.221 C  
HETATM   36  C   UNL     1      -9.110   7.304  72.599  1.00  0.00    -0.169 C  
HETATM   37  C   UNL     1      -7.990   6.530  71.888  1.00  0.00    -0.103 C  
HETATM   38  C   UNL     1      -6.590   6.905  72.427  1.00  0.00    -0.058 C  
HETATM   39  N   UNL     1      -8.219   5.072  72.015  1.00  0.00    -0.114 NA 
HETATM   40  C   UNL     1      -6.472   8.431  72.539  1.00  0.00    -0.087 C  
HETATM   41  H2  UNL     1      -9.142   4.800  71.679  1.00  0.00     0.000 HD 
HETATM   42  O   UNL     1      -6.386   6.286  73.705  1.00  0.00    -0.064 OA 
HETATM   43  H1  UNL     1      -7.475   4.558  71.542  1.00  0.00     0.000 HD 
HETATM   44  C   UNL     1      -5.135   8.900  73.084  1.00  0.00    -0.069 C  
HETATM   45  H   UNL     1      -5.526   6.516  74.037  1.00  0.00     0.000 HD 
HETATM   46  O   UNL     1      -7.512   8.940  73.395  1.00  0.00    -0.368 OA 
ENDBRANCH  34  35
ENDBRANCH  22  34
ENDBRANCH   2   3
TORSDOF 5
ENDMDL
MODEL      118
REMARK 921   NORMALIZED FREE ENERGY PREDICTED BY IDOCK:   -0.05 KCAL/MOL
REMARK 922        TOTAL FREE ENERGY PREDICTED BY IDOCK:   -1.35 KCAL/MOL
REMARK 923 INTER-LIGAND FREE ENERGY PREDICTED BY IDOCK:   -4.18 KCAL/MOL
REMARK 924 INTRA-LIGAND FREE ENERGY PREDICTED BY IDOCK:    2.83 KCAL/MOL
REMARK 927      BINDING AFFINITY PREDICTED BY RF-SCORE:    0.00 PKD
ROOT
HETATM    1  C   UNL     1     -12.003   7.228  73.556  1.00  0.00     1.640 C  
HETATM    2  O   UNL     1     -12.694   7.520  72.347  1.00  0.00    -0.100 OA 
ENDROOT
BRANCH   2   3
HETATM    3  C   UNL     1     -12.634   8.809  71.886  1.00  0.00    -0.371 A  
HETATM    4  C   UNL     1     -13.438   9.827  72.420  1.00  0.00    -0.364 A  
HETATM    5  C   UNL     1     -13.384  11.119  71.906  1.00  0.00    -0.409 A  
HETATM    6  C   UNL     1     -12.533  11.402  70.845  1.00  0.00    -0.478 A  
HETATM    7  C   UNL     1     -11.728  10.391  70.293  1.00  0.00    -0.406 A  
HETATM    8  C   UNL     1     -11.770   9.095  70.805  1.00  0.00    -0.308 A  
HETATM    9  C   UNL     1     -10.878   8.070  70.205  1.00  0.00    -0.241 C  
HETATM   10  O   UNL     1     -10.878   6.901  70.580  1.00  0.00    -0.234 OA 
HETATM   11  C   UNL     1      -9.944   8.432  69.112  1.00  0.00    -0.197 A  
HETATM   12  C   UNL     1      -9.058   7.465  68.587  1.00  0.00    -0.134 A  
HETATM   13  O   UNL     1      -9.006   6.187  69.096  1.00  0.00    -0.126 OA 
HETATM   14  C   UNL     1      -8.212   7.742  67.494  1.00  0.00    -0.124 A  
HETATM   15  H   UNL     1      -8.410   5.536  68.744  1.00  0.00     0.000 HD 
HETATM   16  C   UNL     1      -8.276   9.018  66.900  1.00  0.00    -0.116 A  
HETATM   17  C   UNL     1      -9.116  10.001  67.470  1.00  0.00    -0.134 A  
HETATM   18  C   UNL     1      -7.456   9.342  65.664  1.00  0.00    -0.094 C  
HETATM   19  C   UNL     1      -6.884   8.128  64.911  1.00  0.00    -0.062 C  
HETATM   20  C   UNL     1      -9.954   9.715  68.569  1.00  0.00    -0.182 A  
HETATM   21  O   UNL     1      -9.155  11.258  66.930  1.00  0.00    -0.160 OA 
HETATM   22  C   UNL     1      -7.411   6.610  66.861  1.00  0.00    -0.087 C  
HETATM   23  C   UNL     1     -10.844  10.745  69.164  1.00  0.00    -0.237 C  
HETATM   24  C   UNL     1      -6.323   7.119  65.915  1.00  0.00    -0.044 C  
HETATM   25  O   UNL     1      -7.897   7.548  64.088  1.00  0.00    -0.129 OA 
HETATM   26  H   UNL     1      -9.719  11.919  67.314  1.00  0.00     0.000 HD 
HETATM   27  O   UNL     1     -10.868  11.904  68.769  1.00  0.00    -0.216 OA 
HETATM   28  H   UNL     1      -7.544   6.798  63.622  1.00  0.00     0.000 HD 
BRANCH  19  29
HETATM   29  C   UNL     1      -5.789   8.599  63.934  1.00  0.00    -0.071 C  
HETATM   30  O   UNL     1      -5.382   7.897  63.002  1.00  0.00    -0.049 OA 
BRANCH  29  31
HETATM   31  C   UNL     1      -5.179   9.980  64.168  1.00  0.00    -0.093 C  
HETATM   32  O   UNL     1      -5.584  10.506  65.426  1.00  0.00    -0.103 OA 
HETATM   33  H   UNL     1      -5.204  11.364  65.572  1.00  0.00     0.000 HD 
ENDBRANCH  29  31
ENDBRANCH  19  29
BRANCH  22  34
HETATM   34  O   UNL     1      -8.429   5.916  66.163  1.00  0.00    -0.122 OA 
BRANCH  34  35
HETATM   35  C   UNL     1      -8.452   4.508  66.052  1.00  0.00    -0.114 C  
HETATM   36  C   UNL     1      -7.933   3.861  64.765  1.00  0.00    -0.089 C  
HETATM   37  C   UNL     1      -6.416   4.013  64.581  1.00  0.00    -0.042 C  
HETATM   38  C   UNL     1      -5.640   3.731  65.887  1.00  0.00    -0.018 C  
HETATM   39  N   UNL     1      -5.942   3.123  63.496  1.00  0.00    -0.013 NA 
HETATM   40  C   UNL     1      -6.314   4.461  67.056  1.00  0.00    -0.040 C  
HETATM   41  H2  UNL     1      -6.449   3.279  62.625  1.00  0.00     0.000 HD 
HETATM   42  O   UNL     1      -5.600   2.317  66.127  1.00  0.00    -0.015 OA 
HETATM   43  H1  UNL     1      -4.934   3.224  63.374  1.00  0.00     0.000 HD 
HETATM   44  C   UNL     1      -5.637   4.227  68.394  1.00  0.00    -0.016 C  
HETATM   45  H   UNL     1      -5.124   2.143  66.931  1.00  0.00     0.000 HD 
HETATM   46  O   UNL     1      -7.688   4.042  67.167  1.00  0.00    -0.083 OA 
ENDBRANCH  34  35
ENDBRANCH  22  34
ENDBRANCH   2   3
TORSDOF 5
ENDMDL
MODEL      119
REMARK 921   NORMALIZED FREE ENERGY PREDICTED BY IDOCK:    0.46 KCAL/MOL
REMARK 922        TOTAL FREE ENERGY PREDICTED BY IDOCK:   -0.68 KCAL/MOL
REMARK 923 INTER-LIGAND FREE ENERGY PREDICTED BY IDOCK:   -3.09 KCAL/MOL
REMARK 924 INTRA-LIGAND FREE ENERGY PREDICTED BY IDOCK:    2.41 KCAL/MOL
REMARK 927      BINDING AFFINITY PREDICTED BY RF-SCORE:    0.00 PKD
ROOT
HETATM    1  C   UNL     1      -7.649   5.903  63.828  1.00  0.00    -0.082 C  
HETATM    2  O   UNL     1      -7.648   4.517  63.500  1.00  0.00    -0.057 OA 
ENDROOT
BRANCH   2   3
HETATM    3  C   UNL     1      -8.168   3.654  64.428  1.00  0.00    -0.090 A  
HETATM    4  C   UNL     1      -8.879   2.504  64.056  1.00  0.00    -0.092 A  
HETATM    5  C   UNL     1      -9.431   1.665  65.021  1.00  0.00     0.012 A  
HETATM    6  C   UNL     1      -9.286   1.977  66.366  1.00  0.00     0.017 A  
HETATM    7  C   UNL     1      -8.584   3.131  66.755  1.00  0.00    -0.121 A  
HETATM    8  C   UNL     1      -8.021   3.973  65.797  1.00  0.00    -0.097 A  
HETATM    9  C   UNL     1      -7.265   5.164  66.261  1.00  0.00    -0.077 C  
HETATM   10  O   UNL     1      -6.767   5.970  65.480  1.00  0.00    -0.045 OA 
HETATM   11  C   UNL     1      -7.087   5.425  67.710  1.00  0.00    -0.067 A  
HETATM   12  C   UNL     1      -6.316   6.527  68.141  1.00  0.00    -0.040 A  
HETATM   13  O   UNL     1      -5.682   7.356  67.244  1.00  0.00    -0.028 OA 
HETATM   14  C   UNL     1      -6.188   6.860  69.505  1.00  0.00    -0.034 A  
HETATM   15  H   UNL     1      -5.163   8.097  67.534  1.00  0.00     0.000 HD 
HETATM   16  C   UNL     1      -6.872   6.077  70.457  1.00  0.00    -0.054 A  
HETATM   17  C   UNL     1      -7.586   4.938  70.024  1.00  0.00    -0.055 A  
HETATM   18  C   UNL     1      -6.844   6.444  71.930  1.00  0.00    -0.068 C  
HETATM   19  C   UNL     1      -6.375   7.875  72.248  1.00  0.00    -0.052 C  
HETATM   20  C   UNL     1      -7.703   4.610  68.656  1.00  0.00    -0.072 A  
HETATM   21  O   UNL     1      -8.219   4.143  70.941  1.00  0.00    -0.069 OA 
HETATM   22  C   UNL     1      -5.494   8.159  69.898  1.00  0.00    -0.023 C  
HETATM   23  C   UNL     1      -8.462   3.416  68.199  1.00  0.00    -0.086 C  
HETATM   24  C   UNL     1      -5.157   8.219  71.388  1.00  0.00    -0.029 C  
HETATM   25  O   UNL     1      -7.449   8.794  72.038  1.00  0.00    -0.271 OA 
HETATM   26  H   UNL     1      -8.699   3.377  70.650  1.00  0.00     0.000 HD 
HETATM   27  O   UNL     1      -8.987   2.630  68.978  1.00  0.00    -0.089 OA 
HETATM   28  H   UNL     1      -7.159   9.677  72.235  1.00  0.00     0.000 HD 
BRANCH  19  29
HETATM   29  C   UNL     1      -6.038   7.983  73.748  1.00  0.00    -0.087 C  
HETATM   30  O   UNL     1      -6.287   7.078  74.553  1.00  0.00    -0.082 OA 
BRANCH  29  31
HETATM   31  C   UNL     1      -5.399   9.281  74.237  1.00  0.00    -0.129 C  
HETATM   32  O   UNL     1      -6.036  10.411  73.654  1.00  0.00     0.353 OA 
HETATM   33  H   UNL     1      -5.639  11.218  73.958  1.00  0.00     0.000 HD 
ENDBRANCH  29  31
ENDBRANCH  19  29
BRANCH  22  34
HETATM   34  O   UNL     1      -6.481   9.111  69.545  1.00  0.00    -0.042 OA 
BRANCH  34  35
HETATM   35  C   UNL     1      -6.164  10.438  69.178  1.00  0.00    -0.041 C  
HETATM   36  C   UNL     1      -5.592  10.701  67.782  1.00  0.00    -0.043 C  
HETATM   37  C   UNL     1      -6.609  10.460  66.656  1.00  0.00    -0.082 C  
HETATM   38  C   UNL     1      -7.996  11.059  66.987  1.00  0.00    -0.137 C  
HETATM   39  N   UNL     1      -6.098  11.013  65.381  1.00  0.00    -0.364 NA 
HETATM   40  C   UNL     1      -8.389  10.689  68.423  1.00  0.00    -0.127 C  
HETATM   41  H2  UNL     1      -5.177  10.644  65.147  1.00  0.00     0.000 HD 
HETATM   42  O   UNL     1      -7.955  12.484  66.823  1.00  0.00    -0.382 OA 
HETATM   43  H1  UNL     1      -6.774  10.853  64.633  1.00  0.00     0.000 HD 
HETATM   44  C   UNL     1      -9.731  11.253  68.852  1.00  0.00    -0.141 C  
HETATM   45  H   UNL     1      -8.807  12.852  67.026  1.00  0.00     0.000 HD 
HETATM   46  O   UNL     1      -7.386  11.163  69.341  1.00  0.00    -0.118 OA 
ENDBRANCH  34  35
ENDBRANCH  22  34
ENDBRANCH   2   3
TORSDOF 5
ENDMDL
MODEL      120
REMARK 921   NORMALIZED FREE ENERGY PREDICTED BY IDOCK:    1.09 KCAL/MOL
REMARK 922        TOTAL FREE ENERGY PREDICTED BY IDOCK:    0.13 KCAL/MOL
REMARK 923 INTER-LIGAND FREE ENERGY PREDICTED BY IDOCK:   -4.63 KCAL/MOL
REMARK 924 INTRA-LIGAND FREE ENERGY PREDICTED BY IDOCK:    4.75 KCAL/MOL
REMARK 927      BINDING AFFINITY PREDICTED BY RF-SCORE:    0.00 PKD
ROOT
HETATM    1  C   UNL     1     -12.182  15.053  70.151  1.00  0.00    -0.343 C  
HETATM    2  O   UNL     1     -13.119  14.681  71.156  1.00  0.00    -0.336 OA 
ENDROOT
BRANCH   2   3
HETATM    3  C   UNL     1     -13.285  13.342  71.393  1.00  0.00    -0.250 A  
HETATM    4  C   UNL     1     -14.276  12.858  72.260  1.00  0.00    -0.049 A  
HETATM    5  C   UNL     1     -14.396  11.494  72.512  1.00  0.00     1.356 A  
HETATM    6  C   UNL     1     -13.517  10.604  71.909  1.00  0.00    -0.341 A  
HETATM    7  C   UNL     1     -12.513  11.074  71.046  1.00  0.00    -0.512 A  
HETATM    8  C   UNL     1     -12.389  12.437  70.781  1.00  0.00    -0.377 A  
HETATM    9  C   UNL     1     -11.330  12.879  69.839  1.00  0.00     0.039 C  
HETATM   10  O   UNL     1     -11.137  14.063  69.577  1.00  0.00    -0.230 OA 
HETATM   11  C   UNL     1     -10.452  11.886  69.173  1.00  0.00    -0.035 A  
HETATM   12  C   UNL     1      -9.486  12.312  68.234  1.00  0.00    -0.209 A  
HETATM   13  O   UNL     1      -9.360  13.636  67.881  1.00  0.00    -0.191 OA 
HETATM   14  C   UNL     1      -8.577  11.413  67.639  1.00  0.00    -0.130 A  
HETATM   15  H   UNL     1      -8.711  13.922  67.250  1.00  0.00     0.000 HD 
HETATM   16  C   UNL     1      -8.627  10.056  68.017  1.00  0.00    -0.121 A  
HETATM   17  C   UNL     1      -9.637   9.626  68.906  1.00  0.00    -0.161 A  
HETATM   18  C   UNL     1      -7.613   9.062  67.479  1.00  0.00    -0.089 C  
HETATM   19  C   UNL     1      -6.355   9.677  66.840  1.00  0.00    -0.066 C  
HETATM   20  C   UNL     1     -10.547  10.534  69.491  1.00  0.00    -0.278 A  
HETATM   21  O   UNL     1      -9.725   8.304  69.248  1.00  0.00    -0.172 OA 
HETATM   22  C   UNL     1      -7.446  11.955  66.773  1.00  0.00    -0.017 C  
HETATM   23  C   UNL     1     -11.604  10.084  70.433  1.00  0.00    -0.302 C  
HETATM   24  C   UNL     1      -6.755  10.862  65.957  1.00  0.00    -0.073 C  
HETATM   25  O   UNL     1      -5.435  10.065  67.861  1.00  0.00    -0.039 OA 
HETATM   26  H   UNL     1     -10.404   8.015  69.845  1.00  0.00     0.000 HD 
HETATM   27  O   UNL     1     -11.775   8.905  70.720  1.00  0.00    -0.280 OA 
HETATM   28  H   UNL     1      -4.658  10.444  67.467  1.00  0.00     0.000 HD 
BRANCH  19  29
HETATM   29  C   UNL     1      -5.618   8.601  66.017  1.00  0.00    -0.042 C  
HETATM   30  O   UNL     1      -5.262   7.522  66.502  1.00  0.00    -0.023 OA 
BRANCH  29  31
HETATM   31  C   UNL     1      -5.303   8.922  64.558  1.00  0.00    -0.051 C  
HETATM   32  O   UNL     1      -6.196   8.243  63.685  1.00  0.00    -0.071 OA 
HETATM   33  H   UNL     1      -6.000   8.442  62.777  1.00  0.00     0.000 HD 
ENDBRANCH  29  31
ENDBRANCH  19  29
BRANCH  22  34
HETATM   34  O   UNL     1      -6.586  12.497  67.758  1.00  0.00    -0.091 OA 
BRANCH  34  35
HETATM   35  C   UNL     1      -5.912  13.726  67.588  1.00  0.00    -0.060 C  
HETATM   36  C   UNL     1      -6.737  14.993  67.343  1.00  0.00    -0.104 C  
HETATM   37  C   UNL     1      -7.557  15.426  68.567  1.00  0.00    -0.122 C  
HETATM   38  C   UNL     1      -6.737  15.348  69.875  1.00  0.00    -0.130 C  
HETATM   39  N   UNL     1      -8.084  16.797  68.369  1.00  0.00    -0.209 NA 
HETATM   40  C   UNL     1      -5.983  14.013  69.932  1.00  0.00    -0.133 C  
HETATM   41  H2  UNL     1      -8.617  16.879  67.504  1.00  0.00     0.000 HD 
HETATM   42  O   UNL     1      -5.821  16.451  69.935  1.00  0.00    -0.182 OA 
HETATM   43  H1  UNL     1      -8.629  17.084  69.182  1.00  0.00     0.000 HD 
HETATM   44  C   UNL     1      -5.126  13.849  71.174  1.00  0.00    -0.132 C  
HETATM   45  H   UNL     1      -5.317  16.403  70.739  1.00  0.00     0.000 HD 
HETATM   46  O   UNL     1      -5.133  13.882  68.777  1.00  0.00    -0.072 OA 
ENDBRANCH  34  35
ENDBRANCH  22  34
ENDBRANCH   2   3
TORSDOF 5
ENDMDL
MODEL      121
REMARK 921   NORMALIZED FREE ENERGY PREDICTED BY IDOCK:    1.58 KCAL/MOL
REMARK 922        TOTAL FREE ENERGY PREDICTED BY IDOCK:    0.76 KCAL/MOL
REMARK 923 INTER-LIGAND FREE ENERGY PREDICTED BY IDOCK:   -4.20 KCAL/MOL
REMARK 924 INTRA-LIGAND FREE ENERGY PREDICTED BY IDOCK:    4.97 KCAL/MOL
REMARK 927      BINDING AFFINITY PREDICTED BY RF-SCORE:    0.00 PKD
ROOT
HETATM    1  C   UNL     1      -7.843  14.870  70.475  1.00  0.00     1.129 C  
HETATM    2  O   UNL     1      -8.259  15.624  69.342  1.00  0.00    -0.240 OA 
ENDROOT
BRANCH   2   3
HETATM    3  C   UNL     1      -9.440  15.262  68.748  1.00  0.00    -0.212 A  
HETATM    4  C   UNL     1     -10.529  16.142  68.663  1.00  0.00    -0.269 A  
HETATM    5  C   UNL     1     -11.730  15.735  68.090  1.00  0.00    -0.175 A  
HETATM    6  C   UNL     1     -11.856  14.438  67.608  1.00  0.00    -0.412 A  
HETATM    7  C   UNL     1     -10.778  13.542  67.694  1.00  0.00    -0.257 A  
HETATM    8  C   UNL     1      -9.568  13.942  68.260  1.00  0.00    -0.218 A  
HETATM    9  C   UNL     1      -8.451  12.965  68.302  1.00  0.00    -0.161 C  
HETATM   10  O   UNL     1      -7.365  13.232  68.811  1.00  0.00    -0.103 OA 
HETATM   11  C   UNL     1      -8.613  11.610  67.722  1.00  0.00    -0.144 A  
HETATM   12  C   UNL     1      -7.526  10.709  67.713  1.00  0.00    -0.091 A  
HETATM   13  O   UNL     1      -6.288  11.069  68.197  1.00  0.00    -0.056 OA 
HETATM   14  C   UNL     1      -7.658   9.384  67.247  1.00  0.00    -0.091 A  
HETATM   15  H   UNL     1      -5.558  10.463  68.191  1.00  0.00     0.000 HD 
HETATM   16  C   UNL     1      -8.923   8.951  66.801  1.00  0.00    -0.155 A  
HETATM   17  C   UNL     1      -9.989   9.877  66.750  1.00  0.00    -0.214 A  
HETATM   18  C   UNL     1      -9.144   7.510  66.375  1.00  0.00    -0.210 C  
HETATM   19  C   UNL     1      -8.058   6.514  66.817  1.00  0.00    -0.109 C  
HETATM   20  C   UNL     1      -9.843  11.202  67.213  1.00  0.00    -0.198 A  
HETATM   21  O   UNL     1     -11.210   9.481  66.278  1.00  0.00     0.651 OA 
HETATM   22  C   UNL     1      -6.502   8.408  67.428  1.00  0.00    -0.058 C  
HETATM   23  C   UNL     1     -10.967  12.174  67.169  1.00  0.00    -0.268 C  
HETATM   24  C   UNL     1      -6.675   7.133  66.602  1.00  0.00    -0.060 C  
HETATM   25  O   UNL     1      -8.267   6.144  68.181  1.00  0.00    -0.113 OA 
HETATM   26  H   UNL     1     -11.927  10.104  66.243  1.00  0.00     0.000 HD 
HETATM   27  O   UNL     1     -12.060  11.898  66.691  1.00  0.00    -0.587 OA 
HETATM   28  H   UNL     1      -7.596   5.528  68.454  1.00  0.00     0.000 HD 
BRANCH  19  29
HETATM   29  C   UNL     1      -8.206   5.205  66.015  1.00  0.00    -0.114 C  
HETATM   30  O   UNL     1      -8.605   4.153  66.527  1.00  0.00    -0.111 OA 
BRANCH  29  31
HETATM   31  C   UNL     1      -7.807   5.230  64.541  1.00  0.00    -0.099 C  
HETATM   32  O   UNL     1      -8.925   5.538  63.718  1.00  0.00    -0.346 OA 
HETATM   33  H   UNL     1      -8.677   5.554  62.802  1.00  0.00     0.000 HD 
ENDBRANCH  29  31
ENDBRANCH  19  29
BRANCH  22  34
HETATM   34  O   UNL     1      -6.582   8.147  68.817  1.00  0.00    -0.051 OA 
BRANCH  34  35
HETATM   35  C   UNL     1      -6.993   6.899  69.336  1.00  0.00    -0.066 C  
HETATM   36  C   UNL     1      -6.040   6.133  70.258  1.00  0.00    -0.030 C  
HETATM   37  C   UNL     1      -5.837   6.815  71.619  1.00  0.00    -0.037 C  
HETATM   38  C   UNL     1      -7.168   7.318  72.223  1.00  0.00    -0.068 C  
HETATM   39  N   UNL     1      -5.161   5.890  72.557  1.00  0.00    -0.021 NA 
HETATM   40  C   UNL     1      -7.978   8.053  71.147  1.00  0.00    -0.094 C  
HETATM   41  H2  UNL     1      -4.286   5.532  72.176  1.00  0.00     0.000 HD 
HETATM   42  O   UNL     1      -7.910   6.205  72.744  1.00  0.00    -0.105 OA 
HETATM   43  H1  UNL     1      -5.026   6.343  73.461  1.00  0.00     0.000 HD 
HETATM   44  C   UNL     1      -9.320   8.566  71.638  1.00  0.00    -0.311 C  
HETATM   45  H   UNL     1      -8.728   6.514  73.116  1.00  0.00     0.000 HD 
HETATM   46  O   UNL     1      -8.213   7.177  70.029  1.00  0.00    -0.131 OA 
ENDBRANCH  34  35
ENDBRANCH  22  34
ENDBRANCH   2   3
TORSDOF 5
ENDMDL
MODEL      122
REMARK 921   NORMALIZED FREE ENERGY PREDICTED BY IDOCK:    1.66 KCAL/MOL
REMARK 922        TOTAL FREE ENERGY PREDICTED BY IDOCK:    0.87 KCAL/MOL
REMARK 923 INTER-LIGAND FREE ENERGY PREDICTED BY IDOCK:   -6.90 KCAL/MOL
REMARK 924 INTRA-LIGAND FREE ENERGY PREDICTED BY IDOCK:    7.77 KCAL/MOL
REMARK 927      BINDING AFFINITY PREDICTED BY RF-SCORE:    0.00 PKD
ROOT
HETATM    1  C   UNL     1     -10.038  20.177  69.330  1.00  0.00    -0.029 C  
HETATM    2  O   UNL     1      -9.242  19.101  69.815  1.00  0.00     0.320 OA 
ENDROOT
BRANCH   2   3
HETATM    3  C   UNL     1      -8.043  18.878  69.192  1.00  0.00    -0.067 A  
HETATM    4  C   UNL     1      -7.135  19.916  68.934  1.00  0.00    -0.325 A  
HETATM    5  C   UNL     1      -5.941  19.668  68.263  1.00  0.00    -0.255 A  
HETATM    6  C   UNL     1      -5.650  18.380  67.833  1.00  0.00    -0.164 A  
HETATM    7  C   UNL     1      -6.553  17.331  68.075  1.00  0.00    -0.168 A  
HETATM    8  C   UNL     1      -7.748  17.568  68.753  1.00  0.00    -0.252 A  
HETATM    9  C   UNL     1      -8.654  16.419  69.008  1.00  0.00    -0.230 C  
HETATM   10  O   UNL     1      -9.738  16.552  69.571  1.00  0.00    -0.179 OA 
HETATM   11  C   UNL     1      -8.274  15.051  68.582  1.00  0.00    -0.156 A  
HETATM   12  C   UNL     1      -9.116  13.956  68.882  1.00  0.00     0.098 A  
HETATM   13  O   UNL     1     -10.275  14.118  69.605  1.00  0.00    -0.415 OA 
HETATM   14  C   UNL     1      -8.834  12.652  68.425  1.00  0.00    -0.119 A  
HETATM   15  H   UNL     1     -10.841  13.382  69.807  1.00  0.00     0.000 HD 
HETATM   16  C   UNL     1      -7.690  12.450  67.628  1.00  0.00    -0.151 A  
HETATM   17  C   UNL     1      -6.819  13.535  67.387  1.00  0.00    -0.050 A  
HETATM   18  C   UNL     1      -7.389  11.085  67.033  1.00  0.00    -0.123 C  
HETATM   19  C   UNL     1      -8.563  10.090  67.030  1.00  0.00    -0.125 C  
HETATM   20  C   UNL     1      -7.106  14.836  67.855  1.00  0.00    -0.171 A  
HETATM   21  O   UNL     1      -5.681  13.344  66.651  1.00  0.00     0.361 OA 
HETATM   22  C   UNL     1      -9.867  11.549  68.628  1.00  0.00    -0.177 C  
HETATM   23  C   UNL     1      -6.195  15.981  67.594  1.00  0.00    -0.159 C  
HETATM   24  C   UNL     1      -9.294  10.155  68.373  1.00  0.00    -0.137 C  
HETATM   25  O   UNL     1      -9.436  10.375  65.937  1.00  0.00    -0.171 OA 
HETATM   26  H   UNL     1      -5.095  14.073  66.490  1.00  0.00     0.000 HD 
HETATM   27  O   UNL     1      -5.129  15.854  67.004  1.00  0.00    -0.328 OA 
HETATM   28  H   UNL     1     -10.161   9.760  65.935  1.00  0.00     0.000 HD 
BRANCH  19  29
HETATM   29  C   UNL     1      -8.029   8.668  66.762  1.00  0.00    -0.094 C  
HETATM   30  O   UNL     1      -8.484   7.945  65.870  1.00  0.00    -0.124 OA 
BRANCH  29  31
HETATM   31  C   UNL     1      -6.916   8.149  67.670  1.00  0.00    -0.078 C  
HETATM   32  O   UNL     1      -7.052   6.751  67.890  1.00  0.00    -0.080 OA 
HETATM   33  H   UNL     1      -6.360   6.427  68.454  1.00  0.00     0.000 HD 
ENDBRANCH  29  31
ENDBRANCH  19  29
BRANCH  22  34
HETATM   34  O   UNL     1     -10.835  11.903  67.658  1.00  0.00    -0.209 OA 
BRANCH  34  35
HETATM   35  C   UNL     1     -11.423  13.186  67.601  1.00  0.00    -0.324 C  
HETATM   36  C   UNL     1     -10.527  14.397  67.328  1.00  0.00    -0.269 C  
HETATM   37  C   UNL     1      -9.955  14.418  65.903  1.00  0.00    -0.328 C  
HETATM   38  C   UNL     1     -11.023  14.064  64.842  1.00  0.00    -0.392 C  
HETATM   39  N   UNL     1      -9.358  15.742  65.612  1.00  0.00    -0.329 NA 
HETATM   40  C   UNL     1     -11.815  12.831  65.298  1.00  0.00    -0.403 C  
HETATM   41  H2  UNL     1      -8.659  16.006  66.307  1.00  0.00     0.000 HD 
HETATM   42  O   UNL     1     -11.898  15.185  64.648  1.00  0.00    -0.402 OA 
HETATM   43  H1  UNL     1      -8.978  15.755  64.665  1.00  0.00     0.000 HD 
HETATM   44  C   UNL     1     -12.909  12.417  64.331  1.00  0.00    -0.344 C  
HETATM   45  H   UNL     1     -12.555  14.968  63.997  1.00  0.00     0.000 HD 
HETATM   46  O   UNL     1     -12.420  13.086  66.580  1.00  0.00    -0.349 OA 
ENDBRANCH  34  35
ENDBRANCH  22  34
ENDBRANCH   2   3
TORSDOF 5
ENDMDL
MODEL      123
REMARK 921   NORMALIZED FREE ENERGY PREDICTED BY IDOCK:    1.67 KCAL/MOL
REMARK 922        TOTAL FREE ENERGY PREDICTED BY IDOCK:    0.88 KCAL/MOL
REMARK 923 INTER-LIGAND FREE ENERGY PREDICTED BY IDOCK:   -3.70 KCAL/MOL
REMARK 924 INTRA-LIGAND FREE ENERGY PREDICTED BY IDOCK:    4.57 KCAL/MOL
REMARK 927      BINDING AFFINITY PREDICTED BY RF-SCORE:    0.00 PKD
ROOT
HETATM    1  C   UNL     1      -6.925   8.437  69.158  1.00  0.00    -0.059 C  
HETATM    2  O   UNL     1      -6.487   7.738  70.318  1.00  0.00    -0.037 OA 
ENDROOT
BRANCH   2   3
HETATM    3  C   UNL     1      -6.016   8.490  71.361  1.00  0.00    -0.043 A  
HETATM    4  C   UNL     1      -5.611   7.910  72.573  1.00  0.00    -0.037 A  
HETATM    5  C   UNL     1      -5.173   8.702  73.630  1.00  0.00    -0.075 A  
HETATM    6  C   UNL     1      -5.148  10.084  73.489  1.00  0.00     0.025 A  
HETATM    7  C   UNL     1      -5.559  10.681  72.286  1.00  0.00     0.597 A  
HETATM    8  C   UNL     1      -5.992   9.896  71.218  1.00  0.00     0.002 A  
HETATM    9  C   UNL     1      -6.389  10.575  69.958  1.00  0.00    -0.117 C  
HETATM   10  O   UNL     1      -6.810   9.956  68.984  1.00  0.00    -0.052 OA 
HETATM   11  C   UNL     1      -6.290  12.049  69.833  1.00  0.00    -0.089 A  
HETATM   12  C   UNL     1      -6.613  12.680  68.612  1.00  0.00    -0.083 A  
HETATM   13  O   UNL     1      -6.983  11.954  67.503  1.00  0.00    -0.101 OA 
HETATM   14  C   UNL     1      -6.612  14.084  68.474  1.00  0.00    -0.097 A  
HETATM   15  H   UNL     1      -7.200  12.378  66.682  1.00  0.00     0.000 HD 
HETATM   16  C   UNL     1      -6.300  14.871  69.600  1.00  0.00    -0.142 A  
HETATM   17  C   UNL     1      -5.914  14.233  70.800  1.00  0.00    -0.202 A  
HETATM   18  C   UNL     1      -6.373  16.386  69.533  1.00  0.00    -0.203 C  
HETATM   19  C   UNL     1      -7.152  16.960  68.337  1.00  0.00    -0.187 C  
HETATM   20  C   UNL     1      -5.912  12.827  70.925  1.00  0.00     0.186 A  
HETATM   21  O   UNL     1      -5.566  14.985  71.889  1.00  0.00     0.073 OA 
HETATM   22  C   UNL     1      -7.140  14.710  67.188  1.00  0.00     0.196 C  
HETATM   23  C   UNL     1      -5.515  12.155  72.190  1.00  0.00     0.638 C  
HETATM   24  C   UNL     1      -6.782  16.191  67.066  1.00  0.00    -0.183 C  
HETATM   25  O   UNL     1      -8.555  16.903  68.600  1.00  0.00    -0.250 OA 
HETATM   26  H   UNL     1      -5.306  14.556  72.695  1.00  0.00     0.000 HD 
HETATM   27  O   UNL     1      -5.126  12.774  73.173  1.00  0.00    -0.374 OA 
HETATM   28  H   UNL     1      -9.036  17.258  67.861  1.00  0.00     0.000 HD 
BRANCH  19  29
HETATM   29  C   UNL     1      -6.829  18.461  68.186  1.00  0.00    -0.228 C  
HETATM   30  O   UNL     1      -6.117  18.899  67.276  1.00  0.00    -0.168 OA 
BRANCH  29  31
HETATM   31  C   UNL     1      -7.399  19.415  69.233  1.00  0.00    -0.273 C  
HETATM   32  O   UNL     1      -8.796  19.600  69.044  1.00  0.00    -0.299 OA 
HETATM   33  H   UNL     1      -9.151  20.193  69.695  1.00  0.00     0.000 HD 
ENDBRANCH  29  31
ENDBRANCH  19  29
BRANCH  22  34
HETATM   34  O   UNL     1      -8.534  14.519  67.347  1.00  0.00    -0.179 OA 
BRANCH  34  35
HETATM   35  C   UNL     1      -9.245  13.503  66.672  1.00  0.00    -0.210 C  
HETATM   36  C   UNL     1     -10.191  12.606  67.476  1.00  0.00    -0.215 C  
HETATM   37  C   UNL     1     -11.429  13.349  68.001  1.00  0.00    -0.304 C  
HETATM   38  C   UNL     1     -12.054  14.269  66.928  1.00  0.00    -0.409 C  
HETATM   39  N   UNL     1     -12.432  12.380  68.498  1.00  0.00     0.193 NA 
HETATM   40  C   UNL     1     -10.950  15.080  66.236  1.00  0.00    -0.338 C  
HETATM   41  H2  UNL     1     -12.040  11.750  69.198  1.00  0.00     0.000 HD 
HETATM   42  O   UNL     1     -12.774  13.475  65.974  1.00  0.00    -0.381 OA 
HETATM   43  H1  UNL     1     -13.254  12.873  68.847  1.00  0.00     0.000 HD 
HETATM   44  C   UNL     1     -11.463  16.001  65.144  1.00  0.00     0.052 C  
HETATM   45  H   UNL     1     -13.158  14.041  65.314  1.00  0.00     0.000 HD 
HETATM   46  O   UNL     1      -9.981  14.188  65.654  1.00  0.00    -0.322 OA 
ENDBRANCH  34  35
ENDBRANCH  22  34
ENDBRANCH   2   3
TORSDOF 5
ENDMDL
MODEL      124
REMARK 921   NORMALIZED FREE ENERGY PREDICTED BY IDOCK:    1.81 KCAL/MOL
REMARK 922        TOTAL FREE ENERGY PREDICTED BY IDOCK:    1.06 KCAL/MOL
REMARK 923 INTER-LIGAND FREE ENERGY PREDICTED BY IDOCK:   -3.65 KCAL/MOL
REMARK 924 INTRA-LIGAND FREE ENERGY PREDICTED BY IDOCK:    4.70 KCAL/MOL
REMARK 927      BINDING AFFINITY PREDICTED BY RF-SCORE:    0.00 PKD
ROOT
HETATM    1  C   UNL     1      -9.533   4.598  71.626  1.00  0.00    -0.153 C  
HETATM    2  O   UNL     1     -10.838   4.786  72.163  1.00  0.00    -0.138 OA 
ENDROOT
BRANCH   2   3
HETATM    3  C   UNL     1     -11.439   5.996  71.938  1.00  0.00    -0.269 A  
HETATM    4  C   UNL     1     -12.639   6.360  72.568  1.00  0.00     0.195 A  
HETATM    5  C   UNL     1     -13.248   7.580  72.291  1.00  0.00     0.051 A  
HETATM    6  C   UNL     1     -12.668   8.443  71.370  1.00  0.00    -0.280 A  
HETATM    7  C   UNL     1     -11.472   8.091  70.723  1.00  0.00    -0.273 A  
HETATM    8  C   UNL     1     -10.850   6.874  70.999  1.00  0.00    -0.272 A  
HETATM    9  C   UNL     1      -9.573   6.561  70.309  1.00  0.00    -0.161 C  
HETATM   10  O   UNL     1      -8.980   5.498  70.476  1.00  0.00    -0.132 OA 
HETATM   11  C   UNL     1      -8.961   7.539  69.378  1.00  0.00    -0.139 A  
HETATM   12  C   UNL     1      -7.717   7.258  68.772  1.00  0.00    -0.119 A  
HETATM   13  O   UNL     1      -7.023   6.104  69.056  1.00  0.00    -0.063 OA 
HETATM   14  C   UNL     1      -7.139   8.121  67.818  1.00  0.00    -0.087 A  
HETATM   15  H   UNL     1      -6.186   5.915  68.649  1.00  0.00     0.000 HD 
HETATM   16  C   UNL     1      -7.843   9.285  67.449  1.00  0.00    -0.099 A  
HETATM   17  C   UNL     1      -9.055   9.593  68.107  1.00  0.00    -0.122 A  
HETATM   18  C   UNL     1      -7.312  10.202  66.361  1.00  0.00    -0.108 C  
HETATM   19  C   UNL     1      -6.218   9.600  65.462  1.00  0.00    -0.069 C  
HETATM   20  C   UNL     1      -9.621   8.725  69.065  1.00  0.00    -0.162 A  
HETATM   21  O   UNL     1      -9.727  10.742  67.789  1.00  0.00    -0.159 OA 
HETATM   22  C   UNL     1      -5.886   7.680  67.070  1.00  0.00    -0.039 C  
HETATM   23  C   UNL     1     -10.900   9.044  69.750  1.00  0.00    -0.205 C  
HETATM   24  C   UNL     1      -5.213   8.830  66.322  1.00  0.00    -0.030 C  
HETATM   25  O   UNL     1      -6.814   8.764  64.468  1.00  0.00    -0.076 OA 
HETATM   26  H   UNL     1     -10.541  10.949  68.232  1.00  0.00     0.000 HD 
HETATM   27  O   UNL     1     -11.508  10.090  69.560  1.00  0.00    -0.208 OA 
HETATM   28  H   UNL     1      -6.139   8.392  63.913  1.00  0.00     0.000 HD 
BRANCH  19  29
HETATM   29  C   UNL     1      -5.521  10.728  64.676  1.00  0.00    -0.042 C  
HETATM   30  O   UNL     1      -5.172  11.789  65.206  1.00  0.00     0.319 OA 
BRANCH  29  31
HETATM   31  C   UNL     1      -5.292  10.512  63.182  1.00  0.00    -0.163 C  
HETATM   32  O   UNL     1      -5.169   9.128  62.883  1.00  0.00    -0.068 OA 
HETATM   33  H   UNL     1      -5.027   8.993  61.953  1.00  0.00     0.000 HD 
ENDBRANCH  29  31
ENDBRANCH  19  29
BRANCH  22  34
HETATM   34  O   UNL     1      -6.427   6.721  66.179  1.00  0.00    -0.047 OA 
BRANCH  34  35
HETATM   35  C   UNL     1      -5.952   5.392  66.110  1.00  0.00    -0.022 C  
HETATM   36  C   UNL     1      -6.797   4.273  66.725  1.00  0.00    -0.052 C  
HETATM   37  C   UNL     1      -8.107   4.017  65.965  1.00  0.00    -0.101 C  
HETATM   38  C   UNL     1      -7.897   3.996  64.434  1.00  0.00    -0.085 C  
HETATM   39  N   UNL     1      -8.719   2.747  66.419  1.00  0.00    -0.122 NA 
HETATM   40  C   UNL     1      -7.028   5.189  64.016  1.00  0.00    -0.048 C  
HETATM   41  H2  UNL     1      -8.855   2.729  67.430  1.00  0.00     0.000 HD 
HETATM   42  O   UNL     1      -7.280   2.759  64.049  1.00  0.00    -0.053 OA 
HETATM   43  H1  UNL     1      -9.590   2.577  65.915  1.00  0.00     0.000 HD 
HETATM   44  C   UNL     1      -6.744   5.245  62.525  1.00  0.00    -0.026 C  
HETATM   45  H   UNL     1      -7.150   2.747  63.108  1.00  0.00     0.000 HD 
HETATM   46  O   UNL     1      -5.768   5.144  64.713  1.00  0.00    -0.016 OA 
ENDBRANCH  34  35
ENDBRANCH  22  34
ENDBRANCH   2   3
TORSDOF 5
ENDMDL
MODEL      125
REMARK 921   NORMALIZED FREE ENERGY PREDICTED BY IDOCK:    2.29 KCAL/MOL
REMARK 922        TOTAL FREE ENERGY PREDICTED BY IDOCK:    1.67 KCAL/MOL
REMARK 923 INTER-LIGAND FREE ENERGY PREDICTED BY IDOCK:   -2.67 KCAL/MOL
REMARK 924 INTRA-LIGAND FREE ENERGY PREDICTED BY IDOCK:    4.34 KCAL/MOL
REMARK 927      BINDING AFFINITY PREDICTED BY RF-SCORE:    0.00 PKD
ROOT
HETATM    1  C   UNL     1      -7.576   6.230  62.780  1.00  0.00    -0.077 C  
HETATM    2  O   UNL     1      -7.913   4.878  62.489  1.00  0.00    -0.068 OA 
ENDROOT
BRANCH   2   3
HETATM    3  C   UNL     1      -8.391   4.116  63.522  1.00  0.00    -0.096 A  
HETATM    4  C   UNL     1      -9.102   2.927  63.301  1.00  0.00    -0.094 A  
HETATM    5  C   UNL     1      -9.610   2.192  64.369  1.00  0.00    -0.104 A  
HETATM    6  C   UNL     1      -9.422   2.648  65.667  1.00  0.00     0.060 A  
HETATM    7  C   UNL     1      -8.720   3.842  65.905  1.00  0.00    -0.116 A  
HETATM    8  C   UNL     1      -8.201   4.581  64.843  1.00  0.00    -0.107 A  
HETATM    9  C   UNL     1      -7.443   5.820  65.149  1.00  0.00    -0.078 C  
HETATM   10  O   UNL     1      -6.981   6.541  64.269  1.00  0.00    -0.047 OA 
HETATM   11  C   UNL     1      -7.217   6.237  66.555  1.00  0.00    -0.073 A  
HETATM   12  C   UNL     1      -6.444   7.385  66.838  1.00  0.00    -0.056 A  
HETATM   13  O   UNL     1      -5.850   8.117  65.835  1.00  0.00    -0.037 OA 
HETATM   14  C   UNL     1      -6.272   7.863  68.153  1.00  0.00    -0.046 A  
HETATM   15  H   UNL     1      -5.331   8.889  66.025  1.00  0.00     0.000 HD 
HETATM   16  C   UNL     1      -6.913   7.181  69.207  1.00  0.00    -0.070 A  
HETATM   17  C   UNL     1      -7.630   5.997  68.924  1.00  0.00    -0.091 A  
HETATM   18  C   UNL     1      -6.838   7.704  70.630  1.00  0.00    -0.046 C  
HETATM   19  C   UNL     1      -6.375   9.164  70.776  1.00  0.00    -0.064 C  
HETATM   20  C   UNL     1      -7.790   5.523  67.604  1.00  0.00    -0.097 A  
HETATM   21  O   UNL     1      -8.221   5.300  69.943  1.00  0.00    -0.091 OA 
HETATM   22  C   UNL     1      -5.579   9.202  68.379  1.00  0.00    -0.038 C  
HETATM   23  C   UNL     1      -8.551   4.282  67.305  1.00  0.00    -0.104 C  
HETATM   24  C   UNL     1      -5.192   9.423  69.841  1.00  0.00    -0.033 C  
HETATM   25  O   UNL     1      -7.466  10.047  70.508  1.00  0.00    -0.281 OA 
HETATM   26  H   UNL     1      -8.702   4.504  69.753  1.00  0.00     0.000 HD 
HETATM   27  O   UNL     1      -9.040   3.580  68.181  1.00  0.00    -0.122 OA 
HETATM   28  H   UNL     1      -7.180  10.949  70.598  1.00  0.00     0.000 HD 
BRANCH  19  29
HETATM   29  C   UNL     1      -5.987   9.435  72.244  1.00  0.00     0.119 C  
HETATM   30  O   UNL     1      -6.152  10.534  72.783  1.00  0.00     0.629 OA 
BRANCH  29  31
HETATM   31  C   UNL     1      -5.346   8.291  73.027  1.00  0.00    -0.045 C  
HETATM   32  O   UNL     1      -6.309   7.295  73.348  1.00  0.00    -0.063 OA 
HETATM   33  H   UNL     1      -5.911   6.584  73.835  1.00  0.00     0.000 HD 
ENDBRANCH  29  31
ENDBRANCH  19  29
BRANCH  22  34
HETATM   34  O   UNL     1      -6.589  10.103  67.962  1.00  0.00    -0.058 OA 
BRANCH  34  35
HETATM   35  C   UNL     1      -6.403  11.018  66.902  1.00  0.00    -0.104 C  
HETATM   36  C   UNL     1      -7.637  11.605  66.210  1.00  0.00     0.172 C  
HETATM   37  C   UNL     1      -8.439  12.558  67.108  1.00  0.00    -0.186 C  
HETATM   38  C   UNL     1      -7.524  13.530  67.888  1.00  0.00    -0.153 C  
HETATM   39  N   UNL     1      -9.424  13.312  66.300  1.00  0.00    -0.414 NA 
HETATM   40  C   UNL     1      -6.351  12.756  68.502  1.00  0.00    -0.075 C  
HETATM   41  H2  UNL     1     -10.032  12.693  65.764  1.00  0.00     0.000 HD 
HETATM   42  O   UNL     1      -7.048  14.555  67.004  1.00  0.00    -0.359 OA 
HETATM   43  H1  UNL     1      -9.957  13.945  66.897  1.00  0.00     0.000 HD 
HETATM   44  C   UNL     1      -5.379  13.631  69.272  1.00  0.00    -0.078 C  
HETATM   45  H   UNL     1      -6.486  15.153  67.483  1.00  0.00     0.000 HD 
HETATM   46  O   UNL     1      -5.620  12.073  67.466  1.00  0.00    -0.078 OA 
ENDBRANCH  34  35
ENDBRANCH  22  34
ENDBRANCH   2   3
TORSDOF 5
ENDMDL
MODEL      126
REMARK 921   NORMALIZED FREE ENERGY PREDICTED BY IDOCK:    2.33 KCAL/MOL
REMARK 922        TOTAL FREE ENERGY PREDICTED BY IDOCK:    1.73 KCAL/MOL
REMARK 923 INTER-LIGAND FREE ENERGY PREDICTED BY IDOCK:   -3.58 KCAL/MOL
REMARK 924 INTRA-LIGAND FREE ENERGY PREDICTED BY IDOCK:    5.31 KCAL/MOL
REMARK 927      BINDING AFFINITY PREDICTED BY RF-SCORE:    0.00 PKD
ROOT
HETATM    1  C   UNL     1     -10.482   7.602  72.611  1.00  0.00    -0.287 C  
HETATM    2  O   UNL     1     -11.434   8.108  71.682  1.00  0.00    -0.255 OA 
ENDROOT
BRANCH   2   3
HETATM    3  C   UNL     1     -11.270   7.761  70.366  1.00  0.00    -0.237 A  
HETATM    4  C   UNL     1     -11.085   6.429  69.966  1.00  0.00    -0.442 A  
HETATM    5  C   UNL     1     -10.882   6.110  68.627  1.00  0.00    -0.403 A  
HETATM    6  C   UNL     1     -10.848   7.123  67.677  1.00  0.00    -0.279 A  
HETATM    7  C   UNL     1     -11.022   8.462  68.062  1.00  0.00     0.122 A  
HETATM    8  C   UNL     1     -11.234   8.792  69.400  1.00  0.00     0.163 A  
HETATM    9  C   UNL     1     -11.441  10.220  69.751  1.00  0.00    -0.256 C  
HETATM   10  O   UNL     1     -11.603  10.594  70.910  1.00  0.00    -0.320 OA 
HETATM   11  C   UNL     1     -11.455  11.260  68.695  1.00  0.00    -0.362 A  
HETATM   12  C   UNL     1     -11.711  12.608  69.032  1.00  0.00    -0.318 A  
HETATM   13  O   UNL     1     -11.993  12.985  70.325  1.00  0.00    -0.418 OA 
HETATM   14  C   UNL     1     -11.653  13.641  68.073  1.00  0.00    -0.368 A  
HETATM   15  H   UNL     1     -12.165  13.891  70.552  1.00  0.00     0.000 HD 
HETATM   16  C   UNL     1     -11.307  13.311  66.748  1.00  0.00    -0.359 A  
HETATM   17  C   UNL     1     -11.117  11.954  66.404  1.00  0.00    -0.309 A  
HETATM   18  C   UNL     1     -11.140  14.393  65.696  1.00  0.00    -0.321 C  
HETATM   19  C   UNL     1     -10.992  15.826  66.237  1.00  0.00    -0.163 C  
HETATM   20  C   UNL     1     -11.184  10.927  67.371  1.00  0.00    -0.345 A  
HETATM   21  O   UNL     1     -10.823  11.614  65.112  1.00  0.00    -0.290 OA 
HETATM   22  C   UNL     1     -11.763  15.092  68.528  1.00  0.00    -0.320 C  
HETATM   23  C   UNL     1     -10.975   9.500  67.012  1.00  0.00     0.084 C  
HETATM   24  C   UNL     1     -12.000  16.055  67.365  1.00  0.00     0.780 C  
HETATM   25  O   UNL     1      -9.650  16.042  66.674  1.00  0.00    -0.218 OA 
HETATM   26  H   UNL     1     -10.696  10.702  64.881  1.00  0.00     0.000 HD 
HETATM   27  O   UNL     1     -10.780   9.130  65.860  1.00  0.00     0.454 OA 
HETATM   28  H   UNL     1      -9.558  16.927  67.008  1.00  0.00     0.000 HD 
BRANCH  19  29
HETATM   29  C   UNL     1     -11.212  16.833  65.090  1.00  0.00     0.076 C  
HETATM   30  O   UNL     1     -11.552  16.483  63.955  1.00  0.00    -1.175 OA 
BRANCH  29  31
HETATM   31  C   UNL     1     -10.961  18.310  65.388  1.00  0.00     0.474 C  
HETATM   32  O   UNL     1     -11.029  18.563  66.786  1.00  0.00    -0.211 OA 
HETATM   33  H   UNL     1     -10.873  19.481  66.972  1.00  0.00     0.000 HD 
ENDBRANCH  29  31
ENDBRANCH  19  29
BRANCH  22  34
HETATM   34  O   UNL     1     -10.490  15.287  69.119  1.00  0.00    -0.226 OA 
BRANCH  34  35
HETATM   35  C   UNL     1      -9.822  14.273  69.841  1.00  0.00     0.817 C  
HETATM   36  C   UNL     1      -9.322  13.038  69.087  1.00  0.00     0.634 C  
HETATM   37  C   UNL     1      -8.163  13.343  68.127  1.00  0.00    -0.160 C  
HETATM   38  C   UNL     1      -7.103  14.268  68.769  1.00  0.00    -0.105 C  
HETATM   39  N   UNL     1      -7.536  12.083  67.666  1.00  0.00    -0.126 NA 
HETATM   40  C   UNL     1      -7.800  15.439  69.475  1.00  0.00    -0.204 C  
HETATM   41  H2  UNL     1      -8.218  11.448  67.251  1.00  0.00     0.000 HD 
HETATM   42  O   UNL     1      -6.308  13.517  69.698  1.00  0.00    -0.118 OA 
HETATM   43  H1  UNL     1      -6.767  12.286  67.028  1.00  0.00     0.000 HD 
HETATM   44  C   UNL     1      -6.841  16.396  70.160  1.00  0.00     0.540 C  
HETATM   45  H   UNL     1      -5.658  14.085  70.093  1.00  0.00     0.000 HD 
HETATM   46  O   UNL     1      -8.719  14.936  70.463  1.00  0.00     0.874 OA 
ENDBRANCH  34  35
ENDBRANCH  22  34
ENDBRANCH   2   3
TORSDOF 5
ENDMDL
MODEL      127
REMARK 921   NORMALIZED FREE ENERGY PREDICTED BY IDOCK:    2.85 KCAL/MOL
REMARK 922        TOTAL FREE ENERGY PREDICTED BY IDOCK:    2.40 KCAL/MOL
REMARK 923 INTER-LIGAND FREE ENERGY PREDICTED BY IDOCK:    0.14 KCAL/MOL
REMARK 924 INTRA-LIGAND FREE ENERGY PREDICTED BY IDOCK:    2.26 KCAL/MOL
REMARK 927      BINDING AFFINITY PREDICTED BY RF-SCORE:    0.00 PKD
ROOT
HETATM    1  C   UNL     1      -9.215  14.760  68.333  1.00  0.00    -0.189 C  
HETATM    2  O   UNL     1      -8.806  13.419  68.579  1.00  0.00    -0.157 OA 
ENDROOT
BRANCH   2   3
HETATM    3  C   UNL     1      -7.794  13.229  69.483  1.00  0.00     0.864 A  
HETATM    4  C   UNL     1      -6.983  14.286  69.924  1.00  0.00     0.041 A  
HETATM    5  C   UNL     1      -5.937  14.057  70.812  1.00  0.00    -0.188 A  
HETATM    6  C   UNL     1      -5.685  12.766  71.259  1.00  0.00     0.137 A  
HETATM    7  C   UNL     1      -6.482  11.695  70.820  1.00  0.00     0.917 A  
HETATM    8  C   UNL     1      -7.538  11.915  69.935  1.00  0.00     1.216 A  
HETATM    9  C   UNL     1      -8.367  10.755  69.524  1.00  0.00     0.082 C  
HETATM   10  O   UNL     1      -9.294  10.861  68.726  1.00  0.00    -0.179 OA 
HETATM   11  C   UNL     1      -8.097   9.404  70.073  1.00  0.00    -0.159 A  
HETATM   12  C   UNL     1      -8.929   8.317  69.722  1.00  0.00    -0.146 A  
HETATM   13  O   UNL     1     -10.024   8.484  68.905  1.00  0.00    -0.179 OA 
HETATM   14  C   UNL     1      -8.660   7.002  70.154  1.00  0.00    -0.140 A  
HETATM   15  H   UNL     1     -10.584   7.754  68.669  1.00  0.00     0.000 HD 
HETATM   16  C   UNL     1      -7.514   6.772  70.940  1.00  0.00    -0.083 A  
HETATM   17  C   UNL     1      -6.724   7.872  71.342  1.00  0.00    -0.046 A  
HETATM   18  C   UNL     1      -7.126   5.364  71.356  1.00  0.00    -0.070 C  
HETATM   19  C   UNL     1      -7.809   4.230  70.571  1.00  0.00    -0.052 C  
HETATM   20  C   UNL     1      -7.005   9.186  70.909  1.00  0.00    -0.101 A  
HETATM   21  O   UNL     1      -5.632   7.669  72.141  1.00  0.00    -0.036 OA 
HETATM   22  C   UNL     1      -9.488   5.848  69.599  1.00  0.00    -0.143 C  
HETATM   23  C   UNL     1      -6.169  10.343  71.324  1.00  0.00     0.313 C  
HETATM   24  C   UNL     1      -9.294   4.554  70.388  1.00  0.00    -0.217 C  
HETATM   25  O   UNL     1      -7.149   4.043  69.318  1.00  0.00    -0.046 OA 
HETATM   26  H   UNL     1      -5.101   8.409  72.412  1.00  0.00     0.000 HD 
HETATM   27  O   UNL     1      -5.224  10.231  72.095  1.00  0.00    -0.236 OA 
HETATM   28  H   UNL     1      -7.571   3.342  68.834  1.00  0.00     0.000 HD 
BRANCH  19  29
HETATM   29  C   UNL     1      -7.625   2.899  71.329  1.00  0.00    -0.040 C  
HETATM   30  O   UNL     1      -8.543   2.359  71.955  1.00  0.00    -0.066 OA 
BRANCH  29  31
HETATM   31  C   UNL     1      -6.237   2.263  71.313  1.00  0.00    -0.018 C  
HETATM   32  O   UNL     1      -5.520   2.640  70.144  1.00  0.00    -0.014 OA 
HETATM   33  H   UNL     1      -4.657   2.244  70.134  1.00  0.00     0.000 HD 
ENDBRANCH  29  31
ENDBRANCH  19  29
BRANCH  22  34
HETATM   34  O   UNL     1      -8.963   5.746  68.287  1.00  0.00    -0.116 OA 
BRANCH  34  35
HETATM   35  C   UNL     1      -7.664   6.184  67.950  1.00  0.00    -0.102 C  
HETATM   36  C   UNL     1      -6.767   5.262  67.119  1.00  0.00    -0.059 C  
HETATM   37  C   UNL     1      -7.257   5.081  65.675  1.00  0.00    -0.068 C  
HETATM   38  C   UNL     1      -7.694   6.419  65.037  1.00  0.00    -0.098 C  
HETATM   39  N   UNL     1      -6.203   4.438  64.856  1.00  0.00    -0.032 NA 
HETATM   40  C   UNL     1      -8.579   7.195  66.021  1.00  0.00    -0.152 C  
HETATM   41  H2  UNL     1      -5.887   3.559  65.264  1.00  0.00     0.000 HD 
HETATM   42  O   UNL     1      -6.534   7.186  64.685  1.00  0.00    -0.036 OA 
HETATM   43  H1  UNL     1      -6.529   4.318  63.897  1.00  0.00     0.000 HD 
HETATM   44  C   UNL     1      -9.043   8.541  65.493  1.00  0.00    -0.150 C  
HETATM   45  H   UNL     1      -6.802   8.009  64.293  1.00  0.00     0.000 HD 
HETATM   46  O   UNL     1      -7.865   7.416  67.252  1.00  0.00    -0.110 OA 
ENDBRANCH  34  35
ENDBRANCH  22  34
ENDBRANCH   2   3
TORSDOF 5
ENDMDL
MODEL      128
REMARK 921   NORMALIZED FREE ENERGY PREDICTED BY IDOCK:    3.31 KCAL/MOL
REMARK 922        TOTAL FREE ENERGY PREDICTED BY IDOCK:    2.99 KCAL/MOL
REMARK 923 INTER-LIGAND FREE ENERGY PREDICTED BY IDOCK:    1.64 KCAL/MOL
REMARK 924 INTRA-LIGAND FREE ENERGY PREDICTED BY IDOCK:    1.35 KCAL/MOL
REMARK 927      BINDING AFFINITY PREDICTED BY RF-SCORE:    0.00 PKD
ROOT
HETATM    1  C   UNL     1      -9.596  15.219  70.438  1.00  0.00     0.588 C  
HETATM    2  O   UNL     1      -8.271  15.588  70.070  1.00  0.00     0.011 OA 
ENDROOT
BRANCH   2   3
HETATM    3  C   UNL     1      -7.253  14.780  70.504  1.00  0.00     0.567 A  
HETATM    4  C   UNL     1      -6.185  15.275  71.267  1.00  0.00     0.618 A  
HETATM    5  C   UNL     1      -5.144  14.439  71.661  1.00  0.00    -0.160 A  
HETATM    6  C   UNL     1      -5.157  13.102  71.284  1.00  0.00    -0.168 A  
HETATM    7  C   UNL     1      -6.215  12.593  70.512  1.00  0.00     0.211 A  
HETATM    8  C   UNL     1      -7.266  13.420  70.119  1.00  0.00     1.071 A  
HETATM    9  C   UNL     1      -8.374  12.826  69.329  1.00  0.00     0.843 C  
HETATM   10  O   UNL     1      -9.319  13.495  68.919  1.00  0.00     0.005 OA 
HETATM   11  C   UNL     1      -8.373  11.380  69.000  1.00  0.00     0.036 A  
HETATM   12  C   UNL     1      -9.460  10.813  68.299  1.00  0.00    -0.164 A  
HETATM   13  O   UNL     1     -10.556  11.564  67.941  1.00  0.00    -0.180 OA 
HETATM   14  C   UNL     1      -9.463   9.462  67.894  1.00  0.00    -0.150 A  
HETATM   15  H   UNL     1     -11.287  11.183  67.470  1.00  0.00     0.000 HD 
HETATM   16  C   UNL     1      -8.335   8.670  68.183  1.00  0.00    -0.127 A  
HETATM   17  C   UNL     1      -7.280   9.225  68.941  1.00  0.00    -0.073 A  
HETATM   18  C   UNL     1      -8.245   7.236  67.691  1.00  0.00    -0.114 C  
HETATM   19  C   UNL     1      -9.238   6.853  66.578  1.00  0.00    -0.163 C  
HETATM   20  C   UNL     1      -7.290  10.577  69.347  1.00  0.00    -0.133 A  
HETATM   21  O   UNL     1      -6.197   8.454  69.267  1.00  0.00    -0.037 OA 
HETATM   22  C   UNL     1     -10.580   8.954  66.988  1.00  0.00    -0.209 C  
HETATM   23  C   UNL     1      -6.177  11.165  70.138  1.00  0.00    -0.147 C  
HETATM   24  C   UNL     1     -10.619   7.429  66.903  1.00  0.00    -0.375 C  
HETATM   25  O   UNL     1      -8.754   7.318  65.317  1.00  0.00    -0.335 OA 
HETATM   26  H   UNL     1      -5.489   8.828  69.777  1.00  0.00     0.000 HD 
HETATM   27  O   UNL     1      -5.218  10.505  70.518  1.00  0.00    -0.050 OA 
HETATM   28  H   UNL     1      -9.367   7.081  64.630  1.00  0.00     0.000 HD 
BRANCH  19  29
HETATM   29  C   UNL     1      -9.298   5.318  66.449  1.00  0.00    -0.148 C  
HETATM   30  O   UNL     1      -9.351   4.570  67.431  1.00  0.00    -0.129 OA 
BRANCH  29  31
HETATM   31  C   UNL     1      -9.256   4.725  65.042  1.00  0.00    -0.133 C  
HETATM   32  O   UNL     1     -10.520   4.182  64.684  1.00  0.00    -0.339 OA 
HETATM   33  H   UNL     1     -10.495   3.814  63.809  1.00  0.00     0.000 HD 
ENDBRANCH  29  31
ENDBRANCH  19  29
BRANCH  22  34
HETATM   34  O   UNL     1     -10.213   9.540  65.752  1.00  0.00    -0.255 OA 
BRANCH  34  35
HETATM   35  C   UNL     1     -11.151  10.148  64.889  1.00  0.00     1.818 C  
HETATM   36  C   UNL     1     -11.691  11.536  65.248  1.00  0.00     0.113 C  
HETATM   37  C   UNL     1     -10.632  12.643  65.143  1.00  0.00    -0.298 C  
HETATM   38  C   UNL     1      -9.782  12.516  63.859  1.00  0.00     0.115 C  
HETATM   39  N   UNL     1     -11.279  13.974  65.205  1.00  0.00    -0.316 NA 
HETATM   40  C   UNL     1      -9.340  11.058  63.674  1.00  0.00    -0.238 C  
HETATM   41  H2  UNL     1     -11.859  14.078  66.037  1.00  0.00     0.000 HD 
HETATM   42  O   UNL     1     -10.547  12.961  62.729  1.00  0.00    -0.055 OA 
HETATM   43  H1  UNL     1     -10.575  14.709  65.136  1.00  0.00     0.000 HD 
HETATM   44  C   UNL     1      -8.515  10.825  62.421  1.00  0.00    -0.308 C  
HETATM   45  H   UNL     1     -10.025  12.883  61.940  1.00  0.00     0.000 HD 
HETATM   46  O   UNL     1     -10.496  10.201  63.619  1.00  0.00     0.448 OA 
ENDBRANCH  34  35
ENDBRANCH  22  34
ENDBRANCH   2   3
TORSDOF 5
ENDMDL
MODEL      129
REMARK 921   NORMALIZED FREE ENERGY PREDICTED BY IDOCK:    3.34 KCAL/MOL
REMARK 922        TOTAL FREE ENERGY PREDICTED BY IDOCK:    3.04 KCAL/MOL
REMARK 923 INTER-LIGAND FREE ENERGY PREDICTED BY IDOCK:    1.67 KCAL/MOL
REMARK 924 INTRA-LIGAND FREE ENERGY PREDICTED BY IDOCK:    1.37 KCAL/MOL
REMARK 927      BINDING AFFINITY PREDICTED BY RF-SCORE:    0.00 PKD
ROOT
HETATM    1  C   UNL     1     -10.889   6.974  69.556  1.00  0.00    -0.238 C  
HETATM    2  O   UNL     1     -10.558   7.408  70.870  1.00  0.00    -0.220 OA 
ENDROOT
BRANCH   2   3
HETATM    3  C   UNL     1      -9.228   7.547  71.166  1.00  0.00    -0.147 A  
HETATM    4  C   UNL     1      -8.546   6.624  71.974  1.00  0.00    -0.123 A  
HETATM    5  C   UNL     1      -7.204   6.812  72.291  1.00  0.00    -0.086 A  
HETATM    6  C   UNL     1      -6.535   7.931  71.814  1.00  0.00    -0.041 A  
HETATM    7  C   UNL     1      -7.206   8.870  71.012  1.00  0.00    -0.101 A  
HETATM    8  C   UNL     1      -8.548   8.687  70.682  1.00  0.00    -0.183 A  
HETATM    9  C   UNL     1      -9.203   9.694  69.808  1.00  0.00    -0.219 C  
HETATM   10  O   UNL     1     -10.389   9.620  69.498  1.00  0.00    -0.196 OA 
HETATM   11  C   UNL     1      -8.432  10.843  69.274  1.00  0.00    -0.006 A  
HETATM   12  C   UNL     1      -9.048  11.762  68.396  1.00  0.00    -0.176 A  
HETATM   13  O   UNL     1     -10.351  11.599  67.981  1.00  0.00    -0.182 OA 
HETATM   14  C   UNL     1      -8.379  12.912  67.930  1.00  0.00    -0.170 A  
HETATM   15  H   UNL     1     -10.764  12.217  67.391  1.00  0.00     0.000 HD 
HETATM   16  C   UNL     1      -7.064  13.154  68.377  1.00  0.00    -0.107 A  
HETATM   17  C   UNL     1      -6.432  12.197  69.202  1.00  0.00    -0.099 A  
HETATM   18  C   UNL     1      -6.330  14.422  67.981  1.00  0.00    -0.163 C  
HETATM   19  C   UNL     1      -7.211  15.550  67.416  1.00  0.00    -0.209 C  
HETATM   20  C   UNL     1      -7.109  11.046  69.658  1.00  0.00    -0.089 A  
HETATM   21  O   UNL     1      -5.141  12.398  69.609  1.00  0.00    -0.070 OA 
HETATM   22  C   UNL     1      -9.150  13.956  67.131  1.00  0.00    -0.239 C  
HETATM   23  C   UNL     1      -6.447  10.043  70.533  1.00  0.00    -0.121 C  
HETATM   24  C   UNL     1      -8.232  14.963  66.438  1.00  0.00     0.374 C  
HETATM   25  O   UNL     1      -7.846  16.251  68.487  1.00  0.00    -0.172 OA 
HETATM   26  H   UNL     1      -4.715  11.754  70.163  1.00  0.00     0.000 HD 
HETATM   27  O   UNL     1      -5.273  10.134  70.870  1.00  0.00    -0.053 OA 
HETATM   28  H   UNL     1      -8.391  16.947  68.138  1.00  0.00     0.000 HD 
BRANCH  19  29
HETATM   29  C   UNL     1      -6.321  16.598  66.719  1.00  0.00    -0.122 C  
HETATM   30  O   UNL     1      -5.187  16.335  66.303  1.00  0.00     0.145 OA 
BRANCH  29  31
HETATM   31  C   UNL     1      -6.874  18.014  66.577  1.00  0.00    -0.219 C  
HETATM   32  O   UNL     1      -7.282  18.268  65.239  1.00  0.00    -0.494 OA 
HETATM   33  H   UNL     1      -7.626  19.148  65.151  1.00  0.00     0.000 HD 
ENDBRANCH  29  31
ENDBRANCH  19  29
BRANCH  22  34
HETATM   34  O   UNL     1      -9.919  14.564  68.152  1.00  0.00    -0.211 OA 
BRANCH  34  35
HETATM   35  C   UNL     1     -10.696  13.819  69.067  1.00  0.00    -0.182 C  
HETATM   36  C   UNL     1     -10.543  14.101  70.565  1.00  0.00     1.054 C  
HETATM   37  C   UNL     1     -11.081  15.478  70.980  1.00  0.00    -0.340 C  
HETATM   38  C   UNL     1     -12.448  15.790  70.329  1.00  0.00    -0.256 C  
HETATM   39  N   UNL     1     -11.180  15.563  72.455  1.00  0.00    -0.199 NA 
HETATM   40  C   UNL     1     -12.400  15.440  68.836  1.00  0.00     0.040 C  
HETATM   41  H2  UNL     1     -10.293  15.347  72.910  1.00  0.00     0.000 HD 
HETATM   42  O   UNL     1     -13.478  15.043  70.992  1.00  0.00    -0.479 OA 
HETATM   43  H1  UNL     1     -11.536  16.479  72.731  1.00  0.00     0.000 HD 
HETATM   44  C   UNL     1     -13.709  15.689  68.109  1.00  0.00     6.325 C  
HETATM   45  H   UNL     1     -14.318  15.234  70.592  1.00  0.00     0.000 HD 
HETATM   46  O   UNL     1     -12.050  14.053  68.670  1.00  0.00    -0.351 OA 
ENDBRANCH  34  35
ENDBRANCH  22  34
ENDBRANCH   2   3
TORSDOF 5
ENDMDL
MODEL      130
REMARK 921   NORMALIZED FREE ENERGY PREDICTED BY IDOCK:    3.63 KCAL/MOL
REMARK 922        TOTAL FREE ENERGY PREDICTED BY IDOCK:    3.40 KCAL/MOL
REMARK 923 INTER-LIGAND FREE ENERGY PREDICTED BY IDOCK:   -2.17 KCAL/MOL
REMARK 924 INTRA-LIGAND FREE ENERGY PREDICTED BY IDOCK:    5.58 KCAL/MOL
REMARK 927      BINDING AFFINITY PREDICTED BY RF-SCORE:    0.00 PKD
ROOT
HETATM    1  C   UNL     1      -8.183  15.546  67.574  1.00  0.00    -0.163 C  
HETATM    2  O   UNL     1      -8.891  16.410  66.691  1.00  0.00    -0.204 OA 
ENDROOT
BRANCH   2   3
HETATM    3  C   UNL     1      -9.864  15.845  65.909  1.00  0.00    -0.351 A  
HETATM    4  C   UNL     1     -10.976  16.575  65.464  1.00  0.00    -0.096 A  
HETATM    5  C   UNL     1     -11.969  15.966  64.703  1.00  0.00     0.078 A  
HETATM    6  C   UNL     1     -11.864  14.616  64.391  1.00  0.00    -0.405 A  
HETATM    7  C   UNL     1     -10.761  13.869  64.837  1.00  0.00    -0.422 A  
HETATM    8  C   UNL     1      -9.757  14.472  65.594  1.00  0.00    -0.282 A  
HETATM    9  C   UNL     1      -8.599  13.645  66.016  1.00  0.00     0.999 C  
HETATM   10  O   UNL     1      -7.690  14.094  66.709  1.00  0.00     0.209 OA 
HETATM   11  C   UNL     1      -8.501  12.222  65.610  1.00  0.00     0.881 A  
HETATM   12  C   UNL     1      -7.367  11.460  65.967  1.00  0.00     0.225 A  
HETATM   13  O   UNL     1      -6.314  12.016  66.656  1.00  0.00    -0.370 OA 
HETATM   14  C   UNL     1      -7.270  10.084  65.673  1.00  0.00    -0.120 A  
HETATM   15  H   UNL     1      -5.551  11.504  66.896  1.00  0.00     0.000 HD 
HETATM   16  C   UNL     1      -8.352   9.456  65.024  1.00  0.00    -0.155 A  
HETATM   17  C   UNL     1      -9.454  10.238  64.611  1.00  0.00    -0.293 A  
HETATM   18  C   UNL     1      -8.340   7.960  64.765  1.00  0.00    -0.066 C  
HETATM   19  C   UNL     1      -7.304   7.156  65.570  1.00  0.00    -0.079 C  
HETATM   20  C   UNL     1      -9.538  11.616  64.905  1.00  0.00    -0.173 A  
HETATM   21  O   UNL     1     -10.492   9.649  63.941  1.00  0.00     0.385 OA 
HETATM   22  C   UNL     1      -6.106   9.278  66.238  1.00  0.00    -0.060 C  
HETATM   23  C   UNL     1     -10.701  12.437  64.479  1.00  0.00    -0.321 C  
HETATM   24  C   UNL     1      -5.969   7.904  65.580  1.00  0.00    -0.038 C  
HETATM   25  O   UNL     1      -7.792   6.925  66.893  1.00  0.00    -0.104 OA 
HETATM   26  H   UNL     1     -11.232  10.175  63.663  1.00  0.00     0.000 HD 
HETATM   27  O   UNL     1     -11.624  11.981  63.815  1.00  0.00    -0.407 OA 
HETATM   28  H   UNL     1      -7.152   6.428  67.389  1.00  0.00     0.000 HD 
BRANCH  19  29
HETATM   29  C   UNL     1      -7.144   5.755  64.946  1.00  0.00    -0.060 C  
HETATM   30  O   UNL     1      -6.042   5.218  64.791  1.00  0.00    -0.021 OA 
BRANCH  29  31
HETATM   31  C   UNL     1      -8.412   5.039  64.483  1.00  0.00    -0.142 C  
HETATM   32  O   UNL     1      -9.390   5.023  65.515  1.00  0.00    -0.160 OA 
HETATM   33  H   UNL     1     -10.179   4.578  65.227  1.00  0.00     0.000 HD 
ENDBRANCH  29  31
ENDBRANCH  19  29
BRANCH  22  34
HETATM   34  O   UNL     1      -6.486   9.172  67.598  1.00  0.00    -0.062 OA 
BRANCH  34  35
HETATM   35  C   UNL     1      -7.074  10.240  68.310  1.00  0.00    -0.079 C  
HETATM   36  C   UNL     1      -8.598  10.280  68.455  1.00  0.00    -0.126 C  
HETATM   37  C   UNL     1      -9.150   9.163  69.354  1.00  0.00    -0.148 C  
HETATM   38  C   UNL     1      -8.313   8.985  70.641  1.00  0.00    -0.186 C  
HETATM   39  N   UNL     1     -10.566   9.434  69.692  1.00  0.00    -0.218 NA 
HETATM   40  C   UNL     1      -6.819   8.973  70.288  1.00  0.00    -0.049 C  
HETATM   41  H2  UNL     1     -11.138   9.571  68.859  1.00  0.00     0.000 HD 
HETATM   42  O   UNL     1      -8.609  10.048  71.558  1.00  0.00     0.512 OA 
HETATM   43  H1  UNL     1     -10.932   8.692  70.288  1.00  0.00     0.000 HD 
HETATM   44  C   UNL     1      -5.909   8.825  71.494  1.00  0.00    -0.052 C  
HETATM   45  H   UNL     1      -8.094   9.939  72.349  1.00  0.00     0.000 HD 
HETATM   46  O   UNL     1      -6.469  10.192  69.605  1.00  0.00    -0.048 OA 
ENDBRANCH  34  35
ENDBRANCH  22  34
ENDBRANCH   2   3
TORSDOF 5
ENDMDL
MODEL      131
REMARK 921   NORMALIZED FREE ENERGY PREDICTED BY IDOCK:    3.91 KCAL/MOL
REMARK 922        TOTAL FREE ENERGY PREDICTED BY IDOCK:    3.78 KCAL/MOL
REMARK 923 INTER-LIGAND FREE ENERGY PREDICTED BY IDOCK:   -2.94 KCAL/MOL
REMARK 924 INTRA-LIGAND FREE ENERGY PREDICTED BY IDOCK:    6.72 KCAL/MOL
REMARK 927      BINDING AFFINITY PREDICTED BY RF-SCORE:    0.00 PKD
ROOT
HETATM    1  C   UNL     1     -11.045   4.471  66.181  1.00  0.00     0.957 C  
HETATM    2  O   UNL     1      -9.971   3.916  65.430  1.00  0.00    -0.183 OA 
ENDROOT
BRANCH   2   3
HETATM    3  C   UNL     1      -8.725   3.954  65.998  1.00  0.00    -0.115 A  
HETATM    4  C   UNL     1      -7.979   2.789  66.232  1.00  0.00    -0.082 A  
HETATM    5  C   UNL     1      -6.732   2.854  66.847  1.00  0.00    -0.041 A  
HETATM    6  C   UNL     1      -6.225   4.084  67.245  1.00  0.00    -0.036 A  
HETATM    7  C   UNL     1      -6.964   5.259  67.027  1.00  0.00    -0.065 A  
HETATM    8  C   UNL     1      -8.211   5.206  66.404  1.00  0.00    -0.108 A  
HETATM    9  C   UNL     1      -8.938   6.479  66.171  1.00  0.00    -0.146 C  
HETATM   10  O   UNL     1     -10.053   6.513  65.658  1.00  0.00     0.608 OA 
HETATM   11  C   UNL     1      -8.332   7.775  66.561  1.00  0.00    -0.128 A  
HETATM   12  C   UNL     1      -9.006   8.985  66.281  1.00  0.00    -0.162 A  
HETATM   13  O   UNL     1     -10.208   9.001  65.611  1.00  0.00    -0.321 OA 
HETATM   14  C   UNL     1      -8.505  10.233  66.707  1.00  0.00    -0.123 A  
HETATM   15  H   UNL     1     -10.660   9.814  65.423  1.00  0.00     0.000 HD 
HETATM   16  C   UNL     1      -7.309  10.261  67.451  1.00  0.00    -0.093 A  
HETATM   17  C   UNL     1      -6.607   9.055  67.670  1.00  0.00    -0.061 A  
HETATM   18  C   UNL     1      -6.774  11.566  68.012  1.00  0.00    -0.059 C  
HETATM   19  C   UNL     1      -7.777  12.733  68.051  1.00  0.00    -0.137 C  
HETATM   20  C   UNL     1      -7.114   7.811  67.234  1.00  0.00    -0.086 A  
HETATM   21  O   UNL     1      -5.422   9.073  68.353  1.00  0.00    -0.037 OA 
HETATM   22  C   UNL     1      -9.362  11.482  66.532  1.00  0.00    -0.197 C  
HETATM   23  C   UNL     1      -6.380   6.541  67.472  1.00  0.00    -0.043 C  
HETATM   24  C   UNL     1      -8.569  12.772  66.742  1.00  0.00    -0.084 C  
HETATM   25  O   UNL     1      -8.635  12.595  69.185  1.00  0.00    -0.196 OA 
HETATM   26  H   UNL     1      -4.950   8.262  68.500  1.00  0.00     0.000 HD 
HETATM   27  O   UNL     1      -5.282   6.504  68.014  1.00  0.00    -0.007 OA 
HETATM   28  H   UNL     1      -9.254  13.316  69.209  1.00  0.00     0.000 HD 
BRANCH  19  29
HETATM   29  C   UNL     1      -7.018  14.056  68.275  1.00  0.00    -0.107 C  
HETATM   30  O   UNL     1      -7.491  14.991  68.930  1.00  0.00    -0.123 OA 
BRANCH  29  31
HETATM   31  C   UNL     1      -5.643  14.200  67.626  1.00  0.00     0.050 C  
HETATM   32  O   UNL     1      -5.159  12.940  67.178  1.00  0.00    -0.329 OA 
HETATM   33  H   UNL     1      -4.304  13.030  66.774  1.00  0.00     0.000 HD 
ENDBRANCH  29  31
ENDBRANCH  19  29
BRANCH  22  34
HETATM   34  O   UNL     1     -10.330  11.290  67.548  1.00  0.00    -0.185 OA 
BRANCH  34  35
HETATM   35  C   UNL     1     -10.057  11.524  68.914  1.00  0.00    -0.127 C  
HETATM   36  C   UNL     1     -11.097  12.268  69.758  1.00  0.00     0.078 C  
HETATM   37  C   UNL     1     -12.382  11.458  69.985  1.00  0.00    -0.237 C  
HETATM   38  C   UNL     1     -12.085   9.986  70.349  1.00  0.00    -0.202 C  
HETATM   39  N   UNL     1     -13.205  12.096  71.039  1.00  0.00     0.082 NA 
HETATM   40  C   UNL     1     -11.022   9.422  69.398  1.00  0.00    -0.145 C  
HETATM   41  H2  UNL     1     -13.403  13.074  70.829  1.00  0.00     0.000 HD 
HETATM   42  O   UNL     1     -11.639   9.908  71.711  1.00  0.00    -0.302 OA 
HETATM   43  H1  UNL     1     -14.059  11.558  71.190  1.00  0.00     0.000 HD 
HETATM   44  C   UNL     1     -10.643   7.982  69.690  1.00  0.00    -0.223 C  
HETATM   45  H   UNL     1     -11.457   9.003  71.935  1.00  0.00     0.000 HD 
HETATM   46  O   UNL     1      -9.829  10.225  69.468  1.00  0.00    -0.224 OA 
ENDBRANCH  34  35
ENDBRANCH  22  34
ENDBRANCH   2   3
TORSDOF 5
ENDMDL
MODEL      132
REMARK 921   NORMALIZED FREE ENERGY PREDICTED BY IDOCK:    4.43 KCAL/MOL
REMARK 922        TOTAL FREE ENERGY PREDICTED BY IDOCK:    4.44 KCAL/MOL
REMARK 923 INTER-LIGAND FREE ENERGY PREDICTED BY IDOCK:    1.99 KCAL/MOL
REMARK 924 INTRA-LIGAND FREE ENERGY PREDICTED BY IDOCK:    2.45 KCAL/MOL
REMARK 927      BINDING AFFINITY PREDICTED BY RF-SCORE:    0.00 PKD
ROOT
HETATM    1  C   UNL     1     -11.213  17.059  64.384  1.00  0.00     0.839 C  
HETATM    2  O   UNL     1     -10.612  15.841  64.811  1.00  0.00    -0.504 OA 
ENDROOT
BRANCH   2   3
HETATM    3  C   UNL     1     -11.453  14.819  65.165  1.00  0.00    -0.371 A  
HETATM    4  C   UNL     1     -12.816  14.829  64.832  1.00  0.00     0.206 A  
HETATM    5  C   UNL     1     -13.656  13.796  65.238  1.00  0.00     1.056 A  
HETATM    6  C   UNL     1     -13.141  12.749  65.991  1.00  0.00     1.461 A  
HETATM    7  C   UNL     1     -11.781  12.729  66.341  1.00  0.00    -0.464 A  
HETATM    8  C   UNL     1     -10.930  13.755  65.933  1.00  0.00    -0.283 A  
HETATM    9  C   UNL     1      -9.495  13.672  66.305  1.00  0.00    -0.191 C  
HETATM   10  O   UNL     1      -8.688  14.550  66.010  1.00  0.00     0.172 OA 
HETATM   11  C   UNL     1      -8.979  12.505  67.061  1.00  0.00    -0.211 A  
HETATM   12  C   UNL     1      -7.601  12.406  67.359  1.00  0.00    -0.160 A  
HETATM   13  O   UNL     1      -6.702  13.354  66.926  1.00  0.00    -0.375 OA 
HETATM   14  C   UNL     1      -7.081  11.358  68.145  1.00  0.00    -0.075 A  
HETATM   15  H   UNL     1      -5.776  13.288  67.126  1.00  0.00     0.000 HD 
HETATM   16  C   UNL     1      -7.973  10.398  68.662  1.00  0.00    -0.115 A  
HETATM   17  C   UNL     1      -9.339  10.465  68.307  1.00  0.00    -0.149 A  
HETATM   18  C   UNL     1      -7.482   9.300  69.590  1.00  0.00    -0.078 C  
HETATM   19  C   UNL     1      -6.092   9.530  70.210  1.00  0.00    -0.053 C  
HETATM   20  C   UNL     1      -9.848  11.516  67.514  1.00  0.00    -0.203 A  
HETATM   21  O   UNL     1     -10.209   9.515  68.767  1.00  0.00    -0.184 OA 
HETATM   22  C   UNL     1      -5.621  11.401  68.580  1.00  0.00    -0.042 C  
HETATM   23  C   UNL     1     -11.286  11.593  67.146  1.00  0.00    -0.306 C  
HETATM   24  C   UNL     1      -5.135  10.065  69.142  1.00  0.00    -0.035 C  
HETATM   25  O   UNL     1      -6.199  10.422  71.320  1.00  0.00    -0.333 OA 
HETATM   26  H   UNL     1     -11.127   9.560  68.527  1.00  0.00     0.000 HD 
HETATM   27  O   UNL     1     -12.097  10.733  67.469  1.00  0.00    -0.042 OA 
HETATM   28  H   UNL     1      -5.341  10.563  71.704  1.00  0.00     0.000 HD 
BRANCH  19  29
HETATM   29  C   UNL     1      -5.570   8.205  70.803  1.00  0.00    -0.029 C  
HETATM   30  O   UNL     1      -5.434   7.181  70.125  1.00  0.00    -0.022 OA 
BRANCH  29  31
HETATM   31  C   UNL     1      -5.244   8.179  72.295  1.00  0.00    -0.036 C  
HETATM   32  O   UNL     1      -6.431   8.252  73.074  1.00  0.00    -0.086 OA 
HETATM   33  H   UNL     1      -6.229   8.235  74.002  1.00  0.00     0.000 HD 
ENDBRANCH  29  31
ENDBRANCH  19  29
BRANCH  22  34
HETATM   34  O   UNL     1      -5.666  12.405  69.578  1.00  0.00    -0.080 OA 
BRANCH  34  35
HETATM   35  C   UNL     1      -5.263  13.737  69.338  1.00  0.00    -0.082 C  
HETATM   36  C   UNL     1      -6.140  14.624  68.449  1.00  0.00    -0.101 C  
HETATM   37  C   UNL     1      -7.490  14.976  69.090  1.00  0.00    -0.169 C  
HETATM   38  C   UNL     1      -7.343  15.375  70.576  1.00  0.00     0.824 C  
HETATM   39  N   UNL     1      -8.149  16.061  68.326  1.00  0.00    -0.147 NA 
HETATM   40  C   UNL     1      -6.430  14.371  71.292  1.00  0.00     0.439 C  
HETATM   41  H2  UNL     1      -8.245  15.828  67.338  1.00  0.00     0.000 HD 
HETATM   42  O   UNL     1      -6.806  16.703  70.666  1.00  0.00     1.169 OA 
HETATM   43  H1  UNL     1      -9.046  16.295  68.752  1.00  0.00     0.000 HD 
HETATM   44  C   UNL     1      -6.203  14.691  72.758  1.00  0.00     0.847 C  
HETATM   45  H   UNL     1      -6.715  16.948  71.579  1.00  0.00     0.000 HD 
HETATM   46  O   UNL     1      -5.148  14.323  70.637  1.00  0.00    -0.097 OA 
ENDBRANCH  34  35
ENDBRANCH  22  34
ENDBRANCH   2   3
TORSDOF 5
ENDMDL
MODEL      133
REMARK 921   NORMALIZED FREE ENERGY PREDICTED BY IDOCK:    4.64 KCAL/MOL
REMARK 922        TOTAL FREE ENERGY PREDICTED BY IDOCK:    4.71 KCAL/MOL
REMARK 923 INTER-LIGAND FREE ENERGY PREDICTED BY IDOCK:    4.79 KCAL/MOL
REMARK 924 INTRA-LIGAND FREE ENERGY PREDICTED BY IDOCK:   -0.08 KCAL/MOL
REMARK 927      BINDING AFFINITY PREDICTED BY RF-SCORE:    0.00 PKD
ROOT
HETATM    1  C   UNL     1     -10.143   2.643  72.660  1.00  0.00    -0.156 C  
HETATM    2  O   UNL     1      -9.470   3.621  71.875  1.00  0.00    -0.118 OA 
ENDROOT
BRANCH   2   3
HETATM    3  C   UNL     1      -8.943   3.209  70.679  1.00  0.00    -0.096 A  
HETATM    4  C   UNL     1      -8.345   1.950  70.524  1.00  0.00    -0.067 A  
HETATM    5  C   UNL     1      -7.783   1.574  69.307  1.00  0.00    -0.043 A  
HETATM    6  C   UNL     1      -7.804   2.460  68.238  1.00  0.00    -0.056 A  
HETATM    7  C   UNL     1      -8.391   3.728  68.379  1.00  0.00    -0.098 A  
HETATM    8  C   UNL     1      -8.964   4.112  69.591  1.00  0.00    -0.160 A  
HETATM    9  C   UNL     1      -9.597   5.452  69.680  1.00  0.00    -0.160 C  
HETATM   10  O   UNL     1     -10.095   5.875  70.720  1.00  0.00    -0.184 OA 
HETATM   11  C   UNL     1      -9.647   6.341  68.494  1.00  0.00    -0.128 A  
HETATM   12  C   UNL     1     -10.304   7.589  68.572  1.00  0.00    -0.199 A  
HETATM   13  O   UNL     1     -10.944   7.995  69.721  1.00  0.00    -0.350 OA 
HETATM   14  C   UNL     1     -10.305   8.500  67.496  1.00  0.00    -0.334 A  
HETATM   15  H   UNL     1     -11.385   8.834  69.774  1.00  0.00     0.000 HD 
HETATM   16  C   UNL     1      -9.609   8.155  66.321  1.00  0.00    -0.248 A  
HETATM   17  C   UNL     1      -9.011   6.879  66.225  1.00  0.00    -0.151 A  
HETATM   18  C   UNL     1      -9.500   9.135  65.166  1.00  0.00    -0.097 C  
HETATM   19  C   UNL     1      -9.841  10.597  65.502  1.00  0.00    -0.258 C  
HETATM   20  C   UNL     1      -9.021   5.971  67.307  1.00  0.00    -0.109 A  
HETATM   21  O   UNL     1      -8.369   6.513  65.074  1.00  0.00    -0.203 OA 
HETATM   22  C   UNL     1     -10.875   9.899  67.700  1.00  0.00    -0.257 C  
HETATM   23  C   UNL     1      -8.384   4.632  67.211  1.00  0.00    -0.105 C  
HETATM   24  C   UNL     1     -11.093  10.642  66.382  1.00  0.00     0.039 C  
HETATM   25  O   UNL     1      -8.725  11.221  66.139  1.00  0.00    -0.184 OA 
HETATM   26  H   UNL     1      -7.967   5.655  65.010  1.00  0.00     0.000 HD 
HETATM   27  O   UNL     1      -7.859   4.223  66.183  1.00  0.00    -0.093 OA 
HETATM   28  H   UNL     1      -8.935  12.124  66.346  1.00  0.00     0.000 HD 
BRANCH  19  29
HETATM   29  C   UNL     1     -10.057  11.388  64.196  1.00  0.00    -0.309 C  
HETATM   30  O   UNL     1      -9.120  11.753  63.478  1.00  0.00     0.024 OA 
BRANCH  29  31
HETATM   31  C   UNL     1     -11.492  11.745  63.816  1.00  0.00    -0.420 C  
HETATM   32  O   UNL     1     -11.757  11.406  62.461  1.00  0.00    -0.165 OA 
HETATM   33  H   UNL     1     -12.649  11.628  62.224  1.00  0.00     0.000 HD 
ENDBRANCH  29  31
ENDBRANCH  19  29
BRANCH  22  34
HETATM   34  O   UNL     1      -9.852  10.498  68.475  1.00  0.00    -0.156 OA 
BRANCH  34  35
HETATM   35  C   UNL     1     -10.056  10.925  69.806  1.00  0.00     0.211 C  
HETATM   36  C   UNL     1      -9.272  12.135  70.321  1.00  0.00     4.544 C  
HETATM   37  C   UNL     1      -9.695  13.456  69.660  1.00  0.00     1.388 C  
HETATM   38  C   UNL     1     -11.232  13.589  69.557  1.00  0.00    -0.132 C  
HETATM   39  N   UNL     1      -9.126  14.603  70.404  1.00  0.00     0.641 NA 
HETATM   40  C   UNL     1     -11.830  12.279  69.028  1.00  0.00    -0.305 C  
HETATM   41  H2  UNL     1      -8.113  14.532  70.498  1.00  0.00     0.000 HD 
HETATM   42  O   UNL     1     -11.774  13.909  70.847  1.00  0.00    -0.514 OA 
HETATM   43  H1  UNL     1      -9.407  15.480  69.964  1.00  0.00     0.000 HD 
HETATM   44  C   UNL     1     -13.343  12.301  68.913  1.00  0.00     4.073 C  
HETATM   45  H   UNL     1     -12.719  13.991  70.784  1.00  0.00     0.000 HD 
HETATM   46  O   UNL     1     -11.459  11.188  69.893  1.00  0.00    -0.274 OA 
ENDBRANCH  34  35
ENDBRANCH  22  34
ENDBRANCH   2   3
TORSDOF 5
ENDMDL
MODEL      134
REMARK 921   NORMALIZED FREE ENERGY PREDICTED BY IDOCK:    5.10 KCAL/MOL
REMARK 922        TOTAL FREE ENERGY PREDICTED BY IDOCK:    5.30 KCAL/MOL
REMARK 923 INTER-LIGAND FREE ENERGY PREDICTED BY IDOCK:    0.00 KCAL/MOL
REMARK 924 INTRA-LIGAND FREE ENERGY PREDICTED BY IDOCK:    5.30 KCAL/MOL
REMARK 927      BINDING AFFINITY PREDICTED BY RF-SCORE:    0.00 PKD
ROOT
HETATM    1  C   UNL     1      -6.469  12.265  66.709  1.00  0.00     0.240 C  
HETATM    2  O   UNL     1      -7.369  11.562  65.859  1.00  0.00     0.203 OA 
ENDROOT
BRANCH   2   3
HETATM    3  C   UNL     1      -6.939  10.366  65.345  1.00  0.00    -0.118 A  
HETATM    4  C   UNL     1      -6.623  10.211  63.987  1.00  0.00    -0.113 A  
HETATM    5  C   UNL     1      -6.227   8.975  63.485  1.00  0.00    -0.089 A  
HETATM    6  C   UNL     1      -6.156   7.880  64.335  1.00  0.00    -0.052 A  
HETATM    7  C   UNL     1      -6.477   8.016  65.696  1.00  0.00    -0.042 A  
HETATM    8  C   UNL     1      -6.868   9.251  66.210  1.00  0.00    -0.082 A  
HETATM    9  C   UNL     1      -7.170   9.348  67.661  1.00  0.00    -0.083 C  
HETATM   10  O   UNL     1      -7.549  10.393  68.184  1.00  0.00    -0.089 OA 
HETATM   11  C   UNL     1      -7.023   8.164  68.542  1.00  0.00    -0.072 A  
HETATM   12  C   UNL     1      -7.255   8.281  69.930  1.00  0.00    -0.059 A  
HETATM   13  O   UNL     1      -7.579   9.488  70.506  1.00  0.00    -0.137 OA 
HETATM   14  C   UNL     1      -7.207   7.165  70.791  1.00  0.00    -0.071 A  
HETATM   15  H   UNL     1      -7.735   9.566  71.440  1.00  0.00     0.000 HD 
HETATM   16  C   UNL     1      -6.941   5.897  70.236  1.00  0.00    -0.062 A  
HETATM   17  C   UNL     1      -6.645   5.798  68.858  1.00  0.00    -0.054 A  
HETATM   18  C   UNL     1      -6.968   4.649  71.101  1.00  0.00    -0.039 C  
HETATM   19  C   UNL     1      -7.658   4.804  72.467  1.00  0.00    -0.090 C  
HETATM   20  C   UNL     1      -6.689   6.923  68.006  1.00  0.00    -0.068 A  
HETATM   21  O   UNL     1      -6.341   4.580  68.314  1.00  0.00    -0.034 OA 
HETATM   22  C   UNL     1      -7.640   7.321  72.244  1.00  0.00    -0.084 C  
HETATM   23  C   UNL     1      -6.387   6.818  66.555  1.00  0.00    -0.045 C  
HETATM   24  C   UNL     1      -7.234   6.128  73.109  1.00  0.00    -0.085 C  
HETATM   25  O   UNL     1      -9.075   4.724  72.305  1.00  0.00    -0.125 OA 
HETATM   26  H   UNL     1      -6.142   4.513  67.388  1.00  0.00     0.000 HD 
HETATM   27  O   UNL     1      -6.040   5.768  66.027  1.00  0.00    -0.027 OA 
HETATM   28  H   UNL     1      -9.502   4.820  73.149  1.00  0.00     0.000 HD 
BRANCH  19  29
HETATM   29  C   UNL     1      -7.286   3.611  73.369  1.00  0.00    -0.056 C  
HETATM   30  O   UNL     1      -6.858   3.755  74.519  1.00  0.00    -0.047 OA 
BRANCH  29  31
HETATM   31  C   UNL     1      -7.432   2.209  72.781  1.00  0.00    -0.033 C  
HETATM   32  O   UNL     1      -8.691   2.056  72.139  1.00  0.00    -0.066 OA 
HETATM   33  H   UNL     1      -8.782   1.185  71.773  1.00  0.00     0.000 HD 
ENDBRANCH  29  31
ENDBRANCH  19  29
BRANCH  22  34
HETATM   34  O   UNL     1      -9.046   7.410  72.099  1.00  0.00    -0.130 OA 
BRANCH  34  35
HETATM   35  C   UNL     1      -9.902   6.302  72.285  1.00  0.00    -0.161 C  
HETATM   36  C   UNL     1     -11.270   6.528  72.937  1.00  0.00    -0.215 C  
HETATM   37  C   UNL     1     -12.235   7.333  72.054  1.00  0.00    -0.277 C  
HETATM   38  C   UNL     1     -12.212   6.858  70.583  1.00  0.00    -0.258 C  
HETATM   39  N   UNL     1     -13.610   7.257  72.600  1.00  0.00     0.030 NA 
HETATM   40  C   UNL     1     -10.760   6.687  70.118  1.00  0.00    -0.239 C  
HETATM   41  H2  UNL     1     -13.649   7.552  73.575  1.00  0.00     0.000 HD 
HETATM   42  O   UNL     1     -12.930   5.621  70.466  1.00  0.00     3.246 OA 
HETATM   43  H1  UNL     1     -14.250   7.792  72.014  1.00  0.00     0.000 HD 
HETATM   44  C   UNL     1     -10.632   6.198  68.686  1.00  0.00    -0.324 C  
HETATM   45  H   UNL     1     -12.916   5.328  69.563  1.00  0.00     0.000 HD 
HETATM   46  O   UNL     1     -10.078   5.754  70.976  1.00  0.00    -0.189 OA 
ENDBRANCH  34  35
ENDBRANCH  22  34
ENDBRANCH   2   3
TORSDOF 5
ENDMDL
MODEL      135
REMARK 921   NORMALIZED FREE ENERGY PREDICTED BY IDOCK:    5.13 KCAL/MOL
REMARK 922        TOTAL FREE ENERGY PREDICTED BY IDOCK:    5.35 KCAL/MOL
REMARK 923 INTER-LIGAND FREE ENERGY PREDICTED BY IDOCK:    3.82 KCAL/MOL
REMARK 924 INTRA-LIGAND FREE ENERGY PREDICTED BY IDOCK:    1.53 KCAL/MOL
REMARK 927      BINDING AFFINITY PREDICTED BY RF-SCORE:    0.00 PKD
ROOT
HETATM    1  C   UNL     1     -14.360  14.374  70.777  1.00  0.00     0.703 C  
HETATM    2  O   UNL     1     -12.998  14.214  70.397  1.00  0.00    -0.278 OA 
ENDROOT
BRANCH   2   3
HETATM    3  C   UNL     1     -12.728  14.129  69.056  1.00  0.00     0.604 A  
HETATM    4  C   UNL     1     -13.267  15.035  68.130  1.00  0.00     3.286 A  
HETATM    5  C   UNL     1     -13.008  14.901  66.770  1.00  0.00     1.770 A  
HETATM    6  C   UNL     1     -12.217  13.850  66.321  1.00  0.00    -0.498 A  
HETATM    7  C   UNL     1     -11.679  12.929  67.234  1.00  0.00    -0.431 A  
HETATM    8  C   UNL     1     -11.926  13.059  68.601  1.00  0.00    -0.298 A  
HETATM    9  C   UNL     1     -11.310  12.075  69.526  1.00  0.00    -0.228 C  
HETATM   10  O   UNL     1     -11.504  12.104  70.738  1.00  0.00     0.408 OA 
HETATM   11  C   UNL     1     -10.425  11.004  69.007  1.00  0.00    -0.242 A  
HETATM   12  C   UNL     1      -9.796  10.109  69.901  1.00  0.00    -0.177 A  
HETATM   13  O   UNL     1      -9.949  10.228  71.264  1.00  0.00     0.263 OA 
HETATM   14  C   UNL     1      -9.014   9.027  69.447  1.00  0.00    -0.145 A  
HETATM   15  H   UNL     1      -9.526   9.626  71.864  1.00  0.00     0.000 HD 
HETATM   16  C   UNL     1      -8.880   8.829  68.058  1.00  0.00    -0.141 A  
HETATM   17  C   UNL     1      -9.457   9.765  67.171  1.00  0.00    -0.154 A  
HETATM   18  C   UNL     1      -8.127   7.628  67.514  1.00  0.00    -0.120 C  
HETATM   19  C   UNL     1      -7.873   6.492  68.520  1.00  0.00    -0.106 C  
HETATM   20  C   UNL     1     -10.233  10.849  67.637  1.00  0.00    -0.214 A  
HETATM   21  O   UNL     1      -9.299   9.609  65.821  1.00  0.00    -0.190 OA 
HETATM   22  C   UNL     1      -8.510   7.995  70.449  1.00  0.00    -0.130 C  
HETATM   23  C   UNL     1     -10.847  11.829  66.704  1.00  0.00    -0.276 C  
HETATM   24  C   UNL     1      -7.432   7.083  69.861  1.00  0.00    -0.090 C  
HETATM   25  O   UNL     1      -9.050   5.694  68.655  1.00  0.00    -0.117 OA 
HETATM   26  H   UNL     1      -9.686  10.239  65.225  1.00  0.00     0.000 HD 
HETATM   27  O   UNL     1     -10.680  11.781  65.491  1.00  0.00    -0.265 OA 
HETATM   28  H   UNL     1      -8.894   4.992  69.276  1.00  0.00     0.000 HD 
BRANCH  19  29
HETATM   29  C   UNL     1      -6.799   5.539  67.959  1.00  0.00    -0.060 C  
HETATM   30  O   UNL     1      -6.948   4.919  66.900  1.00  0.00    -0.061 OA 
BRANCH  29  31
HETATM   31  C   UNL     1      -5.525   5.349  68.779  1.00  0.00    -0.007 C  
HETATM   32  O   UNL     1      -5.833   5.120  70.148  1.00  0.00    -0.015 OA 
HETATM   33  H   UNL     1      -5.041   5.002  70.658  1.00  0.00     0.000 HD 
ENDBRANCH  29  31
ENDBRANCH  19  29
BRANCH  22  34
HETATM   34  O   UNL     1      -9.702   7.284  70.728  1.00  0.00    -0.172 OA 
BRANCH  34  35
HETATM   35  C   UNL     1     -10.578   7.648  71.776  1.00  0.00    -0.214 C  
HETATM   36  C   UNL     1     -11.896   8.345  71.427  1.00  0.00    -0.339 C  
HETATM   37  C   UNL     1     -12.889   7.431  70.695  1.00  0.00     0.171 C  
HETATM   38  C   UNL     1     -12.970   6.027  71.337  1.00  0.00     1.219 C  
HETATM   39  N   UNL     1     -14.229   8.060  70.658  1.00  0.00    -0.075 NA 
HETATM   40  C   UNL     1     -11.554   5.502  71.612  1.00  0.00     0.232 C  
HETATM   41  H2  UNL     1     -14.201   8.995  70.251  1.00  0.00     0.000 HD 
HETATM   42  O   UNL     1     -13.729   6.097  72.553  1.00  0.00    -0.400 OA 
HETATM   43  H1  UNL     1     -14.889   7.453  70.171  1.00  0.00     0.000 HD 
HETATM   44  C   UNL     1     -11.528   4.133  72.267  1.00  0.00     0.827 C  
HETATM   45  H   UNL     1     -13.779   5.235  72.948  1.00  0.00     0.000 HD 
HETATM   46  O   UNL     1     -10.849   6.424  72.464  1.00  0.00    -0.218 OA 
ENDBRANCH  34  35
ENDBRANCH  22  34
ENDBRANCH   2   3
TORSDOF 5
ENDMDL
MODEL      136
REMARK 921   NORMALIZED FREE ENERGY PREDICTED BY IDOCK:    5.21 KCAL/MOL
REMARK 922        TOTAL FREE ENERGY PREDICTED BY IDOCK:    5.45 KCAL/MOL
REMARK 923 INTER-LIGAND FREE ENERGY PREDICTED BY IDOCK:    4.56 KCAL/MOL
REMARK 924 INTRA-LIGAND FREE ENERGY PREDICTED BY IDOCK:    0.88 KCAL/MOL
REMARK 927      BINDING AFFINITY PREDICTED BY RF-SCORE:    0.00 PKD
ROOT
HETATM    1  C   UNL     1     -11.235  18.470  68.608  1.00  0.00     1.360 C  
HETATM    2  O   UNL     1     -10.452  18.125  69.746  1.00  0.00     0.285 OA 
ENDROOT
BRANCH   2   3
HETATM    3  C   UNL     1     -11.083  17.455  70.760  1.00  0.00     1.466 A  
HETATM    4  C   UNL     1     -11.497  18.103  71.934  1.00  0.00     3.829 A  
HETATM    5  C   UNL     1     -12.101  17.389  72.965  1.00  0.00     1.291 A  
HETATM    6  C   UNL     1     -12.283  16.018  72.837  1.00  0.00    -0.621 A  
HETATM    7  C   UNL     1     -11.865  15.353  71.673  1.00  0.00    -0.468 A  
HETATM    8  C   UNL     1     -11.266  16.060  70.630  1.00  0.00    -0.395 A  
HETATM    9  C   UNL     1     -10.868  15.314  69.410  1.00  0.00    -0.262 C  
HETATM   10  O   UNL     1     -10.308  15.859  68.462  1.00  0.00    -0.222 OA 
HETATM   11  C   UNL     1     -11.136  13.861  69.294  1.00  0.00    -0.261 A  
HETATM   12  C   UNL     1     -10.807  13.172  68.105  1.00  0.00    -0.251 A  
HETATM   13  O   UNL     1     -10.275  13.827  67.018  1.00  0.00    -0.250 OA 
HETATM   14  C   UNL     1     -10.969  11.777  67.982  1.00  0.00    -0.274 A  
HETATM   15  H   UNL     1     -10.055  13.364  66.219  1.00  0.00     0.000 HD 
HETATM   16  C   UNL     1     -11.452  11.054  69.092  1.00  0.00    -0.370 A  
HETATM   17  C   UNL     1     -11.840  11.757  70.254  1.00  0.00    -0.295 A  
HETATM   18  C   UNL     1     -11.558   9.540  69.046  1.00  0.00     0.374 C  
HETATM   19  C   UNL     1     -10.773   8.854  67.915  1.00  0.00    -0.121 C  
HETATM   20  C   UNL     1     -11.680  13.155  70.364  1.00  0.00    -0.141 A  
HETATM   21  O   UNL     1     -12.352  11.073  71.323  1.00  0.00    -0.353 OA 
HETATM   22  C   UNL     1     -10.432  11.067  66.745  1.00  0.00    -0.251 C  
HETATM   23  C   UNL     1     -12.080  13.894  71.590  1.00  0.00     0.077 C  
HETATM   24  C   UNL     1     -10.958   9.637  66.613  1.00  0.00     0.147 C  
HETATM   25  O   UNL     1      -9.395   8.747  68.278  1.00  0.00    -0.137 OA 
HETATM   26  H   UNL     1     -12.613  11.546  72.104  1.00  0.00     0.000 HD 
HETATM   27  O   UNL     1     -12.609  13.345  72.549  1.00  0.00    -0.024 OA 
HETATM   28  H   UNL     1      -8.910   8.323  67.579  1.00  0.00     0.000 HD 
BRANCH  19  29
HETATM   29  C   UNL     1     -11.264   7.401  67.757  1.00  0.00     0.273 C  
HETATM   30  O   UNL     1     -11.293   6.824  66.665  1.00  0.00    -0.102 OA 
BRANCH  29  31
HETATM   31  C   UNL     1     -11.756   6.681  69.012  1.00  0.00     0.273 C  
HETATM   32  O   UNL     1     -10.663   6.169  69.764  1.00  0.00    -0.244 OA 
HETATM   33  H   UNL     1     -10.969   5.722  70.544  1.00  0.00     0.000 HD 
ENDBRANCH  29  31
ENDBRANCH  19  29
BRANCH  22  34
HETATM   34  O   UNL     1      -9.040  11.092  67.001  1.00  0.00    -0.146 OA 
BRANCH  34  35
HETATM   35  C   UNL     1      -8.097  11.528  66.044  1.00  0.00     0.131 C  
HETATM   36  C   UNL     1      -6.667  10.985  66.117  1.00  0.00    -0.068 C  
HETATM   37  C   UNL     1      -6.568   9.491  65.774  1.00  0.00    -0.075 C  
HETATM   38  C   UNL     1      -7.410   9.123  64.531  1.00  0.00    -0.099 C  
HETATM   39  N   UNL     1      -5.151   9.108  65.570  1.00  0.00    -0.036 NA 
HETATM   40  C   UNL     1      -8.802   9.760  64.644  1.00  0.00    -0.212 C  
HETATM   41  H2  UNL     1      -4.570   9.354  66.371  1.00  0.00     0.000 HD 
HETATM   42  O   UNL     1      -6.741   9.574  63.345  1.00  0.00    -0.097 OA 
HETATM   43  H1  UNL     1      -5.086   8.116  65.342  1.00  0.00     0.000 HD 
HETATM   44  C   UNL     1      -9.701   9.474  63.454  1.00  0.00     0.882 C  
HETATM   45  H   UNL     1      -7.258   9.347  62.581  1.00  0.00     0.000 HD 
HETATM   46  O   UNL     1      -8.676  11.188  64.781  1.00  0.00    -0.047 OA 
ENDBRANCH  34  35
ENDBRANCH  22  34
ENDBRANCH   2   3
TORSDOF 5
ENDMDL
MODEL      137
REMARK 921   NORMALIZED FREE ENERGY PREDICTED BY IDOCK:    8.19 KCAL/MOL
REMARK 922        TOTAL FREE ENERGY PREDICTED BY IDOCK:    9.30 KCAL/MOL
REMARK 923 INTER-LIGAND FREE ENERGY PREDICTED BY IDOCK:    4.78 KCAL/MOL
REMARK 924 INTRA-LIGAND FREE ENERGY PREDICTED BY IDOCK:    4.52 KCAL/MOL
REMARK 927      BINDING AFFINITY PREDICTED BY RF-SCORE:    0.00 PKD
ROOT
HETATM    1  C   UNL     1      -6.639   5.114  69.582  1.00  0.00    -0.043 C  
HETATM    2  O   UNL     1      -7.820   4.384  69.898  1.00  0.00    -0.053 OA 
ENDROOT
BRANCH   2   3
HETATM    3  C   UNL     1      -8.817   4.369  68.959  1.00  0.00    -0.094 A  
HETATM    4  C   UNL     1      -9.413   3.175  68.526  1.00  0.00    -0.207 A  
HETATM    5  C   UNL     1     -10.397   3.187  67.542  1.00  0.00     1.947 A  
HETATM    6  C   UNL     1     -10.785   4.393  66.973  1.00  0.00     0.806 A  
HETATM    7  C   UNL     1     -10.192   5.597  67.389  1.00  0.00    -0.249 A  
HETATM    8  C   UNL     1      -9.210   5.597  68.379  1.00  0.00    -0.125 A  
HETATM    9  C   UNL     1      -8.635   6.898  68.803  1.00  0.00    -0.124 C  
HETATM   10  O   UNL     1      -7.746   6.979  69.647  1.00  0.00    -0.105 OA 
HETATM   11  C   UNL     1      -9.122   8.166  68.209  1.00  0.00    -0.135 A  
HETATM   12  C   UNL     1      -8.611   9.403  68.661  1.00  0.00    -0.123 A  
HETATM   13  O   UNL     1      -7.690   9.471  69.681  1.00  0.00    -0.088 OA 
HETATM   14  C   UNL     1      -8.986  10.626  68.068  1.00  0.00    -0.140 A  
HETATM   15  H   UNL     1      -7.346  10.302  69.985  1.00  0.00     0.000 HD 
HETATM   16  C   UNL     1      -9.879  10.602  66.979  1.00  0.00    -0.222 A  
HETATM   17  C   UNL     1     -10.437   9.368  66.575  1.00  0.00    -0.129 A  
HETATM   18  C   UNL     1     -10.244  11.880  66.244  1.00  0.00    -0.247 C  
HETATM   19  C   UNL     1      -9.317  13.081  66.502  1.00  0.00    -0.217 C  
HETATM   20  C   UNL     1     -10.060   8.150  67.180  1.00  0.00    -0.334 A  
HETATM   21  O   UNL     1     -11.339   9.334  65.547  1.00  0.00     2.463 OA 
HETATM   22  C   UNL     1      -8.268  11.908  68.478  1.00  0.00    -0.126 C  
HETATM   23  C   UNL     1     -10.640   6.850  66.749  1.00  0.00    -0.234 C  
HETATM   24  C   UNL     1      -8.990  13.166  67.994  1.00  0.00    -0.195 C  
HETATM   25  O   UNL     1      -8.137  12.960  65.707  1.00  0.00     0.898 OA 
HETATM   26  H   UNL     1     -11.714   8.505  65.275  1.00  0.00     0.000 HD 
HETATM   27  O   UNL     1     -11.503   6.767  65.884  1.00  0.00     2.195 OA 
HETATM   28  H   UNL     1      -7.564  13.702  65.866  1.00  0.00     0.000 HD 
BRANCH  19  29
HETATM   29  C   UNL     1     -10.003  14.372  66.014  1.00  0.00    -0.317 C  
HETATM   30  O   UNL     1      -9.919  15.442  66.627  1.00  0.00    -0.246 OA 
BRANCH  29  31
HETATM   31  C   UNL     1     -10.839  14.290  64.738  1.00  0.00    -0.405 C  
HETATM   32  O   UNL     1     -10.240  13.410  63.796  1.00  0.00    -0.647 OA 
HETATM   33  H   UNL     1     -10.759  13.358  63.002  1.00  0.00     0.000 HD 
ENDBRANCH  29  31
ENDBRANCH  19  29
BRANCH  22  34
HETATM   34  O   UNL     1      -7.020  11.738  67.832  1.00  0.00    -0.076 OA 
BRANCH  34  35
HETATM   35  C   UNL     1      -5.848  12.404  68.252  1.00  0.00    -0.059 C  
HETATM   36  C   UNL     1      -5.927  13.896  68.590  1.00  0.00    -0.088 C  
HETATM   37  C   UNL     1      -6.742  14.186  69.858  1.00  0.00    -0.036 C  
HETATM   38  C   UNL     1      -6.400  13.209  71.007  1.00  0.00     0.901 C  
HETATM   39  N   UNL     1      -6.530  15.587  70.291  1.00  0.00    -0.035 NA 
HETATM   40  C   UNL     1      -6.365  11.773  70.469  1.00  0.00     0.335 C  
HETATM   41  H2  UNL     1      -6.735  16.251  69.546  1.00  0.00     0.000 HD 
HETATM   42  O   UNL     1      -5.134  13.567  71.580  1.00  0.00    -0.146 OA 
HETATM   43  H1  UNL     1      -7.072  15.779  71.134  1.00  0.00     0.000 HD 
HETATM   44  C   UNL     1      -6.013  10.736  71.521  1.00  0.00     0.523 C  
HETATM   45  H   UNL     1      -4.923  12.966  72.286  1.00  0.00     0.000 HD 
HETATM   46  O   UNL     1      -5.406  11.674  69.400  1.00  0.00    -0.048 OA 
ENDBRANCH  34  35
ENDBRANCH  22  34
ENDBRANCH   2   3
TORSDOF 5
ENDMDL
MODEL      138
REMARK 921   NORMALIZED FREE ENERGY PREDICTED BY IDOCK:    8.67 KCAL/MOL
REMARK 922        TOTAL FREE ENERGY PREDICTED BY IDOCK:    9.92 KCAL/MOL
REMARK 923 INTER-LIGAND FREE ENERGY PREDICTED BY IDOCK:    1.50 KCAL/MOL
REMARK 924 INTRA-LIGAND FREE ENERGY PREDICTED BY IDOCK:    8.42 KCAL/MOL
REMARK 927      BINDING AFFINITY PREDICTED BY RF-SCORE:    0.00 PKD
ROOT
HETATM    1  C   UNL     1     -12.546  14.946  66.318  1.00  0.00     0.511 C  
HETATM    2  O   UNL     1     -12.306  16.345  66.418  1.00  0.00     2.131 OA 
ENDROOT
BRANCH   2   3
HETATM    3  C   UNL     1     -11.018  16.743  66.659  1.00  0.00     0.133 A  
HETATM    4  C   UNL     1     -10.536  17.993  66.243  1.00  0.00    -0.340 A  
HETATM    5  C   UNL     1      -9.211  18.356  66.467  1.00  0.00    -0.300 A  
HETATM    6  C   UNL     1      -8.353  17.465  67.099  1.00  0.00    -0.232 A  
HETATM    7  C   UNL     1      -8.817  16.206  67.514  1.00  0.00    -0.198 A  
HETATM    8  C   UNL     1     -10.145  15.836  67.301  1.00  0.00    -0.247 A  
HETATM    9  C   UNL     1     -10.593  14.506  67.784  1.00  0.00    -0.250 C  
HETATM   10  O   UNL     1     -11.736  14.095  67.608  1.00  0.00    -0.344 OA 
HETATM   11  C   UNL     1      -9.655  13.612  68.506  1.00  0.00    -0.165 A  
HETATM   12  C   UNL     1     -10.107  12.373  69.014  1.00  0.00     0.158 A  
HETATM   13  O   UNL     1     -11.421  11.982  68.892  1.00  0.00    -0.250 OA 
HETATM   14  C   UNL     1      -9.232  11.457  69.633  1.00  0.00     0.973 A  
HETATM   15  H   UNL     1     -11.724  11.150  69.234  1.00  0.00     0.000 HD 
HETATM   16  C   UNL     1      -7.865  11.788  69.724  1.00  0.00     1.115 A  
HETATM   17  C   UNL     1      -7.432  13.055  69.274  1.00  0.00     0.308 A  
HETATM   18  C   UNL     1      -6.864  10.801  70.298  1.00  0.00     0.024 C  
HETATM   19  C   UNL     1      -7.352   9.345  70.401  1.00  0.00    -0.121 C  
HETATM   20  C   UNL     1      -8.318  13.967  68.661  1.00  0.00    -0.104 A  
HETATM   21  O   UNL     1      -6.115  13.406  69.395  1.00  0.00    -0.092 OA 
HETATM   22  C   UNL     1      -9.739  10.067  69.999  1.00  0.00    -0.175 C  
HETATM   23  C   UNL     1      -7.862  15.297  68.179  1.00  0.00    -0.120 C  
HETATM   24  C   UNL     1      -8.786   9.321  70.934  1.00  0.00    -0.252 C  
HETATM   25  O   UNL     1      -7.250   8.709  69.126  1.00  0.00    -0.062 OA 
HETATM   26  H   UNL     1      -5.825  14.258  69.093  1.00  0.00     0.000 HD 
HETATM   27  O   UNL     1      -6.712  15.694  68.326  1.00  0.00    -0.111 OA 
HETATM   28  H   UNL     1      -7.551   7.810  69.190  1.00  0.00     0.000 HD 
BRANCH  19  29
HETATM   29  C   UNL     1      -6.408   8.551  71.327  1.00  0.00    -0.047 C  
HETATM   30  O   UNL     1      -6.360   7.317  71.326  1.00  0.00    -0.037 OA 
BRANCH  29  31
HETATM   31  C   UNL     1      -5.532   9.347  72.292  1.00  0.00    -0.052 C  
HETATM   32  O   UNL     1      -5.878   9.063  73.642  1.00  0.00    -0.183 OA 
HETATM   33  H   UNL     1      -5.333   9.558  74.242  1.00  0.00     0.000 HD 
ENDBRANCH  29  31
ENDBRANCH  19  29
BRANCH  22  34
HETATM   34  O   UNL     1      -9.805   9.458  68.723  1.00  0.00    -0.156 OA 
BRANCH  34  35
HETATM   35  C   UNL     1      -8.839   9.689  67.718  1.00  0.00    -0.125 C  
HETATM   36  C   UNL     1      -8.497   8.553  66.749  1.00  0.00    -0.111 C  
HETATM   37  C   UNL     1      -9.647   8.207  65.792  1.00  0.00     0.181 C  
HETATM   38  C   UNL     1     -10.316   9.471  65.206  1.00  0.00     0.692 C  
HETATM   39  N   UNL     1      -9.158   7.330  64.704  1.00  0.00     0.252 NA 
HETATM   40  C   UNL     1     -10.574  10.486  66.327  1.00  0.00    -0.133 C  
HETATM   41  H2  UNL     1      -8.699   6.494  65.065  1.00  0.00     0.000 HD 
HETATM   42  O   UNL     1      -9.471  10.038  64.194  1.00  0.00    -0.277 OA 
HETATM   43  H1  UNL     1      -9.923   7.100  64.068  1.00  0.00     0.000 HD 
HETATM   44  C   UNL     1     -11.211  11.778  65.846  1.00  0.00    -0.345 C  
HETATM   45  H   UNL     1      -9.881  10.815  63.834  1.00  0.00     0.000 HD 
HETATM   46  O   UNL     1      -9.336  10.812  66.986  1.00  0.00    -0.155 OA 
ENDBRANCH  34  35
ENDBRANCH  22  34
ENDBRANCH   2   3
TORSDOF 5
ENDMDL
MODEL      139
REMARK 921   NORMALIZED FREE ENERGY PREDICTED BY IDOCK:    8.74 KCAL/MOL
REMARK 922        TOTAL FREE ENERGY PREDICTED BY IDOCK:   10.01 KCAL/MOL
REMARK 923 INTER-LIGAND FREE ENERGY PREDICTED BY IDOCK:   -0.86 KCAL/MOL
REMARK 924 INTRA-LIGAND FREE ENERGY PREDICTED BY IDOCK:   10.87 KCAL/MOL
REMARK 927      BINDING AFFINITY PREDICTED BY RF-SCORE:    0.00 PKD
ROOT
HETATM    1  C   UNL     1      -7.161  18.322  69.518  1.00  0.00     0.072 C  
HETATM    2  O   UNL     1      -7.786  19.128  68.526  1.00  0.00    -0.313 OA 
ENDROOT
BRANCH   2   3
HETATM    3  C   UNL     1      -8.918  18.631  67.937  1.00  0.00    -0.287 A  
HETATM    4  C   UNL     1     -10.084  19.399  67.800  1.00  0.00    -0.508 A  
HETATM    5  C   UNL     1     -11.233  18.855  67.233  1.00  0.00     0.120 A  
HETATM    6  C   UNL     1     -11.229  17.532  66.809  1.00  0.00     0.609 A  
HETATM    7  C   UNL     1     -10.072  16.747  66.947  1.00  0.00    -0.286 A  
HETATM    8  C   UNL     1      -8.914  17.285  67.507  1.00  0.00    -0.222 A  
HETATM    9  C   UNL     1      -7.710  16.421  67.604  1.00  0.00    -0.144 C  
HETATM   10  O   UNL     1      -6.662  16.811  68.112  1.00  0.00    -0.142 OA 
HETATM   11  C   UNL     1      -7.735  15.032  67.084  1.00  0.00    -0.202 A  
HETATM   12  C   UNL     1      -6.568  14.238  67.127  1.00  0.00     0.595 A  
HETATM   13  O   UNL     1      -5.378  14.735  67.608  1.00  0.00    -0.306 OA 
HETATM   14  C   UNL     1      -6.568  12.888  66.720  1.00  0.00     0.926 A  
HETATM   15  H   UNL     1      -4.593  14.201  67.637  1.00  0.00     0.000 HD 
HETATM   16  C   UNL     1      -7.779  12.318  66.280  1.00  0.00     0.667 A  
HETATM   17  C   UNL     1      -8.927  13.135  66.177  1.00  0.00     0.220 A  
HETATM   18  C   UNL     1      -7.858  10.846  65.917  1.00  0.00    -0.090 C  
HETATM   19  C   UNL     1      -6.689   9.977  66.414  1.00  0.00    -0.088 C  
HETATM   20  C   UNL     1      -8.914  14.488  66.581  1.00  0.00    -0.247 A  
HETATM   21  O   UNL     1     -10.099  12.606  65.709  1.00  0.00    -0.265 OA 
HETATM   22  C   UNL     1      -5.327  12.035  66.956  1.00  0.00    -0.087 C  
HETATM   23  C   UNL     1     -10.123  15.346  66.481  1.00  0.00    -0.271 C  
HETATM   24  C   UNL     1      -5.368  10.715  66.186  1.00  0.00    -0.091 C  
HETATM   25  O   UNL     1      -6.882   9.649  67.791  1.00  0.00    -0.076 OA 
HETATM   26  H   UNL     1     -10.870  13.155  65.639  1.00  0.00     0.000 HD 
HETATM   27  O   UNL     1     -11.179  14.946  66.005  1.00  0.00    -0.337 OA 
HETATM   28  H   UNL     1      -6.160   9.112  68.098  1.00  0.00     0.000 HD 
BRANCH  19  29
HETATM   29  C   UNL     1      -6.701   8.626  65.671  1.00  0.00    -0.064 C  
HETATM   30  O   UNL     1      -5.916   7.711  65.942  1.00  0.00    -0.037 OA 
BRANCH  29  31
HETATM   31  C   UNL     1      -7.711   8.451  64.539  1.00  0.00    -0.121 C  
HETATM   32  O   UNL     1      -7.068   8.024  63.346  1.00  0.00    -0.081 OA 
HETATM   33  H   UNL     1      -7.696   7.915  62.642  1.00  0.00     0.000 HD 
ENDBRANCH  29  31
ENDBRANCH  19  29
BRANCH  22  34
HETATM   34  O   UNL     1      -5.403  11.828  68.355  1.00  0.00    -0.043 OA 
BRANCH  34  35
HETATM   35  C   UNL     1      -6.536  12.190  69.118  1.00  0.00    -0.099 C  
HETATM   36  C   UNL     1      -7.868  11.489  68.838  1.00  0.00    -0.071 C  
HETATM   37  C   UNL     1      -7.869  10.007  69.239  1.00  0.00    -0.125 C  
HETATM   38  C   UNL     1      -7.217   9.778  70.622  1.00  0.00    -0.069 C  
HETATM   39  N   UNL     1      -9.252   9.476  69.226  1.00  0.00    -0.160 NA 
HETATM   40  C   UNL     1      -5.900  10.561  70.708  1.00  0.00    -0.093 C  
HETATM   41  H2  UNL     1      -9.710   9.628  68.328  1.00  0.00     0.000 HD 
HETATM   42  O   UNL     1      -8.122  10.193  71.655  1.00  0.00     1.045 OA 
HETATM   43  H1  UNL     1      -9.252   8.491  69.492  1.00  0.00     0.000 HD 
HETATM   44  C   UNL     1      -5.192  10.419  72.043  1.00  0.00     0.062 C  
HETATM   45  H   UNL     1      -7.721  10.052  72.505  1.00  0.00     0.000 HD 
HETATM   46  O   UNL     1      -6.148  11.961  70.476  1.00  0.00    -0.253 OA 
ENDBRANCH  34  35
ENDBRANCH  22  34
ENDBRANCH   2   3
TORSDOF 5
ENDMDL
MODEL      140
REMARK 921   NORMALIZED FREE ENERGY PREDICTED BY IDOCK:    8.87 KCAL/MOL
REMARK 922        TOTAL FREE ENERGY PREDICTED BY IDOCK:   10.18 KCAL/MOL
REMARK 923 INTER-LIGAND FREE ENERGY PREDICTED BY IDOCK:    2.65 KCAL/MOL
REMARK 924 INTRA-LIGAND FREE ENERGY PREDICTED BY IDOCK:    7.53 KCAL/MOL
REMARK 927      BINDING AFFINITY PREDICTED BY RF-SCORE:    0.00 PKD
ROOT
HETATM    1  C   UNL     1      -9.901   6.189  64.227  1.00  0.00     2.716 C  
HETATM    2  O   UNL     1      -8.700   6.198  63.464  1.00  0.00     0.215 OA 
ENDROOT
BRANCH   2   3
HETATM    3  C   UNL     1      -7.534   6.458  64.135  1.00  0.00    -0.084 A  
HETATM    4  C   UNL     1      -6.431   5.594  64.071  1.00  0.00    -0.032 A  
HETATM    5  C   UNL     1      -5.272   5.863  64.794  1.00  0.00    -0.013 A  
HETATM    6  C   UNL     1      -5.212   6.993  65.599  1.00  0.00    -0.023 A  
HETATM    7  C   UNL     1      -6.312   7.864  65.682  1.00  0.00    -0.042 A  
HETATM    8  C   UNL     1      -7.474   7.607  64.955  1.00  0.00    -0.090 A  
HETATM    9  C   UNL     1      -8.596   8.574  65.056  1.00  0.00    -0.135 C  
HETATM   10  O   UNL     1      -9.663   8.403  64.471  1.00  0.00     1.402 OA 
HETATM   11  C   UNL     1      -8.465   9.798  65.882  1.00  0.00    -0.136 A  
HETATM   12  C   UNL     1      -9.516  10.741  65.924  1.00  0.00    -0.197 A  
HETATM   13  O   UNL     1     -10.660  10.576  65.178  1.00  0.00    -0.221 OA 
HETATM   14  C   UNL     1      -9.467  11.876  66.759  1.00  0.00    -0.207 A  
HETATM   15  H   UNL     1     -11.367  11.210  65.206  1.00  0.00     0.000 HD 
HETATM   16  C   UNL     1      -8.342  12.054  67.589  1.00  0.00    -0.160 A  
HETATM   17  C   UNL     1      -7.266  11.143  67.494  1.00  0.00    -0.101 A  
HETATM   18  C   UNL     1      -8.278  13.207  68.575  1.00  0.00    -0.076 C  
HETATM   19  C   UNL     1      -9.619  13.901  68.872  1.00  0.00     0.028 C  
HETATM   20  C   UNL     1      -7.323  10.013  66.649  1.00  0.00    -0.103 A  
HETATM   21  O   UNL     1      -6.149  11.328  68.262  1.00  0.00    -0.046 OA 
HETATM   22  C   UNL     1     -10.702  12.759  66.895  1.00  0.00    -0.253 C  
HETATM   23  C   UNL     1      -6.195   9.050  66.555  1.00  0.00    -0.065 C  
HETATM   24  C   UNL     1     -10.396  14.097  67.568  1.00  0.00    -0.248 C  
HETATM   25  O   UNL     1     -10.362  13.131  69.820  1.00  0.00     0.064 OA 
HETATM   26  H   UNL     1      -5.426  10.716  68.197  1.00  0.00     0.000 HD 
HETATM   27  O   UNL     1      -5.143   9.203  67.164  1.00  0.00    -0.035 OA 
HETATM   28  H   UNL     1     -11.190  13.559  70.004  1.00  0.00     0.000 HD 
BRANCH  19  29
HETATM   29  C   UNL     1      -9.356  15.252  69.566  1.00  0.00    -0.195 C  
HETATM   30  O   UNL     1      -9.322  15.373  70.795  1.00  0.00     0.877 OA 
BRANCH  29  31
HETATM   31  C   UNL     1      -9.163  16.477  68.675  1.00  0.00    -0.238 C  
HETATM   32  O   UNL     1      -8.103  16.270  67.749  1.00  0.00    -0.146 OA 
HETATM   33  H   UNL     1      -7.984  17.031  67.195  1.00  0.00     0.000 HD 
ENDBRANCH  29  31
ENDBRANCH  19  29
BRANCH  22  34
HETATM   34  O   UNL     1     -11.531  11.944  67.704  1.00  0.00    -0.286 OA 
BRANCH  34  35
HETATM   35  C   UNL     1     -11.516  10.533  67.630  1.00  0.00     0.007 C  
HETATM   36  C   UNL     1     -10.259   9.784  68.083  1.00  0.00    -0.220 C  
HETATM   37  C   UNL     1     -10.016   9.871  69.598  1.00  0.00    -0.231 C  
HETATM   38  C   UNL     1     -11.313   9.649  70.409  1.00  0.00    -0.277 C  
HETATM   39  N   UNL     1      -8.979   8.894  70.004  1.00  0.00    -0.155 NA 
HETATM   40  C   UNL     1     -12.451  10.478  69.799  1.00  0.00    -0.064 C  
HETATM   41  H2  UNL     1      -8.117   9.009  69.472  1.00  0.00     0.000 HD 
HETATM   42  O   UNL     1     -11.647   8.253  70.410  1.00  0.00    -0.438 OA 
HETATM   43  H1  UNL     1      -8.818   8.951  71.009  1.00  0.00     0.000 HD 
HETATM   44  C   UNL     1     -13.779  10.309  70.515  1.00  0.00     0.574 C  
HETATM   45  H   UNL     1     -12.444   8.117  70.908  1.00  0.00     0.000 HD 
HETATM   46  O   UNL     1     -12.634  10.116  68.418  1.00  0.00     1.281 OA 
ENDBRANCH  34  35
ENDBRANCH  22  34
ENDBRANCH   2   3
TORSDOF 5
ENDMDL
MODEL      141
REMARK 921   NORMALIZED FREE ENERGY PREDICTED BY IDOCK:   10.23 KCAL/MOL
REMARK 922        TOTAL FREE ENERGY PREDICTED BY IDOCK:   11.94 KCAL/MOL
REMARK 923 INTER-LIGAND FREE ENERGY PREDICTED BY IDOCK:    5.59 KCAL/MOL
REMARK 924 INTRA-LIGAND FREE ENERGY PREDICTED BY IDOCK:    6.35 KCAL/MOL
REMARK 927      BINDING AFFINITY PREDICTED BY RF-SCORE:    0.00 PKD
ROOT
HETATM    1  C   UNL     1      -7.832   9.471  64.942  1.00  0.00    -0.119 C  
HETATM    2  O   UNL     1      -8.723   9.199  63.866  1.00  0.00    -0.197 OA 
ENDROOT
BRANCH   2   3
HETATM    3  C   UNL     1      -9.071   7.890  63.657  1.00  0.00     1.457 A  
HETATM    4  C   UNL     1      -9.764   7.479  62.509  1.00  0.00     3.339 A  
HETATM    5  C   UNL     1     -10.139   6.149  62.342  1.00  0.00     2.581 A  
HETATM    6  C   UNL     1      -9.834   5.220  63.329  1.00  0.00     1.080 A  
HETATM    7  C   UNL     1      -9.149   5.617  64.489  1.00  0.00     0.353 A  
HETATM    8  C   UNL     1      -8.762   6.946  64.663  1.00  0.00     0.387 A  
HETATM    9  C   UNL     1      -8.016   7.308  65.894  1.00  0.00    -0.115 C  
HETATM   10  O   UNL     1      -7.667   8.461  66.134  1.00  0.00    -0.093 OA 
HETATM   11  C   UNL     1      -7.662   6.271  66.893  1.00  0.00    -0.100 A  
HETATM   12  C   UNL     1      -6.900   6.615  68.031  1.00  0.00    -0.077 A  
HETATM   13  O   UNL     1      -6.433   7.895  68.225  1.00  0.00    -0.051 OA 
HETATM   14  C   UNL     1      -6.611   5.679  69.046  1.00  0.00    -0.051 A  
HETATM   15  H   UNL     1      -5.921   8.126  68.990  1.00  0.00     0.000 HD 
HETATM   16  C   UNL     1      -7.121   4.372  68.922  1.00  0.00    -0.052 A  
HETATM   17  C   UNL     1      -7.826   4.017  67.750  1.00  0.00    -0.086 A  
HETATM   18  C   UNL     1      -6.919   3.351  70.027  1.00  0.00    -0.034 C  
HETATM   19  C   UNL     1      -6.488   3.924  71.389  1.00  0.00    -0.015 C  
HETATM   20  C   UNL     1      -8.104   4.960  66.737  1.00  0.00    -0.107 A  
HETATM   21  O   UNL     1      -8.289   2.739  67.596  1.00  0.00    -0.078 OA 
HETATM   22  C   UNL     1      -5.940   6.151  70.331  1.00  0.00    -0.029 C  
HETATM   23  C   UNL     1      -8.853   4.590  65.508  1.00  0.00    -0.130 C  
HETATM   24  C   UNL     1      -5.414   4.993  71.179  1.00  0.00    -0.004 C  
HETATM   25  O   UNL     1      -7.627   4.445  72.077  1.00  0.00    -0.075 OA 
HETATM   26  H   UNL     1      -8.763   2.500  66.808  1.00  0.00     0.000 HD 
HETATM   27  O   UNL     1      -9.229   3.446  65.283  1.00  0.00    -0.141 OA 
HETATM   28  H   UNL     1      -7.361   4.799  72.918  1.00  0.00     0.000 HD 
BRANCH  19  29
HETATM   29  C   UNL     1      -5.962   2.783  72.283  1.00  0.00    -0.009 C  
HETATM   30  O   UNL     1      -5.843   1.622  71.877  1.00  0.00    -0.008 OA 
BRANCH  29  31
HETATM   31  C   UNL     1      -5.612   3.123  73.730  1.00  0.00     0.000 C  
HETATM   32  O   UNL     1      -6.746   3.636  74.419  1.00  0.00    -0.041 OA 
HETATM   33  H   UNL     1      -6.528   3.847  75.319  1.00  0.00     0.000 HD 
ENDBRANCH  29  31
ENDBRANCH  19  29
BRANCH  22  34
HETATM   34  O   UNL     1      -7.014   6.821  70.967  1.00  0.00    -0.064 OA 
BRANCH  34  35
HETATM   35  C   UNL     1      -8.355   6.683  70.544  1.00  0.00    -0.130 C  
HETATM   36  C   UNL     1      -9.442   6.464  71.600  1.00  0.00    -0.160 C  
HETATM   37  C   UNL     1      -9.678   7.694  72.490  1.00  0.00    -0.184 C  
HETATM   38  C   UNL     1      -9.729   9.004  71.670  1.00  0.00    -0.276 C  
HETATM   39  N   UNL     1     -10.924   7.525  73.272  1.00  0.00    -0.510 NA 
HETATM   40  C   UNL     1      -8.565   9.033  70.671  1.00  0.00    -0.210 C  
HETATM   41  H2  UNL     1     -10.922   6.660  73.812  1.00  0.00     0.000 HD 
HETATM   42  O   UNL     1     -10.987   9.094  70.987  1.00  0.00    -0.254 OA 
HETATM   43  H1  UNL     1     -11.080   8.342  73.863  1.00  0.00     0.000 HD 
HETATM   44  C   UNL     1      -8.542  10.275  69.798  1.00  0.00    -0.078 C  
HETATM   45  H   UNL     1     -11.019   9.899  70.483  1.00  0.00     0.000 HD 
HETATM   46  O   UNL     1      -8.630   7.879  69.811  1.00  0.00    -0.130 OA 
ENDBRANCH  34  35
ENDBRANCH  22  34
ENDBRANCH   2   3
TORSDOF 5
ENDMDL
MODEL      142
REMARK 921   NORMALIZED FREE ENERGY PREDICTED BY IDOCK:   11.67 KCAL/MOL
REMARK 922        TOTAL FREE ENERGY PREDICTED BY IDOCK:   13.80 KCAL/MOL
REMARK 923 INTER-LIGAND FREE ENERGY PREDICTED BY IDOCK:   -0.61 KCAL/MOL
REMARK 924 INTRA-LIGAND FREE ENERGY PREDICTED BY IDOCK:   14.41 KCAL/MOL
REMARK 927      BINDING AFFINITY PREDICTED BY RF-SCORE:    0.00 PKD
ROOT
HETATM    1  C   UNL     1      -5.977   9.203  64.464  1.00  0.00    -0.070 C  
HETATM    2  O   UNL     1      -6.908  10.278  64.413  1.00  0.00    -0.122 OA 
ENDROOT
BRANCH   2   3
HETATM    3  C   UNL     1      -8.217   9.986  64.691  1.00  0.00    -0.163 A  
HETATM    4  C   UNL     1      -9.278  10.642  64.048  1.00  0.00    -0.269 A  
HETATM    5  C   UNL     1     -10.599  10.354  64.379  1.00  0.00     0.269 A  
HETATM    6  C   UNL     1     -10.870   9.414  65.365  1.00  0.00     2.189 A  
HETATM    7  C   UNL     1      -9.819   8.755  66.025  1.00  0.00    -0.234 A  
HETATM    8  C   UNL     1      -8.493   9.032  65.696  1.00  0.00    -0.163 A  
HETATM    9  C   UNL     1      -7.420   8.287  66.403  1.00  0.00    -0.080 C  
HETATM   10  O   UNL     1      -6.228   8.495  66.191  1.00  0.00    -0.051 OA 
HETATM   11  C   UNL     1      -7.759   7.251  67.408  1.00  0.00    -0.110 A  
HETATM   12  C   UNL     1      -6.734   6.506  68.031  1.00  0.00    -0.068 A  
HETATM   13  O   UNL     1      -5.410   6.688  67.700  1.00  0.00    -0.007 OA 
HETATM   14  C   UNL     1      -7.005   5.570  69.050  1.00  0.00    -0.056 A  
HETATM   15  H   UNL     1      -4.721   6.187  68.120  1.00  0.00     0.000 HD 
HETATM   16  C   UNL     1      -8.340   5.396  69.467  1.00  0.00    -0.100 A  
HETATM   17  C   UNL     1      -9.367   6.095  68.794  1.00  0.00    -0.123 A  
HETATM   18  C   UNL     1      -8.679   4.470  70.621  1.00  0.00    -0.127 C  
HETATM   19  C   UNL     1      -7.495   4.063  71.515  1.00  0.00    -0.059 C  
HETATM   20  C   UNL     1      -9.085   7.025  67.770  1.00  0.00    -0.126 A  
HETATM   21  O   UNL     1     -10.672   5.903  69.158  1.00  0.00    -0.271 OA 
HETATM   22  C   UNL     1      -5.847   4.930  69.807  1.00  0.00    -0.020 C  
HETATM   23  C   UNL     1     -10.164   7.767  67.068  1.00  0.00    -0.305 C  
HETATM   24  C   UNL     1      -6.284   3.726  70.641  1.00  0.00    -0.019 C  
HETATM   25  O   UNL     1      -7.204   5.112  72.440  1.00  0.00    -0.085 OA 
HETATM   26  H   UNL     1     -11.362   6.372  68.705  1.00  0.00     0.000 HD 
HETATM   27  O   UNL     1     -11.352   7.583  67.302  1.00  0.00     0.112 OA 
HETATM   28  H   UNL     1      -6.472   4.861  72.992  1.00  0.00     0.000 HD 
BRANCH  19  29
HETATM   29  C   UNL     1      -7.899   2.856  72.385  1.00  0.00    -0.055 C  
HETATM   30  O   UNL     1      -7.322   1.766  72.319  1.00  0.00    -0.036 OA 
BRANCH  29  31
HETATM   31  C   UNL     1      -9.082   3.035  73.335  1.00  0.00    -0.085 C  
HETATM   32  O   UNL     1      -9.823   1.827  73.455  1.00  0.00    -0.078 OA 
HETATM   33  H   UNL     1     -10.558   1.938  74.046  1.00  0.00     0.000 HD 
ENDBRANCH  29  31
ENDBRANCH  19  29
BRANCH  22  34
HETATM   34  O   UNL     1      -5.429   6.009  70.624  1.00  0.00    -0.013 OA 
BRANCH  34  35
HETATM   35  C   UNL     1      -5.851   7.339  70.405  1.00  0.00    -0.024 C  
HETATM   36  C   UNL     1      -7.340   7.611  70.173  1.00  0.00    -0.076 C  
HETATM   37  C   UNL     1      -8.201   7.371  71.422  1.00  0.00    -0.104 C  
HETATM   38  C   UNL     1      -7.555   7.962  72.696  1.00  0.00    -0.111 C  
HETATM   39  N   UNL     1      -9.557   7.933  71.223  1.00  0.00    -0.156 NA 
HETATM   40  C   UNL     1      -6.069   7.583  72.745  1.00  0.00    -0.050 C  
HETATM   41  H2  UNL     1     -10.000   7.569  70.379  1.00  0.00     0.000 HD 
HETATM   42  O   UNL     1      -7.715   9.388  72.700  1.00  0.00     0.327 OA 
HETATM   43  H1  UNL     1     -10.128   7.773  72.052  1.00  0.00     0.000 HD 
HETATM   44  C   UNL     1      -5.337   8.139  73.953  1.00  0.00    -0.055 C  
HETATM   45  H   UNL     1      -7.318   9.751  73.483  1.00  0.00     0.000 HD 
HETATM   46  O   UNL     1      -5.405   8.057  71.558  1.00  0.00    -0.034 OA 
ENDBRANCH  34  35
ENDBRANCH  22  34
ENDBRANCH   2   3
TORSDOF 5
ENDMDL
MODEL      143
REMARK 921   NORMALIZED FREE ENERGY PREDICTED BY IDOCK:   12.07 KCAL/MOL
REMARK 922        TOTAL FREE ENERGY PREDICTED BY IDOCK:   14.31 KCAL/MOL
REMARK 923 INTER-LIGAND FREE ENERGY PREDICTED BY IDOCK:    9.85 KCAL/MOL
REMARK 924 INTRA-LIGAND FREE ENERGY PREDICTED BY IDOCK:    4.46 KCAL/MOL
REMARK 927      BINDING AFFINITY PREDICTED BY RF-SCORE:    0.00 PKD
ROOT
HETATM    1  C   UNL     1     -14.237   4.737  71.331  1.00  0.00     7.850 C  
HETATM    2  O   UNL     1     -13.579   5.893  70.826  1.00  0.00     2.713 OA 
ENDROOT
BRANCH   2   3
HETATM    3  C   UNL     1     -12.550   6.404  71.572  1.00  0.00     0.035 A  
HETATM    4  C   UNL     1     -12.538   6.328  72.973  1.00  0.00     1.155 A  
HETATM    5  C   UNL     1     -11.498   6.890  73.707  1.00  0.00     1.139 A  
HETATM    6  C   UNL     1     -10.467   7.547  73.047  1.00  0.00    -0.396 A  
HETATM    7  C   UNL     1     -10.470   7.641  71.645  1.00  0.00    -0.229 A  
HETATM    8  C   UNL     1     -11.502   7.074  70.900  1.00  0.00    -0.349 A  
HETATM    9  C   UNL     1     -11.443   7.176  69.420  1.00  0.00     0.119 C  
HETATM   10  O   UNL     1     -12.328   6.729  68.695  1.00  0.00     1.818 OA 
HETATM   11  C   UNL     1     -10.292   7.835  68.756  1.00  0.00    -0.219 A  
HETATM   12  C   UNL     1     -10.215   7.876  67.346  1.00  0.00    -0.251 A  
HETATM   13  O   UNL     1     -11.170   7.276  66.556  1.00  0.00    -0.204 OA 
HETATM   14  C   UNL     1      -9.183   8.562  66.674  1.00  0.00    -0.223 A  
HETATM   15  H   UNL     1     -11.118   7.303  65.609  1.00  0.00     0.000 HD 
HETATM   16  C   UNL     1      -8.217   9.244  67.442  1.00  0.00    -0.117 A  
HETATM   17  C   UNL     1      -8.263   9.145  68.850  1.00  0.00    -0.112 A  
HETATM   18  C   UNL     1      -7.138  10.076  66.771  1.00  0.00    -0.091 C  
HETATM   19  C   UNL     1      -7.393  10.428  65.295  1.00  0.00    -0.108 C  
HETATM   20  C   UNL     1      -9.297   8.449  69.512  1.00  0.00    -0.158 A  
HETATM   21  O   UNL     1      -7.306   9.766  69.606  1.00  0.00    -0.077 OA 
HETATM   22  C   UNL     1      -9.251   8.721  65.160  1.00  0.00     0.039 C  
HETATM   23  C   UNL     1      -9.350   8.352  70.995  1.00  0.00    -0.171 C  
HETATM   24  C   UNL     1      -7.928   9.197  64.559  1.00  0.00    -0.127 C  
HETATM   25  O   UNL     1      -8.297  11.531  65.210  1.00  0.00    -0.345 OA 
HETATM   26  H   UNL     1      -7.336   9.699  70.553  1.00  0.00     0.000 HD 
HETATM   27  O   UNL     1      -8.484   8.826  71.719  1.00  0.00    -0.247 OA 
HETATM   28  H   UNL     1      -8.454  11.748  64.298  1.00  0.00     0.000 HD 
BRANCH  19  29
HETATM   29  C   UNL     1      -6.083  10.927  64.653  1.00  0.00     0.307 C  
HETATM   30  O   UNL     1      -5.743  10.612  63.507  1.00  0.00    -0.144 OA 
BRANCH  29  31
HETATM   31  C   UNL     1      -5.176  11.818  65.499  1.00  0.00     1.245 C  
HETATM   32  O   UNL     1      -5.604  11.836  66.855  1.00  0.00    -0.120 OA 
HETATM   33  H   UNL     1      -5.040  12.390  67.381  1.00  0.00     0.000 HD 
ENDBRANCH  29  31
ENDBRANCH  19  29
BRANCH  22  34
HETATM   34  O   UNL     1     -10.266   9.701  65.036  1.00  0.00    -0.011 OA 
BRANCH  34  35
HETATM   35  C   UNL     1      -9.997  11.032  64.645  1.00  0.00    -0.301 C  
HETATM   36  C   UNL     1     -10.794  11.635  63.484  1.00  0.00    -0.497 C  
HETATM   37  C   UNL     1     -12.275  11.861  63.821  1.00  0.00    -0.444 C  
HETATM   38  C   UNL     1     -12.465  12.487  65.222  1.00  0.00    -0.319 C  
HETATM   39  N   UNL     1     -12.909  12.710  62.786  1.00  0.00    -0.171 NA 
HETATM   40  C   UNL     1     -11.585  11.750  66.240  1.00  0.00    -0.149 C  
HETATM   41  H2  UNL     1     -12.785  12.325  61.849  1.00  0.00     0.000 HD 
HETATM   42  O   UNL     1     -12.127  13.881  65.175  1.00  0.00    -0.363 OA 
HETATM   43  H1  UNL     1     -13.893  12.860  63.009  1.00  0.00     0.000 HD 
HETATM   44  C   UNL     1     -11.683  12.309  67.648  1.00  0.00    -0.403 C  
HETATM   45  H   UNL     1     -12.244  14.266  66.035  1.00  0.00     0.000 HD 
HETATM   46  O   UNL     1     -10.206  11.808  65.827  1.00  0.00    -0.223 OA 
ENDBRANCH  34  35
ENDBRANCH  22  34
ENDBRANCH   2   3
TORSDOF 5
ENDMDL
MODEL      144
REMARK 921   NORMALIZED FREE ENERGY PREDICTED BY IDOCK:   12.81 KCAL/MOL
REMARK 922        TOTAL FREE ENERGY PREDICTED BY IDOCK:   15.28 KCAL/MOL
REMARK 923 INTER-LIGAND FREE ENERGY PREDICTED BY IDOCK:    9.39 KCAL/MOL
REMARK 924 INTRA-LIGAND FREE ENERGY PREDICTED BY IDOCK:    5.89 KCAL/MOL
REMARK 927      BINDING AFFINITY PREDICTED BY RF-SCORE:    0.00 PKD
ROOT
HETATM    1  C   UNL     1     -13.458  16.151  71.297  1.00  0.00     1.152 C  
HETATM    2  O   UNL     1     -13.676  15.471  72.528  1.00  0.00    -0.490 OA 
ENDROOT
BRANCH   2   3
HETATM    3  C   UNL     1     -13.451  14.119  72.546  1.00  0.00    -0.534 A  
HETATM    4  C   UNL     1     -13.698  13.339  73.685  1.00  0.00     4.268 A  
HETATM    5  C   UNL     1     -13.423  11.975  73.687  1.00  0.00     7.317 A  
HETATM    6  C   UNL     1     -12.886  11.381  72.552  1.00  0.00     1.119 A  
HETATM    7  C   UNL     1     -12.624  12.150  71.406  1.00  0.00    -0.314 A  
HETATM    8  C   UNL     1     -12.903  13.516  71.391  1.00  0.00    -0.440 A  
HETATM    9  C   UNL     1     -12.634  14.278  70.146  1.00  0.00    -0.282 C  
HETATM   10  O   UNL     1     -12.824  15.489  70.063  1.00  0.00    -0.235 OA 
HETATM   11  C   UNL     1     -12.114  13.590  68.939  1.00  0.00    -0.315 A  
HETATM   12  C   UNL     1     -11.918  14.312  67.741  1.00  0.00    -0.349 A  
HETATM   13  O   UNL     1     -12.236  15.647  67.645  1.00  0.00    -0.038 OA 
HETATM   14  C   UNL     1     -11.350  13.717  66.596  1.00  0.00    -0.343 A  
HETATM   15  H   UNL     1     -12.104  16.133  66.840  1.00  0.00     0.000 HD 
HETATM   16  C   UNL     1     -10.949  12.367  66.666  1.00  0.00    -0.309 A  
HETATM   17  C   UNL     1     -11.209  11.634  67.845  1.00  0.00    -0.269 A  
HETATM   18  C   UNL     1     -10.249  11.703  65.494  1.00  0.00    -0.302 C  
HETATM   19  C   UNL     1      -9.680  12.660  64.432  1.00  0.00     0.092 C  
HETATM   20  C   UNL     1     -11.785  12.238  68.984  1.00  0.00    -0.376 A  
HETATM   21  O   UNL     1     -10.866  10.311  67.912  1.00  0.00    -0.244 OA 
HETATM   22  C   UNL     1     -10.998  14.588  65.395  1.00  0.00    -0.342 C  
HETATM   23  C   UNL     1     -12.050  11.468  70.228  1.00  0.00    -0.359 C  
HETATM   24  C   UNL     1     -10.697  13.767  64.142  1.00  0.00    -0.055 C  
HETATM   25  O   UNL     1      -8.432  13.191  64.878  1.00  0.00     2.124 OA 
HETATM   26  H   UNL     1     -11.041   9.817  68.704  1.00  0.00     0.000 HD 
HETATM   27  O   UNL     1     -11.830  10.267  70.320  1.00  0.00    -0.265 OA 
HETATM   28  H   UNL     1      -8.080  13.782  64.222  1.00  0.00     0.000 HD 
BRANCH  19  29
HETATM   29  C   UNL     1      -9.348  11.867  63.152  1.00  0.00     0.112 C  
HETATM   30  O   UNL     1     -10.222  11.378  62.428  1.00  0.00     0.246 OA 
BRANCH  29  31
HETATM   31  C   UNL     1      -7.874  11.667  62.807  1.00  0.00     1.041 C  
HETATM   32  O   UNL     1      -7.527  10.289  62.843  1.00  0.00    -0.142 OA 
HETATM   33  H   UNL     1      -6.610  10.165  62.628  1.00  0.00     0.000 HD 
ENDBRANCH  29  31
ENDBRANCH  19  29
BRANCH  22  34
HETATM   34  O   UNL     1      -9.845  15.256  65.874  1.00  0.00    -0.303 OA 
BRANCH  34  35
HETATM   35  C   UNL     1      -9.656  15.567  67.239  1.00  0.00    -0.213 C  
HETATM   36  C   UNL     1      -8.611  14.781  68.036  1.00  0.00    -0.166 C  
HETATM   37  C   UNL     1      -7.169  15.080  67.601  1.00  0.00    -0.186 C  
HETATM   38  C   UNL     1      -6.924  16.592  67.395  1.00  0.00    -0.161 C  
HETATM   39  N   UNL     1      -6.214  14.533  68.593  1.00  0.00    -0.079 NA 
HETATM   40  C   UNL     1      -8.076  17.195  66.580  1.00  0.00    -0.257 C  
HETATM   41  H2  UNL     1      -6.364  13.538  68.758  1.00  0.00     0.000 HD 
HETATM   42  O   UNL     1      -6.812  17.240  68.670  1.00  0.00    -0.187 OA 
HETATM   43  H1  UNL     1      -5.256  14.731  68.303  1.00  0.00     0.000 HD 
HETATM   44  C   UNL     1      -7.939  18.688  66.343  1.00  0.00    -0.298 C  
HETATM   45  H   UNL     1      -6.661  18.169  68.544  1.00  0.00     0.000 HD 
HETATM   46  O   UNL     1      -9.327  16.958  67.254  1.00  0.00    -0.231 OA 
ENDBRANCH  34  35
ENDBRANCH  22  34
ENDBRANCH   2   3
TORSDOF 5
ENDMDL
MODEL      145
REMARK 921   NORMALIZED FREE ENERGY PREDICTED BY IDOCK:   13.25 KCAL/MOL
REMARK 922        TOTAL FREE ENERGY PREDICTED BY IDOCK:   15.84 KCAL/MOL
REMARK 923 INTER-LIGAND FREE ENERGY PREDICTED BY IDOCK:   13.88 KCAL/MOL
REMARK 924 INTRA-LIGAND FREE ENERGY PREDICTED BY IDOCK:    1.95 KCAL/MOL
REMARK 927      BINDING AFFINITY PREDICTED BY RF-SCORE:    0.00 PKD
ROOT
HETATM    1  C   UNL     1     -10.247   2.159  73.019  1.00  0.00    -0.126 C  
HETATM    2  O   UNL     1      -9.649   3.230  72.296  1.00  0.00    -0.118 OA 
ENDROOT
BRANCH   2   3
HETATM    3  C   UNL     1      -9.122   2.937  71.065  1.00  0.00    -0.115 A  
HETATM    4  C   UNL     1      -8.422   1.746  70.820  1.00  0.00    -0.080 A  
HETATM    5  C   UNL     1      -7.864   1.493  69.571  1.00  0.00    -0.047 A  
HETATM    6  C   UNL     1      -7.991   2.435  68.558  1.00  0.00    -0.061 A  
HETATM    7  C   UNL     1      -8.680   3.637  68.790  1.00  0.00    -0.137 A  
HETATM    8  C   UNL     1      -9.250   3.897  70.036  1.00  0.00    -0.220 A  
HETATM    9  C   UNL     1      -9.993   5.169  70.220  1.00  0.00    -0.250 C  
HETATM   10  O   UNL     1     -10.496   5.485  71.295  1.00  0.00    -0.225 OA 
HETATM   11  C   UNL     1     -10.152   6.119  69.093  1.00  0.00    -0.212 A  
HETATM   12  C   UNL     1     -10.910   7.299  69.262  1.00  0.00    -0.159 A  
HETATM   13  O   UNL     1     -11.551   7.578  70.447  1.00  0.00    -0.411 OA 
HETATM   14  C   UNL     1     -11.019   8.268  68.243  1.00  0.00     0.161 A  
HETATM   15  H   UNL     1     -12.061   8.371  70.561  1.00  0.00     0.000 HD 
HETATM   16  C   UNL     1     -10.329   8.054  67.034  1.00  0.00    -0.414 A  
HETATM   17  C   UNL     1      -9.627   6.843  66.847  1.00  0.00    -0.162 A  
HETATM   18  C   UNL     1     -10.336   9.106  65.939  1.00  0.00     0.237 C  
HETATM   19  C   UNL     1     -10.792  10.511  66.372  1.00  0.00    -0.024 C  
HETATM   20  C   UNL     1      -9.529   5.876  67.871  1.00  0.00    -0.112 A  
HETATM   21  O   UNL     1      -8.988   6.603  65.661  1.00  0.00    -0.326 OA 
HETATM   22  C   UNL     1     -11.701   9.598  68.545  1.00  0.00     0.777 C  
HETATM   23  C   UNL     1      -8.783   4.605  67.679  1.00  0.00    -0.104 C  
HETATM   24  C   UNL     1     -12.018  10.395  67.280  1.00  0.00     1.958 C  
HETATM   25  O   UNL     1      -9.715  11.191  67.020  1.00  0.00    -0.182 OA 
HETATM   26  H   UNL     1      -8.516   5.788  65.536  1.00  0.00     0.000 HD 
HETATM   27  O   UNL     1      -8.253   4.305  66.616  1.00  0.00    -0.101 OA 
HETATM   28  H   UNL     1      -9.997  12.058  67.287  1.00  0.00     0.000 HD 
BRANCH  19  29
HETATM   29  C   UNL     1     -11.110  11.355  65.121  1.00  0.00    -0.133 C  
HETATM   30  O   UNL     1     -10.229  11.843  64.406  1.00  0.00    -0.270 OA 
BRANCH  29  31
HETATM   31  C   UNL     1     -12.581  11.609  64.796  1.00  0.00     0.819 C  
HETATM   32  O   UNL     1     -12.853  11.329  63.429  1.00  0.00    -0.335 OA 
HETATM   33  H   UNL     1     -13.767  11.486  63.226  1.00  0.00     0.000 HD 
ENDBRANCH  29  31
ENDBRANCH  19  29
BRANCH  22  34
HETATM   34  O   UNL     1     -10.712  10.236  69.332  1.00  0.00    -0.209 OA 
BRANCH  34  35
HETATM   35  C   UNL     1     -10.911  10.555  70.694  1.00  0.00     0.015 C  
HETATM   36  C   UNL     1     -11.165   9.418  71.688  1.00  0.00    -0.431 C  
HETATM   37  C   UNL     1      -9.937   8.523  71.910  1.00  0.00    -0.294 C  
HETATM   38  C   UNL     1      -8.639   9.345  72.078  1.00  0.00     1.095 C  
HETATM   39  N   UNL     1     -10.150   7.647  73.085  1.00  0.00    -0.296 NA 
HETATM   40  C   UNL     1      -8.571  10.430  70.995  1.00  0.00     2.681 C  
HETATM   41  H2  UNL     1     -11.009   7.103  73.005  1.00  0.00     0.000 HD 
HETATM   42  O   UNL     1      -8.609   9.933  73.387  1.00  0.00     3.794 OA 
HETATM   43  H1  UNL     1      -9.335   7.052  73.232  1.00  0.00     0.000 HD 
HETATM   44  C   UNL     1      -7.338  11.310  71.091  1.00  0.00     4.095 C  
HETATM   45  H   UNL     1      -7.812  10.439  73.491  1.00  0.00     0.000 HD 
HETATM   46  O   UNL     1      -9.735  11.274  71.075  1.00  0.00     3.809 OA 
ENDBRANCH  34  35
ENDBRANCH  22  34
ENDBRANCH   2   3
TORSDOF 5
ENDMDL
MODEL      146
REMARK 921   NORMALIZED FREE ENERGY PREDICTED BY IDOCK:   15.29 KCAL/MOL
REMARK 922        TOTAL FREE ENERGY PREDICTED BY IDOCK:   18.48 KCAL/MOL
REMARK 923 INTER-LIGAND FREE ENERGY PREDICTED BY IDOCK:   11.59 KCAL/MOL
REMARK 924 INTRA-LIGAND FREE ENERGY PREDICTED BY IDOCK:    6.89 KCAL/MOL
REMARK 927      BINDING AFFINITY PREDICTED BY RF-SCORE:    0.00 PKD
ROOT
HETATM    1  C   UNL     1      -8.130  14.732  72.078  1.00  0.00     5.481 C  
HETATM    2  O   UNL     1      -8.761  15.925  71.628  1.00  0.00     4.939 OA 
ENDROOT
BRANCH   2   3
HETATM    3  C   UNL     1      -9.802  15.789  70.748  1.00  0.00     1.164 A  
HETATM    4  C   UNL     1     -10.970  16.560  70.852  1.00  0.00     0.176 A  
HETATM    5  C   UNL     1     -12.027  16.373  69.967  1.00  0.00     0.343 A  
HETATM    6  C   UNL     1     -11.931  15.404  68.977  1.00  0.00    -0.313 A  
HETATM    7  C   UNL     1     -10.773  14.618  68.864  1.00  0.00    -0.251 A  
HETATM    8  C   UNL     1      -9.704  14.802  69.741  1.00  0.00     0.193 A  
HETATM    9  C   UNL     1      -8.491  13.965  69.562  1.00  0.00     0.839 C  
HETATM   10  O   UNL     1      -7.521  14.046  70.311  1.00  0.00     0.607 OA 
HETATM   11  C   UNL     1      -8.411  12.983  68.453  1.00  0.00    -0.118 A  
HETATM   12  C   UNL     1      -7.230  12.234  68.255  1.00  0.00    -0.101 A  
HETATM   13  O   UNL     1      -6.119  12.419  69.046  1.00  0.00    -0.066 OA 
HETATM   14  C   UNL     1      -7.139  11.233  67.266  1.00  0.00    -0.114 A  
HETATM   15  H   UNL     1      -5.325  11.915  68.913  1.00  0.00     0.000 HD 
HETATM   16  C   UNL     1      -8.272  10.965  66.472  1.00  0.00    -0.157 A  
HETATM   17  C   UNL     1      -9.427  11.762  66.632  1.00  0.00    -0.205 A  
HETATM   18  C   UNL     1      -8.260   9.837  65.456  1.00  0.00    -0.129 C  
HETATM   19  C   UNL     1      -7.127   8.808  65.621  1.00  0.00    -0.083 C  
HETATM   20  C   UNL     1      -9.506  12.767  67.621  1.00  0.00    -0.190 A  
HETATM   21  O   UNL     1     -10.520  11.542  65.838  1.00  0.00    -0.241 OA 
HETATM   22  C   UNL     1      -5.905  10.338  67.217  1.00  0.00    -0.049 C  
HETATM   23  C   UNL     1     -10.724  13.600  67.795  1.00  0.00    -0.246 C  
HETATM   24  C   UNL     1      -5.814   9.534  65.920  1.00  0.00    -0.054 C  
HETATM   25  O   UNL     1      -7.465   7.878  66.651  1.00  0.00    -0.086 OA 
HETATM   26  H   UNL     1     -11.296  12.079  65.945  1.00  0.00     0.000 HD 
HETATM   27  O   UNL     1     -11.704  13.496  67.068  1.00  0.00    -0.341 OA 
HETATM   28  H   UNL     1      -6.765   7.242  66.752  1.00  0.00     0.000 HD 
BRANCH  19  29
HETATM   29  C   UNL     1      -7.009   7.964  64.336  1.00  0.00    -0.068 C  
HETATM   30  O   UNL     1      -6.841   8.470  63.221  1.00  0.00    -0.089 OA 
BRANCH  29  31
HETATM   31  C   UNL     1      -7.140   6.449  64.471  1.00  0.00    -0.057 C  
HETATM   32  O   UNL     1      -5.899   5.864  64.846  1.00  0.00    -0.023 OA 
HETATM   33  H   UNL     1      -5.980   4.922  64.930  1.00  0.00     0.000 HD 
ENDBRANCH  29  31
ENDBRANCH  19  29
BRANCH  22  34
HETATM   34  O   UNL     1      -6.133   9.502  68.337  1.00  0.00    -0.044 OA 
BRANCH  34  35
HETATM   35  C   UNL     1      -7.177   8.551  68.378  1.00  0.00    -0.085 C  
HETATM   36  C   UNL     1      -6.822   7.076  68.585  1.00  0.00    -0.076 C  
HETATM   37  C   UNL     1      -6.274   6.776  69.988  1.00  0.00    -0.035 C  
HETATM   38  C   UNL     1      -7.093   7.477  71.095  1.00  0.00    -0.058 C  
HETATM   39  N   UNL     1      -6.238   5.313  70.219  1.00  0.00    -0.022 NA 
HETATM   40  C   UNL     1      -7.347   8.939  70.703  1.00  0.00    -0.080 C  
HETATM   41  H2  UNL     1      -5.715   4.825  69.493  1.00  0.00     0.000 HD 
HETATM   42  O   UNL     1      -8.334   6.782  71.288  1.00  0.00    -0.118 OA 
HETATM   43  H1  UNL     1      -5.874   5.114  71.151  1.00  0.00     0.000 HD 
HETATM   44  C   UNL     1      -8.168   9.710  71.720  1.00  0.00     1.434 C  
HETATM   45  H   UNL     1      -8.838   7.212  71.969  1.00  0.00     0.000 HD 
HETATM   46  O   UNL     1      -8.031   8.993  69.437  1.00  0.00    -0.094 OA 
ENDBRANCH  34  35
ENDBRANCH  22  34
ENDBRANCH   2   3
TORSDOF 5
ENDMDL
MODEL      147
REMARK 921   NORMALIZED FREE ENERGY PREDICTED BY IDOCK:   15.75 KCAL/MOL
REMARK 922        TOTAL FREE ENERGY PREDICTED BY IDOCK:   19.07 KCAL/MOL
REMARK 923 INTER-LIGAND FREE ENERGY PREDICTED BY IDOCK:   15.64 KCAL/MOL
REMARK 924 INTRA-LIGAND FREE ENERGY PREDICTED BY IDOCK:    3.43 KCAL/MOL
REMARK 927      BINDING AFFINITY PREDICTED BY RF-SCORE:    0.00 PKD
ROOT
HETATM    1  C   UNL     1      -9.401  17.605  66.036  1.00  0.00    -0.044 C  
HETATM    2  O   UNL     1      -9.501  16.857  67.243  1.00  0.00    -0.236 OA 
ENDROOT
BRANCH   2   3
HETATM    3  C   UNL     1     -10.680  16.200  67.476  1.00  0.00    -0.304 A  
HETATM    4  C   UNL     1     -11.926  16.802  67.244  1.00  0.00     1.593 A  
HETATM    5  C   UNL     1     -13.108  16.124  67.527  1.00  0.00     4.254 A  
HETATM    6  C   UNL     1     -13.054  14.842  68.057  1.00  0.00     2.651 A  
HETATM    7  C   UNL     1     -11.815  14.228  68.304  1.00  0.00    -0.370 A  
HETATM    8  C   UNL     1     -10.625  14.895  68.017  1.00  0.00    -0.248 A  
HETATM    9  C   UNL     1      -9.343  14.191  68.270  1.00  0.00    -0.203 C  
HETATM   10  O   UNL     1      -8.253  14.722  68.073  1.00  0.00    -0.130 OA 
HETATM   11  C   UNL     1      -9.335  12.800  68.783  1.00  0.00     0.137 A  
HETATM   12  C   UNL     1      -8.112  12.118  68.964  1.00  0.00     0.251 A  
HETATM   13  O   UNL     1      -6.908  12.700  68.637  1.00  0.00    -0.080 OA 
HETATM   14  C   UNL     1      -8.054  10.826  69.525  1.00  0.00     0.007 A  
HETATM   15  H   UNL     1      -6.086  12.242  68.759  1.00  0.00     0.000 HD 
HETATM   16  C   UNL     1      -9.256  10.214  69.934  1.00  0.00    -0.119 A  
HETATM   17  C   UNL     1     -10.481  10.874  69.690  1.00  0.00    -0.088 A  
HETATM   18  C   UNL     1      -9.244   8.864  70.628  1.00  0.00    -0.256 C  
HETATM   19  C   UNL     1      -7.880   8.414  71.182  1.00  0.00    -0.106 C  
HETATM   20  C   UNL     1     -10.528  12.165  69.121  1.00  0.00     0.019 A  
HETATM   21  O   UNL     1     -11.659  10.273  70.041  1.00  0.00    -0.255 OA 
HETATM   22  C   UNL     1      -6.698  10.215  69.861  1.00  0.00    -0.110 C  
HETATM   23  C   UNL     1     -11.816  12.864  68.871  1.00  0.00    -0.309 C  
HETATM   24  C   UNL     1      -6.785   8.717  70.156  1.00  0.00    -0.040 C  
HETATM   25  O   UNL     1      -7.629   9.060  72.431  1.00  0.00    -0.342 OA 
HETATM   26  H   UNL     1     -12.482  10.717  69.876  1.00  0.00     0.000 HD 
HETATM   27  O   UNL     1     -12.902  12.347  69.099  1.00  0.00     0.718 OA 
HETATM   28  H   UNL     1      -6.786   8.782  72.773  1.00  0.00     0.000 HD 
BRANCH  19  29
HETATM   29  C   UNL     1      -7.929   6.908  71.506  1.00  0.00    -0.104 C  
HETATM   30  O   UNL     1      -6.931   6.272  71.860  1.00  0.00    -0.073 OA 
BRANCH  29  31
HETATM   31  C   UNL     1      -9.269   6.194  71.346  1.00  0.00    -0.143 C  
HETATM   32  O   UNL     1      -9.289   5.413  70.158  1.00  0.00    -0.140 OA 
HETATM   33  H   UNL     1     -10.122   4.968  70.058  1.00  0.00     0.000 HD 
ENDBRANCH  29  31
ENDBRANCH  19  29
BRANCH  22  34
HETATM   34  O   UNL     1      -6.345  10.957  71.014  1.00  0.00    -0.332 OA 
BRANCH  34  35
HETATM   35  C   UNL     1      -5.460  12.057  70.971  1.00  0.00    -0.077 C  
HETATM   36  C   UNL     1      -5.911  13.339  70.265  1.00  0.00    -0.134 C  
HETATM   37  C   UNL     1      -7.043  14.070  71.003  1.00  0.00     1.761 C  
HETATM   38  C   UNL     1      -6.793  14.141  72.527  1.00  0.00     2.962 C  
HETATM   39  N   UNL     1      -7.220  15.430  70.444  1.00  0.00     0.244 NA 
HETATM   40  C   UNL     1      -6.348  12.766  73.042  1.00  0.00     3.889 C  
HETATM   41  H2  UNL     1      -7.372  15.411  69.436  1.00  0.00     0.000 HD 
HETATM   42  O   UNL     1      -5.794  15.133  72.804  1.00  0.00     0.548 OA 
HETATM   43  H1  UNL     1      -7.972  15.915  70.934  1.00  0.00     0.000 HD 
HETATM   44  C   UNL     1      -6.054  12.739  74.531  1.00  0.00     1.210 C  
HETATM   45  H   UNL     1      -5.640  15.178  73.741  1.00  0.00     0.000 HD 
HETATM   46  O   UNL     1      -5.165  12.340  72.341  1.00  0.00    -0.360 OA 
ENDBRANCH  34  35
ENDBRANCH  22  34
ENDBRANCH   2   3
TORSDOF 5
ENDMDL
MODEL      148
REMARK 921   NORMALIZED FREE ENERGY PREDICTED BY IDOCK:   15.90 KCAL/MOL
REMARK 922        TOTAL FREE ENERGY PREDICTED BY IDOCK:   19.26 KCAL/MOL
REMARK 923 INTER-LIGAND FREE ENERGY PREDICTED BY IDOCK:   19.95 KCAL/MOL
REMARK 924 INTRA-LIGAND FREE ENERGY PREDICTED BY IDOCK:   -0.69 KCAL/MOL
REMARK 927      BINDING AFFINITY PREDICTED BY RF-SCORE:    0.00 PKD
ROOT
HETATM    1  C   UNL     1      -9.966  20.119  69.740  1.00  0.00     0.308 C  
HETATM    2  O   UNL     1      -8.828  19.267  69.654  1.00  0.00     0.159 OA 
ENDROOT
BRANCH   2   3
HETATM    3  C   UNL     1      -8.197  19.187  68.441  1.00  0.00    -0.349 A  
HETATM    4  C   UNL     1      -7.921  20.325  67.669  1.00  0.00    -0.311 A  
HETATM    5  C   UNL     1      -7.314  20.210  66.422  1.00  0.00    -0.313 A  
HETATM    6  C   UNL     1      -6.989  18.952  65.930  1.00  0.00    -0.304 A  
HETATM    7  C   UNL     1      -7.268  17.802  66.686  1.00  0.00    -0.256 A  
HETATM    8  C   UNL     1      -7.869  17.907  67.939  1.00  0.00    -0.230 A  
HETATM    9  C   UNL     1      -8.116  16.662  68.710  1.00  0.00    -0.247 C  
HETATM   10  O   UNL     1      -8.668  16.668  69.807  1.00  0.00     0.378 OA 
HETATM   11  C   UNL     1      -7.698  15.346  68.169  1.00  0.00    -0.126 A  
HETATM   12  C   UNL     1      -7.884  14.174  68.936  1.00  0.00    -0.076 A  
HETATM   13  O   UNL     1      -8.411  14.221  70.206  1.00  0.00     0.642 OA 
HETATM   14  C   UNL     1      -7.578  12.894  68.429  1.00  0.00    -0.133 A  
HETATM   15  H   UNL     1      -8.536  13.433  70.722  1.00  0.00     0.000 HD 
HETATM   16  C   UNL     1      -7.095  12.791  67.109  1.00  0.00    -0.004 A  
HETATM   17  C   UNL     1      -6.849  13.971  66.372  1.00  0.00     3.288 A  
HETATM   18  C   UNL     1      -6.836  11.433  66.480  1.00  0.00    -0.064 C  
HETATM   19  C   UNL     1      -7.479  10.235  67.201  1.00  0.00    -0.092 C  
HETATM   20  C   UNL     1      -7.153  15.248  66.892  1.00  0.00     0.284 A  
HETATM   21  O   UNL     1      -6.339  13.887  65.105  1.00  0.00    10.466 OA 
HETATM   22  C   UNL     1      -7.965  11.658  69.232  1.00  0.00     0.275 C  
HETATM   23  C   UNL     1      -6.904  16.489  66.114  1.00  0.00     0.616 C  
HETATM   24  C   UNL     1      -7.294  10.386  68.713  1.00  0.00    -0.089 C  
HETATM   25  O   UNL     1      -8.859  10.139  66.844  1.00  0.00    -0.132 OA 
HETATM   26  H   UNL     1      -6.173  14.681  64.610  1.00  0.00     0.000 HD 
HETATM   27  O   UNL     1      -6.383  16.480  65.005  1.00  0.00     3.430 OA 
HETATM   28  H   UNL     1      -9.256   9.399  67.289  1.00  0.00     0.000 HD 
BRANCH  19  29
HETATM   29  C   UNL     1      -6.838   8.927  66.696  1.00  0.00    -0.076 C  
HETATM   30  O   UNL     1      -5.993   8.906  65.795  1.00  0.00    -0.050 OA 
BRANCH  29  31
HETATM   31  C   UNL     1      -7.306   7.620  67.331  1.00  0.00    -0.092 C  
HETATM   32  O   UNL     1      -7.736   6.698  66.337  1.00  0.00    -0.097 OA 
HETATM   33  H   UNL     1      -8.027   5.885  66.731  1.00  0.00     0.000 HD 
ENDBRANCH  29  31
ENDBRANCH  19  29
BRANCH  22  34
HETATM   34  O   UNL     1      -9.366  11.631  69.029  1.00  0.00    -0.023 OA 
BRANCH  34  35
HETATM   35  C   UNL     1     -10.292  11.836  70.076  1.00  0.00     1.359 C  
HETATM   36  C   UNL     1     -11.789  11.793  69.755  1.00  0.00    -0.420 C  
HETATM   37  C   UNL     1     -12.286  10.392  69.371  1.00  0.00     0.075 C  
HETATM   38  C   UNL     1     -11.723   9.297  70.306  1.00  0.00    -0.051 C  
HETATM   39  N   UNL     1     -13.767  10.358  69.370  1.00  0.00     1.342 NA 
HETATM   40  C   UNL     1     -10.217   9.513  70.505  1.00  0.00    -0.287 C  
HETATM   41  H2  UNL     1     -14.164  11.081  68.771  1.00  0.00     0.000 HD 
HETATM   42  O   UNL     1     -12.411   9.339  71.564  1.00  0.00    -0.318 OA 
HETATM   43  H1  UNL     1     -14.097   9.428  69.114  1.00  0.00     0.000 HD 
HETATM   44  C   UNL     1      -9.572   8.498  71.431  1.00  0.00    -0.282 C  
HETATM   45  H   UNL     1     -12.065   8.667  72.139  1.00  0.00     0.000 HD 
HETATM   46  O   UNL     1      -9.978  10.828  71.041  1.00  0.00     1.748 OA 
ENDBRANCH  34  35
ENDBRANCH  22  34
ENDBRANCH   2   3
TORSDOF 5
ENDMDL
MODEL      149
REMARK 921   NORMALIZED FREE ENERGY PREDICTED BY IDOCK:   16.61 KCAL/MOL
REMARK 922        TOTAL FREE ENERGY PREDICTED BY IDOCK:   20.18 KCAL/MOL
REMARK 923 INTER-LIGAND FREE ENERGY PREDICTED BY IDOCK:   18.11 KCAL/MOL
REMARK 924 INTRA-LIGAND FREE ENERGY PREDICTED BY IDOCK:    2.07 KCAL/MOL
REMARK 927      BINDING AFFINITY PREDICTED BY RF-SCORE:    0.00 PKD
ROOT
HETATM    1  C   UNL     1     -10.631  14.812  72.675  1.00  0.00     2.682 C  
HETATM    2  O   UNL     1     -10.211  15.349  71.425  1.00  0.00     0.526 OA 
ENDROOT
BRANCH   2   3
HETATM    3  C   UNL     1      -8.867  15.339  71.159  1.00  0.00     3.129 A  
HETATM    4  C   UNL     1      -7.981  16.238  71.773  1.00  0.00     8.472 A  
HETATM    5  C   UNL     1      -6.627  16.231  71.454  1.00  0.00     2.730 A  
HETATM    6  C   UNL     1      -6.148  15.333  70.509  1.00  0.00    -0.014 A  
HETATM    7  C   UNL     1      -7.023  14.434  69.878  1.00  0.00    -0.009 A  
HETATM    8  C   UNL     1      -8.381  14.427  70.196  1.00  0.00     1.251 A  
HETATM    9  C   UNL     1      -9.259  13.437  69.522  1.00  0.00     1.354 C  
HETATM   10  O   UNL     1     -10.469  13.388  69.724  1.00  0.00     0.433 OA 
HETATM   11  C   UNL     1      -8.692  12.459  68.562  1.00  0.00    -0.060 A  
HETATM   12  C   UNL     1      -9.525  11.483  67.970  1.00  0.00    -0.181 A  
HETATM   13  O   UNL     1     -10.859  11.384  68.294  1.00  0.00    -0.186 OA 
HETATM   14  C   UNL     1      -9.046  10.588  66.992  1.00  0.00    -0.156 A  
HETATM   15  H   UNL     1     -11.419  10.728  67.897  1.00  0.00     0.000 HD 
HETATM   16  C   UNL     1      -7.702  10.693  66.583  1.00  0.00    -0.132 A  
HETATM   17  C   UNL     1      -6.859  11.626  67.225  1.00  0.00    -0.129 A  
HETATM   18  C   UNL     1      -7.158   9.816  65.469  1.00  0.00    -0.108 C  
HETATM   19  C   UNL     1      -8.218   9.123  64.593  1.00  0.00    -0.152 C  
HETATM   20  C   UNL     1      -7.347  12.514  68.208  1.00  0.00    -0.115 A  
HETATM   21  O   UNL     1      -5.540  11.709  66.869  1.00  0.00    -0.111 OA 
HETATM   22  C   UNL     1     -10.030   9.679  66.263  1.00  0.00    -0.264 C  
HETATM   23  C   UNL     1      -6.462  13.503  68.878  1.00  0.00    -0.102 C  
HETATM   24  C   UNL     1      -9.333   8.566  65.482  1.00  0.00    -0.039 C  
HETATM   25  O   UNL     1      -8.722  10.043  63.625  1.00  0.00    -0.179 OA 
HETATM   26  H   UNL     1      -4.973  12.336  67.301  1.00  0.00     0.000 HD 
HETATM   27  O   UNL     1      -5.260  13.573  68.652  1.00  0.00    -0.071 OA 
HETATM   28  H   UNL     1      -9.376   9.615  63.084  1.00  0.00     0.000 HD 
BRANCH  19  29
HETATM   29  C   UNL     1      -7.552   7.998  63.775  1.00  0.00    -0.129 C  
HETATM   30  O   UNL     1      -8.004   6.849  63.734  1.00  0.00    -0.119 OA 
BRANCH  29  31
HETATM   31  C   UNL     1      -6.268   8.338  63.022  1.00  0.00    -0.082 C  
HETATM   32  O   UNL     1      -6.038   9.742  63.018  1.00  0.00    -0.100 OA 
HETATM   33  H   UNL     1      -5.239   9.953  62.550  1.00  0.00     0.000 HD 
ENDBRANCH  29  31
ENDBRANCH  19  29
BRANCH  22  34
HETATM   34  O   UNL     1     -10.667  10.605  65.402  1.00  0.00    -0.171 OA 
BRANCH  34  35
HETATM   35  C   UNL     1     -11.636  11.526  65.856  1.00  0.00     0.109 C  
HETATM   36  C   UNL     1     -11.209  12.972  66.127  1.00  0.00    -0.320 C  
HETATM   37  C   UNL     1     -10.838  13.743  64.852  1.00  0.00    -0.391 C  
HETATM   38  C   UNL     1     -11.849  13.497  63.708  1.00  0.00    -0.381 C  
HETATM   39  N   UNL     1     -10.732  15.191  65.144  1.00  0.00    -0.392 NA 
HETATM   40  C   UNL     1     -12.149  11.996  63.598  1.00  0.00    -0.527 C  
HETATM   41  H2  UNL     1     -10.080  15.379  65.906  1.00  0.00     0.000 HD 
HETATM   42  O   UNL     1     -13.052  14.237  63.963  1.00  0.00    -0.089 OA 
HETATM   43  H1  UNL     1     -10.485  15.703  64.297  1.00  0.00     0.000 HD 
HETATM   44  C   UNL     1     -13.155  11.653  62.514  1.00  0.00     1.920 C  
HETATM   45  H   UNL     1     -13.674  14.086  63.260  1.00  0.00     0.000 HD 
HETATM   46  O   UNL     1     -12.656  11.506  64.854  1.00  0.00     0.218 OA 
ENDBRANCH  34  35
ENDBRANCH  22  34
ENDBRANCH   2   3
TORSDOF 5
ENDMDL
MODEL      150
REMARK 921   NORMALIZED FREE ENERGY PREDICTED BY IDOCK:   17.26 KCAL/MOL
REMARK 922        TOTAL FREE ENERGY PREDICTED BY IDOCK:   21.02 KCAL/MOL
REMARK 923 INTER-LIGAND FREE ENERGY PREDICTED BY IDOCK:   15.19 KCAL/MOL
REMARK 924 INTRA-LIGAND FREE ENERGY PREDICTED BY IDOCK:    5.83 KCAL/MOL
REMARK 927      BINDING AFFINITY PREDICTED BY RF-SCORE:    0.00 PKD
ROOT
HETATM    1  C   UNL     1      -5.928  18.312  68.707  1.00  0.00    -0.199 C  
HETATM    2  O   UNL     1      -6.622  19.518  69.009  1.00  0.00    -0.288 OA 
ENDROOT
BRANCH   2   3
HETATM    3  C   UNL     1      -7.867  19.400  69.570  1.00  0.00     0.104 A  
HETATM    4  C   UNL     1      -8.246  20.140  70.700  1.00  0.00     1.610 A  
HETATM    5  C   UNL     1      -9.503  19.971  71.272  1.00  0.00     2.218 A  
HETATM    6  C   UNL     1     -10.388  19.051  70.726  1.00  0.00     2.056 A  
HETATM    7  C   UNL     1     -10.021  18.295  69.600  1.00  0.00     0.396 A  
HETATM    8  C   UNL     1      -8.767  18.462  69.014  1.00  0.00    -0.058 A  
HETATM    9  C   UNL     1      -8.438  17.660  67.809  1.00  0.00    -0.227 C  
HETATM   10  O   UNL     1      -7.344  17.728  67.254  1.00  0.00    -0.182 OA 
HETATM   11  C   UNL     1      -9.437  16.732  67.226  1.00  0.00    -0.231 A  
HETATM   12  C   UNL     1      -9.137  16.018  66.045  1.00  0.00    -0.326 A  
HETATM   13  O   UNL     1      -7.941  16.190  65.385  1.00  0.00     0.959 OA 
HETATM   14  C   UNL     1     -10.024  15.066  65.503  1.00  0.00    -0.390 A  
HETATM   15  H   UNL     1      -7.739  15.710  64.591  1.00  0.00     0.000 HD 
HETATM   16  C   UNL     1     -11.233  14.810  66.180  1.00  0.00    -0.337 A  
HETATM   17  C   UNL     1     -11.557  15.575  67.323  1.00  0.00    -0.011 A  
HETATM   18  C   UNL     1     -12.183  13.730  65.692  1.00  0.00    -0.484 C  
HETATM   19  C   UNL     1     -11.584  12.719  64.698  1.00  0.00    -0.338 C  
HETATM   20  C   UNL     1     -10.664  16.531  67.853  1.00  0.00    -0.337 A  
HETATM   21  O   UNL     1     -12.748  15.368  67.964  1.00  0.00     0.271 OA 
HETATM   22  C   UNL     1      -9.571  14.201  64.333  1.00  0.00     1.805 C  
HETATM   23  C   UNL     1     -11.000  17.329  69.061  1.00  0.00     0.098 C  
HETATM   24  C   UNL     1     -10.730  13.459  63.666  1.00  0.00     0.403 C  
HETATM   25  O   UNL     1     -10.827  11.736  65.406  1.00  0.00    -0.284 OA 
HETATM   26  H   UNL     1     -12.965  15.882  68.733  1.00  0.00     0.000 HD 
HETATM   27  O   UNL     1     -12.079  17.238  69.634  1.00  0.00     1.947 OA 
HETATM   28  H   UNL     1     -10.457  11.112  64.792  1.00  0.00     0.000 HD 
BRANCH  19  29
HETATM   29  C   UNL     1     -12.723  11.938  64.012  1.00  0.00    -0.241 C  
HETATM   30  O   UNL     1     -13.887  12.349  63.983  1.00  0.00     0.428 OA 
BRANCH  29  31
HETATM   31  C   UNL     1     -12.374  10.592  63.380  1.00  0.00     3.405 C  
HETATM   32  O   UNL     1     -11.021  10.244  63.641  1.00  0.00     0.288 OA 
HETATM   33  H   UNL     1     -10.804   9.407  63.248  1.00  0.00     0.000 HD 
ENDBRANCH  29  31
ENDBRANCH  19  29
BRANCH  22  34
HETATM   34  O   UNL     1      -8.683  13.310  64.983  1.00  0.00     1.802 OA 
BRANCH  34  35
HETATM   35  C   UNL     1      -8.887  11.912  65.006  1.00  0.00     0.582 C  
HETATM   36  C   UNL     1      -8.118  11.037  64.012  1.00  0.00     0.426 C  
HETATM   37  C   UNL     1      -6.609  10.985  64.293  1.00  0.00     0.822 C  
HETATM   38  C   UNL     1      -6.304  10.798  65.797  1.00  0.00    -0.089 C  
HETATM   39  N   UNL     1      -5.980   9.903  63.500  1.00  0.00    -0.111 NA 
HETATM   40  C   UNL     1      -7.172  11.756  66.623  1.00  0.00     0.025 C  
HETATM   41  H2  UNL     1      -6.179   9.996  62.505  1.00  0.00     0.000 HD 
HETATM   42  O   UNL     1      -6.553   9.436  66.173  1.00  0.00    -0.068 OA 
HETATM   43  H1  UNL     1      -4.978   9.869  63.687  1.00  0.00     0.000 HD 
HETATM   44  C   UNL     1      -6.961  11.632  68.121  1.00  0.00    -0.071 C  
HETATM   45  H   UNL     1      -6.366   9.321  67.097  1.00  0.00     0.000 HD 
HETATM   46  O   UNL     1      -8.564  11.519  66.343  1.00  0.00    -0.178 OA 
ENDBRANCH  34  35
ENDBRANCH  22  34
ENDBRANCH   2   3
TORSDOF 5
ENDMDL
MODEL      151
REMARK 921   NORMALIZED FREE ENERGY PREDICTED BY IDOCK:   18.02 KCAL/MOL
REMARK 922        TOTAL FREE ENERGY PREDICTED BY IDOCK:   22.01 KCAL/MOL
REMARK 923 INTER-LIGAND FREE ENERGY PREDICTED BY IDOCK:   15.62 KCAL/MOL
REMARK 924 INTRA-LIGAND FREE ENERGY PREDICTED BY IDOCK:    6.38 KCAL/MOL
REMARK 927      BINDING AFFINITY PREDICTED BY RF-SCORE:    0.00 PKD
ROOT
HETATM    1  C   UNL     1      -9.399   7.508  66.891  1.00  0.00    -0.157 C  
HETATM    2  O   UNL     1      -9.259   6.703  68.056  1.00  0.00    -0.116 OA 
ENDROOT
BRANCH   2   3
HETATM    3  C   UNL     1      -8.626   7.266  69.133  1.00  0.00    -0.133 A  
HETATM    4  C   UNL     1      -8.396   6.550  70.318  1.00  0.00    -0.127 A  
HETATM    5  C   UNL     1      -7.785   7.159  71.410  1.00  0.00    -0.093 A  
HETATM    6  C   UNL     1      -7.410   8.494  71.331  1.00  0.00    -0.104 A  
HETATM    7  C   UNL     1      -7.642   9.228  70.155  1.00  0.00    -0.111 A  
HETATM    8  C   UNL     1      -8.246   8.625  69.053  1.00  0.00    -0.122 A  
HETATM    9  C   UNL     1      -8.442   9.435  67.824  1.00  0.00    -0.116 C  
HETATM   10  O   UNL     1      -8.994   8.986  66.823  1.00  0.00    -0.129 OA 
HETATM   11  C   UNL     1      -7.973  10.841  67.766  1.00  0.00    -0.110 A  
HETATM   12  C   UNL     1      -8.110  11.585  66.574  1.00  0.00    -0.112 A  
HETATM   13  O   UNL     1      -8.638  11.025  65.433  1.00  0.00    -0.283 OA 
HETATM   14  C   UNL     1      -7.753  12.947  66.499  1.00  0.00     0.767 A  
HETATM   15  H   UNL     1      -8.731  11.525  64.631  1.00  0.00     0.000 HD 
HETATM   16  C   UNL     1      -7.266  13.580  67.660  1.00  0.00    -0.175 A  
HETATM   17  C   UNL     1      -7.069  12.814  68.830  1.00  0.00    -0.067 A  
HETATM   18  C   UNL     1      -6.954  15.066  67.661  1.00  0.00    -0.205 C  
HETATM   19  C   UNL     1      -7.547  15.870  66.491  1.00  0.00     0.015 C  
HETATM   20  C   UNL     1      -7.424  11.449  68.892  1.00  0.00    -0.113 A  
HETATM   21  O   UNL     1      -6.556  13.406  69.952  1.00  0.00    -0.323 OA 
HETATM   22  C   UNL     1      -8.090  13.742  65.242  1.00  0.00     5.336 C  
HETATM   23  C   UNL     1      -7.225  10.645  70.126  1.00  0.00     0.081 C  
HETATM   24  C   UNL     1      -7.367  15.088  65.188  1.00  0.00     9.915 C  
HETATM   25  O   UNL     1      -8.922  16.158  66.750  1.00  0.00    -0.206 OA 
HETATM   26  H   UNL     1      -6.423  12.891  70.739  1.00  0.00     0.000 HD 
HETATM   27  O   UNL     1      -6.705  11.102  71.136  1.00  0.00     0.538 OA 
HETATM   28  H   UNL     1      -9.289  16.655  66.027  1.00  0.00     0.000 HD 
BRANCH  19  29
HETATM   29  C   UNL     1      -6.854  17.245  66.408  1.00  0.00    -0.265 C  
HETATM   30  O   UNL     1      -6.575  17.785  65.332  1.00  0.00    -0.242 OA 
BRANCH  29  31
HETATM   31  C   UNL     1      -6.481  17.928  67.722  1.00  0.00    -0.188 C  
HETATM   32  O   UNL     1      -5.648  19.056  67.488  1.00  0.00    -0.166 OA 
HETATM   33  H   UNL     1      -5.416  19.481  68.305  1.00  0.00     0.000 HD 
ENDBRANCH  29  31
ENDBRANCH  19  29
BRANCH  22  34
HETATM   34  O   UNL     1      -9.489  13.903  65.391  1.00  0.00    -0.005 OA 
BRANCH  34  35
HETATM   35  C   UNL     1     -10.265  13.078  66.234  1.00  0.00    -0.288 C  
HETATM   36  C   UNL     1     -10.633  13.589  67.631  1.00  0.00    -0.246 C  
HETATM   37  C   UNL     1     -11.618  14.767  67.604  1.00  0.00    -0.354 C  
HETATM   38  C   UNL     1     -12.770  14.540  66.598  1.00  0.00     0.482 C  
HETATM   39  N   UNL     1     -12.158  15.011  68.961  1.00  0.00    -0.543 NA 
HETATM   40  C   UNL     1     -12.201  14.028  65.268  1.00  0.00    -0.440 C  
HETATM   41  H2  UNL     1     -11.416  15.150  69.647  1.00  0.00     0.000 HD 
HETATM   42  O   UNL     1     -13.706  13.600  67.144  1.00  0.00     3.240 OA 
HETATM   43  H1  UNL     1     -12.812  15.794  68.943  1.00  0.00     0.000 HD 
HETATM   44  C   UNL     1     -13.261  13.751  64.218  1.00  0.00     1.099 C  
HETATM   45  H   UNL     1     -14.414  13.460  66.526  1.00  0.00     0.000 HD 
HETATM   46  O   UNL     1     -11.457  12.815  65.489  1.00  0.00    -0.311 OA 
ENDBRANCH  34  35
ENDBRANCH  22  34
ENDBRANCH   2   3
TORSDOF 5
ENDMDL
MODEL      152
REMARK 921   NORMALIZED FREE ENERGY PREDICTED BY IDOCK:   18.79 KCAL/MOL
REMARK 922        TOTAL FREE ENERGY PREDICTED BY IDOCK:   23.01 KCAL/MOL
REMARK 923 INTER-LIGAND FREE ENERGY PREDICTED BY IDOCK:    6.77 KCAL/MOL
REMARK 924 INTRA-LIGAND FREE ENERGY PREDICTED BY IDOCK:   16.24 KCAL/MOL
REMARK 927      BINDING AFFINITY PREDICTED BY RF-SCORE:    0.00 PKD
ROOT
HETATM    1  C   UNL     1      -7.582   3.219  66.091  1.00  0.00    -0.077 C  
HETATM    2  O   UNL     1      -8.442   3.640  65.038  1.00  0.00    -0.103 OA 
ENDROOT
BRANCH   2   3
HETATM    3  C   UNL     1      -9.605   4.271  65.394  1.00  0.00    -0.187 A  
HETATM    4  C   UNL     1     -10.865   3.720  65.117  1.00  0.00     0.392 A  
HETATM    5  C   UNL     1     -12.030   4.402  65.455  1.00  0.00     3.118 A  
HETATM    6  C   UNL     1     -11.945   5.648  66.062  1.00  0.00     2.637 A  
HETATM    7  C   UNL     1     -10.691   6.219  66.337  1.00  0.00    -0.029 A  
HETATM    8  C   UNL     1      -9.518   5.540  66.009  1.00  0.00    -0.147 A  
HETATM    9  C   UNL     1      -8.218   6.174  66.348  1.00  0.00    -0.113 C  
HETATM   10  O   UNL     1      -7.142   5.655  66.065  1.00  0.00    -0.065 OA 
HETATM   11  C   UNL     1      -8.177   7.480  67.048  1.00  0.00    -0.124 A  
HETATM   12  C   UNL     1      -6.937   8.047  67.419  1.00  0.00    -0.075 A  
HETATM   13  O   UNL     1      -5.749   7.394  67.182  1.00  0.00    -0.028 OA 
HETATM   14  C   UNL     1      -6.847   9.323  68.012  1.00  0.00    -0.068 A  
HETATM   15  H   UNL     1      -4.915   7.775  67.431  1.00  0.00     0.000 HD 
HETATM   16  C   UNL     1      -8.034  10.055  68.217  1.00  0.00    -0.097 A  
HETATM   17  C   UNL     1      -9.274   9.456  67.905  1.00  0.00    -0.129 A  
HETATM   18  C   UNL     1      -7.988  11.470  68.767  1.00  0.00    -0.107 C  
HETATM   19  C   UNL     1      -6.613  12.158  68.714  1.00  0.00    -0.083 C  
HETATM   20  C   UNL     1      -9.353   8.175  67.317  1.00  0.00    -0.174 A  
HETATM   21  O   UNL     1     -10.437  10.139  68.140  1.00  0.00    -0.181 OA 
HETATM   22  C   UNL     1      -5.477   9.955  68.225  1.00  0.00    -0.039 C  
HETATM   23  C   UNL     1     -10.658   7.548  66.981  1.00  0.00    -0.339 C  
HETATM   24  C   UNL     1      -5.528  11.171  69.151  1.00  0.00    -0.040 C  
HETATM   25  O   UNL     1      -6.373  12.660  67.398  1.00  0.00    -0.151 OA 
HETATM   26  H   UNL     1     -11.271   9.736  67.931  1.00  0.00     0.000 HD 
HETATM   27  O   UNL     1     -11.731   8.081  67.234  1.00  0.00     1.607 OA 
HETATM   28  H   UNL     1      -5.523  13.085  67.366  1.00  0.00     0.000 HD 
BRANCH  19  29
HETATM   29  C   UNL     1      -6.625  13.401  69.626  1.00  0.00    -0.008 C  
HETATM   30  O   UNL     1      -6.025  13.440  70.705  1.00  0.00    -0.170 OA 
BRANCH  29  31
HETATM   31  C   UNL     1      -7.444  14.606  69.168  1.00  0.00    -0.139 C  
HETATM   32  O   UNL     1      -6.599  15.632  68.664  1.00  0.00    -0.106 OA 
HETATM   33  H   UNL     1      -7.108  16.381  68.379  1.00  0.00     0.000 HD 
ENDBRANCH  29  31
ENDBRANCH  19  29
BRANCH  22  34
HETATM   34  O   UNL     1      -5.138  10.319  66.899  1.00  0.00    -0.039 OA 
BRANCH  34  35
HETATM   35  C   UNL     1      -5.683  11.453  66.258  1.00  0.00    -0.072 C  
HETATM   36  C   UNL     1      -5.132  11.863  64.889  1.00  0.00     2.443 C  
HETATM   37  C   UNL     1      -5.477  10.865  63.774  1.00  0.00     0.088 C  
HETATM   38  C   UNL     1      -6.950  10.401  63.843  1.00  0.00     0.022 C  
HETATM   39  N   UNL     1      -5.183  11.459  62.450  1.00  0.00    -0.294 NA 
HETATM   40  C   UNL     1      -7.310  10.040  65.290  1.00  0.00    -0.137 C  
HETATM   41  H2  UNL     1      -4.220  11.787  62.383  1.00  0.00     0.000 HD 
HETATM   42  O   UNL     1      -7.805  11.444  63.353  1.00  0.00     0.058 OA 
HETATM   43  H1  UNL     1      -5.412  10.795  61.709  1.00  0.00     0.000 HD 
HETATM   44  C   UNL     1      -8.750   9.593  65.466  1.00  0.00    -0.176 C  
HETATM   45  H   UNL     1      -8.711  11.160  63.395  1.00  0.00     0.000 HD 
HETATM   46  O   UNL     1      -7.081  11.173  66.149  1.00  0.00    -0.097 OA 
ENDBRANCH  34  35
ENDBRANCH  22  34
ENDBRANCH   2   3
TORSDOF 5
ENDMDL
MODEL      153
REMARK 921   NORMALIZED FREE ENERGY PREDICTED BY IDOCK:   19.09 KCAL/MOL
REMARK 922        TOTAL FREE ENERGY PREDICTED BY IDOCK:   23.38 KCAL/MOL
REMARK 923 INTER-LIGAND FREE ENERGY PREDICTED BY IDOCK:   17.19 KCAL/MOL
REMARK 924 INTRA-LIGAND FREE ENERGY PREDICTED BY IDOCK:    6.20 KCAL/MOL
REMARK 927      BINDING AFFINITY PREDICTED BY RF-SCORE:    0.00 PKD
ROOT
HETATM    1  C   UNL     1      -8.804  19.581  64.766  1.00  0.00     3.290 C  
HETATM    2  O   UNL     1      -9.044  18.887  65.986  1.00  0.00    -0.470 OA 
ENDROOT
BRANCH   2   3
HETATM    3  C   UNL     1     -10.250  18.251  66.118  1.00  0.00    -0.381 A  
HETATM    4  C   UNL     1     -11.468  18.917  65.913  1.00  0.00     1.448 A  
HETATM    5  C   UNL     1     -12.679  18.256  66.093  1.00  0.00     9.019 A  
HETATM    6  C   UNL     1     -12.683  16.925  66.490  1.00  0.00     5.591 A  
HETATM    7  C   UNL     1     -11.472  16.246  66.708  1.00  0.00     0.537 A  
HETATM    8  C   UNL     1     -10.253  16.898  66.524  1.00  0.00    -0.320 A  
HETATM    9  C   UNL     1      -9.002  16.128  66.740  1.00  0.00    -0.241 C  
HETATM   10  O   UNL     1      -7.890  16.637  66.628  1.00  0.00    -0.220 OA 
HETATM   11  C   UNL     1      -9.055  14.692  67.108  1.00  0.00    -0.236 A  
HETATM   12  C   UNL     1      -7.860  13.953  67.253  1.00  0.00    -0.114 A  
HETATM   13  O   UNL     1      -6.629  14.523  67.020  1.00  0.00    -0.317 OA 
HETATM   14  C   UNL     1      -7.861  12.609  67.680  1.00  0.00    -0.162 A  
HETATM   15  H   UNL     1      -5.826  14.027  67.117  1.00  0.00     0.000 HD 
HETATM   16  C   UNL     1      -9.094  12.002  67.991  1.00  0.00    -0.188 A  
HETATM   17  C   UNL     1     -10.289  12.725  67.781  1.00  0.00    -0.221 A  
HETATM   18  C   UNL     1      -9.146  10.589  68.543  1.00  0.00    -0.154 C  
HETATM   19  C   UNL     1      -7.816  10.039  69.086  1.00  0.00    -0.112 C  
HETATM   20  C   UNL     1     -10.277  14.068  67.346  1.00  0.00    -0.248 A  
HETATM   21  O   UNL     1     -11.496  12.133  68.036  1.00  0.00    -0.274 OA 
HETATM   22  C   UNL     1      -6.536  11.921  67.989  1.00  0.00    -0.063 C  
HETATM   23  C   UNL     1     -11.534  14.833  67.133  1.00  0.00    -0.364 C  
HETATM   24  C   UNL     1      -6.680  10.405  68.127  1.00  0.00    -0.061 C  
HETATM   25  O   UNL     1      -7.583  10.545  70.401  1.00  0.00    -0.446 OA 
HETATM   26  H   UNL     1     -12.299  12.620  67.895  1.00  0.00     0.000 HD 
HETATM   27  O   UNL     1     -12.643  14.333  67.277  1.00  0.00    -0.097 OA 
HETATM   28  H   UNL     1      -6.761  10.205  70.736  1.00  0.00     0.000 HD 
BRANCH  19  29
HETATM   29  C   UNL     1      -7.922   8.510  69.253  1.00  0.00    -0.111 C  
HETATM   30  O   UNL     1      -8.763   7.978  69.986  1.00  0.00    -0.133 OA 
BRANCH  29  31
HETATM   31  C   UNL     1      -6.917   7.644  68.496  1.00  0.00    -0.072 C  
HETATM   32  O   UNL     1      -7.086   6.270  68.820  1.00  0.00    -0.077 OA 
HETATM   33  H   UNL     1      -6.461   5.732  68.349  1.00  0.00     0.000 HD 
ENDBRANCH  29  31
ENDBRANCH  19  29
BRANCH  22  34
HETATM   34  O   UNL     1      -6.196  12.530  69.221  1.00  0.00    -0.090 OA 
BRANCH  34  35
HETATM   35  C   UNL     1      -5.386  13.684  69.303  1.00  0.00    -0.078 C  
HETATM   36  C   UNL     1      -5.900  14.990  68.690  1.00  0.00    -0.089 C  
HETATM   37  C   UNL     1      -7.100  15.581  69.444  1.00  0.00    -0.194 C  
HETATM   38  C   UNL     1      -6.904  15.538  70.977  1.00  0.00     1.333 C  
HETATM   39  N   UNL     1      -7.351  16.970  68.995  1.00  0.00    -0.241 NA 
HETATM   40  C   UNL     1      -6.385  14.155  71.392  1.00  0.00     0.397 C  
HETATM   41  H2  UNL     1      -7.470  17.028  67.984  1.00  0.00     0.000 HD 
HETATM   42  O   UNL     1      -5.983  16.565  71.373  1.00  0.00     0.749 OA 
HETATM   43  H1  UNL     1      -8.149  17.362  69.495  1.00  0.00     0.000 HD 
HETATM   44  C   UNL     1      -6.137  14.019  72.883  1.00  0.00     0.695 C  
HETATM   45  H   UNL     1      -5.862  16.538  72.315  1.00  0.00     0.000 HD 
HETATM   46  O   UNL     1      -5.154  13.868  70.702  1.00  0.00    -0.097 OA 
ENDBRANCH  34  35
ENDBRANCH  22  34
ENDBRANCH   2   3
TORSDOF 5
ENDMDL
MODEL      154
REMARK 921   NORMALIZED FREE ENERGY PREDICTED BY IDOCK:   21.34 KCAL/MOL
REMARK 922        TOTAL FREE ENERGY PREDICTED BY IDOCK:   26.29 KCAL/MOL
REMARK 923 INTER-LIGAND FREE ENERGY PREDICTED BY IDOCK:   25.42 KCAL/MOL
REMARK 924 INTRA-LIGAND FREE ENERGY PREDICTED BY IDOCK:    0.87 KCAL/MOL
REMARK 927      BINDING AFFINITY PREDICTED BY RF-SCORE:    0.00 PKD
ROOT
HETATM    1  C   UNL     1      -8.977  13.262  71.092  1.00  0.00    10.623 C  
HETATM    2  O   UNL     1      -7.572  13.482  71.146  1.00  0.00     3.102 OA 
ENDROOT
BRANCH   2   3
HETATM    3  C   UNL     1      -6.799  12.472  71.655  1.00  0.00     5.062 A  
HETATM    4  C   UNL     1      -5.935  12.673  72.742  1.00  0.00     2.249 A  
HETATM    5  C   UNL     1      -5.132  11.639  73.213  1.00  0.00     0.512 A  
HETATM    6  C   UNL     1      -5.178  10.396  72.594  1.00  0.00     0.224 A  
HETATM    7  C   UNL     1      -6.032  10.181  71.499  1.00  0.00     0.204 A  
HETATM    8  C   UNL     1      -6.845  11.209  71.023  1.00  0.00     1.894 A  
HETATM    9  C   UNL     1      -7.750  10.921  69.882  1.00  0.00     0.346 C  
HETATM   10  O   UNL     1      -8.475  11.781  69.387  1.00  0.00     0.408 OA 
HETATM   11  C   UNL     1      -7.808   9.563  69.290  1.00  0.00    -0.088 A  
HETATM   12  C   UNL     1      -8.715   9.284  68.243  1.00  0.00    -0.129 A  
HETATM   13  O   UNL     1      -9.589  10.239  67.776  1.00  0.00    -0.150 OA 
HETATM   14  C   UNL     1      -8.746   8.032  67.597  1.00  0.00    -0.126 A  
HETATM   15  H   UNL     1     -10.199  10.052  67.072  1.00  0.00     0.000 HD 
HETATM   16  C   UNL     1      -7.826   7.043  67.999  1.00  0.00    -0.114 A  
HETATM   17  C   UNL     1      -6.967   7.306  69.090  1.00  0.00    -0.074 A  
HETATM   18  C   UNL     1      -7.753   5.709  67.277  1.00  0.00    -0.101 C  
HETATM   19  C   UNL     1      -8.439   5.662  65.900  1.00  0.00    -0.136 C  
HETATM   20  C   UNL     1      -6.949   8.562  69.735  1.00  0.00    -0.047 A  
HETATM   21  O   UNL     1      -6.099   6.339  69.520  1.00  0.00    -0.027 OA 
HETATM   22  C   UNL     1      -9.619   7.848  66.361  1.00  0.00    -0.181 C  
HETATM   23  C   UNL     1      -6.040   8.842  70.876  1.00  0.00    -0.040 C  
HETATM   24  C   UNL     1      -9.789   6.379  65.975  1.00  0.00     0.153 C  
HETATM   25  O   UNL     1      -7.584   6.244  64.914  1.00  0.00    -0.079 OA 
HETATM   26  H   UNL     1      -5.522   6.516  70.253  1.00  0.00     0.000 HD 
HETATM   27  O   UNL     1      -5.293   7.994  71.349  1.00  0.00    -0.033 OA 
HETATM   28  H   UNL     1      -8.007   6.215  64.064  1.00  0.00     0.000 HD 
BRANCH  19  29
HETATM   29  C   UNL     1      -8.618   4.194  65.465  1.00  0.00    -0.118 C  
HETATM   30  O   UNL     1      -7.760   3.329  65.676  1.00  0.00    -0.079 OA 
BRANCH  29  31
HETATM   31  C   UNL     1      -9.900   3.829  64.721  1.00  0.00    -0.191 C  
HETATM   32  O   UNL     1      -9.810   4.189  63.348  1.00  0.00    -0.204 OA 
HETATM   33  H   UNL     1     -10.607   3.961  62.885  1.00  0.00     0.000 HD 
ENDBRANCH  29  31
ENDBRANCH  19  29
BRANCH  22  34
HETATM   34  O   UNL     1      -8.871   8.561  65.393  1.00  0.00    -0.179 OA 
BRANCH  34  35
HETATM   35  C   UNL     1      -9.478   9.332  64.377  1.00  0.00     0.331 C  
HETATM   36  C   UNL     1      -9.830  10.793  64.669  1.00  0.00    -0.366 C  
HETATM   37  C   UNL     1      -8.595  11.691  64.837  1.00  0.00     0.661 C  
HETATM   38  C   UNL     1      -7.524  11.415  63.758  1.00  0.00     1.613 C  
HETATM   39  N   UNL     1      -8.995  13.117  64.815  1.00  0.00     0.988 NA 
HETATM   40  C   UNL     1      -7.317   9.901  63.611  1.00  0.00    -0.126 C  
HETATM   41  H2  UNL     1      -9.713  13.322  65.509  1.00  0.00     0.000 HD 
HETATM   42  O   UNL     1      -7.937  11.993  62.511  1.00  0.00    -0.063 OA 
HETATM   43  H1  UNL     1      -8.175  13.713  64.927  1.00  0.00     0.000 HD 
HETATM   44  C   UNL     1      -6.295   9.525  62.553  1.00  0.00    -0.097 C  
HETATM   45  H   UNL     1      -7.278  11.824  61.848  1.00  0.00     0.000 HD 
HETATM   46  O   UNL     1      -8.566   9.268  63.277  1.00  0.00    -0.201 OA 
ENDBRANCH  34  35
ENDBRANCH  22  34
ENDBRANCH   2   3
TORSDOF 5
ENDMDL
MODEL      155
REMARK 921   NORMALIZED FREE ENERGY PREDICTED BY IDOCK:   21.64 KCAL/MOL
REMARK 922        TOTAL FREE ENERGY PREDICTED BY IDOCK:   26.68 KCAL/MOL
REMARK 923 INTER-LIGAND FREE ENERGY PREDICTED BY IDOCK:   10.98 KCAL/MOL
REMARK 924 INTRA-LIGAND FREE ENERGY PREDICTED BY IDOCK:   15.70 KCAL/MOL
REMARK 927      BINDING AFFINITY PREDICTED BY RF-SCORE:    0.00 PKD
ROOT
HETATM    1  C   UNL     1     -11.033  14.824  63.605  1.00  0.00     1.925 C  
HETATM    2  O   UNL     1     -12.267  15.050  64.278  1.00  0.00    -0.528 OA 
ENDROOT
BRANCH   2   3
HETATM    3  C   UNL     1     -12.203  15.498  65.571  1.00  0.00     0.737 A  
HETATM    4  C   UNL     1     -12.253  16.864  65.887  1.00  0.00     3.572 A  
HETATM    5  C   UNL     1     -12.146  17.293  67.207  1.00  0.00     2.639 A  
HETATM    6  C   UNL     1     -11.976  16.359  68.221  1.00  0.00     0.495 A  
HETATM    7  C   UNL     1     -11.915  14.989  67.920  1.00  0.00    -0.140 A  
HETATM    8  C   UNL     1     -12.029  14.548  66.602  1.00  0.00    -0.358 A  
HETATM    9  C   UNL     1     -11.986  13.087  66.340  1.00  0.00    -0.402 C  
HETATM   10  O   UNL     1     -12.049  12.622  65.205  1.00  0.00    -0.421 OA 
HETATM   11  C   UNL     1     -11.862  12.124  67.461  1.00  0.00    -0.307 A  
HETATM   12  C   UNL     1     -11.883  10.735  67.208  1.00  0.00     0.859 A  
HETATM   13  O   UNL     1     -12.058  10.238  65.936  1.00  0.00     2.581 OA 
HETATM   14  C   UNL     1     -11.686   9.786  68.232  1.00  0.00     0.766 A  
HETATM   15  H   UNL     1     -12.072   9.304  65.766  1.00  0.00     0.000 HD 
HETATM   16  C   UNL     1     -11.439  10.249  69.540  1.00  0.00    -0.273 A  
HETATM   17  C   UNL     1     -11.486  11.637  69.799  1.00  0.00    -0.264 A  
HETATM   18  C   UNL     1     -11.129   9.275  70.664  1.00  0.00    -0.335 C  
HETATM   19  C   UNL     1     -10.731   7.856  70.220  1.00  0.00    -0.236 C  
HETATM   20  C   UNL     1     -11.690  12.578  68.767  1.00  0.00    -0.371 A  
HETATM   21  O   UNL     1     -11.292  12.098  71.073  1.00  0.00     0.573 OA 
HETATM   22  C   UNL     1     -11.541   8.312  67.871  1.00  0.00     1.831 C  
HETATM   23  C   UNL     1     -11.730  14.039  69.036  1.00  0.00    -0.330 C  
HETATM   24  C   UNL     1     -11.653   7.395  69.089  1.00  0.00     0.540 C  
HETATM   25  O   UNL     1      -9.359   7.840  69.825  1.00  0.00    -0.153 OA 
HETATM   26  H   UNL     1     -11.324  13.031  71.246  1.00  0.00     0.000 HD 
HETATM   27  O   UNL     1     -11.635  14.505  70.165  1.00  0.00    -0.267 OA 
HETATM   28  H   UNL     1      -9.113   6.964  69.552  1.00  0.00     0.000 HD 
BRANCH  19  29
HETATM   29  C   UNL     1     -10.818   6.899  71.426  1.00  0.00    -0.228 C  
HETATM   30  O   UNL     1     -10.532   7.250  72.575  1.00  0.00    -0.212 OA 
BRANCH  29  31
HETATM   31  C   UNL     1     -11.246   5.458  71.154  1.00  0.00     0.155 C  
HETATM   32  O   UNL     1     -11.912   4.906  72.283  1.00  0.00     0.423 OA 
HETATM   33  H   UNL     1     -12.178   4.010  72.114  1.00  0.00     0.000 HD 
ENDBRANCH  29  31
ENDBRANCH  19  29
BRANCH  22  34
HETATM   34  O   UNL     1     -10.236   8.296  67.320  1.00  0.00    -0.221 OA 
BRANCH  34  35
HETATM   35  C   UNL     1      -9.288   9.310  67.578  1.00  0.00    -0.127 C  
HETATM   36  C   UNL     1      -9.012   9.712  69.030  1.00  0.00    -0.148 C  
HETATM   37  C   UNL     1      -8.300   8.615  69.836  1.00  0.00    -0.123 C  
HETATM   38  C   UNL     1      -7.144   7.967  69.041  1.00  0.00    -0.070 C  
HETATM   39  N   UNL     1      -7.800   9.167  71.116  1.00  0.00    -0.292 NA 
HETATM   40  C   UNL     1      -7.615   7.643  67.617  1.00  0.00    -0.109 C  
HETATM   41  H2  UNL     1      -8.542   9.614  71.654  1.00  0.00     0.000 HD 
HETATM   42  O   UNL     1      -6.020   8.859  69.012  1.00  0.00    -0.042 OA 
HETATM   43  H1  UNL     1      -7.327   8.439  71.651  1.00  0.00     0.000 HD 
HETATM   44  C   UNL     1      -6.538   7.021  66.745  1.00  0.00    -0.055 C  
HETATM   45  H   UNL     1      -5.309   8.461  68.523  1.00  0.00     0.000 HD 
HETATM   46  O   UNL     1      -8.080   8.843  66.971  1.00  0.00    -0.108 OA 
ENDBRANCH  34  35
ENDBRANCH  22  34
ENDBRANCH   2   3
TORSDOF 5
ENDMDL
MODEL      156
REMARK 921   NORMALIZED FREE ENERGY PREDICTED BY IDOCK:   21.66 KCAL/MOL
REMARK 922        TOTAL FREE ENERGY PREDICTED BY IDOCK:   26.71 KCAL/MOL
REMARK 923 INTER-LIGAND FREE ENERGY PREDICTED BY IDOCK:   25.53 KCAL/MOL
REMARK 924 INTRA-LIGAND FREE ENERGY PREDICTED BY IDOCK:    1.19 KCAL/MOL
REMARK 927      BINDING AFFINITY PREDICTED BY RF-SCORE:    0.00 PKD
ROOT
HETATM    1  C   UNL     1      -5.797  11.518  73.028  1.00  0.00     2.279 C  
HETATM    2  O   UNL     1      -7.170  11.655  72.677  1.00  0.00     8.135 OA 
ENDROOT
BRANCH   2   3
HETATM    3  C   UNL     1      -7.451  12.171  71.439  1.00  0.00     7.701 A  
HETATM    4  C   UNL     1      -7.764  13.526  71.252  1.00  0.00     5.927 A  
HETATM    5  C   UNL     1      -8.084  14.015  69.989  1.00  0.00     1.373 A  
HETATM    6  C   UNL     1      -8.105  13.149  68.903  1.00  0.00     0.194 A  
HETATM    7  C   UNL     1      -7.803  11.788  69.074  1.00  0.00     0.064 A  
HETATM    8  C   UNL     1      -7.474  11.290  70.335  1.00  0.00     1.718 A  
HETATM    9  C   UNL     1      -7.135   9.850  70.457  1.00  0.00    -0.101 C  
HETATM   10  O   UNL     1      -6.865   9.329  71.537  1.00  0.00    -0.260 OA 
HETATM   11  C   UNL     1      -7.114   8.976  69.260  1.00  0.00    -0.058 A  
HETATM   12  C   UNL     1      -6.733   7.621  69.377  1.00  0.00    -0.040 A  
HETATM   13  O   UNL     1      -6.335   7.088  70.582  1.00  0.00    -0.041 OA 
HETATM   14  C   UNL     1      -6.778   6.735  68.281  1.00  0.00    -0.068 A  
HETATM   15  H   UNL     1      -6.078   6.177  70.662  1.00  0.00     0.000 HD 
HETATM   16  C   UNL     1      -7.240   7.221  67.041  1.00  0.00    -0.092 A  
HETATM   17  C   UNL     1      -7.556   8.591  66.914  1.00  0.00    -0.091 A  
HETATM   18  C   UNL     1      -7.396   6.290  65.852  1.00  0.00    -0.080 C  
HETATM   19  C   UNL     1      -7.396   4.786  66.182  1.00  0.00    -0.078 C  
HETATM   20  C   UNL     1      -7.502   9.471  68.017  1.00  0.00    -0.083 A  
HETATM   21  O   UNL     1      -7.964   9.086  65.705  1.00  0.00    -0.099 OA 
HETATM   22  C   UNL     1      -6.527   5.249  68.509  1.00  0.00    -0.040 C  
HETATM   23  C   UNL     1      -7.843  10.912  67.886  1.00  0.00    -0.109 C  
HETATM   24  C   UNL     1      -6.297   4.486  67.204  1.00  0.00    -0.041 C  
HETATM   25  O   UNL     1      -8.684   4.396  66.658  1.00  0.00    -0.111 OA 
HETATM   26  H   UNL     1      -8.176  10.007  65.620  1.00  0.00     0.000 HD 
HETATM   27  O   UNL     1      -8.145  11.424  66.815  1.00  0.00    -0.152 OA 
HETATM   28  H   UNL     1      -8.684   3.467  66.862  1.00  0.00     0.000 HD 
BRANCH  19  29
HETATM   29  C   UNL     1      -7.180   3.977  64.887  1.00  0.00    -0.067 C  
HETATM   30  O   UNL     1      -6.628   4.454  63.890  1.00  0.00    -0.040 OA 
BRANCH  29  31
HETATM   31  C   UNL     1      -7.705   2.543  64.855  1.00  0.00    -0.073 C  
HETATM   32  O   UNL     1      -9.116   2.524  64.683  1.00  0.00    -0.120 OA 
HETATM   33  H   UNL     1      -9.443   1.632  64.662  1.00  0.00     0.000 HD 
ENDBRANCH  29  31
ENDBRANCH  19  29
BRANCH  22  34
HETATM   34  O   UNL     1      -7.737   4.863  69.136  1.00  0.00    -0.070 OA 
BRANCH  34  35
HETATM   35  C   UNL     1      -8.120   5.339  70.409  1.00  0.00    -0.096 C  
HETATM   36  C   UNL     1      -9.410   6.156  70.533  1.00  0.00    -0.173 C  
HETATM   37  C   UNL     1     -10.678   5.326  70.281  1.00  0.00    -0.151 C  
HETATM   38  C   UNL     1     -10.627   3.955  70.993  1.00  0.00     0.865 C  
HETATM   39  N   UNL     1     -11.877   6.085  70.707  1.00  0.00     0.015 NA 
HETATM   40  C   UNL     1      -9.261   3.299  70.753  1.00  0.00    -0.138 C  
HETATM   41  H2  UNL     1     -11.926   7.001  70.262  1.00  0.00     0.000 HD 
HETATM   42  O   UNL     1     -10.865   4.133  72.397  1.00  0.00    -0.052 OA 
HETATM   43  H1  UNL     1     -12.719   5.534  70.539  1.00  0.00     0.000 HD 
HETATM   44  C   UNL     1      -9.104   1.952  71.435  1.00  0.00    -0.149 C  
HETATM   45  H   UNL     1     -10.834   3.290  72.835  1.00  0.00     0.000 HD 
HETATM   46  O   UNL     1      -8.213   4.167  71.223  1.00  0.00    -0.074 OA 
ENDBRANCH  34  35
ENDBRANCH  22  34
ENDBRANCH   2   3
TORSDOF 5
ENDMDL
MODEL      157
REMARK 921   NORMALIZED FREE ENERGY PREDICTED BY IDOCK:   21.72 KCAL/MOL
REMARK 922        TOTAL FREE ENERGY PREDICTED BY IDOCK:   26.79 KCAL/MOL
REMARK 923 INTER-LIGAND FREE ENERGY PREDICTED BY IDOCK:   18.98 KCAL/MOL
REMARK 924 INTRA-LIGAND FREE ENERGY PREDICTED BY IDOCK:    7.81 KCAL/MOL
REMARK 927      BINDING AFFINITY PREDICTED BY RF-SCORE:    0.00 PKD
ROOT
HETATM    1  C   UNL     1      -9.896  16.197  63.419  1.00  0.00    10.233 C  
HETATM    2  O   UNL     1      -8.794  16.956  63.907  1.00  0.00     8.414 OA 
ENDROOT
BRANCH   2   3
HETATM    3  C   UNL     1      -8.707  17.132  65.263  1.00  0.00     1.909 A  
HETATM    4  C   UNL     1      -8.405  18.378  65.832  1.00  0.00     0.098 A  
HETATM    5  C   UNL     1      -8.284  18.520  67.212  1.00  0.00    -0.254 A  
HETATM    6  C   UNL     1      -8.451  17.412  68.033  1.00  0.00    -0.235 A  
HETATM    7  C   UNL     1      -8.743  16.155  67.478  1.00  0.00    -0.195 A  
HETATM    8  C   UNL     1      -8.875  16.004  66.098  1.00  0.00    -0.366 A  
HETATM    9  C   UNL     1      -9.213  14.661  65.564  1.00  0.00     0.468 C  
HETATM   10  O   UNL     1      -9.316  14.440  64.360  1.00  0.00     1.241 OA 
HETATM   11  C   UNL     1      -9.439  13.520  66.483  1.00  0.00    -0.265 A  
HETATM   12  C   UNL     1      -9.819  12.260  65.969  1.00  0.00    -0.248 A  
HETATM   13  O   UNL     1     -10.028  12.066  64.623  1.00  0.00    -0.294 OA 
HETATM   14  C   UNL     1      -9.964  11.129  66.798  1.00  0.00    -0.242 A  
HETATM   15  H   UNL     1     -10.283  11.219  64.277  1.00  0.00     0.000 HD 
HETATM   16  C   UNL     1      -9.699  11.265  68.176  1.00  0.00    -0.188 A  
HETATM   17  C   UNL     1      -9.385  12.541  68.693  1.00  0.00     0.012 A  
HETATM   18  C   UNL     1      -9.750  10.061  69.099  1.00  0.00    -0.217 C  
HETATM   19  C   UNL     1      -9.722   8.689  68.403  1.00  0.00    -0.162 C  
HETATM   20  C   UNL     1      -9.248  13.669  67.854  1.00  0.00    -0.203 A  
HETATM   21  O   UNL     1      -9.168  12.697  70.035  1.00  0.00     2.096 OA 
HETATM   22  C   UNL     1     -10.200   9.762  66.166  1.00  0.00    -0.208 C  
HETATM   23  C   UNL     1      -8.908  15.011  68.397  1.00  0.00    -0.178 C  
HETATM   24  C   UNL     1     -10.648   8.713  67.184  1.00  0.00    -0.304 C  
HETATM   25  O   UNL     1      -8.381   8.357  68.042  1.00  0.00    -0.125 OA 
HETATM   26  H   UNL     1      -8.957  13.555  70.382  1.00  0.00     0.000 HD 
HETATM   27  O   UNL     1      -8.773  15.223  69.595  1.00  0.00    -0.235 OA 
HETATM   28  H   UNL     1      -8.363   7.509  67.612  1.00  0.00     0.000 HD 
BRANCH  19  29
HETATM   29  C   UNL     1     -10.156   7.597  69.401  1.00  0.00    -0.196 C  
HETATM   30  O   UNL     1     -10.219   7.797  70.619  1.00  0.00    -0.198 OA 
BRANCH  29  31
HETATM   31  C   UNL     1     -10.484   6.216  68.839  1.00  0.00    -0.238 C  
HETATM   32  O   UNL     1      -9.365   5.345  68.946  1.00  0.00    -0.119 OA 
HETATM   33  H   UNL     1      -9.570   4.486  68.597  1.00  0.00     0.000 HD 
ENDBRANCH  29  31
ENDBRANCH  19  29
BRANCH  22  34
HETATM   34  O   UNL     1      -8.912   9.477  65.651  1.00  0.00    -0.158 OA 
BRANCH  34  35
HETATM   35  C   UNL     1      -8.047   8.531  66.244  1.00  0.00    -0.107 C  
HETATM   36  C   UNL     1      -8.449   7.053  66.231  1.00  0.00    -0.134 C  
HETATM   37  C   UNL     1      -8.429   6.433  64.826  1.00  0.00     0.041 C  
HETATM   38  C   UNL     1      -7.168   6.839  64.029  1.00  0.00    -0.071 C  
HETATM   39  N   UNL     1      -8.528   4.958  64.918  1.00  0.00    -0.138 NA 
HETATM   40  C   UNL     1      -6.933   8.349  64.169  1.00  0.00    -0.078 C  
HETATM   41  H2  UNL     1      -9.346   4.664  65.453  1.00  0.00     0.000 HD 
HETATM   42  O   UNL     1      -6.035   6.103  64.513  1.00  0.00    -0.024 OA 
HETATM   43  H1  UNL     1      -8.515   4.547  63.985  1.00  0.00     0.000 HD 
HETATM   44  C   UNL     1      -5.698   8.844  63.437  1.00  0.00    -0.076 C  
HETATM   45  H   UNL     1      -5.260   6.352  64.023  1.00  0.00     0.000 HD 
HETATM   46  O   UNL     1      -6.802   8.696  65.560  1.00  0.00    -0.072 OA 
ENDBRANCH  34  35
ENDBRANCH  22  34
ENDBRANCH   2   3
TORSDOF 5
ENDMDL
MODEL      158
REMARK 921   NORMALIZED FREE ENERGY PREDICTED BY IDOCK:   22.02 KCAL/MOL
REMARK 922        TOTAL FREE ENERGY PREDICTED BY IDOCK:   27.17 KCAL/MOL
REMARK 923 INTER-LIGAND FREE ENERGY PREDICTED BY IDOCK:   19.62 KCAL/MOL
REMARK 924 INTRA-LIGAND FREE ENERGY PREDICTED BY IDOCK:    7.55 KCAL/MOL
REMARK 927      BINDING AFFINITY PREDICTED BY RF-SCORE:    0.00 PKD
ROOT
HETATM    1  C   UNL     1      -9.088  17.850  66.814  1.00  0.00    -0.268 C  
HETATM    2  O   UNL     1     -10.009  18.331  65.841  1.00  0.00    -0.538 OA 
ENDROOT
BRANCH   2   3
HETATM    3  C   UNL     1     -10.937  17.443  65.364  1.00  0.00     0.137 A  
HETATM    4  C   UNL     1     -12.186  17.860  64.881  1.00  0.00     6.170 A  
HETATM    5  C   UNL     1     -13.124  16.933  64.439  1.00  0.00     6.224 A  
HETATM    6  C   UNL     1     -12.826  15.577  64.489  1.00  0.00     0.749 A  
HETATM    7  C   UNL     1     -11.583  15.142  64.978  1.00  0.00    -0.294 A  
HETATM    8  C   UNL     1     -10.633  16.064  65.416  1.00  0.00    -0.428 A  
HETATM    9  C   UNL     1      -9.325  15.554  65.898  1.00  0.00    -0.319 C  
HETATM   10  O   UNL     1      -8.448  16.299  66.328  1.00  0.00    -0.305 OA 
HETATM   11  C   UNL     1      -9.029  14.101  65.878  1.00  0.00     0.457 A  
HETATM   12  C   UNL     1      -7.760  13.630  66.282  1.00  0.00     2.038 A  
HETATM   13  O   UNL     1      -6.759  14.496  66.662  1.00  0.00     0.133 OA 
HETATM   14  C   UNL     1      -7.463  12.254  66.357  1.00  0.00     0.597 A  
HETATM   15  H   UNL     1      -5.906  14.180  66.934  1.00  0.00     0.000 HD 
HETATM   16  C   UNL     1      -8.477  11.328  66.037  1.00  0.00    -0.102 A  
HETATM   17  C   UNL     1      -9.722  11.805  65.571  1.00  0.00    -0.224 A  
HETATM   18  C   UNL     1      -8.242   9.836  66.188  1.00  0.00    -0.120 C  
HETATM   19  C   UNL     1      -7.026   9.439  67.044  1.00  0.00    -0.085 C  
HETATM   20  C   UNL     1     -10.006  13.186  65.494  1.00  0.00    -0.220 A  
HETATM   21  O   UNL     1     -10.701  10.918  65.215  1.00  0.00    -0.225 OA 
HETATM   22  C   UNL     1      -6.141  11.804  66.968  1.00  0.00    -0.152 C  
HETATM   23  C   UNL     1     -11.319  13.689  65.011  1.00  0.00    -0.329 C  
HETATM   24  C   UNL     1      -5.835  10.333  66.689  1.00  0.00    -0.061 C  
HETATM   25  O   UNL     1      -7.360   9.528  68.430  1.00  0.00    -0.075 OA 
HETATM   26  H   UNL     1     -11.537  11.238  64.901  1.00  0.00     0.000 HD 
HETATM   27  O   UNL     1     -12.205  12.944  64.613  1.00  0.00    -0.388 OA 
HETATM   28  H   UNL     1      -6.609   9.283  68.959  1.00  0.00     0.000 HD 
BRANCH  19  29
HETATM   29  C   UNL     1      -6.691   7.954  66.803  1.00  0.00    -0.063 C  
HETATM   30  O   UNL     1      -5.591   7.580  66.381  1.00  0.00    -0.027 OA 
BRANCH  29  31
HETATM   31  C   UNL     1      -7.790   6.928  67.074  1.00  0.00    -0.111 C  
HETATM   32  O   UNL     1      -8.667   6.819  65.960  1.00  0.00    -0.144 OA 
HETATM   33  H   UNL     1      -9.350   6.181  66.128  1.00  0.00     0.000 HD 
ENDBRANCH  29  31
ENDBRANCH  19  29
BRANCH  22  34
HETATM   34  O   UNL     1      -6.386  12.037  68.343  1.00  0.00    -0.050 OA 
BRANCH  34  35
HETATM   35  C   UNL     1      -5.361  12.012  69.315  1.00  0.00    -0.056 C  
HETATM   36  C   UNL     1      -5.588  12.737  70.645  1.00  0.00    -0.177 C  
HETATM   37  C   UNL     1      -6.659  12.072  71.522  1.00  0.00     3.511 C  
HETATM   38  C   UNL     1      -6.506  10.534  71.561  1.00  0.00     1.089 C  
HETATM   39  N   UNL     1      -6.614  12.631  72.893  1.00  0.00     3.728 NA 
HETATM   40  C   UNL     1      -6.286  10.000  70.140  1.00  0.00    -0.093 C  
HETATM   41  H2  UNL     1      -6.698  13.647  72.893  1.00  0.00     0.000 HD 
HETATM   42  O   UNL     1      -5.405  10.182  72.411  1.00  0.00    -0.286 OA 
HETATM   43  H1  UNL     1      -7.326  12.189  73.475  1.00  0.00     0.000 HD 
HETATM   44  C   UNL     1      -6.101   8.495  70.075  1.00  0.00    -0.031 C  
HETATM   45  H   UNL     1      -5.311   9.237  72.436  1.00  0.00     0.000 HD 
HETATM   46  O   UNL     1      -5.125  10.623  69.558  1.00  0.00    -0.039 OA 
ENDBRANCH  34  35
ENDBRANCH  22  34
ENDBRANCH   2   3
TORSDOF 5
ENDMDL
MODEL      159
REMARK 921   NORMALIZED FREE ENERGY PREDICTED BY IDOCK:   24.34 KCAL/MOL
REMARK 922        TOTAL FREE ENERGY PREDICTED BY IDOCK:   30.18 KCAL/MOL
REMARK 923 INTER-LIGAND FREE ENERGY PREDICTED BY IDOCK:    7.03 KCAL/MOL
REMARK 924 INTRA-LIGAND FREE ENERGY PREDICTED BY IDOCK:   23.15 KCAL/MOL
REMARK 927      BINDING AFFINITY PREDICTED BY RF-SCORE:    0.00 PKD
ROOT
HETATM    1  C   UNL     1      -9.844   2.406  71.585  1.00  0.00    -0.146 C  
HETATM    2  O   UNL     1     -11.215   2.771  71.463  1.00  0.00     1.891 OA 
ENDROOT
BRANCH   2   3
HETATM    3  C   UNL     1     -11.630   3.882  72.149  1.00  0.00     1.658 A  
HETATM    4  C   UNL     1     -12.522   3.799  73.229  1.00  0.00     0.769 A  
HETATM    5  C   UNL     1     -12.958   4.948  73.883  1.00  0.00     5.209 A  
HETATM    6  C   UNL     1     -12.515   6.192  73.453  1.00  0.00     2.135 A  
HETATM    7  C   UNL     1     -11.629   6.293  72.367  1.00  0.00    -0.325 A  
HETATM    8  C   UNL     1     -11.181   5.148  71.710  1.00  0.00     0.090 A  
HETATM    9  C   UNL     1     -10.224   5.308  70.587  1.00  0.00    -0.257 C  
HETATM   10  O   UNL     1      -9.806   4.351  69.939  1.00  0.00    -0.210 OA 
HETATM   11  C   UNL     1      -9.733   6.653  70.201  1.00  0.00    -0.174 A  
HETATM   12  C   UNL     1      -8.777   6.790  69.170  1.00  0.00    -0.131 A  
HETATM   13  O   UNL     1      -8.248   5.692  68.529  1.00  0.00    -0.105 OA 
HETATM   14  C   UNL     1      -8.345   8.053  68.716  1.00  0.00    -0.127 A  
HETATM   15  H   UNL     1      -7.606   5.784  67.836  1.00  0.00     0.000 HD 
HETATM   16  C   UNL     1      -8.906   9.206  69.299  1.00  0.00    -0.144 A  
HETATM   17  C   UNL     1      -9.812   9.063  70.373  1.00  0.00    -0.202 A  
HETATM   18  C   UNL     1      -8.547  10.589  68.786  1.00  0.00    -0.146 C  
HETATM   19  C   UNL     1      -7.872  10.630  67.403  1.00  0.00    -0.110 C  
HETATM   20  C   UNL     1     -10.233   7.793  70.825  1.00  0.00    -0.200 A  
HETATM   21  O   UNL     1     -10.331  10.175  70.978  1.00  0.00    -0.238 OA 
HETATM   22  C   UNL     1      -7.450   8.140  67.484  1.00  0.00    -0.094 C  
HETATM   23  C   UNL     1     -11.192   7.641  71.950  1.00  0.00    -0.257 C  
HETATM   24  C   UNL     1      -6.820   9.522  67.313  1.00  0.00    -0.084 C  
HETATM   25  O   UNL     1      -8.860  10.505  66.379  1.00  0.00    -0.147 OA 
HETATM   26  H   UNL     1     -10.939  10.078  71.701  1.00  0.00     0.000 HD 
HETATM   27  O   UNL     1     -11.634   8.598  72.575  1.00  0.00    -0.356 OA 
HETATM   28  H   UNL     1      -8.444  10.530  65.525  1.00  0.00     0.000 HD 
BRANCH  19  29
HETATM   29  C   UNL     1      -7.233  12.015  67.184  1.00  0.00    -0.131 C  
HETATM   30  O   UNL     1      -7.904  13.030  66.966  1.00  0.00    -0.103 OA 
BRANCH  29  31
HETATM   31  C   UNL     1      -5.708  12.103  67.212  1.00  0.00    -0.141 C  
HETATM   32  O   UNL     1      -5.278  13.211  67.992  1.00  0.00    -0.088 OA 
HETATM   33  H   UNL     1      -4.330  13.265  68.010  1.00  0.00     0.000 HD 
ENDBRANCH  29  31
ENDBRANCH  19  29
BRANCH  22  34
HETATM   34  O   UNL     1      -8.379   7.857  66.454  1.00  0.00    -0.118 OA 
BRANCH  34  35
HETATM   35  C   UNL     1      -8.333   6.668  65.692  1.00  0.00    -0.144 C  
HETATM   36  C   UNL     1      -7.043   5.843  65.690  1.00  0.00    -0.069 C  
HETATM   37  C   UNL     1      -6.748   5.179  67.044  1.00  0.00    -0.055 C  
HETATM   38  C   UNL     1      -8.010   4.535  67.663  1.00  0.00    -0.096 C  
HETATM   39  N   UNL     1      -5.674   4.170  66.893  1.00  0.00    -0.021 NA 
HETATM   40  C   UNL     1      -9.189   5.512  67.566  1.00  0.00    -0.110 C  
HETATM   41  H2  UNL     1      -4.834   4.567  66.473  1.00  0.00     0.000 HD 
HETATM   42  O   UNL     1      -8.309   3.310  66.979  1.00  0.00    -0.092 OA 
HETATM   43  H1  UNL     1      -5.478   3.730  67.792  1.00  0.00     0.000 HD 
HETATM   44  C   UNL     1     -10.486   4.961  68.129  1.00  0.00     0.054 C  
HETATM   45  H   UNL     1      -9.085   2.914  67.360  1.00  0.00     0.000 HD 
HETATM   46  O   UNL     1      -9.412   5.873  66.190  1.00  0.00    -0.158 OA 
ENDBRANCH  34  35
ENDBRANCH  22  34
ENDBRANCH   2   3
TORSDOF 5
ENDMDL
MODEL      160
REMARK 921   NORMALIZED FREE ENERGY PREDICTED BY IDOCK:   25.58 KCAL/MOL
REMARK 922        TOTAL FREE ENERGY PREDICTED BY IDOCK:   31.77 KCAL/MOL
REMARK 923 INTER-LIGAND FREE ENERGY PREDICTED BY IDOCK:   11.99 KCAL/MOL
REMARK 924 INTRA-LIGAND FREE ENERGY PREDICTED BY IDOCK:   19.78 KCAL/MOL
REMARK 927      BINDING AFFINITY PREDICTED BY RF-SCORE:    0.00 PKD
ROOT
HETATM    1  C   UNL     1      -9.932   7.730  62.826  1.00  0.00     5.241 C  
HETATM    2  O   UNL     1      -8.589   7.561  62.385  1.00  0.00    -0.024 OA 
ENDROOT
BRANCH   2   3
HETATM    3  C   UNL     1      -7.597   7.766  63.308  1.00  0.00    -0.126 A  
HETATM    4  C   UNL     1      -6.657   6.773  63.621  1.00  0.00    -0.042 A  
HETATM    5  C   UNL     1      -5.684   6.994  64.592  1.00  0.00    -0.032 A  
HETATM    6  C   UNL     1      -5.651   8.208  65.267  1.00  0.00    -0.043 A  
HETATM    7  C   UNL     1      -6.591   9.209  64.972  1.00  0.00    -0.073 A  
HETATM    8  C   UNL     1      -7.565   9.000  63.996  1.00  0.00    -0.118 A  
HETATM    9  C   UNL     1      -8.517  10.101  63.702  1.00  0.00    -0.184 C  
HETATM   10  O   UNL     1      -9.422   9.983  62.879  1.00  0.00    -0.294 OA 
HETATM   11  C   UNL     1      -8.407  11.400  64.407  1.00  0.00     0.739 A  
HETATM   12  C   UNL     1      -9.280  12.461  64.078  1.00  0.00     0.761 A  
HETATM   13  O   UNL     1     -10.218  12.337  63.079  1.00  0.00    -0.449 OA 
HETATM   14  C   UNL     1      -9.264  13.685  64.779  1.00  0.00     1.610 A  
HETATM   15  H   UNL     1     -10.805  13.050  62.858  1.00  0.00     0.000 HD 
HETATM   16  C   UNL     1      -8.363  13.835  65.852  1.00  0.00     1.802 A  
HETATM   17  C   UNL     1      -7.448  12.796  66.133  1.00  0.00     1.960 A  
HETATM   18  C   UNL     1      -8.367  15.095  66.699  1.00  0.00    -0.162 C  
HETATM   19  C   UNL     1      -9.618  15.981  66.565  1.00  0.00    -0.261 C  
HETATM   20  C   UNL     1      -7.468  11.577  65.420  1.00  0.00     0.986 A  
HETATM   21  O   UNL     1      -6.538  12.945  67.143  1.00  0.00    -0.367 OA 
HETATM   22  C   UNL     1     -10.345  14.722  64.498  1.00  0.00     0.188 C  
HETATM   23  C   UNL     1      -6.512  10.479  65.721  1.00  0.00    -0.124 C  
HETATM   24  C   UNL     1     -10.012  16.092  65.090  1.00  0.00     0.098 C  
HETATM   25  O   UNL     1     -10.678  15.444  67.357  1.00  0.00    -0.284 OA 
HETATM   26  H   UNL     1      -5.923  12.247  67.332  1.00  0.00     0.000 HD 
HETATM   27  O   UNL     1      -5.631  10.584  66.565  1.00  0.00    -0.051 OA 
HETATM   28  H   UNL     1     -11.451  15.991  67.275  1.00  0.00     0.000 HD 
BRANCH  19  29
HETATM   29  C   UNL     1      -9.329  17.372  67.164  1.00  0.00    -0.245 C  
HETATM   30  O   UNL     1      -8.827  17.523  68.282  1.00  0.00    -0.258 OA 
BRANCH  29  31
HETATM   31  C   UNL     1      -9.717  18.593  66.333  1.00  0.00    -0.345 C  
HETATM   32  O   UNL     1      -9.847  19.746  67.155  1.00  0.00    -0.339 OA 
HETATM   33  H   UNL     1     -10.088  20.505  66.639  1.00  0.00     0.000 HD 
ENDBRANCH  29  31
ENDBRANCH  19  29
BRANCH  22  34
HETATM   34  O   UNL     1     -11.461  14.131  65.140  1.00  0.00    -0.314 OA 
BRANCH  34  35
HETATM   35  C   UNL     1     -11.460  12.792  65.587  1.00  0.00    -0.342 C  
HETATM   36  C   UNL     1     -10.168  12.207  66.165  1.00  0.00    -0.254 C  
HETATM   37  C   UNL     1      -9.772  12.829  67.513  1.00  0.00    -0.201 C  
HETATM   38  C   UNL     1     -10.982  12.973  68.465  1.00  0.00    -0.263 C  
HETATM   39  N   UNL     1      -8.705  12.025  68.151  1.00  0.00    -0.173 NA 
HETATM   40  C   UNL     1     -12.171  13.570  67.702  1.00  0.00    -0.175 C  
HETATM   41  H2  UNL     1      -7.900  11.903  67.537  1.00  0.00     0.000 HD 
HETATM   42  O   UNL     1     -11.321  11.688  69.009  1.00  0.00    -0.229 OA 
HETATM   43  H1  UNL     1      -8.442  12.438  69.046  1.00  0.00     0.000 HD 
HETATM   44  C   UNL     1     -13.421  13.729  68.549  1.00  0.00     4.779 C  
HETATM   45  H   UNL     1     -12.064  11.776  69.594  1.00  0.00     0.000 HD 
HETATM   46  O   UNL     1     -12.495  12.737  66.573  1.00  0.00    -0.406 OA 
ENDBRANCH  34  35
ENDBRANCH  22  34
ENDBRANCH   2   3
TORSDOF 5
ENDMDL
MODEL      161
REMARK 921   NORMALIZED FREE ENERGY PREDICTED BY IDOCK:   26.63 KCAL/MOL
REMARK 922        TOTAL FREE ENERGY PREDICTED BY IDOCK:   33.13 KCAL/MOL
REMARK 923 INTER-LIGAND FREE ENERGY PREDICTED BY IDOCK:   12.44 KCAL/MOL
REMARK 924 INTRA-LIGAND FREE ENERGY PREDICTED BY IDOCK:   20.69 KCAL/MOL
REMARK 927      BINDING AFFINITY PREDICTED BY RF-SCORE:    0.00 PKD
ROOT
HETATM    1  C   UNL     1     -10.888   7.602  70.366  1.00  0.00    -0.244 C  
HETATM    2  O   UNL     1     -10.413   8.102  71.611  1.00  0.00    -0.209 OA 
ENDROOT
BRANCH   2   3
HETATM    3  C   UNL     1      -9.057   8.238  71.754  1.00  0.00    -0.193 A  
HETATM    4  C   UNL     1      -8.295   7.335  72.511  1.00  0.00    -0.124 A  
HETATM    5  C   UNL     1      -6.925   7.520  72.672  1.00  0.00    -0.070 A  
HETATM    6  C   UNL     1      -6.307   8.618  72.088  1.00  0.00    -0.073 A  
HETATM    7  C   UNL     1      -7.057   9.537  71.335  1.00  0.00     0.219 A  
HETATM    8  C   UNL     1      -8.429   9.356  71.161  1.00  0.00     0.069 A  
HETATM    9  C   UNL     1      -9.171  10.340  70.333  1.00  0.00     0.612 C  
HETATM   10  O   UNL     1     -10.384  10.268  70.158  1.00  0.00    -0.256 OA 
HETATM   11  C   UNL     1      -8.458  11.465  69.680  1.00  0.00     0.908 A  
HETATM   12  C   UNL     1      -9.162  12.361  68.846  1.00  0.00     0.288 A  
HETATM   13  O   UNL     1     -10.503  12.197  68.584  1.00  0.00    -0.228 OA 
HETATM   14  C   UNL     1      -8.542  13.490  68.272  1.00  0.00    -0.168 A  
HETATM   15  H   UNL     1     -10.976  12.799  68.023  1.00  0.00     0.000 HD 
HETATM   16  C   UNL     1      -7.185  13.734  68.564  1.00  0.00    -0.108 A  
HETATM   17  C   UNL     1      -6.470  12.799  69.345  1.00  0.00    -0.096 A  
HETATM   18  C   UNL     1      -6.492  14.983  68.048  1.00  0.00    -0.159 C  
HETATM   19  C   UNL     1      -7.424  16.100  67.548  1.00  0.00    -0.153 C  
HETATM   20  C   UNL     1      -7.099  11.668  69.909  1.00  0.00     0.377 A  
HETATM   21  O   UNL     1      -5.141  13.000  69.599  1.00  0.00    -0.076 OA 
HETATM   22  C   UNL     1      -9.392  14.515  67.530  1.00  0.00    -0.193 C  
HETATM   23  C   UNL     1      -6.350  10.688  70.738  1.00  0.00     0.076 C  
HETATM   24  C   UNL     1      -8.550  15.491  66.708  1.00  0.00    -0.307 C  
HETATM   25  O   UNL     1      -7.933  16.840  68.659  1.00  0.00    -0.223 OA 
HETATM   26  H   UNL     1      -4.660  12.371  70.124  1.00  0.00     0.000 HD 
HETATM   27  O   UNL     1      -5.145  10.778  70.939  1.00  0.00    -0.076 OA 
HETATM   28  H   UNL     1      -8.509  17.530  68.350  1.00  0.00     0.000 HD 
BRANCH  19  29
HETATM   29  C   UNL     1      -6.610  17.117  66.723  1.00  0.00    -0.222 C  
HETATM   30  O   UNL     1      -5.375  17.114  66.695  1.00  0.00    -0.163 OA 
BRANCH  29  31
HETATM   31  C   UNL     1      -7.386  18.177  65.944  1.00  0.00    -0.205 C  
HETATM   32  O   UNL     1      -7.573  17.778  64.592  1.00  0.00     2.650 OA 
HETATM   33  H   UNL     1      -8.056  18.438  64.108  1.00  0.00     0.000 HD 
ENDBRANCH  29  31
ENDBRANCH  19  29
BRANCH  22  34
HETATM   34  O   UNL     1     -10.040  15.162  68.610  1.00  0.00    -0.210 OA 
BRANCH  34  35
HETATM   35  C   UNL     1      -9.334  15.707  69.706  1.00  0.00    -0.116 C  
HETATM   36  C   UNL     1      -8.217  16.719  69.434  1.00  0.00     0.182 C  
HETATM   37  C   UNL     1      -8.734  18.060  68.891  1.00  0.00    -0.110 C  
HETATM   38  C   UNL     1      -9.980  18.558  69.658  1.00  0.00     0.430 C  
HETATM   39  N   UNL     1      -7.658  19.077  68.937  1.00  0.00    -0.336 NA 
HETATM   40  C   UNL     1     -10.975  17.403  69.832  1.00  0.00     0.817 C  
HETATM   41  H2  UNL     1      -6.818  18.766  68.449  1.00  0.00     0.000 HD 
HETATM   42  O   UNL     1      -9.581  19.079  70.934  1.00  0.00     2.180 OA 
HETATM   43  H1  UNL     1      -8.001  19.967  68.575  1.00  0.00     0.000 HD 
HETATM   44  C   UNL     1     -12.228  17.787  70.598  1.00  0.00     7.821 C  
HETATM   45  H   UNL     1     -10.347  19.385  71.407  1.00  0.00     0.000 HD 
HETATM   46  O   UNL     1     -10.341  16.310  70.523  1.00  0.00     0.131 OA 
ENDBRANCH  34  35
ENDBRANCH  22  34
ENDBRANCH   2   3
TORSDOF 5
ENDMDL
MODEL      162
REMARK 921   NORMALIZED FREE ENERGY PREDICTED BY IDOCK:   26.79 KCAL/MOL
REMARK 922        TOTAL FREE ENERGY PREDICTED BY IDOCK:   33.34 KCAL/MOL
REMARK 923 INTER-LIGAND FREE ENERGY PREDICTED BY IDOCK:    9.22 KCAL/MOL
REMARK 924 INTRA-LIGAND FREE ENERGY PREDICTED BY IDOCK:   24.12 KCAL/MOL
REMARK 927      BINDING AFFINITY PREDICTED BY RF-SCORE:    0.00 PKD
ROOT
HETATM    1  C   UNL     1      -7.938   2.537  62.516  1.00  0.00    -0.067 C  
HETATM    2  O   UNL     1      -8.964   2.146  63.422  1.00  0.00    -0.088 OA 
ENDROOT
BRANCH   2   3
HETATM    3  C   UNL     1     -10.075   2.944  63.492  1.00  0.00    -0.159 A  
HETATM    4  C   UNL     1     -10.925   3.133  62.392  1.00  0.00    -0.108 A  
HETATM    5  C   UNL     1     -12.025   3.981  62.480  1.00  0.00     1.729 A  
HETATM    6  C   UNL     1     -12.278   4.657  63.667  1.00  0.00     3.933 A  
HETATM    7  C   UNL     1     -11.432   4.485  64.775  1.00  0.00     0.783 A  
HETATM    8  C   UNL     1     -10.331   3.632  64.699  1.00  0.00    -0.114 A  
HETATM    9  C   UNL     1      -9.485   3.464  65.907  1.00  0.00    -0.112 C  
HETATM   10  O   UNL     1      -8.482   2.755  65.912  1.00  0.00    -0.094 OA 
HETATM   11  C   UNL     1      -9.828   4.161  67.171  1.00  0.00    -0.182 A  
HETATM   12  C   UNL     1      -9.051   3.948  68.331  1.00  0.00    -0.138 A  
HETATM   13  O   UNL     1      -7.993   3.068  68.336  1.00  0.00    -0.058 OA 
HETATM   14  C   UNL     1      -9.291   4.651  69.529  1.00  0.00    -0.208 A  
HETATM   15  H   UNL     1      -7.470   2.925  69.116  1.00  0.00     0.000 HD 
HETATM   16  C   UNL     1     -10.325   5.608  69.553  1.00  0.00    -0.345 A  
HETATM   17  C   UNL     1     -11.140   5.769  68.410  1.00  0.00     0.067 A  
HETATM   18  C   UNL     1     -10.568   6.459  70.787  1.00  0.00    -0.288 C  
HETATM   19  C   UNL     1      -9.420   6.484  71.812  1.00  0.00    -0.152 C  
HETATM   20  C   UNL     1     -10.895   5.055  67.217  1.00  0.00     0.277 A  
HETATM   21  O   UNL     1     -12.175   6.663  68.433  1.00  0.00     0.779 OA 
HETATM   22  C   UNL     1      -8.312   4.511  70.689  1.00  0.00    -0.075 C  
HETATM   23  C   UNL     1     -11.746   5.229  66.011  1.00  0.00     1.779 C  
HETATM   24  C   UNL     1      -8.869   5.069  71.999  1.00  0.00    -0.139 C  
HETATM   25  O   UNL     1      -8.407   7.394  71.382  1.00  0.00    -0.110 OA 
HETATM   26  H   UNL     1     -12.723   6.771  67.665  1.00  0.00     0.000 HD 
HETATM   27  O   UNL     1     -12.728   5.962  65.997  1.00  0.00     4.073 OA 
HETATM   28  H   UNL     1      -7.699   7.410  72.015  1.00  0.00     0.000 HD 
BRANCH  19  29
HETATM   29  C   UNL     1      -9.938   7.055  73.147  1.00  0.00    -0.209 C  
HETATM   30  O   UNL     1     -11.076   7.517  73.276  1.00  0.00    -0.378 OA 
BRANCH  29  31
HETATM   31  C   UNL     1      -8.974   7.064  74.332  1.00  0.00    -0.207 C  
HETATM   32  O   UNL     1      -7.808   7.820  74.032  1.00  0.00    -0.140 OA 
HETATM   33  H   UNL     1      -7.209   7.826  74.768  1.00  0.00     0.000 HD 
ENDBRANCH  29  31
ENDBRANCH  19  29
BRANCH  22  34
HETATM   34  O   UNL     1      -7.220   5.277  70.215  1.00  0.00    -0.059 OA 
BRANCH  34  35
HETATM   35  C   UNL     1      -6.979   6.603  70.638  1.00  0.00    -0.064 C  
HETATM   36  C   UNL     1      -5.845   7.393  69.979  1.00  0.00    -0.024 C  
HETATM   37  C   UNL     1      -6.125   7.740  68.509  1.00  0.00    -0.036 C  
HETATM   38  C   UNL     1      -7.569   8.248  68.296  1.00  0.00    -0.101 C  
HETATM   39  N   UNL     1      -5.148   8.745  68.028  1.00  0.00    -0.034 NA 
HETATM   40  C   UNL     1      -8.553   7.330  69.033  1.00  0.00    -0.129 C  
HETATM   41  H2  UNL     1      -4.186   8.440  68.171  1.00  0.00     0.000 HD 
HETATM   42  O   UNL     1      -7.680   9.597  68.772  1.00  0.00    -0.078 OA 
HETATM   43  H1  UNL     1      -5.334   8.975  67.052  1.00  0.00     0.000 HD 
HETATM   44  C   UNL     1     -10.003   7.760  68.903  1.00  0.00    -0.185 C  
HETATM   45  H   UNL     1      -8.568   9.909  68.641  1.00  0.00     0.000 HD 
HETATM   46  O   UNL     1      -8.221   7.282  70.434  1.00  0.00    -0.121 OA 
ENDBRANCH  34  35
ENDBRANCH  22  34
ENDBRANCH   2   3
TORSDOF 5
ENDMDL
MODEL      163
REMARK 921   NORMALIZED FREE ENERGY PREDICTED BY IDOCK:   28.91 KCAL/MOL
REMARK 922        TOTAL FREE ENERGY PREDICTED BY IDOCK:   36.08 KCAL/MOL
REMARK 923 INTER-LIGAND FREE ENERGY PREDICTED BY IDOCK:   28.95 KCAL/MOL
REMARK 924 INTRA-LIGAND FREE ENERGY PREDICTED BY IDOCK:    7.13 KCAL/MOL
REMARK 927      BINDING AFFINITY PREDICTED BY RF-SCORE:    0.00 PKD
ROOT
HETATM    1  C   UNL     1      -7.681  10.357  64.362  1.00  0.00    -0.042 C  
HETATM    2  O   UNL     1      -7.473   9.004  63.972  1.00  0.00    -0.105 OA 
ENDROOT
BRANCH   2   3
HETATM    3  C   UNL     1      -8.441   8.098  64.317  1.00  0.00     0.057 A  
HETATM    4  C   UNL     1      -8.690   6.949  63.551  1.00  0.00     0.698 A  
HETATM    5  C   UNL     1      -9.706   6.065  63.903  1.00  0.00     2.368 A  
HETATM    6  C   UNL     1     -10.490   6.330  65.019  1.00  0.00     3.152 A  
HETATM    7  C   UNL     1     -10.260   7.481  65.790  1.00  0.00     1.314 A  
HETATM    8  C   UNL     1      -9.240   8.369  65.450  1.00  0.00     0.023 A  
HETATM    9  C   UNL     1      -9.019   9.555  66.315  1.00  0.00    -0.157 C  
HETATM   10  O   UNL     1      -8.162  10.398  66.066  1.00  0.00    -0.132 OA 
HETATM   11  C   UNL     1      -9.844   9.766  67.530  1.00  0.00    -0.209 A  
HETATM   12  C   UNL     1      -9.587  10.865  68.378  1.00  0.00    -0.177 A  
HETATM   13  O   UNL     1      -8.553  11.738  68.131  1.00  0.00    -0.147 OA 
HETATM   14  C   UNL     1     -10.398  11.150  69.497  1.00  0.00    -0.018 A  
HETATM   15  H   UNL     1      -8.380  12.478  68.702  1.00  0.00     0.000 HD 
HETATM   16  C   UNL     1     -11.507  10.319  69.753  1.00  0.00    -0.320 A  
HETATM   17  C   UNL     1     -11.719   9.184  68.940  1.00  0.00     1.059 A  
HETATM   18  C   UNL     1     -12.466  10.632  70.889  1.00  0.00    -0.495 C  
HETATM   19  C   UNL     1     -12.375  12.059  71.459  1.00  0.00     0.119 C  
HETATM   20  C   UNL     1     -10.897   8.905  67.826  1.00  0.00    -0.106 A  
HETATM   21  O   UNL     1     -12.766   8.344  69.204  1.00  0.00     2.941 OA 
HETATM   22  C   UNL     1     -10.181  12.446  70.269  1.00  0.00     3.041 C  
HETATM   23  C   UNL     1     -11.125   7.715  66.964  1.00  0.00     0.271 C  
HETATM   24  C   UNL     1     -10.906  12.457  71.615  1.00  0.00     6.792 C  
HETATM   25  O   UNL     1     -13.082  12.964  70.610  1.00  0.00     0.065 OA 
HETATM   26  H   UNL     1     -12.909   7.581  68.657  1.00  0.00     0.000 HD 
HETATM   27  O   UNL     1     -12.002   6.891  67.195  1.00  0.00     1.191 OA 
HETATM   28  H   UNL     1     -13.027  13.845  70.963  1.00  0.00     0.000 HD 
BRANCH  19  29
HETATM   29  C   UNL     1     -13.108  12.117  72.814  1.00  0.00     1.471 C  
HETATM   30  O   UNL     1     -12.986  11.238  73.674  1.00  0.00     5.693 OA 
BRANCH  29  31
HETATM   31  C   UNL     1     -14.038  13.302  73.064  1.00  0.00     1.182 C  
HETATM   32  O   UNL     1     -13.952  14.246  72.004  1.00  0.00    -0.423 OA 
HETATM   33  H   UNL     1     -14.531  14.983  72.159  1.00  0.00     0.000 HD 
ENDBRANCH  29  31
ENDBRANCH  19  29
BRANCH  22  34
HETATM   34  O   UNL     1     -10.730  13.392  69.370  1.00  0.00    -0.059 OA 
BRANCH  34  35
HETATM   35  C   UNL     1      -9.989  13.953  68.307  1.00  0.00    -0.238 C  
HETATM   36  C   UNL     1     -10.195  15.431  67.963  1.00  0.00    -0.235 C  
HETATM   37  C   UNL     1      -9.670  16.383  69.047  1.00  0.00    -0.262 C  
HETATM   38  C   UNL     1      -8.280  15.958  69.572  1.00  0.00    -0.076 C  
HETATM   39  N   UNL     1      -9.624  17.770  68.528  1.00  0.00    -0.310 NA 
HETATM   40  C   UNL     1      -8.274  14.450  69.855  1.00  0.00     0.738 C  
HETATM   41  H2  UNL     1     -10.527  18.070  68.162  1.00  0.00     0.000 HD 
HETATM   42  O   UNL     1      -7.276  16.297  68.605  1.00  0.00    -0.148 OA 
HETATM   43  H1  UNL     1      -9.276  18.403  69.249  1.00  0.00     0.000 HD 
HETATM   44  C   UNL     1      -6.939  13.928  70.355  1.00  0.00     0.581 C  
HETATM   45  H   UNL     1      -6.422  16.035  68.927  1.00  0.00     0.000 HD 
HETATM   46  O   UNL     1      -8.621  13.727  68.658  1.00  0.00    -0.148 OA 
ENDBRANCH  34  35
ENDBRANCH  22  34
ENDBRANCH   2   3
TORSDOF 5
ENDMDL
MODEL      164
REMARK 921   NORMALIZED FREE ENERGY PREDICTED BY IDOCK:   32.83 KCAL/MOL
REMARK 922        TOTAL FREE ENERGY PREDICTED BY IDOCK:   41.15 KCAL/MOL
REMARK 923 INTER-LIGAND FREE ENERGY PREDICTED BY IDOCK:   25.59 KCAL/MOL
REMARK 924 INTRA-LIGAND FREE ENERGY PREDICTED BY IDOCK:   15.55 KCAL/MOL
REMARK 927      BINDING AFFINITY PREDICTED BY RF-SCORE:    0.00 PKD
ROOT
HETATM    1  C   UNL     1     -11.112   6.917  69.294  1.00  0.00    -0.184 C  
HETATM    2  O   UNL     1     -12.323   6.697  70.009  1.00  0.00    -0.081 OA 
ENDROOT
BRANCH   2   3
HETATM    3  C   UNL     1     -12.809   7.740  70.752  1.00  0.00     0.194 A  
HETATM    4  C   UNL     1     -13.704   7.542  71.814  1.00  0.00    -0.414 A  
HETATM    5  C   UNL     1     -14.213   8.623  72.527  1.00  0.00    -0.371 A  
HETATM    6  C   UNL     1     -13.841   9.914  72.175  1.00  0.00    -0.182 A  
HETATM    7  C   UNL     1     -12.953  10.130  71.108  1.00  0.00    -0.488 A  
HETATM    8  C   UNL     1     -12.432   9.053  70.392  1.00  0.00     0.399 A  
HETATM    9  C   UNL     1     -11.475   9.334  69.292  1.00  0.00     0.343 C  
HETATM   10  O   UNL     1     -10.996   8.442  68.596  1.00  0.00     0.008 OA 
HETATM   11  C   UNL     1     -11.062  10.725  68.990  1.00  0.00    -0.308 A  
HETATM   12  C   UNL     1     -10.106  10.977  67.980  1.00  0.00    -0.179 A  
HETATM   13  O   UNL     1      -9.507   9.952  67.285  1.00  0.00    -0.149 OA 
HETATM   14  C   UNL     1      -9.745  12.288  67.605  1.00  0.00    -0.194 A  
HETATM   15  H   UNL     1      -8.865  10.121  66.606  1.00  0.00     0.000 HD 
HETATM   16  C   UNL     1     -10.379  13.371  68.246  1.00  0.00    -0.251 A  
HETATM   17  C   UNL     1     -11.284  13.112  69.300  1.00  0.00    -0.206 A  
HETATM   18  C   UNL     1     -10.097  14.800  67.818  1.00  0.00    -0.224 C  
HETATM   19  C   UNL     1      -9.414  14.960  66.449  1.00  0.00    -0.300 C  
HETATM   20  C   UNL     1     -11.633  11.796  69.672  1.00  0.00    -0.393 A  
HETATM   21  O   UNL     1     -11.874  14.155  69.961  1.00  0.00    -0.286 OA 
HETATM   22  C   UNL     1      -8.846  12.499  66.392  1.00  0.00    -0.013 C  
HETATM   23  C   UNL     1     -12.592  11.523  70.774  1.00  0.00    -0.298 C  
HETATM   24  C   UNL     1      -8.297  13.923  66.309  1.00  0.00     0.894 C  
HETATM   25  O   UNL     1     -10.383  14.838  65.407  1.00  0.00    -0.331 OA 
HETATM   26  H   UNL     1     -12.482  13.981  70.669  1.00  0.00     0.000 HD 
HETATM   27  O   UNL     1     -13.095  12.414  71.447  1.00  0.00    -0.334 OA 
HETATM   28  H   UNL     1      -9.961  14.937  64.561  1.00  0.00     0.000 HD 
BRANCH  19  29
HETATM   29  C   UNL     1      -8.856  16.391  66.317  1.00  0.00    -0.332 C  
HETATM   30  O   UNL     1      -9.415  17.264  65.645  1.00  0.00    -0.515 OA 
BRANCH  29  31
HETATM   31  C   UNL     1      -7.543  16.706  67.031  1.00  0.00    -0.202 C  
HETATM   32  O   UNL     1      -7.485  18.076  67.407  1.00  0.00    -0.199 OA 
HETATM   33  H   UNL     1      -6.669  18.271  67.852  1.00  0.00     0.000 HD 
ENDBRANCH  29  31
ENDBRANCH  19  29
BRANCH  22  34
HETATM   34  O   UNL     1      -9.747  12.222  65.336  1.00  0.00    -0.224 OA 
BRANCH  34  35
HETATM   35  C   UNL     1     -11.059  11.748  65.558  1.00  0.00    -0.280 C  
HETATM   36  C   UNL     1     -11.997  11.582  64.358  1.00  0.00    -0.008 C  
HETATM   37  C   UNL     1     -11.574  10.450  63.411  1.00  0.00     3.344 C  
HETATM   38  C   UNL     1     -11.160   9.173  64.178  1.00  0.00     8.487 C  
HETATM   39  N   UNL     1     -12.666  10.149  62.457  1.00  0.00     4.529 NA 
HETATM   40  C   UNL     1     -10.228   9.547  65.338  1.00  0.00     0.298 C  
HETATM   41  H2  UNL     1     -12.967  10.979  61.948  1.00  0.00     0.000 HD 
HETATM   42  O   UNL     1     -12.333   8.504  64.665  1.00  0.00    14.393 OA 
HETATM   43  H1  UNL     1     -12.384   9.397  61.828  1.00  0.00     0.000 HD 
HETATM   44  C   UNL     1      -9.784   8.358  66.171  1.00  0.00    -0.223 C  
HETATM   45  H   UNL     1     -12.079   7.719  65.137  1.00  0.00     0.000 HD 
HETATM   46  O   UNL     1     -10.885  10.487  66.210  1.00  0.00    -0.125 OA 
ENDBRANCH  34  35
ENDBRANCH  22  34
ENDBRANCH   2   3
TORSDOF 5
ENDMDL
MODEL      165
REMARK 921   NORMALIZED FREE ENERGY PREDICTED BY IDOCK:   33.13 KCAL/MOL
REMARK 922        TOTAL FREE ENERGY PREDICTED BY IDOCK:   41.53 KCAL/MOL
REMARK 923 INTER-LIGAND FREE ENERGY PREDICTED BY IDOCK:   31.64 KCAL/MOL
REMARK 924 INTRA-LIGAND FREE ENERGY PREDICTED BY IDOCK:    9.89 KCAL/MOL
REMARK 927      BINDING AFFINITY PREDICTED BY RF-SCORE:    0.00 PKD
ROOT
HETATM    1  C   UNL     1     -11.373  10.189  66.932  1.00  0.00     0.542 C  
HETATM    2  O   UNL     1     -10.896   9.238  67.878  1.00  0.00    -0.216 OA 
ENDROOT
BRANCH   2   3
HETATM    3  C   UNL     1      -9.638   9.434  68.383  1.00  0.00    -0.146 A  
HETATM    4  C   UNL     1      -9.012   8.487  69.208  1.00  0.00    -0.146 A  
HETATM    5  C   UNL     1      -7.748   8.730  69.739  1.00  0.00    -0.084 A  
HETATM    6  C   UNL     1      -7.104   9.928  69.458  1.00  0.00    -0.082 A  
HETATM    7  C   UNL     1      -7.721  10.890  68.641  1.00  0.00    -0.122 A  
HETATM    8  C   UNL     1      -8.983  10.654  68.098  1.00  0.00    -0.141 A  
HETATM    9  C   UNL     1      -9.578  11.690  67.218  1.00  0.00    -0.174 C  
HETATM   10  O   UNL     1     -10.698  11.570  66.727  1.00  0.00    -0.245 OA 
HETATM   11  C   UNL     1      -8.828  12.929  66.899  1.00  0.00    -0.188 A  
HETATM   12  C   UNL     1      -9.378  13.882  66.013  1.00  0.00    -0.031 A  
HETATM   13  O   UNL     1     -10.590  13.675  65.396  1.00  0.00    -0.293 OA 
HETATM   14  C   UNL     1      -8.737  15.110  65.747  1.00  0.00     0.710 A  
HETATM   15  H   UNL     1     -10.960  14.316  64.800  1.00  0.00     0.000 HD 
HETATM   16  C   UNL     1      -7.524  15.393  66.405  1.00  0.00     0.949 A  
HETATM   17  C   UNL     1      -6.947  14.409  67.238  1.00  0.00     0.110 A  
HETATM   18  C   UNL     1      -6.838  16.736  66.226  1.00  0.00     0.033 C  
HETATM   19  C   UNL     1      -7.711  17.852  65.625  1.00  0.00     0.231 C  
HETATM   20  C   UNL     1      -7.594  13.180  67.493  1.00  0.00    -0.166 A  
HETATM   21  O   UNL     1      -5.747  14.653  67.849  1.00  0.00    -0.143 OA 
HETATM   22  C   UNL     1      -9.462  16.170  64.925  1.00  0.00     1.637 C  
HETATM   23  C   UNL     1      -6.992  12.147  68.376  1.00  0.00    -0.078 C  
HETATM   24  C   UNL     1      -8.531  17.291  64.461  1.00  0.00     7.123 C  
HETATM   25  O   UNL     1      -8.546  18.412  66.640  1.00  0.00    -0.262 OA 
HETATM   26  H   UNL     1      -5.359  13.991  68.409  1.00  0.00     0.000 HD 
HETATM   27  O   UNL     1      -5.889  12.281  68.892  1.00  0.00    -0.058 OA 
HETATM   28  H   UNL     1      -9.085  19.101  66.269  1.00  0.00     0.000 HD 
BRANCH  19  29
HETATM   29  C   UNL     1      -6.810  19.012  65.156  1.00  0.00     0.005 C  
HETATM   30  O   UNL     1      -6.043  19.608  65.918  1.00  0.00    -0.172 OA 
BRANCH  29  31
HETATM   31  C   UNL     1      -6.914  19.439  63.693  1.00  0.00     2.929 C  
HETATM   32  O   UNL     1      -5.968  18.742  62.893  1.00  0.00    -0.024 OA 
HETATM   33  H   UNL     1      -6.032  19.007  61.983  1.00  0.00     0.000 HD 
ENDBRANCH  29  31
ENDBRANCH  19  29
BRANCH  22  34
HETATM   34  O   UNL     1     -10.415  16.635  65.864  1.00  0.00    -0.342 OA 
BRANCH  34  35
HETATM   35  C   UNL     1     -10.109  16.825  67.230  1.00  0.00    -0.281 C  
HETATM   36  C   UNL     1      -9.920  18.253  67.751  1.00  0.00    -0.343 C  
HETATM   37  C   UNL     1     -11.219  19.071  67.760  1.00  0.00     0.244 C  
HETATM   38  C   UNL     1     -12.414  18.259  68.312  1.00  0.00     5.703 C  
HETATM   39  N   UNL     1     -11.033  20.314  68.544  1.00  0.00     0.137 NA 
HETATM   40  C   UNL     1     -12.429  16.864  67.674  1.00  0.00     2.964 C  
HETATM   41  H2  UNL     1     -10.241  20.861  68.208  1.00  0.00     0.000 HD 
HETATM   42  O   UNL     1     -12.311  18.163  69.740  1.00  0.00     6.644 OA 
HETATM   43  H1  UNL     1     -11.897  20.857  68.549  1.00  0.00     0.000 HD 
HETATM   44  C   UNL     1     -13.557  15.978  68.172  1.00  0.00     5.737 C  
HETATM   45  H   UNL     1     -13.044  17.664  70.080  1.00  0.00     0.000 HD 
HETATM   46  O   UNL     1     -11.181  16.194  67.934  1.00  0.00    -0.325 OA 
ENDBRANCH  34  35
ENDBRANCH  22  34
ENDBRANCH   2   3
TORSDOF 5
ENDMDL
MODEL      166
REMARK 921   NORMALIZED FREE ENERGY PREDICTED BY IDOCK:   33.81 KCAL/MOL
REMARK 922        TOTAL FREE ENERGY PREDICTED BY IDOCK:   42.41 KCAL/MOL
REMARK 923 INTER-LIGAND FREE ENERGY PREDICTED BY IDOCK:   37.01 KCAL/MOL
REMARK 924 INTRA-LIGAND FREE ENERGY PREDICTED BY IDOCK:    5.41 KCAL/MOL
REMARK 927      BINDING AFFINITY PREDICTED BY RF-SCORE:    0.00 PKD
ROOT
HETATM    1  C   UNL     1      -9.769  13.777  73.531  1.00  0.00    11.464 C  
HETATM    2  O   UNL     1      -8.866  14.838  73.235  1.00  0.00     6.481 OA 
ENDROOT
BRANCH   2   3
HETATM    3  C   UNL     1      -7.647  14.495  72.714  1.00  0.00     5.796 A  
HETATM    4  C   UNL     1      -6.453  14.695  73.422  1.00  0.00     1.641 A  
HETATM    5  C   UNL     1      -5.224  14.373  72.852  1.00  0.00    -0.254 A  
HETATM    6  C   UNL     1      -5.179  13.860  71.563  1.00  0.00    -0.185 A  
HETATM    7  C   UNL     1      -6.365  13.662  70.836  1.00  0.00     0.292 A  
HETATM    8  C   UNL     1      -7.601  13.974  71.401  1.00  0.00     4.233 A  
HETATM    9  C   UNL     1      -8.826  13.719  70.602  1.00  0.00     4.809 C  
HETATM   10  O   UNL     1      -9.949  13.995  71.016  1.00  0.00     2.968 OA 
HETATM   11  C   UNL     1      -8.732  13.115  69.251  1.00  0.00     0.880 A  
HETATM   12  C   UNL     1      -9.907  12.821  68.523  1.00  0.00    -0.143 A  
HETATM   13  O   UNL     1     -11.157  13.045  69.053  1.00  0.00    -0.249 OA 
HETATM   14  C   UNL     1      -9.862  12.323  67.204  1.00  0.00    -0.207 A  
HETATM   15  H   UNL     1     -11.946  12.848  68.564  1.00  0.00     0.000 HD 
HETATM   16  C   UNL     1      -8.605  12.137  66.596  1.00  0.00    -0.122 A  
HETATM   17  C   UNL     1      -7.434  12.370  67.353  1.00  0.00    -0.157 A  
HETATM   18  C   UNL     1      -8.500  11.691  65.149  1.00  0.00     0.621 C  
HETATM   19  C   UNL     1      -9.786  11.832  64.316  1.00  0.00    -0.206 C  
HETATM   20  C   UNL     1      -7.490  12.862  68.674  1.00  0.00    -0.092 A  
HETATM   21  O   UNL     1      -6.207  12.151  66.790  1.00  0.00    -0.383 OA 
HETATM   22  C   UNL     1     -11.156  12.195  66.408  1.00  0.00    -0.314 C  
HETATM   23  C   UNL     1      -6.259  13.115  69.468  1.00  0.00    -0.116 C  
HETATM   24  C   UNL     1     -10.986  11.358  65.141  1.00  0.00    -0.259 C  
HETATM   25  O   UNL     1      -9.940  13.187  63.889  1.00  0.00    -0.760 OA 
HETATM   26  H   UNL     1      -5.420  12.307  67.298  1.00  0.00     0.000 HD 
HETATM   27  O   UNL     1      -5.137  12.871  69.042  1.00  0.00    -0.068 OA 
HETATM   28  H   UNL     1     -10.735  13.274  63.375  1.00  0.00     0.000 HD 
BRANCH  19  29
HETATM   29  C   UNL     1      -9.651  11.011  63.019  1.00  0.00    -0.364 C  
HETATM   30  O   UNL     1     -10.628  10.660  62.349  1.00  0.00     0.603 OA 
BRANCH  29  31
HETATM   31  C   UNL     1      -8.245  10.603  62.584  1.00  0.00    -0.170 C  
HETATM   32  O   UNL     1      -8.017   9.222  62.834  1.00  0.00    -0.127 OA 
HETATM   33  H   UNL     1      -7.143   8.968  62.564  1.00  0.00     0.000 HD 
ENDBRANCH  29  31
ENDBRANCH  19  29
BRANCH  22  34
HETATM   34  O   UNL     1     -11.424  13.553  66.107  1.00  0.00    -0.311 OA 
BRANCH  34  35
HETATM   35  C   UNL     1     -12.264  14.359  66.906  1.00  0.00    -0.267 C  
HETATM   36  C   UNL     1     -11.786  14.764  68.304  1.00  0.00    -0.340 C  
HETATM   37  C   UNL     1     -10.601  15.741  68.278  1.00  0.00    -0.271 C  
HETATM   38  C   UNL     1     -10.795  16.864  67.234  1.00  0.00    -0.131 C  
HETATM   39  N   UNL     1     -10.388  16.319  69.625  1.00  0.00    -0.276 NA 
HETATM   40  C   UNL     1     -11.277  16.259  65.908  1.00  0.00     0.234 C  
HETATM   41  H2  UNL     1     -10.271  15.597  70.335  1.00  0.00     0.000 HD 
HETATM   42  O   UNL     1     -11.742  17.822  67.728  1.00  0.00     0.757 OA 
HETATM   43  H1  UNL     1      -9.600  16.967  69.607  1.00  0.00     0.000 HD 
HETATM   44  C   UNL     1     -11.520  17.290  64.820  1.00  0.00     1.122 C  
HETATM   45  H   UNL     1     -11.862  18.512  67.086  1.00  0.00     0.000 HD 
HETATM   46  O   UNL     1     -12.500  15.530  66.120  1.00  0.00     0.878 OA 
ENDBRANCH  34  35
ENDBRANCH  22  34
ENDBRANCH   2   3
TORSDOF 5
ENDMDL
MODEL      167
REMARK 921   NORMALIZED FREE ENERGY PREDICTED BY IDOCK:   35.08 KCAL/MOL
REMARK 922        TOTAL FREE ENERGY PREDICTED BY IDOCK:   44.05 KCAL/MOL
REMARK 923 INTER-LIGAND FREE ENERGY PREDICTED BY IDOCK:   36.31 KCAL/MOL
REMARK 924 INTRA-LIGAND FREE ENERGY PREDICTED BY IDOCK:    7.74 KCAL/MOL
REMARK 927      BINDING AFFINITY PREDICTED BY RF-SCORE:    0.00 PKD
ROOT
HETATM    1  C   UNL     1      -8.728  12.377  72.014  1.00  0.00    20.354 C  
HETATM    2  O   UNL     1      -7.329  12.376  72.277  1.00  0.00     8.206 OA 
ENDROOT
BRANCH   2   3
HETATM    3  C   UNL     1      -6.744  11.168  72.550  1.00  0.00     5.381 A  
HETATM    4  C   UNL     1      -6.129  10.900  73.782  1.00  0.00     2.272 A  
HETATM    5  C   UNL     1      -5.509   9.677  74.018  1.00  0.00     0.019 A  
HETATM    6  C   UNL     1      -5.486   8.714  73.017  1.00  0.00    -0.067 A  
HETATM    7  C   UNL     1      -6.089   8.969  71.774  1.00  0.00    -0.075 A  
HETATM    8  C   UNL     1      -6.720  10.189  71.530  1.00  0.00     0.868 A  
HETATM    9  C   UNL     1      -7.367  10.397  70.210  1.00  0.00     0.087 C  
HETATM   10  O   UNL     1      -7.916  11.454  69.908  1.00  0.00     0.607 OA 
HETATM   11  C   UNL     1      -7.368   9.318  69.193  1.00  0.00    -0.071 A  
HETATM   12  C   UNL     1      -8.037   9.505  67.963  1.00  0.00    -0.102 A  
HETATM   13  O   UNL     1      -8.733  10.661  67.691  1.00  0.00    -0.121 OA 
HETATM   14  C   UNL     1      -7.995   8.539  66.937  1.00  0.00    -0.095 A  
HETATM   15  H   UNL     1      -9.183  10.786  66.864  1.00  0.00     0.000 HD 
HETATM   16  C   UNL     1      -7.242   7.366  67.146  1.00  0.00    -0.089 A  
HETATM   17  C   UNL     1      -6.631   7.157  68.402  1.00  0.00    -0.048 A  
HETATM   18  C   UNL     1      -7.087   6.335  66.042  1.00  0.00    -0.067 C  
HETATM   19  C   UNL     1      -7.454   6.818  64.628  1.00  0.00    -0.097 C  
HETATM   20  C   UNL     1      -6.685   8.128  69.426  1.00  0.00    -0.042 A  
HETATM   21  O   UNL     1      -5.933   6.003  68.635  1.00  0.00    -0.018 OA 
HETATM   22  C   UNL     1      -8.584   8.871  65.571  1.00  0.00    -0.168 C  
HETATM   23  C   UNL     1      -6.034   7.912  70.744  1.00  0.00    -0.033 C  
HETATM   24  C   UNL     1      -8.746   7.636  64.685  1.00  0.00     0.315 C  
HETATM   25  O   UNL     1      -6.373   7.572  64.078  1.00  0.00    -0.048 OA 
HETATM   26  H   UNL     1      -5.523   5.862  69.480  1.00  0.00     0.000 HD 
HETATM   27  O   UNL     1      -5.458   6.870  71.034  1.00  0.00    -0.026 OA 
HETATM   28  H   UNL     1      -6.600   7.870  63.204  1.00  0.00     0.000 HD 
BRANCH  19  29
HETATM   29  C   UNL     1      -7.614   5.600  63.696  1.00  0.00    -0.081 C  
HETATM   30  O   UNL     1      -7.368   5.652  62.486  1.00  0.00    -0.044 OA 
BRANCH  29  31
HETATM   31  C   UNL     1      -8.128   4.301  64.313  1.00  0.00    -0.092 C  
HETATM   32  O   UNL     1      -7.238   3.225  64.043  1.00  0.00    -0.055 OA 
HETATM   33  H   UNL     1      -7.558   2.417  64.427  1.00  0.00     0.000 HD 
ENDBRANCH  29  31
ENDBRANCH  19  29
BRANCH  22  34
HETATM   34  O   UNL     1      -7.603   9.757  65.061  1.00  0.00    -0.115 OA 
BRANCH  34  35
HETATM   35  C   UNL     1      -7.930  10.995  64.466  1.00  0.00     0.465 C  
HETATM   36  C   UNL     1      -8.864  11.006  63.253  1.00  0.00    -0.115 C  
HETATM   37  C   UNL     1     -10.307  10.605  63.596  1.00  0.00    -0.065 C  
HETATM   38  C   UNL     1     -10.807  11.285  64.891  1.00  0.00    -0.229 C  
HETATM   39  N   UNL     1     -11.207  10.925  62.464  1.00  0.00     0.195 NA 
HETATM   40  C   UNL     1      -9.734  11.170  65.982  1.00  0.00    -0.226 C  
HETATM   41  H2  UNL     1     -10.891  10.500  61.593  1.00  0.00     0.000 HD 
HETATM   42  O   UNL     1     -11.115  12.661  64.624  1.00  0.00    -0.291 OA 
HETATM   43  H1  UNL     1     -12.165  10.658  62.692  1.00  0.00     0.000 HD 
HETATM   44  C   UNL     1     -10.123  11.831  67.292  1.00  0.00    -0.211 C  
HETATM   45  H   UNL     1     -11.422  13.079  65.420  1.00  0.00     0.000 HD 
HETATM   46  O   UNL     1      -8.506  11.767  65.524  1.00  0.00     0.230 OA 
ENDBRANCH  34  35
ENDBRANCH  22  34
ENDBRANCH   2   3
TORSDOF 5
ENDMDL
MODEL      168
REMARK 921   NORMALIZED FREE ENERGY PREDICTED BY IDOCK:   35.60 KCAL/MOL
REMARK 922        TOTAL FREE ENERGY PREDICTED BY IDOCK:   44.72 KCAL/MOL
REMARK 923 INTER-LIGAND FREE ENERGY PREDICTED BY IDOCK:   30.37 KCAL/MOL
REMARK 924 INTRA-LIGAND FREE ENERGY PREDICTED BY IDOCK:   14.35 KCAL/MOL
REMARK 927      BINDING AFFINITY PREDICTED BY RF-SCORE:    0.00 PKD
ROOT
HETATM    1  C   UNL     1     -14.201  15.231  70.474  1.00  0.00     0.690 C  
HETATM    2  O   UNL     1     -14.030  15.022  71.871  1.00  0.00    -0.405 OA 
ENDROOT
BRANCH   2   3
HETATM    3  C   UNL     1     -13.172  14.025  72.255  1.00  0.00    -0.464 A  
HETATM    4  C   UNL     1     -12.899  13.758  73.605  1.00  0.00     1.629 A  
HETATM    5  C   UNL     1     -11.993  12.765  73.964  1.00  0.00     9.917 A  
HETATM    6  C   UNL     1     -11.342  12.038  72.976  1.00  0.00    10.958 A  
HETATM    7  C   UNL     1     -11.597  12.300  71.619  1.00  0.00     2.670 A  
HETATM    8  C   UNL     1     -12.509  13.287  71.248  1.00  0.00    -0.351 A  
HETATM    9  C   UNL     1     -12.764  13.505  69.802  1.00  0.00     0.223 C  
HETATM   10  O   UNL     1     -13.529  14.375  69.394  1.00  0.00     1.465 OA 
HETATM   11  C   UNL     1     -12.089  12.664  68.783  1.00  0.00    -0.155 A  
HETATM   12  C   UNL     1     -12.383  12.839  67.413  1.00  0.00     0.317 A  
HETATM   13  O   UNL     1     -13.322  13.752  66.990  1.00  0.00     0.904 OA 
HETATM   14  C   UNL     1     -11.706  12.120  66.407  1.00  0.00    -0.394 A  
HETATM   15  H   UNL     1     -13.520  13.869  66.068  1.00  0.00     0.000 HD 
HETATM   16  C   UNL     1     -10.692  11.219  66.789  1.00  0.00    -0.323 A  
HETATM   17  C   UNL     1     -10.449  11.001  68.164  1.00  0.00    -0.189 A  
HETATM   18  C   UNL     1      -9.868  10.488  65.745  1.00  0.00    -0.295 C  
HETATM   19  C   UNL     1      -9.942  11.063  64.319  1.00  0.00    -0.317 C  
HETATM   20  C   UNL     1     -11.137  11.722  69.163  1.00  0.00    -0.294 A  
HETATM   21  O   UNL     1      -9.497  10.097  68.550  1.00  0.00    -0.150 OA 
HETATM   22  C   UNL     1     -11.939  12.479  64.944  1.00  0.00    -0.412 C  
HETATM   23  C   UNL     1     -10.876  11.499  70.609  1.00  0.00     1.742 C  
HETATM   24  C   UNL     1     -11.392  11.421  63.985  1.00  0.00    -0.291 C  
HETATM   25  O   UNL     1      -9.078  12.195  64.209  1.00  0.00    -0.182 OA 
HETATM   26  H   UNL     1      -9.334   9.950  69.474  1.00  0.00     0.000 HD 
HETATM   27  O   UNL     1     -10.088  10.653  71.015  1.00  0.00     1.270 OA 
HETATM   28  H   UNL     1      -9.124  12.551  63.329  1.00  0.00     0.000 HD 
BRANCH  19  29
HETATM   29  C   UNL     1      -9.386  10.030  63.319  1.00  0.00    -0.256 C  
HETATM   30  O   UNL     1     -10.027   9.645  62.336  1.00  0.00     0.463 OA 
BRANCH  29  31
HETATM   31  C   UNL     1      -7.998   9.455  63.596  1.00  0.00    -0.142 C  
HETATM   32  O   UNL     1      -7.089  10.482  63.973  1.00  0.00    -0.329 OA 
HETATM   33  H   UNL     1      -6.227  10.124  64.145  1.00  0.00     0.000 HD 
ENDBRANCH  29  31
ENDBRANCH  19  29
BRANCH  22  34
HETATM   34  O   UNL     1     -11.222  13.696  64.846  1.00  0.00    -0.317 OA 
BRANCH  34  35
HETATM   35  C   UNL     1     -10.186  14.044  65.741  1.00  0.00    -0.328 C  
HETATM   36  C   UNL     1      -9.179  15.119  65.322  1.00  0.00     0.701 C  
HETATM   37  C   UNL     1      -9.795  16.523  65.232  1.00  0.00     0.356 C  
HETATM   38  C   UNL     1     -10.713  16.833  66.436  1.00  0.00    -0.105 C  
HETATM   39  N   UNL     1      -8.725  17.542  65.122  1.00  0.00     1.475 NA 
HETATM   40  C   UNL     1     -11.642  15.640  66.698  1.00  0.00     0.260 C  
HETATM   41  H2  UNL     1      -8.096  17.351  64.343  1.00  0.00     0.000 HD 
HETATM   42  O   UNL     1      -9.912  17.116  67.592  1.00  0.00    -0.266 OA 
HETATM   43  H1  UNL     1      -9.134  18.474  65.062  1.00  0.00     0.000 HD 
HETATM   44  C   UNL     1     -12.571  15.839  67.882  1.00  0.00     1.584 C  
HETATM   45  H   UNL     1     -10.476  17.307  68.332  1.00  0.00     0.000 HD 
HETATM   46  O   UNL     1     -10.859  14.455  66.934  1.00  0.00    -0.292 OA 
ENDBRANCH  34  35
ENDBRANCH  22  34
ENDBRANCH   2   3
TORSDOF 5
ENDMDL
MODEL      169
REMARK 921   NORMALIZED FREE ENERGY PREDICTED BY IDOCK:   36.25 KCAL/MOL
REMARK 922        TOTAL FREE ENERGY PREDICTED BY IDOCK:   45.57 KCAL/MOL
REMARK 923 INTER-LIGAND FREE ENERGY PREDICTED BY IDOCK:   36.53 KCAL/MOL
REMARK 924 INTRA-LIGAND FREE ENERGY PREDICTED BY IDOCK:    9.04 KCAL/MOL
REMARK 927      BINDING AFFINITY PREDICTED BY RF-SCORE:    0.00 PKD
ROOT
HETATM    1  C   UNL     1      -6.413  20.573  69.267  1.00  0.00    -0.130 C  
HETATM    2  O   UNL     1      -6.463  21.105  70.586  1.00  0.00     0.739 OA 
ENDROOT
BRANCH   2   3
HETATM    3  C   UNL     1      -7.571  20.813  71.337  1.00  0.00     2.586 A  
HETATM    4  C   UNL     1      -7.760  21.344  72.622  1.00  0.00     6.373 A  
HETATM    5  C   UNL     1      -8.876  20.999  73.378  1.00  0.00     7.804 A  
HETATM    6  C   UNL     1      -9.808  20.109  72.860  1.00  0.00     3.603 A  
HETATM    7  C   UNL     1      -9.629  19.560  71.579  1.00  0.00     3.157 A  
HETATM    8  C   UNL     1      -8.518  19.905  70.810  1.00  0.00     1.919 A  
HETATM    9  C   UNL     1      -8.390  19.320  69.452  1.00  0.00     0.114 C  
HETATM   10  O   UNL     1      -7.427  19.551  68.726  1.00  0.00    -0.337 OA 
HETATM   11  C   UNL     1      -9.440  18.419  68.918  1.00  0.00    -0.250 A  
HETATM   12  C   UNL     1      -9.339  17.915  67.602  1.00  0.00    -0.258 A  
HETATM   13  O   UNL     1      -8.301  18.272  66.773  1.00  0.00    -0.239 OA 
HETATM   14  C   UNL     1     -10.271  16.992  67.083  1.00  0.00    -0.306 A  
HETATM   15  H   UNL     1      -8.233  17.933  65.888  1.00  0.00     0.000 HD 
HETATM   16  C   UNL     1     -11.316  16.549  67.918  1.00  0.00    -0.049 A  
HETATM   17  C   UNL     1     -11.449  17.107  69.209  1.00  0.00     0.870 A  
HETATM   18  C   UNL     1     -12.293  15.488  67.443  1.00  0.00     1.048 C  
HETATM   19  C   UNL     1     -11.851  14.685  66.207  1.00  0.00    -0.291 C  
HETATM   20  C   UNL     1     -10.515  18.036  69.716  1.00  0.00     0.752 A  
HETATM   21  O   UNL     1     -12.486  16.719  70.014  1.00  0.00     0.591 OA 
HETATM   22  C   UNL     1     -10.011  16.349  65.726  1.00  0.00    -0.302 C  
HETATM   23  C   UNL     1     -10.649  18.617  71.077  1.00  0.00     2.732 C  
HETATM   24  C   UNL     1     -11.242  15.633  65.170  1.00  0.00    -0.286 C  
HETATM   25  O   UNL     1     -10.930  13.665  66.596  1.00  0.00    -0.289 OA 
HETATM   26  H   UNL     1     -12.575  17.095  70.881  1.00  0.00     0.000 HD 
HETATM   27  O   UNL     1     -11.594  18.361  71.814  1.00  0.00     3.571 OA 
HETATM   28  H   UNL     1     -10.657  13.169  65.833  1.00  0.00     0.000 HD 
BRANCH  19  29
HETATM   29  C   UNL     1     -13.063  13.934  65.621  1.00  0.00    -0.157 C  
HETATM   30  O   UNL     1     -14.228  14.225  65.911  1.00  0.00     1.777 OA 
BRANCH  29  31
HETATM   31  C   UNL     1     -12.783  12.771  64.672  1.00  0.00    -0.362 C  
HETATM   32  O   UNL     1     -11.947  13.182  63.598  1.00  0.00    -0.484 OA 
HETATM   33  H   UNL     1     -11.772  12.459  63.009  1.00  0.00     0.000 HD 
ENDBRANCH  29  31
ENDBRANCH  19  29
BRANCH  22  34
HETATM   34  O   UNL     1      -8.977  15.438  66.051  1.00  0.00    -0.310 OA 
BRANCH  34  35
HETATM   35  C   UNL     1      -9.224  14.201  66.687  1.00  0.00    -0.252 C  
HETATM   36  C   UNL     1      -8.789  12.911  65.985  1.00  0.00     0.394 C  
HETATM   37  C   UNL     1      -7.264  12.751  65.903  1.00  0.00     3.286 C  
HETATM   38  C   UNL     1      -6.569  13.109  67.237  1.00  0.00     0.057 C  
HETATM   39  N   UNL     1      -6.918  11.369  65.495  1.00  0.00    -0.039 NA 
HETATM   40  C   UNL     1      -7.141  14.425  67.780  1.00  0.00    -0.176 C  
HETATM   41  H2  UNL     1      -7.377  11.103  64.624  1.00  0.00     0.000 HD 
HETATM   42  O   UNL     1      -6.762  12.045  68.180  1.00  0.00    -0.057 OA 
HETATM   43  H1  UNL     1      -5.905  11.263  65.441  1.00  0.00     0.000 HD 
HETATM   44  C   UNL     1      -6.536  14.852  69.105  1.00  0.00    -0.112 C  
HETATM   45  H   UNL     1      -6.335  12.264  69.000  1.00  0.00     0.000 HD 
HETATM   46  O   UNL     1      -8.565  14.305  67.953  1.00  0.00    -0.153 OA 
ENDBRANCH  34  35
ENDBRANCH  22  34
ENDBRANCH   2   3
TORSDOF 5
ENDMDL
MODEL      170
REMARK 921   NORMALIZED FREE ENERGY PREDICTED BY IDOCK:   37.05 KCAL/MOL
REMARK 922        TOTAL FREE ENERGY PREDICTED BY IDOCK:   46.60 KCAL/MOL
REMARK 923 INTER-LIGAND FREE ENERGY PREDICTED BY IDOCK:    7.48 KCAL/MOL
REMARK 924 INTRA-LIGAND FREE ENERGY PREDICTED BY IDOCK:   39.12 KCAL/MOL
REMARK 927      BINDING AFFINITY PREDICTED BY RF-SCORE:    0.00 PKD
ROOT
HETATM    1  C   UNL     1      -9.844   2.406  71.585  1.00  0.00    -0.146 C  
HETATM    2  O   UNL     1     -11.215   2.771  71.463  1.00  0.00     1.891 OA 
ENDROOT
BRANCH   2   3
HETATM    3  C   UNL     1     -11.630   3.882  72.149  1.00  0.00     1.658 A  
HETATM    4  C   UNL     1     -12.522   3.799  73.229  1.00  0.00     0.769 A  
HETATM    5  C   UNL     1     -12.958   4.948  73.883  1.00  0.00     5.209 A  
HETATM    6  C   UNL     1     -12.515   6.192  73.453  1.00  0.00     2.135 A  
HETATM    7  C   UNL     1     -11.629   6.293  72.367  1.00  0.00    -0.325 A  
HETATM    8  C   UNL     1     -11.181   5.148  71.710  1.00  0.00     0.090 A  
HETATM    9  C   UNL     1     -10.224   5.308  70.587  1.00  0.00    -0.257 C  
HETATM   10  O   UNL     1      -9.806   4.351  69.939  1.00  0.00    -0.210 OA 
HETATM   11  C   UNL     1      -9.733   6.653  70.201  1.00  0.00    -0.174 A  
HETATM   12  C   UNL     1      -8.777   6.790  69.170  1.00  0.00    -0.131 A  
HETATM   13  O   UNL     1      -8.248   5.692  68.529  1.00  0.00    -0.105 OA 
HETATM   14  C   UNL     1      -8.345   8.053  68.716  1.00  0.00    -0.127 A  
HETATM   15  H   UNL     1      -7.606   5.784  67.836  1.00  0.00     0.000 HD 
HETATM   16  C   UNL     1      -8.906   9.206  69.299  1.00  0.00    -0.144 A  
HETATM   17  C   UNL     1      -9.812   9.063  70.373  1.00  0.00    -0.202 A  
HETATM   18  C   UNL     1      -8.547  10.589  68.786  1.00  0.00    -0.146 C  
HETATM   19  C   UNL     1      -7.872  10.630  67.403  1.00  0.00    -0.110 C  
HETATM   20  C   UNL     1     -10.233   7.793  70.825  1.00  0.00    -0.200 A  
HETATM   21  O   UNL     1     -10.331  10.175  70.978  1.00  0.00    -0.238 OA 
HETATM   22  C   UNL     1      -7.450   8.140  67.484  1.00  0.00    -0.094 C  
HETATM   23  C   UNL     1     -11.192   7.641  71.950  1.00  0.00    -0.257 C  
HETATM   24  C   UNL     1      -6.820   9.522  67.313  1.00  0.00    -0.084 C  
HETATM   25  O   UNL     1      -8.860  10.505  66.379  1.00  0.00    -0.147 OA 
HETATM   26  H   UNL     1     -10.939  10.078  71.701  1.00  0.00     0.000 HD 
HETATM   27  O   UNL     1     -11.634   8.598  72.575  1.00  0.00    -0.356 OA 
HETATM   28  H   UNL     1      -8.444  10.530  65.525  1.00  0.00     0.000 HD 
BRANCH  19  29
HETATM   29  C   UNL     1      -7.233  12.015  67.184  1.00  0.00    -0.131 C  
HETATM   30  O   UNL     1      -7.904  13.030  66.966  1.00  0.00    -0.103 OA 
BRANCH  29  31
HETATM   31  C   UNL     1      -5.708  12.103  67.212  1.00  0.00    -0.141 C  
HETATM   32  O   UNL     1      -5.278  13.211  67.992  1.00  0.00    -0.088 OA 
HETATM   33  H   UNL     1      -4.330  13.265  68.010  1.00  0.00     0.000 HD 
ENDBRANCH  29  31
ENDBRANCH  19  29
BRANCH  22  34
HETATM   34  O   UNL     1      -8.379   7.857  66.454  1.00  0.00    -0.118 OA 
BRANCH  34  35
HETATM   35  C   UNL     1      -8.725   8.798  65.459  1.00  0.00    -0.185 C  
HETATM   36  C   UNL     1      -8.407  10.277  65.701  1.00  0.00    -0.159 C  
HETATM   37  C   UNL     1      -6.901  10.580  65.696  1.00  0.00    -0.112 C  
HETATM   38  C   UNL     1      -6.168   9.871  64.535  1.00  0.00    -0.118 C  
HETATM   39  N   UNL     1      -6.677  12.043  65.632  1.00  0.00     0.890 NA 
HETATM   40  C   UNL     1      -6.622   8.408  64.455  1.00  0.00    -0.066 C  
HETATM   41  H2  UNL     1      -7.163  12.537  66.380  1.00  0.00     0.000 HD 
HETATM   42  O   UNL     1      -6.443  10.555  63.304  1.00  0.00    -0.283 OA 
HETATM   43  H1  UNL     1      -5.677  12.245  65.629  1.00  0.00     0.000 HD 
HETATM   44  C   UNL     1      -5.973   7.628  63.326  1.00  0.00    -0.054 C  
HETATM   45  H   UNL     1      -5.993  10.119  62.590  1.00  0.00     0.000 HD 
HETATM   46  O   UNL     1      -8.050   8.348  64.282  1.00  0.00    -0.150 OA 
ENDBRANCH  34  35
ENDBRANCH  22  34
ENDBRANCH   2   3
TORSDOF 5
ENDMDL
MODEL      171
REMARK 921   NORMALIZED FREE ENERGY PREDICTED BY IDOCK:   42.69 KCAL/MOL
REMARK 922        TOTAL FREE ENERGY PREDICTED BY IDOCK:   53.88 KCAL/MOL
REMARK 923 INTER-LIGAND FREE ENERGY PREDICTED BY IDOCK:   45.70 KCAL/MOL
REMARK 924 INTRA-LIGAND FREE ENERGY PREDICTED BY IDOCK:    8.19 KCAL/MOL
REMARK 927      BINDING AFFINITY PREDICTED BY RF-SCORE:    0.00 PKD
ROOT
HETATM    1  C   UNL     1     -10.953  20.313  71.456  1.00  0.00     6.026 C  
HETATM    2  O   UNL     1     -10.356  19.248  70.724  1.00  0.00     1.146 OA 
ENDROOT
BRANCH   2   3
HETATM    3  C   UNL     1     -10.863  18.983  69.479  1.00  0.00     1.646 A  
HETATM    4  C   UNL     1     -11.572  19.945  68.745  1.00  0.00     2.892 A  
HETATM    5  C   UNL     1     -12.110  19.636  67.499  1.00  0.00     2.577 A  
HETATM    6  C   UNL     1     -11.952  18.357  66.981  1.00  0.00     2.922 A  
HETATM    7  C   UNL     1     -11.253  17.379  67.708  1.00  0.00     0.167 A  
HETATM    8  C   UNL     1     -10.704  17.681  68.954  1.00  0.00     0.000 A  
HETATM    9  C   UNL     1      -9.949  16.620  69.668  1.00  0.00    -0.005 C  
HETATM   10  O   UNL     1      -9.463  16.798  70.781  1.00  0.00     2.568 OA 
HETATM   11  C   UNL     1      -9.757  15.286  69.050  1.00  0.00    -0.234 A  
HETATM   12  C   UNL     1      -8.988  14.303  69.711  1.00  0.00     0.937 A  
HETATM   13  O   UNL     1      -8.366  14.563  70.911  1.00  0.00     1.496 OA 
HETATM   14  C   UNL     1      -8.848  12.997  69.199  1.00  0.00     0.692 A  
HETATM   15  H   UNL     1      -7.849  13.902  71.355  1.00  0.00     0.000 HD 
HETATM   16  C   UNL     1      -9.517  12.666  68.004  1.00  0.00    -0.209 A  
HETATM   17  C   UNL     1     -10.231  13.671  67.315  1.00  0.00    -0.246 A  
HETATM   18  C   UNL     1      -9.477  11.250  67.457  1.00  0.00    -0.177 C  
HETATM   19  C   UNL     1      -9.012  10.169  68.449  1.00  0.00    -0.123 C  
HETATM   20  C   UNL     1     -10.359  14.978  67.832  1.00  0.00    -0.241 A  
HETATM   21  O   UNL     1     -10.850  13.375  66.131  1.00  0.00    -0.279 OA 
HETATM   22  C   UNL     1      -8.156  11.932  70.043  1.00  0.00     2.402 C  
HETATM   23  C   UNL     1     -11.117  16.034  67.112  1.00  0.00    -0.104 C  
HETATM   24  C   UNL     1      -7.804  10.681  69.238  1.00  0.00    -0.140 C  
HETATM   25  O   UNL     1     -10.092   9.806  69.311  1.00  0.00    -0.177 OA 
HETATM   26  H   UNL     1     -11.329  14.051  65.667  1.00  0.00     0.000 HD 
HETATM   27  O   UNL     1     -11.631  15.847  66.016  1.00  0.00     0.230 OA 
HETATM   28  H   UNL     1      -9.805   9.138  69.923  1.00  0.00     0.000 HD 
BRANCH  19  29
HETATM   29  C   UNL     1      -8.660   8.881  67.677  1.00  0.00    -0.124 C  
HETATM   30  O   UNL     1      -9.363   8.442  66.761  1.00  0.00    -0.160 OA 
BRANCH  29  31
HETATM   31  C   UNL     1      -7.404   8.124  68.103  1.00  0.00    -0.096 C  
HETATM   32  O   UNL     1      -6.234   8.881  67.820  1.00  0.00    -0.054 OA 
HETATM   33  H   UNL     1      -5.453   8.410  68.086  1.00  0.00     0.000 HD 
ENDBRANCH  29  31
ENDBRANCH  19  29
BRANCH  22  34
HETATM   34  O   UNL     1      -9.151  11.668  71.014  1.00  0.00     6.198 OA 
BRANCH  34  35
HETATM   35  C   UNL     1     -10.314  10.918  70.729  1.00  0.00     1.853 C  
HETATM   36  C   UNL     1     -11.101  10.307  71.892  1.00  0.00     1.603 C  
HETATM   37  C   UNL     1     -11.797  11.358  72.771  1.00  0.00     5.888 C  
HETATM   38  C   UNL     1     -12.495  12.450  71.929  1.00  0.00     0.279 C  
HETATM   39  N   UNL     1     -12.769  10.702  73.676  1.00  0.00     5.935 NA 
HETATM   40  C   UNL     1     -11.551  12.929  70.819  1.00  0.00     0.710 C  
HETATM   41  H2  UNL     1     -12.335   9.967  74.233  1.00  0.00     0.000 HD 
HETATM   42  O   UNL     1     -13.708  11.923  71.370  1.00  0.00     0.336 OA 
HETATM   43  H1  UNL     1     -13.230  11.400  74.259  1.00  0.00     0.000 HD 
HETATM   44  C   UNL     1     -12.157  13.991  69.919  1.00  0.00    -0.406 C  
HETATM   45  H   UNL     1     -14.138  12.594  70.852  1.00  0.00     0.000 HD 
HETATM   46  O   UNL     1     -11.155  11.814  69.998  1.00  0.00    -0.035 OA 
ENDBRANCH  34  35
ENDBRANCH  22  34
ENDBRANCH   2   3
TORSDOF 5
ENDMDL
MODEL      172
REMARK 921   NORMALIZED FREE ENERGY PREDICTED BY IDOCK:   44.19 KCAL/MOL
REMARK 922        TOTAL FREE ENERGY PREDICTED BY IDOCK:   55.82 KCAL/MOL
REMARK 923 INTER-LIGAND FREE ENERGY PREDICTED BY IDOCK:   46.32 KCAL/MOL
REMARK 924 INTRA-LIGAND FREE ENERGY PREDICTED BY IDOCK:    9.50 KCAL/MOL
REMARK 927      BINDING AFFINITY PREDICTED BY RF-SCORE:    0.00 PKD
ROOT
HETATM    1  C   UNL     1      -8.498  19.921  63.744  1.00  0.00     7.092 C  
HETATM    2  O   UNL     1      -8.979  19.259  64.909  1.00  0.00     1.558 OA 
ENDROOT
BRANCH   2   3
HETATM    3  C   UNL     1     -10.277  18.823  64.891  1.00  0.00     2.421 A  
HETATM    4  C   UNL     1     -11.344  19.679  64.578  1.00  0.00     3.208 A  
HETATM    5  C   UNL     1     -12.658  19.219  64.606  1.00  0.00    11.314 A  
HETATM    6  C   UNL     1     -12.916  17.901  64.960  1.00  0.00    11.718 A  
HETATM    7  C   UNL     1     -11.860  17.034  65.285  1.00  0.00     2.034 A  
HETATM    8  C   UNL     1     -10.540  17.483  65.253  1.00  0.00     0.122 A  
HETATM    9  C   UNL     1      -9.459  16.518  65.577  1.00  0.00     0.237 C  
HETATM   10  O   UNL     1      -8.275  16.844  65.601  1.00  0.00    -0.331 OA 
HETATM   11  C   UNL     1      -9.779  15.105  65.892  1.00  0.00    -0.385 A  
HETATM   12  C   UNL     1      -8.740  14.182  66.141  1.00  0.00     0.517 A  
HETATM   13  O   UNL     1      -7.416  14.549  66.059  1.00  0.00     1.441 OA 
HETATM   14  C   UNL     1      -9.001  12.850  66.524  1.00  0.00    -0.086 A  
HETATM   15  H   UNL     1      -6.718  13.928  66.227  1.00  0.00     0.000 HD 
HETATM   16  C   UNL     1     -10.342  12.445  66.682  1.00  0.00    -0.245 A  
HETATM   17  C   UNL     1     -11.376  13.354  66.368  1.00  0.00    -0.313 A  
HETATM   18  C   UNL     1     -10.678  11.051  67.181  1.00  0.00    -0.313 C  
HETATM   19  C   UNL     1      -9.520  10.287  67.846  1.00  0.00    -0.141 C  
HETATM   20  C   UNL     1     -11.104  14.683  65.979  1.00  0.00    -0.332 A  
HETATM   21  O   UNL     1     -12.683  12.961  66.474  1.00  0.00    -0.136 OA 
HETATM   22  C   UNL     1      -7.845  11.953  66.952  1.00  0.00    -0.120 C  
HETATM   23  C   UNL     1     -12.192  15.643  65.656  1.00  0.00     0.986 C  
HETATM   24  C   UNL     1      -8.242  10.479  67.027  1.00  0.00    -0.125 C  
HETATM   25  O   UNL     1      -9.357  10.731  69.194  1.00  0.00    -0.287 OA 
HETATM   26  H   UNL     1     -13.378  13.572  66.262  1.00  0.00     0.000 HD 
HETATM   27  O   UNL     1     -13.375  15.327  65.665  1.00  0.00     1.028 OA 
HETATM   28  H   UNL     1      -8.642  10.259  69.604  1.00  0.00     0.000 HD 
BRANCH  19  29
HETATM   29  C   UNL     1      -9.886   8.793  67.954  1.00  0.00    -0.169 C  
HETATM   30  O   UNL     1      -9.433   8.060  68.840  1.00  0.00    -0.150 OA 
BRANCH  29  31
HETATM   31  C   UNL     1     -10.821   8.216  66.893  1.00  0.00     0.063 C  
HETATM   32  O   UNL     1     -10.652   6.809  66.779  1.00  0.00    -0.393 OA 
HETATM   33  H   UNL     1     -11.234   6.450  66.120  1.00  0.00     0.000 HD 
ENDBRANCH  29  31
ENDBRANCH  19  29
BRANCH  22  34
HETATM   34  O   UNL     1      -7.551  12.482  68.232  1.00  0.00    -0.113 OA 
BRANCH  34  35
HETATM   35  C   UNL     1      -6.335  13.139  68.524  1.00  0.00    -0.082 C  
HETATM   36  C   UNL     1      -5.482  13.663  67.364  1.00  0.00     0.250 C  
HETATM   37  C   UNL     1      -6.129  14.841  66.621  1.00  0.00     2.470 C  
HETATM   38  C   UNL     1      -6.732  15.881  67.593  1.00  0.00    -0.170 C  
HETATM   39  N   UNL     1      -5.140  15.484  65.726  1.00  0.00     3.905 NA 
HETATM   40  C   UNL     1      -7.544  15.163  68.679  1.00  0.00    -0.127 C  
HETATM   41  H2  UNL     1      -4.716  14.815  65.083  1.00  0.00     0.000 HD 
HETATM   42  O   UNL     1      -5.678  16.659  68.179  1.00  0.00    -0.110 OA 
HETATM   43  H1  UNL     1      -5.570  16.266  65.232  1.00  0.00     0.000 HD 
HETATM   44  C   UNL     1      -8.160  16.102  69.701  1.00  0.00     0.204 C  
HETATM   45  H   UNL     1      -6.049  17.299  68.777  1.00  0.00     0.000 HD 
HETATM   46  O   UNL     1      -6.704  14.226  69.378  1.00  0.00    -0.120 OA 
ENDBRANCH  34  35
ENDBRANCH  22  34
ENDBRANCH   2   3
TORSDOF 5
ENDMDL
MODEL      173
REMARK 921   NORMALIZED FREE ENERGY PREDICTED BY IDOCK:   45.95 KCAL/MOL
REMARK 922        TOTAL FREE ENERGY PREDICTED BY IDOCK:   58.10 KCAL/MOL
REMARK 923 INTER-LIGAND FREE ENERGY PREDICTED BY IDOCK:   45.93 KCAL/MOL
REMARK 924 INTRA-LIGAND FREE ENERGY PREDICTED BY IDOCK:   12.17 KCAL/MOL
REMARK 927      BINDING AFFINITY PREDICTED BY RF-SCORE:    0.00 PKD
ROOT
HETATM    1  C   UNL     1      -8.754  20.255  68.697  1.00  0.00     0.322 C  
HETATM    2  O   UNL     1      -9.260  19.063  68.108  1.00  0.00    -0.301 OA 
ENDROOT
BRANCH   2   3
HETATM    3  C   UNL     1     -10.610  18.846  68.192  1.00  0.00    -0.235 A  
HETATM    4  C   UNL     1     -11.538  19.895  68.106  1.00  0.00     1.727 A  
HETATM    5  C   UNL     1     -12.902  19.651  68.235  1.00  0.00     6.948 A  
HETATM    6  C   UNL     1     -13.350  18.356  68.464  1.00  0.00    11.449 A  
HETATM    7  C   UNL     1     -12.433  17.296  68.562  1.00  0.00     3.549 A  
HETATM    8  C   UNL     1     -11.065  17.529  68.427  1.00  0.00     0.103 A  
HETATM    9  C   UNL     1     -10.141  16.370  68.511  1.00  0.00    -0.248 C  
HETATM   10  O   UNL     1      -8.921  16.497  68.432  1.00  0.00    -0.204 OA 
HETATM   11  C   UNL     1     -10.669  14.997  68.698  1.00  0.00    -0.244 A  
HETATM   12  C   UNL     1      -9.785  13.895  68.717  1.00  0.00    -0.093 A  
HETATM   13  O   UNL     1      -8.432  14.054  68.523  1.00  0.00    -0.160 OA 
HETATM   14  C   UNL     1     -10.235  12.583  68.974  1.00  0.00     0.096 A  
HETATM   15  H   UNL     1      -7.839  13.313  68.535  1.00  0.00     0.000 HD 
HETATM   16  C   UNL     1     -11.604  12.380  69.240  1.00  0.00    -0.379 A  
HETATM   17  C   UNL     1     -12.491  13.476  69.155  1.00  0.00     0.162 A  
HETATM   18  C   UNL     1     -12.127  11.005  69.613  1.00  0.00    -0.411 C  
HETATM   19  C   UNL     1     -11.059   9.984  70.046  1.00  0.00    -0.295 C  
HETATM   20  C   UNL     1     -12.031  14.785  68.890  1.00  0.00    -0.298 A  
HETATM   21  O   UNL     1     -13.829  13.286  69.368  1.00  0.00     3.046 OA 
HETATM   22  C   UNL     1      -9.215  11.465  69.158  1.00  0.00     0.179 C  
HETATM   23  C   UNL     1     -12.963  15.940  68.809  1.00  0.00     1.967 C  
HETATM   24  C   UNL     1      -9.852  10.076  69.110  1.00  0.00    -0.213 C  
HETATM   25  O   UNL     1     -10.693  10.215  71.407  1.00  0.00    -0.078 OA 
HETATM   26  H   UNL     1     -14.425  14.023  69.310  1.00  0.00     0.000 HD 
HETATM   27  O   UNL     1     -14.177  15.818  68.920  1.00  0.00     4.662 OA 
HETATM   28  H   UNL     1     -10.033   9.585  71.675  1.00  0.00     0.000 HD 
BRANCH  19  29
HETATM   29  C   UNL     1     -11.666   8.567  70.025  1.00  0.00     0.308 C  
HETATM   30  O   UNL     1     -11.269   7.685  69.255  1.00  0.00     0.001 OA 
BRANCH  29  31
HETATM   31  C   UNL     1     -12.820   8.278  70.982  1.00  0.00     0.029 C  
HETATM   32  O   UNL     1     -12.399   8.393  72.335  1.00  0.00    -0.376 OA 
HETATM   33  H   UNL     1     -13.117   8.214  72.930  1.00  0.00     0.000 HD 
ENDBRANCH  29  31
ENDBRANCH  19  29
BRANCH  22  34
HETATM   34  O   UNL     1      -8.712  11.767  70.446  1.00  0.00     3.104 OA 
BRANCH  34  35
HETATM   35  C   UNL     1      -7.373  12.157  70.669  1.00  0.00     3.495 C  
HETATM   36  C   UNL     1      -6.422  12.246  69.472  1.00  0.00    -0.094 C  
HETATM   37  C   UNL     1      -6.766  13.391  68.509  1.00  0.00    -0.096 C  
HETATM   38  C   UNL     1      -7.098  14.702  69.258  1.00  0.00    -0.150 C  
HETATM   39  N   UNL     1      -5.652  13.608  67.557  1.00  0.00    -0.353 NA 
HETATM   40  C   UNL     1      -8.057  14.405  70.418  1.00  0.00     1.652 C  
HETATM   41  H2  UNL     1      -5.404  12.754  67.059  1.00  0.00     0.000 HD 
HETATM   42  O   UNL     1      -5.887  15.299  69.742  1.00  0.00    -0.115 OA 
HETATM   43  H1  UNL     1      -5.882  14.369  66.916  1.00  0.00     0.000 HD 
HETATM   44  C   UNL     1      -8.427  15.631  71.233  1.00  0.00     4.163 C  
HETATM   45  H   UNL     1      -6.090  16.105  70.203  1.00  0.00     0.000 HD 
HETATM   46  O   UNL     1      -7.467  13.435  71.304  1.00  0.00     3.312 OA 
ENDBRANCH  34  35
ENDBRANCH  22  34
ENDBRANCH   2   3
TORSDOF 5
ENDMDL
MODEL      174
REMARK 921   NORMALIZED FREE ENERGY PREDICTED BY IDOCK:   46.82 KCAL/MOL
REMARK 922        TOTAL FREE ENERGY PREDICTED BY IDOCK:   59.22 KCAL/MOL
REMARK 923 INTER-LIGAND FREE ENERGY PREDICTED BY IDOCK:   -1.17 KCAL/MOL
REMARK 924 INTRA-LIGAND FREE ENERGY PREDICTED BY IDOCK:   60.39 KCAL/MOL
REMARK 927      BINDING AFFINITY PREDICTED BY RF-SCORE:    0.00 PKD
ROOT
HETATM    1  C   UNL     1     -11.446  10.149  66.923  1.00  0.00     0.909 C  
HETATM    2  O   UNL     1     -10.999   9.147  67.829  1.00  0.00    -0.160 OA 
ENDROOT
BRANCH   2   3
HETATM    3  C   UNL     1      -9.764   9.321  68.397  1.00  0.00    -0.154 A  
HETATM    4  C   UNL     1      -9.158   8.326  69.177  1.00  0.00    -0.148 A  
HETATM    5  C   UNL     1      -7.920   8.545  69.775  1.00  0.00    -0.103 A  
HETATM    6  C   UNL     1      -7.283   9.768  69.606  1.00  0.00    -0.097 A  
HETATM    7  C   UNL     1      -7.881  10.779  68.835  1.00  0.00    -0.136 A  
HETATM    8  C   UNL     1      -9.118  10.566  68.227  1.00  0.00    -0.146 A  
HETATM    9  C   UNL     1      -9.694  11.656  67.399  1.00  0.00    -0.176 C  
HETATM   10  O   UNL     1     -10.791  11.558  66.856  1.00  0.00    -0.256 OA 
HETATM   11  C   UNL     1      -8.950  12.924  67.200  1.00  0.00    -0.219 A  
HETATM   12  C   UNL     1      -9.479  13.931  66.363  1.00  0.00    -0.250 A  
HETATM   13  O   UNL     1     -10.662  13.754  65.683  1.00  0.00    -0.277 OA 
HETATM   14  C   UNL     1      -8.846  15.182  66.210  1.00  0.00    -0.211 A  
HETATM   15  H   UNL     1     -11.018  14.431  65.120  1.00  0.00     0.000 HD 
HETATM   16  C   UNL     1      -7.665  15.433  66.936  1.00  0.00    -0.159 A  
HETATM   17  C   UNL     1      -7.107  14.398  67.719  1.00  0.00    -0.176 A  
HETATM   18  C   UNL     1      -6.993  16.794  66.881  1.00  0.00    -0.257 C  
HETATM   19  C   UNL     1      -7.859  17.939  66.326  1.00  0.00    -0.261 C  
HETATM   20  C   UNL     1      -7.744  13.147  67.860  1.00  0.00    -0.147 A  
HETATM   21  O   UNL     1      -5.936  14.613  68.395  1.00  0.00    -0.088 OA 
HETATM   22  C   UNL     1      -9.554  16.290  65.437  1.00  0.00     0.220 C  
HETATM   23  C   UNL     1      -7.162  12.061  68.691  1.00  0.00    -0.110 C  
HETATM   24  C   UNL     1      -8.623  17.452  65.093  1.00  0.00     2.637 C  
HETATM   25  O   UNL     1      -8.742  18.414  67.343  1.00  0.00    -0.257 OA 
HETATM   26  H   UNL     1      -5.561  13.917  68.921  1.00  0.00     0.000 HD 
HETATM   27  O   UNL     1      -6.083  12.171  69.260  1.00  0.00    -0.074 OA 
HETATM   28  H   UNL     1      -9.276  19.122  67.001  1.00  0.00     0.000 HD 
BRANCH  19  29
HETATM   29  C   UNL     1      -6.958  19.140  65.977  1.00  0.00    -0.256 C  
HETATM   30  O   UNL     1      -7.233  19.937  65.073  1.00  0.00    -0.335 OA 
BRANCH  29  31
HETATM   31  C   UNL     1      -5.667  19.311  66.775  1.00  0.00    -0.162 C  
HETATM   32  O   UNL     1      -5.878  20.141  67.910  1.00  0.00    -0.203 OA 
HETATM   33  H   UNL     1      -5.075  20.246  68.406  1.00  0.00     0.000 HD 
ENDBRANCH  29  31
ENDBRANCH  19  29
BRANCH  22  34
HETATM   34  O   UNL     1     -10.551  16.674  66.367  1.00  0.00    -0.284 OA 
BRANCH  34  35
HETATM   35  C   UNL     1     -10.514  16.289  67.726  1.00  0.00    -0.295 C  
HETATM   36  C   UNL     1      -9.358  15.411  68.213  1.00  0.00    -0.193 C  
HETATM   37  C   UNL     1      -8.005  16.137  68.213  1.00  0.00    -0.152 C  
HETATM   38  C   UNL     1      -8.111  17.566  68.793  1.00  0.00    -0.232 C  
HETATM   39  N   UNL     1      -7.003  15.347  68.966  1.00  0.00    -0.128 NA 
HETATM   40  C   UNL     1      -9.327  18.279  68.187  1.00  0.00    -0.296 C  
HETATM   41  H2  UNL     1      -6.924  14.394  68.612  1.00  0.00     0.000 HD 
HETATM   42  O   UNL     1      -8.223  17.498  70.222  1.00  0.00     2.222 OA 
HETATM   43  H1  UNL     1      -6.104  15.829  68.966  1.00  0.00     0.000 HD 
HETATM   44  C   UNL     1      -9.531  19.688  68.714  1.00  0.00    -0.402 C  
HETATM   45  H   UNL     1      -8.288  18.376  70.578  1.00  0.00     0.000 HD 
HETATM   46  O   UNL     1     -10.521  17.521  68.453  1.00  0.00    -0.360 OA 
ENDBRANCH  34  35
ENDBRANCH  22  34
ENDBRANCH   2   3
TORSDOF 5
ENDMDL
MODEL      175
REMARK 921   NORMALIZED FREE ENERGY PREDICTED BY IDOCK:   54.07 KCAL/MOL
REMARK 922        TOTAL FREE ENERGY PREDICTED BY IDOCK:   68.59 KCAL/MOL
REMARK 923 INTER-LIGAND FREE ENERGY PREDICTED BY IDOCK:   51.82 KCAL/MOL
REMARK 924 INTRA-LIGAND FREE ENERGY PREDICTED BY IDOCK:   16.77 KCAL/MOL
REMARK 927      BINDING AFFINITY PREDICTED BY RF-SCORE:    0.00 PKD
ROOT
HETATM    1  C   UNL     1     -11.795  10.922  73.966  1.00  0.00    16.648 C  
HETATM    2  O   UNL     1     -12.140  10.420  72.680  1.00  0.00     1.229 OA 
ENDROOT
BRANCH   2   3
HETATM    3  C   UNL     1     -11.138   9.846  71.942  1.00  0.00     0.704 A  
HETATM    4  C   UNL     1     -10.476   8.683  72.365  1.00  0.00    -0.307 A  
HETATM    5  C   UNL     1      -9.435   8.144  71.615  1.00  0.00    -0.233 A  
HETATM    6  C   UNL     1      -9.038   8.771  70.442  1.00  0.00    -0.198 A  
HETATM    7  C   UNL     1      -9.683   9.941  70.009  1.00  0.00    -0.274 A  
HETATM    8  C   UNL     1     -10.733  10.485  70.749  1.00  0.00     0.367 A  
HETATM    9  C   UNL     1     -11.400  11.707  70.234  1.00  0.00     0.130 C  
HETATM   10  O   UNL     1     -12.311  12.263  70.842  1.00  0.00    -0.376 OA 
HETATM   11  C   UNL     1     -10.980  12.308  68.945  1.00  0.00    -0.265 A  
HETATM   12  C   UNL     1     -11.661  13.436  68.434  1.00  0.00    -0.332 A  
HETATM   13  O   UNL     1     -12.745  13.977  69.085  1.00  0.00    -0.352 OA 
HETATM   14  C   UNL     1     -11.244  14.088  67.256  1.00  0.00    -0.328 A  
HETATM   15  H   UNL     1     -13.203  14.735  68.742  1.00  0.00     0.000 HD 
HETATM   16  C   UNL     1     -10.100  13.607  66.588  1.00  0.00    -0.277 A  
HETATM   17  C   UNL     1      -9.463  12.441  67.068  1.00  0.00    -0.211 A  
HETATM   18  C   UNL     1      -9.552  14.326  65.368  1.00  0.00     0.012 C  
HETATM   19  C   UNL     1     -10.067  15.761  65.157  1.00  0.00    -0.122 C  
HETATM   20  C   UNL     1      -9.893  11.791  68.245  1.00  0.00    -0.198 A  
HETATM   21  O   UNL     1      -8.378  11.937  66.404  1.00  0.00    -0.346 OA 
HETATM   22  C   UNL     1     -11.905  15.401  66.852  1.00  0.00     0.232 C  
HETATM   23  C   UNL     1      -9.219  10.569  68.755  1.00  0.00    -0.177 C  
HETATM   24  C   UNL     1     -11.575  15.808  65.416  1.00  0.00     0.219 C  
HETATM   25  O   UNL     1      -9.355  16.660  66.008  1.00  0.00    -0.381 OA 
HETATM   26  H   UNL     1      -7.950  11.152  66.727  1.00  0.00     0.000 HD 
HETATM   27  O   UNL     1      -8.289  10.033  68.165  1.00  0.00    -0.112 OA 
HETATM   28  H   UNL     1      -9.673  17.547  65.877  1.00  0.00     0.000 HD 
BRANCH  19  29
HETATM   29  C   UNL     1      -9.741  16.217  63.721  1.00  0.00     7.984 C  
HETATM   30  O   UNL     1      -9.479  15.421  62.813  1.00  0.00    12.475 OA 
BRANCH  29  31
HETATM   31  C   UNL     1      -9.717  17.719  63.445  1.00  0.00    15.826 C  
HETATM   32  O   UNL     1     -10.854  18.357  64.012  1.00  0.00     2.801 OA 
HETATM   33  H   UNL     1     -10.839  19.291  63.841  1.00  0.00     0.000 HD 
ENDBRANCH  29  31
ENDBRANCH  19  29
BRANCH  22  34
HETATM   34  O   UNL     1     -11.336  16.292  67.794  1.00  0.00    -0.227 OA 
BRANCH  34  35
HETATM   35  C   UNL     1     -10.270  15.923  68.643  1.00  0.00    -0.223 C  
HETATM   36  C   UNL     1      -9.148  15.045  68.080  1.00  0.00    -0.178 C  
HETATM   37  C   UNL     1      -8.283  15.766  67.036  1.00  0.00    -0.228 C  
HETATM   38  C   UNL     1      -7.916  17.202  67.474  1.00  0.00    -0.176 C  
HETATM   39  N   UNL     1      -7.057  14.981  66.761  1.00  0.00    -0.199 NA 
HETATM   40  C   UNL     1      -9.166  17.914  68.008  1.00  0.00    -0.267 C  
HETATM   41  H2  UNL     1      -7.271  14.023  66.483  1.00  0.00     0.000 HD 
HETATM   42  O   UNL     1      -6.893  17.152  68.478  1.00  0.00    -0.173 OA 
HETATM   43  H1  UNL     1      -6.483  15.459  66.066  1.00  0.00     0.000 HD 
HETATM   44  C   UNL     1      -8.903  19.330  68.488  1.00  0.00    -0.411 C  
HETATM   45  H   UNL     1      -6.667  18.034  68.748  1.00  0.00     0.000 HD 
HETATM   46  O   UNL     1      -9.725  17.163  69.103  1.00  0.00    -0.238 OA 
ENDBRANCH  34  35
ENDBRANCH  22  34
ENDBRANCH   2   3
TORSDOF 5
ENDMDL
MODEL      176
REMARK 921   NORMALIZED FREE ENERGY PREDICTED BY IDOCK:   54.21 KCAL/MOL
REMARK 922        TOTAL FREE ENERGY PREDICTED BY IDOCK:   68.78 KCAL/MOL
REMARK 923 INTER-LIGAND FREE ENERGY PREDICTED BY IDOCK:   69.45 KCAL/MOL
REMARK 924 INTRA-LIGAND FREE ENERGY PREDICTED BY IDOCK:   -0.67 KCAL/MOL
REMARK 927      BINDING AFFINITY PREDICTED BY RF-SCORE:    0.00 PKD
ROOT
HETATM    1  C   UNL     1      -8.884  20.676  68.316  1.00  0.00     0.445 C  
HETATM    2  O   UNL     1      -7.754  19.823  68.177  1.00  0.00    -0.298 OA 
ENDROOT
BRANCH   2   3
HETATM    3  C   UNL     1      -7.141  19.789  66.952  1.00  0.00    -0.213 A  
HETATM    4  C   UNL     1      -6.840  20.959  66.239  1.00  0.00    -0.192 A  
HETATM    5  C   UNL     1      -6.254  20.893  64.979  1.00  0.00    -0.276 A  
HETATM    6  C   UNL     1      -5.974  19.655  64.415  1.00  0.00    -0.310 A  
HETATM    7  C   UNL     1      -6.278  18.474  65.111  1.00  0.00    -0.247 A  
HETATM    8  C   UNL     1      -6.859  18.529  66.378  1.00  0.00    -0.245 A  
HETATM    9  C   UNL     1      -7.134  17.252  67.084  1.00  0.00    -0.173 C  
HETATM   10  O   UNL     1      -7.671  17.216  68.188  1.00  0.00    -0.190 OA 
HETATM   11  C   UNL     1      -6.765  15.955  66.467  1.00  0.00     0.783 A  
HETATM   12  C   UNL     1      -6.976  14.749  67.172  1.00  0.00     0.223 A  
HETATM   13  O   UNL     1      -7.485  14.744  68.451  1.00  0.00    -0.103 OA 
HETATM   14  C   UNL     1      -6.716  13.491  66.592  1.00  0.00     1.963 A  
HETATM   15  H   UNL     1      -7.627  13.933  68.925  1.00  0.00     0.000 HD 
HETATM   16  C   UNL     1      -6.254  13.445  65.262  1.00  0.00    11.014 A  
HETATM   17  C   UNL     1      -5.982  14.655  64.586  1.00  0.00    20.305 A  
HETATM   18  C   UNL     1      -6.046  12.116  64.557  1.00  0.00     5.684 C  
HETATM   19  C   UNL     1      -6.716  10.900  65.222  1.00  0.00     0.217 C  
HETATM   20  C   UNL     1      -6.240  15.910  65.178  1.00  0.00     8.741 A  
HETATM   21  O   UNL     1      -5.491  14.625  63.309  1.00  0.00    14.099 OA 
HETATM   22  C   UNL     1      -7.131  12.225  67.333  1.00  0.00    -0.151 C  
HETATM   23  C   UNL     1      -5.962  17.184  64.464  1.00  0.00     4.272 C  
HETATM   24  C   UNL     1      -6.505  10.964  66.737  1.00  0.00    -0.115 C  
HETATM   25  O   UNL     1      -8.102  10.866  64.881  1.00  0.00    -0.363 OA 
HETATM   26  H   UNL     1      -5.308  15.439  62.855  1.00  0.00     0.000 HD 
HETATM   27  O   UNL     1      -5.457  17.220  63.349  1.00  0.00     2.833 OA 
HETATM   28  H   UNL     1      -8.516  10.115  65.291  1.00  0.00     0.000 HD 
BRANCH  19  29
HETATM   29  C   UNL     1      -6.122   9.603  64.637  1.00  0.00    -0.087 C  
HETATM   30  O   UNL     1      -5.212   9.606  63.801  1.00  0.00    -0.063 OA 
BRANCH  29  31
HETATM   31  C   UNL     1      -6.721   8.279  65.105  1.00  0.00    -0.055 C  
HETATM   32  O   UNL     1      -5.855   7.193  64.797  1.00  0.00    -0.035 OA 
HETATM   33  H   UNL     1      -6.227   6.370  65.088  1.00  0.00     0.000 HD 
ENDBRANCH  29  31
ENDBRANCH  19  29
BRANCH  22  34
HETATM   34  O   UNL     1      -8.535  12.251  67.150  1.00  0.00    -0.172 OA 
BRANCH  34  35
HETATM   35  C   UNL     1      -9.440  12.421  68.220  1.00  0.00    -0.203 C  
HETATM   36  C   UNL     1     -10.942  12.445  67.920  1.00  0.00    -0.266 C  
HETATM   37  C   UNL     1     -11.488  11.085  67.460  1.00  0.00    -0.185 C  
HETATM   38  C   UNL     1     -10.948   9.919  68.320  1.00  0.00    -0.196 C  
HETATM   39  N   UNL     1     -12.969  11.098  67.479  1.00  0.00     3.706 NA 
HETATM   40  C   UNL     1      -9.433  10.076  68.509  1.00  0.00    -0.148 C  
HETATM   41  H2  UNL     1     -13.351  11.868  66.930  1.00  0.00     0.000 HD 
HETATM   42  O   UNL     1     -11.619   9.907  69.588  1.00  0.00    -0.415 OA 
HETATM   43  H1  UNL     1     -13.332  10.195  67.173  1.00  0.00     0.000 HD 
HETATM   44  C   UNL     1      -8.810   8.987  69.364  1.00  0.00    -0.144 C  
HETATM   45  H   UNL     1     -11.287   9.191  70.117  1.00  0.00     0.000 HD 
HETATM   46  O   UNL     1      -9.146  11.348  69.119  1.00  0.00     0.006 OA 
ENDBRANCH  34  35
ENDBRANCH  22  34
ENDBRANCH   2   3
TORSDOF 5
ENDMDL
MODEL      177
REMARK 921   NORMALIZED FREE ENERGY PREDICTED BY IDOCK:   54.78 KCAL/MOL
REMARK 922        TOTAL FREE ENERGY PREDICTED BY IDOCK:   69.52 KCAL/MOL
REMARK 923 INTER-LIGAND FREE ENERGY PREDICTED BY IDOCK:   55.43 KCAL/MOL
REMARK 924 INTRA-LIGAND FREE ENERGY PREDICTED BY IDOCK:   14.08 KCAL/MOL
REMARK 927      BINDING AFFINITY PREDICTED BY RF-SCORE:    0.00 PKD
ROOT
HETATM    1  C   UNL     1     -11.099   6.911  69.352  1.00  0.00    -0.206 C  
HETATM    2  O   UNL     1     -12.308   6.530  70.000  1.00  0.00    -0.031 OA 
ENDROOT
BRANCH   2   3
HETATM    3  C   UNL     1     -12.735   7.314  71.039  1.00  0.00    -0.238 A  
HETATM    4  C   UNL     1     -13.775   6.916  71.892  1.00  0.00    -0.188 A  
HETATM    5  C   UNL     1     -14.214   7.750  72.916  1.00  0.00     0.628 A  
HETATM    6  C   UNL     1     -13.625   8.996  73.088  1.00  0.00     0.464 A  
HETATM    7  C   UNL     1     -12.589   9.414  72.236  1.00  0.00    -0.378 A  
HETATM    8  C   UNL     1     -12.136   8.583  71.212  1.00  0.00    -0.323 A  
HETATM    9  C   UNL     1     -11.019   9.060  70.358  1.00  0.00    -0.247 C  
HETATM   10  O   UNL     1     -10.585   8.400  69.418  1.00  0.00    -0.224 OA 
HETATM   11  C   UNL     1     -10.382  10.373  70.616  1.00  0.00     0.384 A  
HETATM   12  C   UNL     1      -9.281  10.792  69.836  1.00  0.00     0.637 A  
HETATM   13  O   UNL     1      -8.748   9.988  68.854  1.00  0.00    -0.130 OA 
HETATM   14  C   UNL     1      -8.698  12.067  69.992  1.00  0.00     3.113 A  
HETATM   15  H   UNL     1      -8.008  10.270  68.330  1.00  0.00     0.000 HD 
HETATM   16  C   UNL     1      -9.251  12.949  70.942  1.00  0.00     9.602 A  
HETATM   17  C   UNL     1     -10.308  12.499  71.764  1.00  0.00    11.087 A  
HETATM   18  C   UNL     1      -8.722  14.364  71.087  1.00  0.00     4.378 C  
HETATM   19  C   UNL     1      -7.856  14.872  69.921  1.00  0.00     0.167 C  
HETATM   20  C   UNL     1     -10.881  11.219  71.603  1.00  0.00     4.746 A  
HETATM   21  O   UNL     1     -10.826  13.330  72.720  1.00  0.00     6.115 OA 
HETATM   22  C   UNL     1      -7.633  12.529  69.004  1.00  0.00     0.136 C  
HETATM   23  C   UNL     1     -11.999  10.749  72.462  1.00  0.00     2.861 C  
HETATM   24  C   UNL     1      -6.885  13.772  69.486  1.00  0.00     0.001 C  
HETATM   25  O   UNL     1      -8.694  15.295  68.845  1.00  0.00    -0.180 OA 
HETATM   26  H   UNL     1     -11.536  13.028  73.273  1.00  0.00     0.000 HD 
HETATM   27  O   UNL     1     -12.454  11.421  73.379  1.00  0.00     5.061 OA 
HETATM   28  H   UNL     1      -8.159  15.609  68.124  1.00  0.00     0.000 HD 
BRANCH  19  29
HETATM   29  C   UNL     1      -7.092  16.138  70.361  1.00  0.00     1.131 C  
HETATM   30  O   UNL     1      -7.433  17.274  70.015  1.00  0.00     0.798 OA 
BRANCH  29  31
HETATM   31  C   UNL     1      -5.853  15.947  71.233  1.00  0.00     0.564 C  
HETATM   32  O   UNL     1      -6.192  15.329  72.469  1.00  0.00     1.189 OA 
HETATM   33  H   UNL     1      -5.422  15.211  73.011  1.00  0.00     0.000 HD 
ENDBRANCH  29  31
ENDBRANCH  19  29
BRANCH  22  34
HETATM   34  O   UNL     1      -8.424  12.802  67.862  1.00  0.00    -0.152 OA 
BRANCH  34  35
HETATM   35  C   UNL     1      -7.863  13.099  66.600  1.00  0.00     0.587 C  
HETATM   36  C   UNL     1      -8.801  13.333  65.412  1.00  0.00     1.452 C  
HETATM   37  C   UNL     1      -9.620  14.627  65.534  1.00  0.00    -0.104 C  
HETATM   38  C   UNL     1      -8.758  15.818  66.012  1.00  0.00    -0.134 C  
HETATM   39  N   UNL     1     -10.267  14.944  64.240  1.00  0.00    -0.130 NA 
HETATM   40  C   UNL     1      -7.891  15.384  67.200  1.00  0.00    -0.214 C  
HETATM   41  H2  UNL     1     -10.831  14.167  63.895  1.00  0.00     0.000 HD 
HETATM   42  O   UNL     1      -7.939  16.284  64.929  1.00  0.00     3.055 OA 
HETATM   43  H1  UNL     1     -10.811  15.803  64.321  1.00  0.00     0.000 HD 
HETATM   44  C   UNL     1      -6.987  16.483  67.729  1.00  0.00    -0.160 C  
HETATM   45  H   UNL     1      -7.410  17.016  65.223  1.00  0.00     0.000 HD 
HETATM   46  O   UNL     1      -7.066  14.266  66.821  1.00  0.00     0.315 OA 
ENDBRANCH  34  35
ENDBRANCH  22  34
ENDBRANCH   2   3
TORSDOF 5
ENDMDL
MODEL      178
REMARK 921   NORMALIZED FREE ENERGY PREDICTED BY IDOCK:   57.09 KCAL/MOL
REMARK 922        TOTAL FREE ENERGY PREDICTED BY IDOCK:   72.49 KCAL/MOL
REMARK 923 INTER-LIGAND FREE ENERGY PREDICTED BY IDOCK:   66.30 KCAL/MOL
REMARK 924 INTRA-LIGAND FREE ENERGY PREDICTED BY IDOCK:    6.19 KCAL/MOL
REMARK 927      BINDING AFFINITY PREDICTED BY RF-SCORE:    0.00 PKD
ROOT
HETATM    1  C   UNL     1      -7.228   7.905  66.329  1.00  0.00    -0.074 C  
HETATM    2  O   UNL     1      -7.034   6.685  67.036  1.00  0.00    -0.066 OA 
ENDROOT
BRANCH   2   3
HETATM    3  C   UNL     1      -7.489   6.630  68.326  1.00  0.00    -0.095 A  
HETATM    4  C   UNL     1      -7.768   5.412  68.966  1.00  0.00    -0.089 A  
HETATM    5  C   UNL     1      -8.267   5.388  70.264  1.00  0.00    -0.101 A  
HETATM    6  C   UNL     1      -8.505   6.583  70.931  1.00  0.00    -0.134 A  
HETATM    7  C   UNL     1      -8.240   7.811  70.302  1.00  0.00    -0.125 A  
HETATM    8  C   UNL     1      -7.733   7.846  69.004  1.00  0.00    -0.101 A  
HETATM    9  C   UNL     1      -7.443   9.169  68.395  1.00  0.00    -0.082 C  
HETATM   10  O   UNL     1      -7.024   9.285  67.246  1.00  0.00    -0.079 OA 
HETATM   11  C   UNL     1      -7.658  10.417  69.167  1.00  0.00    -0.117 A  
HETATM   12  C   UNL     1      -7.324  11.667  68.600  1.00  0.00    -0.111 A  
HETATM   13  O   UNL     1      -6.758  11.761  67.349  1.00  0.00    -0.095 OA 
HETATM   14  C   UNL     1      -7.587  12.882  69.266  1.00  0.00     0.383 A  
HETATM   15  H   UNL     1      -6.534  12.601  66.968  1.00  0.00     0.000 HD 
HETATM   16  C   UNL     1      -8.222  12.837  70.523  1.00  0.00     5.620 A  
HETATM   17  C   UNL     1      -8.493  11.583  71.112  1.00  0.00     8.596 A  
HETATM   18  C   UNL     1      -8.612  14.117  71.241  1.00  0.00     5.816 C  
HETATM   19  C   UNL     1      -8.626  15.387  70.374  1.00  0.00     1.172 C  
HETATM   20  C   UNL     1      -8.220  10.372  70.440  1.00  0.00     0.789 A  
HETATM   21  O   UNL     1      -9.070  11.524  72.352  1.00  0.00    14.671 OA 
HETATM   22  C   UNL     1      -7.369  14.200  68.532  1.00  0.00    -0.120 C  
HETATM   23  C   UNL     1      -8.513   9.051  71.056  1.00  0.00    -0.203 C  
HETATM   24  C   UNL     1      -7.390  15.406  69.471  1.00  0.00    -0.209 C  
HETATM   25  O   UNL     1      -9.836  15.443  69.616  1.00  0.00    -0.264 OA 
HETATM   26  H   UNL     1      -9.252  10.681  72.748  1.00  0.00     0.000 HD 
HETATM   27  O   UNL     1      -8.962   8.937  72.190  1.00  0.00    -0.381 OA 
HETATM   28  H   UNL     1      -9.844  16.228  69.080  1.00  0.00     0.000 HD 
BRANCH  19  29
HETATM   29  C   UNL     1      -8.661  16.631  71.284  1.00  0.00     7.102 C  
HETATM   30  O   UNL     1      -9.704  17.050  71.798  1.00  0.00     5.729 OA 
BRANCH  29  31
HETATM   31  C   UNL     1      -7.346  17.372  71.519  1.00  0.00     7.101 C  
HETATM   32  O   UNL     1      -6.497  17.270  70.383  1.00  0.00     0.346 OA 
HETATM   33  H   UNL     1      -5.679  17.731  70.529  1.00  0.00     0.000 HD 
ENDBRANCH  29  31
ENDBRANCH  19  29
BRANCH  22  34
HETATM   34  O   UNL     1      -8.476  14.204  67.649  1.00  0.00    -0.161 OA 
BRANCH  34  35
HETATM   35  C   UNL     1      -8.499  13.455  66.451  1.00  0.00     0.496 C  
HETATM   36  C   UNL     1      -9.782  12.712  66.070  1.00  0.00    -0.232 C  
HETATM   37  C   UNL     1     -10.937  13.652  65.695  1.00  0.00    -0.290 C  
HETATM   38  C   UNL     1     -10.475  14.802  64.772  1.00  0.00    -0.286 C  
HETATM   39  N   UNL     1     -12.032  12.885  65.056  1.00  0.00    -0.378 NA 
HETATM   40  C   UNL     1      -9.179  15.414  65.319  1.00  0.00     0.672 C  
HETATM   41  H2  UNL     1     -12.345  12.110  65.640  1.00  0.00     0.000 HD 
HETATM   42  O   UNL     1     -10.278  14.301  63.441  1.00  0.00     1.900 OA 
HETATM   43  H1  UNL     1     -12.799  13.510  64.808  1.00  0.00     0.000 HD 
HETATM   44  C   UNL     1      -8.629  16.542  64.464  1.00  0.00     6.865 C  
HETATM   45  H   UNL     1      -9.993  15.008  62.874  1.00  0.00     0.000 HD 
HETATM   46  O   UNL     1      -8.166  14.396  65.427  1.00  0.00     2.837 OA 
ENDBRANCH  34  35
ENDBRANCH  22  34
ENDBRANCH   2   3
TORSDOF 5
ENDMDL
MODEL      179
REMARK 921   NORMALIZED FREE ENERGY PREDICTED BY IDOCK:   59.53 KCAL/MOL
REMARK 922        TOTAL FREE ENERGY PREDICTED BY IDOCK:   75.65 KCAL/MOL
REMARK 923 INTER-LIGAND FREE ENERGY PREDICTED BY IDOCK:   -3.48 KCAL/MOL
REMARK 924 INTRA-LIGAND FREE ENERGY PREDICTED BY IDOCK:   79.13 KCAL/MOL
REMARK 927      BINDING AFFINITY PREDICTED BY RF-SCORE:    0.00 PKD
ROOT
HETATM    1  C   UNL     1      -9.923   1.745  70.720  1.00  0.00     0.132 C  
HETATM    2  O   UNL     1      -8.611   2.293  70.668  1.00  0.00    -0.049 OA 
ENDROOT
BRANCH   2   3
HETATM    3  C   UNL     1      -8.069   2.504  69.428  1.00  0.00    -0.044 A  
HETATM    4  C   UNL     1      -7.253   1.550  68.801  1.00  0.00    -0.039 A  
HETATM    5  C   UNL     1      -6.684   1.806  67.558  1.00  0.00    -0.032 A  
HETATM    6  C   UNL     1      -6.916   3.026  66.934  1.00  0.00    -0.053 A  
HETATM    7  C   UNL     1      -7.723   3.996  67.552  1.00  0.00    -0.075 A  
HETATM    8  C   UNL     1      -8.304   3.745  68.795  1.00  0.00    -0.088 A  
HETATM    9  C   UNL     1      -9.172   4.792  69.392  1.00  0.00    -0.114 C  
HETATM   10  O   UNL     1      -9.694   4.660  70.495  1.00  0.00    -0.179 OA 
HETATM   11  C   UNL     1      -9.438   6.056  68.663  1.00  0.00    -0.134 A  
HETATM   12  C   UNL     1     -10.312   7.020  69.212  1.00  0.00    -0.200 A  
HETATM   13  O   UNL     1     -10.966   6.802  70.403  1.00  0.00    -0.249 OA 
HETATM   14  C   UNL     1     -10.529   8.268  68.593  1.00  0.00    -0.199 A  
HETATM   15  H   UNL     1     -11.554   7.450  70.772  1.00  0.00     0.000 HD 
HETATM   16  C   UNL     1      -9.832   8.561  67.404  1.00  0.00    -0.244 A  
HETATM   17  C   UNL     1      -9.011   7.568  66.826  1.00  0.00    -0.144 A  
HETATM   18  C   UNL     1      -9.957   9.924  66.746  1.00  0.00    -0.272 C  
HETATM   19  C   UNL     1     -10.551  11.035  67.629  1.00  0.00    -0.217 C  
HETATM   20  C   UNL     1      -8.805   6.319  67.450  1.00  0.00    -0.107 A  
HETATM   21  O   UNL     1      -8.362   7.823  65.648  1.00  0.00    -0.128 OA 
HETATM   22  C   UNL     1     -11.341   9.334  69.321  1.00  0.00     0.208 C  
HETATM   23  C   UNL     1      -7.934   5.276  66.847  1.00  0.00    -0.101 C  
HETATM   24  C   UNL     1     -11.750  10.488  68.406  1.00  0.00    -0.088 C  
HETATM   25  O   UNL     1      -9.544  11.549  68.503  1.00  0.00    -0.184 OA 
HETATM   26  H   UNL     1      -7.811   7.155  65.259  1.00  0.00     0.000 HD 
HETATM   27  O   UNL     1      -7.387   5.421  65.761  1.00  0.00    -0.071 OA 
HETATM   28  H   UNL     1      -9.910  12.235  69.048  1.00  0.00     0.000 HD 
BRANCH  19  29
HETATM   29  C   UNL     1     -10.966  12.228  66.744  1.00  0.00    -0.276 C  
HETATM   30  O   UNL     1     -11.838  13.035  67.083  1.00  0.00    -0.368 OA 
BRANCH  29  31
HETATM   31  C   UNL     1     -10.278  12.375  65.389  1.00  0.00    -0.278 C  
HETATM   32  O   UNL     1     -10.867  11.513  64.424  1.00  0.00    -0.321 OA 
HETATM   33  H   UNL     1     -10.440  11.605  63.581  1.00  0.00     0.000 HD 
ENDBRANCH  29  31
ENDBRANCH  19  29
BRANCH  22  34
HETATM   34  O   UNL     1     -10.415   9.751  70.309  1.00  0.00    -0.251 OA 
BRANCH  34  35
HETATM   35  C   UNL     1      -9.515  10.820  70.106  1.00  0.00     1.017 C  
HETATM   36  C   UNL     1      -8.012  10.551  70.222  1.00  0.00     0.629 C  
HETATM   37  C   UNL     1      -7.467   9.664  69.093  1.00  0.00    -0.079 C  
HETATM   38  C   UNL     1      -8.014  10.081  67.709  1.00  0.00    -0.105 C  
HETATM   39  N   UNL     1      -5.986   9.692  69.093  1.00  0.00    -0.035 NA 
HETATM   40  C   UNL     1      -9.529  10.306  67.800  1.00  0.00    -0.148 C  
HETATM   41  H2  UNL     1      -5.599   9.434  70.000  1.00  0.00     0.000 HD 
HETATM   42  O   UNL     1      -7.350  11.274  67.269  1.00  0.00    -0.107 OA 
HETATM   43  H1  UNL     1      -5.624   9.102  68.343  1.00  0.00     0.000 HD 
HETATM   44  C   UNL     1     -10.160  10.743  66.490  1.00  0.00    -0.277 C  
HETATM   45  H   UNL     1      -7.686  11.531  66.418  1.00  0.00     0.000 HD 
HETATM   46  O   UNL     1      -9.816  11.306  68.795  1.00  0.00    -0.205 OA 
ENDBRANCH  34  35
ENDBRANCH  22  34
ENDBRANCH   2   3
TORSDOF 5
ENDMDL
MODEL      180
REMARK 921   NORMALIZED FREE ENERGY PREDICTED BY IDOCK:   63.76 KCAL/MOL
REMARK 922        TOTAL FREE ENERGY PREDICTED BY IDOCK:   81.12 KCAL/MOL
REMARK 923 INTER-LIGAND FREE ENERGY PREDICTED BY IDOCK:   -2.23 KCAL/MOL
REMARK 924 INTRA-LIGAND FREE ENERGY PREDICTED BY IDOCK:   83.35 KCAL/MOL
REMARK 927      BINDING AFFINITY PREDICTED BY RF-SCORE:    0.00 PKD
ROOT
HETATM    1  C   UNL     1      -5.794  15.742  70.302  1.00  0.00    -0.126 C  
HETATM    2  O   UNL     1      -6.600  16.897  70.096  1.00  0.00     0.097 OA 
ENDROOT
BRANCH   2   3
HETATM    3  C   UNL     1      -7.866  16.698  69.610  1.00  0.00     0.443 A  
HETATM    4  C   UNL     1      -8.745  17.764  69.369  1.00  0.00     0.470 A  
HETATM    5  C   UNL     1     -10.039  17.531  68.913  1.00  0.00    -0.346 A  
HETATM    6  C   UNL     1     -10.469  16.226  68.706  1.00  0.00    -0.282 A  
HETATM    7  C   UNL     1      -9.604  15.147  68.952  1.00  0.00    -0.223 A  
HETATM    8  C   UNL     1      -8.303  15.371  69.402  1.00  0.00    -0.250 A  
HETATM    9  C   UNL     1      -7.420  14.197  69.619  1.00  0.00     0.250 C  
HETATM   10  O   UNL     1      -6.273  14.309  70.042  1.00  0.00    -0.136 OA 
HETATM   11  C   UNL     1      -7.904  12.826  69.328  1.00  0.00     0.538 A  
HETATM   12  C   UNL     1      -7.037  11.721  69.482  1.00  0.00     0.092 A  
HETATM   13  O   UNL     1      -5.724  11.885  69.859  1.00  0.00    -0.095 OA 
HETATM   14  C   UNL     1      -7.479  10.395  69.296  1.00  0.00    -0.120 A  
HETATM   15  H   UNL     1      -5.141  11.142  69.962  1.00  0.00     0.000 HD 
HETATM   16  C   UNL     1      -8.832  10.175  68.970  1.00  0.00    -0.166 A  
HETATM   17  C   UNL     1      -9.677  11.287  68.754  1.00  0.00    -0.174 A  
HETATM   18  C   UNL     1      -9.383   8.765  68.849  1.00  0.00    -0.145 C  
HETATM   19  C   UNL     1      -8.509   7.657  69.463  1.00  0.00    -0.132 C  
HETATM   20  C   UNL     1      -9.223  12.611  68.936  1.00  0.00     0.296 A  
HETATM   21  O   UNL     1     -10.982  11.089  68.394  1.00  0.00    -0.195 OA 
HETATM   22  C   UNL     1      -6.549   9.240  69.648  1.00  0.00    -0.043 C  
HETATM   23  C   UNL     1     -10.114  13.780  68.718  1.00  0.00    -0.136 C  
HETATM   24  C   UNL     1      -7.042   7.901  69.100  1.00  0.00    -0.069 C  
HETATM   25  O   UNL     1      -8.705   7.614  70.877  1.00  0.00    -0.135 OA 
HETATM   26  H   UNL     1     -11.550  11.836  68.249  1.00  0.00     0.000 HD 
HETATM   27  O   UNL     1     -11.269  13.667  68.326  1.00  0.00    -0.248 OA 
HETATM   28  H   UNL     1      -8.166   6.929  71.256  1.00  0.00     0.000 HD 
BRANCH  19  29
HETATM   29  C   UNL     1      -8.983   6.284  68.945  1.00  0.00    -0.126 C  
HETATM   30  O   UNL     1      -9.878   5.638  69.500  1.00  0.00    -0.156 OA 
BRANCH  29  31
HETATM   31  C   UNL     1      -8.281   5.711  67.716  1.00  0.00    -0.101 C  
HETATM   32  O   UNL     1      -9.184   5.595  66.624  1.00  0.00    -0.127 OA 
HETATM   33  H   UNL     1      -8.747   5.239  65.860  1.00  0.00     0.000 HD 
ENDBRANCH  29  31
ENDBRANCH  19  29
BRANCH  22  34
HETATM   34  O   UNL     1      -6.595   9.277  71.063  1.00  0.00    -0.081 OA 
BRANCH  34  35
HETATM   35  C   UNL     1      -7.296   8.318  71.827  1.00  0.00    -0.094 C  
HETATM   36  C   UNL     1      -8.707   7.915  71.390  1.00  0.00    -0.148 C  
HETATM   37  C   UNL     1      -8.730   7.121  70.075  1.00  0.00    -0.141 C  
HETATM   38  C   UNL     1      -7.629   6.037  70.031  1.00  0.00    -0.087 C  
HETATM   39  N   UNL     1     -10.064   6.512  69.871  1.00  0.00    -0.170 NA 
HETATM   40  C   UNL     1      -6.298   6.633  70.506  1.00  0.00    -0.043 C  
HETATM   41  H2  UNL     1     -10.811   7.205  69.910  1.00  0.00     0.000 HD 
HETATM   42  O   UNL     1      -8.013   4.929  70.858  1.00  0.00    -0.080 OA 
HETATM   43  H1  UNL     1     -10.079   5.985  68.997  1.00  0.00     0.000 HD 
HETATM   44  C   UNL     1      -5.154   5.635  70.521  1.00  0.00    -0.005 C  
HETATM   45  H   UNL     1      -7.336   4.262  70.832  1.00  0.00     0.000 HD 
HETATM   46  O   UNL     1      -6.448   7.167  71.835  1.00  0.00    -0.044 OA 
ENDBRANCH  34  35
ENDBRANCH  22  34
ENDBRANCH   2   3
TORSDOF 5
ENDMDL
MODEL      181
REMARK 921   NORMALIZED FREE ENERGY PREDICTED BY IDOCK:   66.48 KCAL/MOL
REMARK 922        TOTAL FREE ENERGY PREDICTED BY IDOCK:   84.63 KCAL/MOL
REMARK 923 INTER-LIGAND FREE ENERGY PREDICTED BY IDOCK:   65.63 KCAL/MOL
REMARK 924 INTRA-LIGAND FREE ENERGY PREDICTED BY IDOCK:   19.00 KCAL/MOL
REMARK 927      BINDING AFFINITY PREDICTED BY RF-SCORE:    0.00 PKD
ROOT
HETATM    1  C   UNL     1      -8.651   7.144  66.672  1.00  0.00    -0.124 C  
HETATM    2  O   UNL     1      -9.670   6.409  66.003  1.00  0.00    -0.021 OA 
ENDROOT
BRANCH   2   3
HETATM    3  C   UNL     1     -10.765   7.110  65.570  1.00  0.00     3.660 A  
HETATM    4  C   UNL     1     -11.854   6.479  64.951  1.00  0.00     9.056 A  
HETATM    5  C   UNL     1     -12.936   7.221  64.485  1.00  0.00    19.029 A  
HETATM    6  C   UNL     1     -12.931   8.603  64.623  1.00  0.00    22.108 A  
HETATM    7  C   UNL     1     -11.844   9.251  65.232  1.00  0.00     8.774 A  
HETATM    8  C   UNL     1     -10.759   8.516  65.709  1.00  0.00     2.296 A  
HETATM    9  C   UNL     1      -9.648   9.247  66.370  1.00  0.00    -0.238 C  
HETATM   10  O   UNL     1      -8.645   8.676  66.789  1.00  0.00    -0.116 OA 
HETATM   11  C   UNL     1      -9.714  10.718  66.547  1.00  0.00    -0.236 A  
HETATM   12  C   UNL     1      -8.680  11.396  67.230  1.00  0.00    -0.148 A  
HETATM   13  O   UNL     1      -7.616  10.718  67.780  1.00  0.00    -0.093 OA 
HETATM   14  C   UNL     1      -8.661  12.801  67.349  1.00  0.00    -0.196 A  
HETATM   15  H   UNL     1      -6.921  11.174  68.239  1.00  0.00     0.000 HD 
HETATM   16  C   UNL     1      -9.698  13.542  66.747  1.00  0.00    -0.271 A  
HETATM   17  C   UNL     1     -10.762  12.854  66.123  1.00  0.00    -0.272 A  
HETATM   18  C   UNL     1      -9.679  15.060  66.765  1.00  0.00    -0.253 C  
HETATM   19  C   UNL     1      -8.326  15.703  67.118  1.00  0.00    -0.208 C  
HETATM   20  C   UNL     1     -10.774  11.447  66.015  1.00  0.00    -0.318 A  
HETATM   21  O   UNL     1     -11.797  13.559  65.572  1.00  0.00    -0.334 OA 
HETATM   22  C   UNL     1      -7.434  13.486  67.939  1.00  0.00    -0.153 C  
HETATM   23  C   UNL     1     -11.889  10.723  65.350  1.00  0.00     1.949 C  
HETATM   24  C   UNL     1      -7.691  14.951  68.291  1.00  0.00    -0.113 C  
HETATM   25  O   UNL     1      -7.477  15.705  65.969  1.00  0.00     0.289 OA 
HETATM   26  H   UNL     1     -12.513  13.097  65.153  1.00  0.00     0.000 HD 
HETATM   27  O   UNL     1     -12.875  11.296  64.903  1.00  0.00     1.171 OA 
HETATM   28  H   UNL     1      -6.641  16.102  66.187  1.00  0.00     0.000 HD 
BRANCH  19  29
HETATM   29  C   UNL     1      -8.539  17.189  67.467  1.00  0.00    -0.203 C  
HETATM   30  O   UNL     1      -8.504  18.084  66.616  1.00  0.00    -0.246 OA 
BRANCH  29  31
HETATM   31  C   UNL     1      -8.769  17.544  68.935  1.00  0.00    -0.135 C  
HETATM   32  O   UNL     1      -9.907  16.862  69.449  1.00  0.00    -0.185 OA 
HETATM   33  H   UNL     1     -10.050  17.083  70.361  1.00  0.00     0.000 HD 
ENDBRANCH  29  31
ENDBRANCH  19  29
BRANCH  22  34
HETATM   34  O   UNL     1      -6.513  13.357  66.871  1.00  0.00     0.087 OA 
BRANCH  34  35
HETATM   35  C   UNL     1      -5.416  12.469  66.914  1.00  0.00     0.291 C  
HETATM   36  C   UNL     1      -5.418  11.343  67.953  1.00  0.00    -0.044 C  
HETATM   37  C   UNL     1      -6.484  10.272  67.680  1.00  0.00    -0.058 C  
HETATM   38  C   UNL     1      -6.538   9.870  66.189  1.00  0.00    -0.084 C  
HETATM   39  N   UNL     1      -6.238   9.081  68.527  1.00  0.00    -0.049 NA 
HETATM   40  C   UNL     1      -6.523  11.130  65.314  1.00  0.00     0.511 C  
HETATM   41  H2  UNL     1      -6.184   9.322  69.517  1.00  0.00     0.000 HD 
HETATM   42  O   UNL     1      -5.420   9.024  65.878  1.00  0.00    -0.040 OA 
HETATM   43  H1  UNL     1      -6.946   8.370  68.347  1.00  0.00     0.000 HD 
HETATM   44  C   UNL     1      -6.550  10.839  63.824  1.00  0.00     0.327 C  
HETATM   45  H   UNL     1      -5.453   8.777  64.961  1.00  0.00     0.000 HD 
HETATM   46  O   UNL     1      -5.347  11.910  65.600  1.00  0.00     0.218 OA 
ENDBRANCH  34  35
ENDBRANCH  22  34
ENDBRANCH   2   3
TORSDOF 5
ENDMDL
MODEL      182
REMARK 921   NORMALIZED FREE ENERGY PREDICTED BY IDOCK:   66.66 KCAL/MOL
REMARK 922        TOTAL FREE ENERGY PREDICTED BY IDOCK:   84.87 KCAL/MOL
REMARK 923 INTER-LIGAND FREE ENERGY PREDICTED BY IDOCK:   72.63 KCAL/MOL
REMARK 924 INTRA-LIGAND FREE ENERGY PREDICTED BY IDOCK:   12.23 KCAL/MOL
REMARK 927      BINDING AFFINITY PREDICTED BY RF-SCORE:    0.00 PKD
ROOT
HETATM    1  C   UNL     1      -9.489  20.687  68.328  1.00  0.00     0.246 C  
HETATM    2  O   UNL     1     -10.800  21.135  68.003  1.00  0.00     1.189 OA 
ENDROOT
BRANCH   2   3
HETATM    3  C   UNL     1     -11.519  20.378  67.115  1.00  0.00     1.863 A  
HETATM    4  C   UNL     1     -12.624  20.895  66.422  1.00  0.00     6.499 A  
HETATM    5  C   UNL     1     -13.360  20.091  65.556  1.00  0.00    12.585 A  
HETATM    6  C   UNL     1     -13.004  18.760  65.385  1.00  0.00    13.336 A  
HETATM    7  C   UNL     1     -11.905  18.225  66.078  1.00  0.00     3.434 A  
HETATM    8  C   UNL     1     -11.157  19.023  66.942  1.00  0.00    -0.074 A  
HETATM    9  C   UNL     1      -9.988  18.417  67.629  1.00  0.00    -0.338 C  
HETATM   10  O   UNL     1      -9.298  19.045  68.428  1.00  0.00    -0.322 OA 
HETATM   11  C   UNL     1      -9.610  17.007  67.370  1.00  0.00    -0.246 A  
HETATM   12  C   UNL     1      -8.462  16.457  67.983  1.00  0.00    -0.183 A  
HETATM   13  O   UNL     1      -7.647  17.214  68.793  1.00  0.00    -0.243 OA 
HETATM   14  C   UNL     1      -8.113  15.099  67.830  1.00  0.00    -0.157 A  
HETATM   15  H   UNL     1      -6.876  16.844  69.205  1.00  0.00     0.000 HD 
HETATM   16  C   UNL     1      -8.953  14.270  67.059  1.00  0.00    -0.251 A  
HETATM   17  C   UNL     1     -10.062  14.841  66.396  1.00  0.00    -0.280 A  
HETATM   18  C   UNL     1      -8.675  12.783  66.937  1.00  0.00    -0.169 C  
HETATM   19  C   UNL     1      -7.699  12.202  67.975  1.00  0.00    -0.134 C  
HETATM   20  C   UNL     1     -10.399  16.203  66.551  1.00  0.00    -0.311 A  
HETATM   21  O   UNL     1     -10.861  14.057  65.610  1.00  0.00    -0.284 OA 
HETATM   22  C   UNL     1      -6.968  14.523  68.655  1.00  0.00    -0.103 C  
HETATM   23  C   UNL     1     -11.571  16.802  65.861  1.00  0.00     1.255 C  
HETATM   24  C   UNL     1      -6.513  13.153  68.152  1.00  0.00    -0.105 C  
HETATM   25  O   UNL     1      -8.384  11.974  69.208  1.00  0.00    -0.254 OA 
HETATM   26  H   UNL     1     -11.606  14.441  65.164  1.00  0.00     0.000 HD 
HETATM   27  O   UNL     1     -12.279  16.167  65.089  1.00  0.00     0.819 OA 
HETATM   28  H   UNL     1      -7.781  11.616  69.849  1.00  0.00     0.000 HD 
BRANCH  19  29
HETATM   29  C   UNL     1      -7.225  10.810  67.512  1.00  0.00    -0.090 C  
HETATM   30  O   UNL     1      -7.572  10.314  66.435  1.00  0.00    -0.107 OA 
BRANCH  29  31
HETATM   31  C   UNL     1      -6.315  10.024  68.454  1.00  0.00    -0.049 C  
HETATM   32  O   UNL     1      -5.662   8.967  67.763  1.00  0.00    -0.038 OA 
HETATM   33  H   UNL     1      -5.096   8.478  68.349  1.00  0.00     0.000 HD 
ENDBRANCH  29  31
ENDBRANCH  19  29
BRANCH  22  34
HETATM   34  O   UNL     1      -7.573  14.438  69.933  1.00  0.00     0.123 OA 
BRANCH  34  35
HETATM   35  C   UNL     1      -8.792  13.762  70.156  1.00  0.00     2.788 C  
HETATM   36  C   UNL     1      -9.105  13.248  71.564  1.00  0.00    13.576 C  
HETATM   37  C   UNL     1      -9.357  14.376  72.577  1.00  0.00     8.107 C  
HETATM   38  C   UNL     1     -10.269  15.483  71.999  1.00  0.00     2.330 C  
HETATM   39  N   UNL     1      -9.942  13.822  73.820  1.00  0.00     7.518 NA 
HETATM   40  C   UNL     1      -9.797  15.856  70.588  1.00  0.00     1.042 C  
HETATM   41  H2  UNL     1      -9.366  13.078  74.214  1.00  0.00     0.000 HD 
HETATM   42  O   UNL     1     -11.628  15.023  71.975  1.00  0.00    -0.395 OA 
HETATM   43  H1  UNL     1     -10.109  14.571  74.493  1.00  0.00     0.000 HD 
HETATM   44  C   UNL     1     -10.646  16.925  69.924  1.00  0.00    -0.018 C  
HETATM   45  H   UNL     1     -12.188  15.703  71.620  1.00  0.00     0.000 HD 
HETATM   46  O   UNL     1      -9.802  14.688  69.746  1.00  0.00     0.075 OA 
ENDBRANCH  34  35
ENDBRANCH  22  34
ENDBRANCH   2   3
TORSDOF 5
ENDMDL
MODEL      183
REMARK 921   NORMALIZED FREE ENERGY PREDICTED BY IDOCK:   68.52 KCAL/MOL
REMARK 922        TOTAL FREE ENERGY PREDICTED BY IDOCK:   87.27 KCAL/MOL
REMARK 923 INTER-LIGAND FREE ENERGY PREDICTED BY IDOCK:    1.58 KCAL/MOL
REMARK 924 INTRA-LIGAND FREE ENERGY PREDICTED BY IDOCK:   85.70 KCAL/MOL
REMARK 927      BINDING AFFINITY PREDICTED BY RF-SCORE:    0.00 PKD
ROOT
HETATM    1  C   UNL     1     -11.790   2.047  73.105  1.00  0.00     0.122 C  
HETATM    2  O   UNL     1     -11.188   3.313  72.855  1.00  0.00     0.024 OA 
ENDROOT
BRANCH   2   3
HETATM    3  C   UNL     1     -10.255   3.375  71.853  1.00  0.00    -0.012 A  
HETATM    4  C   UNL     1      -9.413   2.294  71.552  1.00  0.00    -0.204 A  
HETATM    5  C   UNL     1      -8.448   2.400  70.555  1.00  0.00    -0.089 A  
HETATM    6  C   UNL     1      -8.309   3.593  69.858  1.00  0.00    -0.079 A  
HETATM    7  C   UNL     1      -9.138   4.688  70.153  1.00  0.00    -0.154 A  
HETATM    8  C   UNL     1     -10.113   4.590  71.145  1.00  0.00    -0.218 A  
HETATM    9  C   UNL     1     -10.982   5.767  71.399  1.00  0.00    -0.237 C  
HETATM   10  O   UNL     1     -11.843   5.770  72.275  1.00  0.00    -0.273 OA 
HETATM   11  C   UNL     1     -10.835   7.000  70.589  1.00  0.00    -0.274 A  
HETATM   12  C   UNL     1     -11.706   8.093  70.798  1.00  0.00    -0.201 A  
HETATM   13  O   UNL     1     -12.729   8.032  71.716  1.00  0.00    -0.312 OA 
HETATM   14  C   UNL     1     -11.551   9.313  70.108  1.00  0.00    -0.078 A  
HETATM   15  H   UNL     1     -13.315   8.766  71.857  1.00  0.00     0.000 HD 
HETATM   16  C   UNL     1     -10.479   9.444  69.203  1.00  0.00    -0.230 A  
HETATM   17  C   UNL     1      -9.652   8.326  68.951  1.00  0.00    -0.153 A  
HETATM   18  C   UNL     1     -10.209  10.764  68.503  1.00  0.00    -0.192 C  
HETATM   19  C   UNL     1     -10.904  11.993  69.115  1.00  0.00    -0.125 C  
HETATM   20  C   UNL     1      -9.820   7.107  69.641  1.00  0.00    -0.162 A  
HETATM   21  O   UNL     1      -8.634   8.425  68.042  1.00  0.00    -0.133 OA 
HETATM   22  C   UNL     1     -12.407  10.511  70.504  1.00  0.00    -0.343 C  
HETATM   23  C   UNL     1      -8.946   5.933  69.383  1.00  0.00    -0.121 C  
HETATM   24  C   UNL     1     -12.350  11.639  69.474  1.00  0.00    -0.152 C  
HETATM   25  O   UNL     1     -10.171  12.446  70.254  1.00  0.00     1.537 OA 
HETATM   26  H   UNL     1      -8.079   7.674  67.871  1.00  0.00     0.000 HD 
HETATM   27  O   UNL     1      -8.066   5.941  68.531  1.00  0.00    -0.104 OA 
HETATM   28  H   UNL     1     -10.601  13.205  70.632  1.00  0.00     0.000 HD 
BRANCH  19  29
HETATM   29  C   UNL     1     -10.857  13.162  68.111  1.00  0.00    -0.251 C  
HETATM   30  O   UNL     1     -11.864  13.581  67.531  1.00  0.00    -0.343 OA 
BRANCH  29  31
HETATM   31  C   UNL     1      -9.495  13.788  67.819  1.00  0.00    -0.216 C  
HETATM   32  O   UNL     1      -9.215  13.768  66.425  1.00  0.00    -0.416 OA 
HETATM   33  H   UNL     1      -8.369  14.157  66.244  1.00  0.00     0.000 HD 
ENDBRANCH  29  31
ENDBRANCH  19  29
BRANCH  22  34
HETATM   34  O   UNL     1     -11.799  10.885  71.727  1.00  0.00     0.231 OA 
BRANCH  34  35
HETATM   35  C   UNL     1     -11.534   9.960  72.761  1.00  0.00     3.089 C  
HETATM   36  C   UNL     1     -12.192   8.578  72.700  1.00  0.00    -0.297 C  
HETATM   37  C   UNL     1     -11.656   7.703  71.558  1.00  0.00    -0.274 C  
HETATM   38  C   UNL     1     -10.116   7.768  71.448  1.00  0.00    -0.182 C  
HETATM   39  N   UNL     1     -12.102   6.302  71.738  1.00  0.00    -0.288 NA 
HETATM   40  C   UNL     1      -9.654   9.229  71.532  1.00  0.00    -0.092 C  
HETATM   41  H2  UNL     1     -13.116   6.233  71.828  1.00  0.00     0.000 HD 
HETATM   42  O   UNL     1      -9.525   6.988  72.497  1.00  0.00    -0.142 OA 
HETATM   43  H1  UNL     1     -11.747   5.721  70.978  1.00  0.00     0.000 HD 
HETATM   44  C   UNL     1      -8.147   9.397  71.456  1.00  0.00     0.439 C  
HETATM   45  H   UNL     1      -8.578   7.028  72.430  1.00  0.00     0.000 HD 
HETATM   46  O   UNL     1     -10.112   9.816  72.764  1.00  0.00     2.479 OA 
ENDBRANCH  34  35
ENDBRANCH  22  34
ENDBRANCH   2   3
TORSDOF 5
ENDMDL
MODEL      184
REMARK 921   NORMALIZED FREE ENERGY PREDICTED BY IDOCK:   70.99 KCAL/MOL
REMARK 922        TOTAL FREE ENERGY PREDICTED BY IDOCK:   90.46 KCAL/MOL
REMARK 923 INTER-LIGAND FREE ENERGY PREDICTED BY IDOCK:   63.52 KCAL/MOL
REMARK 924 INTRA-LIGAND FREE ENERGY PREDICTED BY IDOCK:   26.94 KCAL/MOL
REMARK 927      BINDING AFFINITY PREDICTED BY RF-SCORE:    0.00 PKD
ROOT
HETATM    1  C   UNL     1      -7.487  10.710  64.240  1.00  0.00     0.213 C  
HETATM    2  O   UNL     1      -7.572   9.290  64.226  1.00  0.00    -0.106 OA 
ENDROOT
BRANCH   2   3
HETATM    3  C   UNL     1      -8.641   8.720  64.867  1.00  0.00    -0.150 A  
HETATM    4  C   UNL     1      -8.993   7.376  64.674  1.00  0.00     0.756 A  
HETATM    5  C   UNL     1     -10.107   6.834  65.308  1.00  0.00     2.165 A  
HETATM    6  C   UNL     1     -10.886   7.636  66.132  1.00  0.00     1.700 A  
HETATM    7  C   UNL     1     -10.553   8.986  66.329  1.00  0.00     0.222 A  
HETATM    8  C   UNL     1      -9.434   9.537  65.704  1.00  0.00    -0.326 A  
HETATM    9  C   UNL     1      -9.108  10.961  65.967  1.00  0.00    -0.191 C  
HETATM   10  O   UNL     1      -8.159  11.527  65.432  1.00  0.00     0.322 OA 
HETATM   11  C   UNL     1      -9.936  11.763  66.901  1.00  0.00    -0.220 A  
HETATM   12  C   UNL     1      -9.584  13.100  67.190  1.00  0.00    -0.235 A  
HETATM   13  O   UNL     1      -8.455  13.678  66.656  1.00  0.00    -0.437 OA 
HETATM   14  C   UNL     1     -10.387  13.923  68.007  1.00  0.00    -0.245 A  
HETATM   15  H   UNL     1      -8.218  14.577  66.851  1.00  0.00     0.000 HD 
HETATM   16  C   UNL     1     -11.585  13.393  68.525  1.00  0.00    -0.368 A  
HETATM   17  C   UNL     1     -11.898  12.037  68.286  1.00  0.00    -0.287 A  
HETATM   18  C   UNL     1     -12.533  14.262  69.333  1.00  0.00    -0.112 C  
HETATM   19  C   UNL     1     -12.303  15.780  69.218  1.00  0.00     0.030 C  
HETATM   20  C   UNL     1     -11.084  11.219  67.472  1.00  0.00    -0.346 A  
HETATM   21  O   UNL     1     -13.036  11.497  68.820  1.00  0.00     1.093 OA 
HETATM   22  C   UNL     1     -10.050  15.404  68.138  1.00  0.00    -0.222 C  
HETATM   23  C   UNL     1     -11.417   9.794  67.213  1.00  0.00     1.018 C  
HETATM   24  C   UNL     1     -10.803  16.078  69.285  1.00  0.00    -0.300 C  
HETATM   25  O   UNL     1     -12.886  16.266  68.008  1.00  0.00     1.287 OA 
HETATM   26  H   UNL     1     -13.246  10.585  68.659  1.00  0.00     0.000 HD 
HETATM   27  O   UNL     1     -12.383   9.239  67.721  1.00  0.00     3.606 OA 
HETATM   28  H   UNL     1     -12.745  17.203  67.937  1.00  0.00     0.000 HD 
BRANCH  19  29
HETATM   29  C   UNL     1     -13.059  16.501  70.351  1.00  0.00     3.338 C  
HETATM   30  O   UNL     1     -13.002  16.131  71.529  1.00  0.00    -0.271 OA 
BRANCH  29  31
HETATM   31  C   UNL     1     -13.930  17.697  69.970  1.00  0.00    16.917 C  
HETATM   32  O   UNL     1     -13.787  18.009  68.590  1.00  0.00     8.231 OA 
HETATM   33  H   UNL     1     -14.328  18.753  68.353  1.00  0.00     0.000 HD 
ENDBRANCH  29  31
ENDBRANCH  19  29
BRANCH  22  34
HETATM   34  O   UNL     1     -10.471  15.890  66.876  1.00  0.00    -0.301 OA 
BRANCH  34  35
HETATM   35  C   UNL     1      -9.948  15.402  65.659  1.00  0.00    -0.362 C  
HETATM   36  C   UNL     1      -9.290  16.390  64.691  1.00  0.00     3.369 C  
HETATM   37  C   UNL     1      -7.966  16.963  65.218  1.00  0.00     2.470 C  
HETATM   38  C   UNL     1      -7.070  15.872  65.848  1.00  0.00     2.708 C  
HETATM   39  N   UNL     1      -7.243  17.661  64.130  1.00  0.00     5.717 NA 
HETATM   40  C   UNL     1      -7.910  14.988  66.779  1.00  0.00     0.121 C  
HETATM   41  H2  UNL     1      -7.819  18.377  63.687  1.00  0.00     0.000 HD 
HETATM   42  O   UNL     1      -6.467  15.087  64.810  1.00  0.00    12.828 OA 
HETATM   43  H1  UNL     1      -6.364  18.042  64.481  1.00  0.00     0.000 HD 
HETATM   44  C   UNL     1      -7.120  13.867  67.431  1.00  0.00    -0.091 C  
HETATM   45  H   UNL     1      -5.916  14.416  65.197  1.00  0.00     0.000 HD 
HETATM   46  O   UNL     1      -9.001  14.403  66.044  1.00  0.00    -0.027 OA 
ENDBRANCH  34  35
ENDBRANCH  22  34
ENDBRANCH   2   3
TORSDOF 5
ENDMDL
MODEL      185
REMARK 921   NORMALIZED FREE ENERGY PREDICTED BY IDOCK:   74.77 KCAL/MOL
REMARK 922        TOTAL FREE ENERGY PREDICTED BY IDOCK:   95.34 KCAL/MOL
REMARK 923 INTER-LIGAND FREE ENERGY PREDICTED BY IDOCK:   17.83 KCAL/MOL
REMARK 924 INTRA-LIGAND FREE ENERGY PREDICTED BY IDOCK:   77.51 KCAL/MOL
REMARK 927      BINDING AFFINITY PREDICTED BY RF-SCORE:    0.00 PKD
ROOT
HETATM    1  C   UNL     1      -7.567   4.349  67.601  1.00  0.00    -0.077 C  
HETATM    2  O   UNL     1      -8.403   4.412  66.451  1.00  0.00    -0.106 OA 
ENDROOT
BRANCH   2   3
HETATM    3  C   UNL     1      -9.660   4.929  66.619  1.00  0.00    -0.163 A  
HETATM    4  C   UNL     1     -10.815   4.176  66.360  1.00  0.00     1.247 A  
HETATM    5  C   UNL     1     -12.080   4.739  66.502  1.00  0.00     6.058 A  
HETATM    6  C   UNL     1     -12.200   6.067  66.891  1.00  0.00     4.036 A  
HETATM    7  C   UNL     1     -11.054   6.838  67.145  1.00  0.00    -0.404 A  
HETATM    8  C   UNL     1      -9.782   6.281  67.013  1.00  0.00    -0.173 A  
HETATM    9  C   UNL     1      -8.604   7.131  67.320  1.00  0.00    -0.121 C  
HETATM   10  O   UNL     1      -7.452   6.723  67.199  1.00  0.00    -0.087 OA 
HETATM   11  C   UNL     1      -8.783   8.526  67.789  1.00  0.00    -0.137 A  
HETATM   12  C   UNL     1      -7.658   9.307  68.136  1.00  0.00    -0.084 A  
HETATM   13  O   UNL     1      -6.383   8.791  68.090  1.00  0.00    -0.054 OA 
HETATM   14  C   UNL     1      -7.777  10.662  68.508  1.00  0.00    -0.107 A  
HETATM   15  H   UNL     1      -5.627   9.316  68.323  1.00  0.00     0.000 HD 
HETATM   16  C   UNL     1      -9.057  11.251  68.508  1.00  0.00    -0.173 A  
HETATM   17  C   UNL     1     -10.184  10.447  68.225  1.00  0.00    -0.160 A  
HETATM   18  C   UNL     1      -9.232  12.728  68.811  1.00  0.00     0.159 C  
HETATM   19  C   UNL     1      -7.952  13.579  68.729  1.00  0.00    -0.002 C  
HETATM   20  C   UNL     1     -10.055   9.090  67.860  1.00  0.00    -0.246 A  
HETATM   21  O   UNL     1     -11.437  10.995  68.265  1.00  0.00    -0.278 OA 
HETATM   22  C   UNL     1      -6.517  11.500  68.697  1.00  0.00    -0.057 C  
HETATM   23  C   UNL     1     -11.239   8.246  67.553  1.00  0.00     0.709 C  
HETATM   24  C   UNL     1      -6.796  12.830  69.396  1.00  0.00     0.039 C  
HETATM   25  O   UNL     1      -7.664  13.890  67.365  1.00  0.00    -0.178 OA 
HETATM   26  H   UNL     1     -12.195  10.455  68.075  1.00  0.00     0.000 HD 
HETATM   27  O   UNL     1     -12.387   8.662  67.642  1.00  0.00     4.694 OA 
HETATM   28  H   UNL     1      -6.874  14.416  67.315  1.00  0.00     0.000 HD 
BRANCH  19  29
HETATM   29  C   UNL     1      -8.195  14.939  69.414  1.00  0.00    -0.084 C  
HETATM   30  O   UNL     1      -7.514  15.939  69.165  1.00  0.00    -0.183 OA 
BRANCH  29  31
HETATM   31  C   UNL     1      -9.307  15.016  70.458  1.00  0.00     1.164 C  
HETATM   32  O   UNL     1     -10.215  16.068  70.155  1.00  0.00    -0.208 OA 
HETATM   33  H   UNL     1     -10.906  16.116  70.804  1.00  0.00     0.000 HD 
ENDBRANCH  29  31
ENDBRANCH  19  29
BRANCH  22  34
HETATM   34  O   UNL     1      -6.114  11.688  67.353  1.00  0.00    -0.071 OA 
BRANCH  34  35
HETATM   35  C   UNL     1      -6.915  12.361  66.404  1.00  0.00     1.043 C  
HETATM   36  C   UNL     1      -8.408  12.540  66.695  1.00  0.00     0.040 C  
HETATM   37  C   UNL     1      -8.687  13.506  67.856  1.00  0.00    -0.183 C  
HETATM   38  C   UNL     1      -7.815  14.780  67.775  1.00  0.00    -0.151 C  
HETATM   39  N   UNL     1     -10.124  13.865  67.887  1.00  0.00    -0.236 NA 
HETATM   40  C   UNL     1      -6.361  14.392  67.475  1.00  0.00    -0.005 C  
HETATM   41  H2  UNL     1     -10.722  13.040  67.925  1.00  0.00     0.000 HD 
HETATM   42  O   UNL     1      -8.328  15.650  66.756  1.00  0.00    -0.234 OA 
HETATM   43  H1  UNL     1     -10.308  14.506  68.658  1.00  0.00     0.000 HD 
HETATM   44  C   UNL     1      -5.425  15.582  67.353  1.00  0.00     0.085 C  
HETATM   45  H   UNL     1      -7.792  16.433  66.706  1.00  0.00     0.000 HD 
HETATM   46  O   UNL     1      -6.299  13.642  66.248  1.00  0.00     2.523 OA 
ENDBRANCH  34  35
ENDBRANCH  22  34
ENDBRANCH   2   3
TORSDOF 5
ENDMDL
MODEL      186
REMARK 921   NORMALIZED FREE ENERGY PREDICTED BY IDOCK:   75.63 KCAL/MOL
REMARK 922        TOTAL FREE ENERGY PREDICTED BY IDOCK:   96.46 KCAL/MOL
REMARK 923 INTER-LIGAND FREE ENERGY PREDICTED BY IDOCK:   34.40 KCAL/MOL
REMARK 924 INTRA-LIGAND FREE ENERGY PREDICTED BY IDOCK:   62.06 KCAL/MOL
REMARK 927      BINDING AFFINITY PREDICTED BY RF-SCORE:    0.00 PKD
ROOT
HETATM    1  C   UNL     1      -8.140   9.996  64.464  1.00  0.00    -0.156 C  
HETATM    2  O   UNL     1      -9.182   9.851  63.505  1.00  0.00    -0.258 OA 
ENDROOT
BRANCH   2   3
HETATM    3  C   UNL     1      -9.814   8.636  63.446  1.00  0.00     3.499 A  
HETATM    4  C   UNL     1     -10.617   8.268  62.357  1.00  0.00     7.566 A  
HETATM    5  C   UNL     1     -11.279   7.044  62.342  1.00  0.00    10.609 A  
HETATM    6  C   UNL     1     -11.152   6.182  63.423  1.00  0.00     8.484 A  
HETATM    7  C   UNL     1     -10.359   6.539  64.526  1.00  0.00     4.980 A  
HETATM    8  C   UNL     1      -9.686   7.760  64.548  1.00  0.00     2.904 A  
HETATM    9  C   UNL     1      -8.838   8.077  65.724  1.00  0.00    -0.132 C  
HETATM   10  O   UNL     1      -8.238   9.144  65.832  1.00  0.00    -0.108 OA 
HETATM   11  C   UNL     1      -8.687   7.100  66.829  1.00  0.00    -0.128 A  
HETATM   12  C   UNL     1      -7.831   7.387  67.916  1.00  0.00    -0.118 A  
HETATM   13  O   UNL     1      -7.090   8.546  67.962  1.00  0.00    -0.082 OA 
HETATM   14  C   UNL     1      -7.720   6.524  69.026  1.00  0.00    -0.109 A  
HETATM   15  H   UNL     1      -6.514   8.738  68.692  1.00  0.00     0.000 HD 
HETATM   16  C   UNL     1      -8.508   5.356  69.052  1.00  0.00    -0.100 A  
HETATM   17  C   UNL     1      -9.311   5.043  67.933  1.00  0.00    -0.124 A  
HETATM   18  C   UNL     1      -8.497   4.439  70.263  1.00  0.00    -0.094 C  
HETATM   19  C   UNL     1      -7.907   5.045  71.548  1.00  0.00    -0.110 C  
HETATM   20  C   UNL     1      -9.410   5.910  66.824  1.00  0.00    -0.144 A  
HETATM   21  O   UNL     1     -10.048   3.889  67.926  1.00  0.00     0.042 OA 
HETATM   22  C   UNL     1      -6.921   6.971  70.245  1.00  0.00    -0.065 C  
HETATM   23  C   UNL     1     -10.262   5.586  65.650  1.00  0.00     0.301 C  
HETATM   24  C   UNL     1      -6.633   5.822  71.211  1.00  0.00    -0.046 C  
HETATM   25  O   UNL     1      -8.881   5.875  72.184  1.00  0.00    -0.136 OA 
HETATM   26  H   UNL     1     -10.587   3.679  67.174  1.00  0.00     0.000 HD 
HETATM   27  O   UNL     1     -10.886   4.536  65.557  1.00  0.00    -0.280 OA 
HETATM   28  H   UNL     1      -8.517   6.248  72.978  1.00  0.00     0.000 HD 
BRANCH  19  29
HETATM   29  C   UNL     1      -7.614   3.918  72.559  1.00  0.00    -0.065 C  
HETATM   30  O   UNL     1      -8.415   3.591  73.441  1.00  0.00    -0.081 OA 
BRANCH  29  31
HETATM   31  C   UNL     1      -6.261   3.217  72.462  1.00  0.00    -0.013 C  
HETATM   32  O   UNL     1      -5.803   2.817  73.748  1.00  0.00     0.000 OA 
HETATM   33  H   UNL     1      -4.962   2.381  73.688  1.00  0.00     0.000 HD 
ENDBRANCH  29  31
ENDBRANCH  19  29
BRANCH  22  34
HETATM   34  O   UNL     1      -7.801   7.924  70.811  1.00  0.00    -0.087 OA 
BRANCH  34  35
HETATM   35  C   UNL     1      -8.806   7.576  71.740  1.00  0.00    -0.115 C  
HETATM   36  C   UNL     1     -10.186   8.230  71.613  1.00  0.00    -0.286 C  
HETATM   37  C   UNL     1     -10.956   7.780  70.363  1.00  0.00    -0.249 C  
HETATM   38  C   UNL     1     -10.864   6.253  70.141  1.00  0.00    -0.313 C  
HETATM   39  N   UNL     1     -12.372   8.204  70.457  1.00  0.00    -0.397 NA 
HETATM   40  C   UNL     1      -9.411   5.792  70.313  1.00  0.00    -0.156 C  
HETATM   41  H2  UNL     1     -12.460   9.207  70.618  1.00  0.00     0.000 HD 
HETATM   42  O   UNL     1     -11.723   5.579  71.073  1.00  0.00     0.314 OA 
HETATM   43  H1  UNL     1     -12.883   7.905  69.626  1.00  0.00     0.000 HD 
HETATM   44  C   UNL     1      -9.220   4.297  70.137  1.00  0.00    -0.205 C  
HETATM   45  H   UNL     1     -11.667   4.641  70.937  1.00  0.00     0.000 HD 
HETATM   46  O   UNL     1      -8.934   6.157  71.622  1.00  0.00    -0.142 OA 
ENDBRANCH  34  35
ENDBRANCH  22  34
ENDBRANCH   2   3
TORSDOF 5
ENDMDL
MODEL      187
REMARK 921   NORMALIZED FREE ENERGY PREDICTED BY IDOCK:   84.89 KCAL/MOL
REMARK 922        TOTAL FREE ENERGY PREDICTED BY IDOCK:  108.42 KCAL/MOL
REMARK 923 INTER-LIGAND FREE ENERGY PREDICTED BY IDOCK:   28.47 KCAL/MOL
REMARK 924 INTRA-LIGAND FREE ENERGY PREDICTED BY IDOCK:   79.95 KCAL/MOL
REMARK 927      BINDING AFFINITY PREDICTED BY RF-SCORE:    0.00 PKD
ROOT
HETATM    1  C   UNL     1     -12.852   5.837  66.282  1.00  0.00     8.131 C  
HETATM    2  O   UNL     1     -11.808   6.565  65.646  1.00  0.00     3.534 OA 
ENDROOT
BRANCH   2   3
HETATM    3  C   UNL     1     -10.557   6.478  66.199  1.00  0.00     0.566 A  
HETATM    4  C   UNL     1     -10.041   5.267  66.683  1.00  0.00    -0.259 A  
HETATM    5  C   UNL     1      -8.783   5.216  67.276  1.00  0.00    -0.103 A  
HETATM    6  C   UNL     1      -8.035   6.379  67.401  1.00  0.00    -0.116 A  
HETATM    7  C   UNL     1      -8.541   7.602  66.930  1.00  0.00    -0.123 A  
HETATM    8  C   UNL     1      -9.797   7.663  66.328  1.00  0.00    -0.080 A  
HETATM    9  C   UNL     1     -10.274   8.974  65.821  1.00  0.00     0.371 C  
HETATM   10  O   UNL     1     -11.380   9.116  65.306  1.00  0.00     4.126 OA 
HETATM   11  C   UNL     1      -9.416  10.179  65.924  1.00  0.00    -0.249 A  
HETATM   12  C   UNL     1      -9.854  11.409  65.386  1.00  0.00    -0.236 A  
HETATM   13  O   UNL     1     -11.055  11.517  64.721  1.00  0.00    -0.296 OA 
HETATM   14  C   UNL     1      -9.107  12.596  65.533  1.00  0.00     0.453 A  
HETATM   15  H   UNL     1     -11.349  12.344  64.360  1.00  0.00     0.000 HD 
HETATM   16  C   UNL     1      -7.901  12.547  66.260  1.00  0.00     0.831 A  
HETATM   17  C   UNL     1      -7.437  11.302  66.739  1.00  0.00    -0.146 A  
HETATM   18  C   UNL     1      -7.104  13.812  66.529  1.00  0.00     2.206 C  
HETATM   19  C   UNL     1      -7.862  15.133  66.309  1.00  0.00     1.049 C  
HETATM   20  C   UNL     1      -8.189  10.118  66.580  1.00  0.00    -0.124 A  
HETATM   21  O   UNL     1      -6.245  11.232  67.408  1.00  0.00    -0.059 OA 
HETATM   22  C   UNL     1      -9.714  13.922  65.088  1.00  0.00     0.051 C  
HETATM   23  C   UNL     1      -7.705   8.809  67.091  1.00  0.00    -0.096 C  
HETATM   24  C   UNL     1      -8.680  15.046  65.018  1.00  0.00     3.425 C  
HETATM   25  O   UNL     1      -8.687  15.411  67.441  1.00  0.00    -0.164 OA 
HETATM   26  H   UNL     1      -5.933  10.395  67.730  1.00  0.00     0.000 HD 
HETATM   27  O   UNL     1      -6.616   8.674  67.634  1.00  0.00    -0.060 OA 
HETATM   28  H   UNL     1      -9.155  16.227  67.305  1.00  0.00     0.000 HD 
BRANCH  19  29
HETATM   29  C   UNL     1      -6.855  16.298  66.245  1.00  0.00     0.736 C  
HETATM   30  O   UNL     1      -5.902  16.396  67.026  1.00  0.00    -0.265 OA 
BRANCH  29  31
HETATM   31  C   UNL     1      -7.085  17.374  65.187  1.00  0.00     2.062 C  
HETATM   32  O   UNL     1      -6.423  17.042  63.973  1.00  0.00     5.520 OA 
HETATM   33  H   UNL     1      -6.566  17.711  63.315  1.00  0.00     0.000 HD 
ENDBRANCH  29  31
ENDBRANCH  19  29
BRANCH  22  34
HETATM   34  O   UNL     1     -10.661  14.145  66.117  1.00  0.00    -0.290 OA 
BRANCH  34  35
HETATM   35  C   UNL     1     -10.346  14.838  67.306  1.00  0.00    -0.247 C  
HETATM   36  C   UNL     1      -8.897  14.830  67.803  1.00  0.00    -0.175 C  
HETATM   37  C   UNL     1      -7.943  15.622  66.896  1.00  0.00    -0.243 C  
HETATM   38  C   UNL     1      -8.543  16.978  66.462  1.00  0.00    -0.270 C  
HETATM   39  N   UNL     1      -6.644  15.827  67.579  1.00  0.00    -0.171 NA 
HETATM   40  C   UNL     1      -9.994  16.777  66.004  1.00  0.00    -0.313 C  
HETATM   41  H2  UNL     1      -6.233  14.946  67.888  1.00  0.00     0.000 HD 
HETATM   42  O   UNL     1      -8.481  17.904  67.557  1.00  0.00    -0.229 OA 
HETATM   43  H1  UNL     1      -6.010  16.352  66.976  1.00  0.00     0.000 HD 
HETATM   44  C   UNL     1     -10.682  18.062  65.578  1.00  0.00     0.035 C  
HETATM   45  H   UNL     1      -8.850  18.738  67.290  1.00  0.00     0.000 HD 
HETATM   46  O   UNL     1     -10.764  16.184  67.066  1.00  0.00    -0.313 OA 
ENDBRANCH  34  35
ENDBRANCH  22  34
ENDBRANCH   2   3
TORSDOF 5
ENDMDL
MODEL      188
REMARK 921   NORMALIZED FREE ENERGY PREDICTED BY IDOCK:   88.39 KCAL/MOL
REMARK 922        TOTAL FREE ENERGY PREDICTED BY IDOCK:  112.94 KCAL/MOL
REMARK 923 INTER-LIGAND FREE ENERGY PREDICTED BY IDOCK:   18.89 KCAL/MOL
REMARK 924 INTRA-LIGAND FREE ENERGY PREDICTED BY IDOCK:   94.05 KCAL/MOL
REMARK 927      BINDING AFFINITY PREDICTED BY RF-SCORE:    0.00 PKD
ROOT
HETATM    1  C   UNL     1      -7.426   2.597  68.434  1.00  0.00    -0.048 C  
HETATM    2  O   UNL     1      -7.740   2.338  67.070  1.00  0.00    -0.065 OA 
ENDROOT
BRANCH   2   3
HETATM    3  C   UNL     1      -8.047   3.417  66.283  1.00  0.00    -0.092 A  
HETATM    4  C   UNL     1      -7.630   3.504  64.946  1.00  0.00    -0.077 A  
HETATM    5  C   UNL     1      -7.923   4.629  64.181  1.00  0.00    -0.098 A  
HETATM    6  C   UNL     1      -8.624   5.684  64.751  1.00  0.00    -0.061 A  
HETATM    7  C   UNL     1      -9.039   5.617  66.091  1.00  0.00    -0.158 A  
HETATM    8  C   UNL     1      -8.758   4.491  66.864  1.00  0.00    -0.111 A  
HETATM    9  C   UNL     1      -9.245   4.457  68.266  1.00  0.00    -0.137 C  
HETATM   10  O   UNL     1      -9.012   3.516  69.019  1.00  0.00    -0.100 OA 
HETATM   11  C   UNL     1     -10.040   5.583  68.814  1.00  0.00    -0.256 A  
HETATM   12  C   UNL     1     -10.549   5.516  70.130  1.00  0.00    -0.297 A  
HETATM   13  O   UNL     1     -10.361   4.403  70.919  1.00  0.00    -0.113 OA 
HETATM   14  C   UNL     1     -11.239   6.595  70.719  1.00  0.00    -0.366 A  
HETATM   15  H   UNL     1     -10.703   4.358  71.803  1.00  0.00     0.000 HD 
HETATM   16  C   UNL     1     -11.401   7.779  69.972  1.00  0.00    -0.059 A  
HETATM   17  C   UNL     1     -10.948   7.815  68.635  1.00  0.00     0.166 A  
HETATM   18  C   UNL     1     -12.055   9.003  70.589  1.00  0.00    -0.075 C  
HETATM   19  C   UNL     1     -12.163   8.995  72.124  1.00  0.00    -0.357 C  
HETATM   20  C   UNL     1     -10.264   6.727  68.053  1.00  0.00    -0.200 A  
HETATM   21  O   UNL     1     -11.138   8.943  67.883  1.00  0.00    -0.497 OA 
HETATM   22  C   UNL     1     -11.607   6.532  72.197  1.00  0.00    -0.308 C  
HETATM   23  C   UNL     1      -9.779   6.768  66.648  1.00  0.00    -0.158 C  
HETATM   24  C   UNL     1     -12.612   7.611  72.599  1.00  0.00     0.176 C  
HETATM   25  O   UNL     1     -10.911   9.372  72.699  1.00  0.00     0.797 OA 
HETATM   26  H   UNL     1     -10.834   8.968  66.984  1.00  0.00     0.000 HD 
HETATM   27  O   UNL     1      -9.983   7.721  65.907  1.00  0.00     0.184 OA 
HETATM   28  H   UNL     1     -10.977   9.368  73.647  1.00  0.00     0.000 HD 
BRANCH  19  29
HETATM   29  C   UNL     1     -13.159  10.082  72.574  1.00  0.00     0.029 C  
HETATM   30  O   UNL     1     -14.352  10.064  72.253  1.00  0.00     0.192 OA 
BRANCH  29  31
HETATM   31  C   UNL     1     -12.617  11.230  73.423  1.00  0.00     7.640 C  
HETATM   32  O   UNL     1     -13.672  12.067  73.878  1.00  0.00     5.376 OA 
HETATM   33  H   UNL     1     -13.335  12.780  74.407  1.00  0.00     0.000 HD 
ENDBRANCH  29  31
ENDBRANCH  19  29
BRANCH  22  34
HETATM   34  O   UNL     1     -10.343   6.742  72.800  1.00  0.00    -0.192 OA 
BRANCH  34  35
HETATM   35  C   UNL     1      -9.999   7.948  73.449  1.00  0.00    -0.206 C  
HETATM   36  C   UNL     1      -8.833   8.775  72.898  1.00  0.00     0.216 C  
HETATM   37  C   UNL     1      -9.131   9.406  71.530  1.00  0.00     0.341 C  
HETATM   38  C   UNL     1     -10.543  10.033  71.474  1.00  0.00     0.795 C  
HETATM   39  N   UNL     1      -8.102  10.420  71.201  1.00  0.00     1.080 NA 
HETATM   40  C   UNL     1     -11.565   9.057  72.071  1.00  0.00    -0.343 C  
HETATM   41  H2  UNL     1      -7.159  10.034  71.246  1.00  0.00     0.000 HD 
HETATM   42  O   UNL     1     -10.547  11.274  72.193  1.00  0.00     5.697 OA 
HETATM   43  H1  UNL     1      -8.301  10.838  70.292  1.00  0.00     0.000 HD 
HETATM   44  C   UNL     1     -12.986   9.593  72.082  1.00  0.00    -0.493 C  
HETATM   45  H   UNL     1     -11.415  11.660  72.159  1.00  0.00     0.000 HD 
HETATM   46  O   UNL     1     -11.196   8.729  73.424  1.00  0.00     1.068 OA 
ENDBRANCH  34  35
ENDBRANCH  22  34
ENDBRANCH   2   3
TORSDOF 5
ENDMDL
MODEL      189
REMARK 921   NORMALIZED FREE ENERGY PREDICTED BY IDOCK:  103.40 KCAL/MOL
REMARK 922        TOTAL FREE ENERGY PREDICTED BY IDOCK:  132.34 KCAL/MOL
REMARK 923 INTER-LIGAND FREE ENERGY PREDICTED BY IDOCK:   69.31 KCAL/MOL
REMARK 924 INTRA-LIGAND FREE ENERGY PREDICTED BY IDOCK:   63.03 KCAL/MOL
REMARK 927      BINDING AFFINITY PREDICTED BY RF-SCORE:    0.00 PKD
ROOT
HETATM    1  C   UNL     1      -8.031   8.005  71.102  1.00  0.00    -0.094 C  
HETATM    2  O   UNL     1      -7.705   8.947  72.118  1.00  0.00    -0.341 OA 
ENDROOT
BRANCH   2   3
HETATM    3  C   UNL     1      -8.720   9.740  72.585  1.00  0.00     4.252 A  
HETATM    4  C   UNL     1      -9.231   9.606  73.884  1.00  0.00     6.508 A  
HETATM    5  C   UNL     1     -10.289  10.399  74.319  1.00  0.00    18.353 A  
HETATM    6  C   UNL     1     -10.854  11.325  73.452  1.00  0.00    16.348 A  
HETATM    7  C   UNL     1     -10.360  11.466  72.144  1.00  0.00    11.084 A  
HETATM    8  C   UNL     1      -9.296  10.681  71.702  1.00  0.00     6.525 A  
HETATM    9  C   UNL     1      -8.793  10.889  70.320  1.00  0.00     1.838 C  
HETATM   10  O   UNL     1      -7.880  10.218  69.847  1.00  0.00    -0.166 OA 
HETATM   11  C   UNL     1      -9.389  11.931  69.450  1.00  0.00     0.867 A  
HETATM   12  C   UNL     1      -8.865  12.161  68.159  1.00  0.00    -0.187 A  
HETATM   13  O   UNL     1      -7.774  11.465  67.691  1.00  0.00    -0.111 OA 
HETATM   14  C   UNL     1      -9.452  13.083  67.268  1.00  0.00    -0.224 A  
HETATM   15  H   UNL     1      -7.421  11.619  66.823  1.00  0.00     0.000 HD 
HETATM   16  C   UNL     1     -10.609  13.774  67.681  1.00  0.00    -0.244 A  
HETATM   17  C   UNL     1     -11.089  13.588  68.996  1.00  0.00    -0.250 A  
HETATM   18  C   UNL     1     -11.336  14.709  66.730  1.00  0.00    -0.360 C  
HETATM   19  C   UNL     1     -10.973  14.556  65.242  1.00  0.00    -0.360 C  
HETATM   20  C   UNL     1     -10.490  12.667  69.882  1.00  0.00     1.253 A  
HETATM   21  O   UNL     1     -12.186  14.285  69.425  1.00  0.00    -0.393 OA 
HETATM   22  C   UNL     1      -8.952  13.158  65.830  1.00  0.00     0.478 C  
HETATM   23  C   UNL     1     -11.000  12.464  71.263  1.00  0.00     4.466 C  
HETATM   24  C   UNL     1      -9.458  14.401  65.097  1.00  0.00     0.491 C  
HETATM   25  O   UNL     1     -11.675  13.443  64.686  1.00  0.00    -0.343 OA 
HETATM   26  H   UNL     1     -12.508  14.161  70.309  1.00  0.00     0.000 HD 
HETATM   27  O   UNL     1     -11.932  13.111  71.724  1.00  0.00     0.546 OA 
HETATM   28  H   UNL     1     -11.452  13.348  63.767  1.00  0.00     0.000 HD 
BRANCH  19  29
HETATM   29  C   UNL     1     -11.479  15.785  64.461  1.00  0.00    -0.289 C  
HETATM   30  O   UNL     1     -10.989  16.911  64.604  1.00  0.00    -0.894 OA 
BRANCH  29  31
HETATM   31  C   UNL     1     -12.651  15.582  63.504  1.00  0.00     1.407 C  
HETATM   32  O   UNL     1     -12.493  14.381  62.758  1.00  0.00    -0.357 OA 
HETATM   33  H   UNL     1     -13.222  14.254  62.163  1.00  0.00     0.000 HD 
ENDBRANCH  29  31
ENDBRANCH  19  29
BRANCH  22  34
HETATM   34  O   UNL     1      -9.503  11.971  65.290  1.00  0.00    -0.160 OA 
BRANCH  34  35
HETATM   35  C   UNL     1     -10.769  11.476  65.672  1.00  0.00    -0.267 C  
HETATM   36  C   UNL     1     -11.037   9.972  65.563  1.00  0.00     1.238 C  
HETATM   37  C   UNL     1     -10.227   9.139  66.569  1.00  0.00    -0.252 C  
HETATM   38  C   UNL     1     -10.232   9.767  67.981  1.00  0.00    -0.190 C  
HETATM   39  N   UNL     1     -10.747   7.753  66.618  1.00  0.00    -0.379 NA 
HETATM   40  C   UNL     1      -9.949  11.272  67.878  1.00  0.00    -0.175 C  
HETATM   41  H2  UNL     1     -10.769   7.321  65.695  1.00  0.00     0.000 HD 
HETATM   42  O   UNL     1     -11.501   9.531  68.608  1.00  0.00    -0.452 OA 
HETATM   43  H1  UNL     1     -10.209   7.200  67.286  1.00  0.00     0.000 HD 
HETATM   44  C   UNL     1      -9.956  11.986  69.218  1.00  0.00     0.394 C  
HETATM   45  H   UNL     1     -11.504   9.917  69.477  1.00  0.00     0.000 HD 
HETATM   46  O   UNL     1     -10.931  11.896  67.029  1.00  0.00    -0.248 OA 
ENDBRANCH  34  35
ENDBRANCH  22  34
ENDBRANCH   2   3
TORSDOF 5
ENDMDL
MODEL      190
REMARK 921   NORMALIZED FREE ENERGY PREDICTED BY IDOCK:  112.35 KCAL/MOL
REMARK 922        TOTAL FREE ENERGY PREDICTED BY IDOCK:  143.91 KCAL/MOL
REMARK 923 INTER-LIGAND FREE ENERGY PREDICTED BY IDOCK:   45.08 KCAL/MOL
REMARK 924 INTRA-LIGAND FREE ENERGY PREDICTED BY IDOCK:   98.83 KCAL/MOL
REMARK 927      BINDING AFFINITY PREDICTED BY RF-SCORE:    0.00 PKD
ROOT
HETATM    1  C   UNL     1      -9.061  12.576  71.737  1.00  0.00    19.406 C  
HETATM    2  O   UNL     1      -7.688  12.628  72.110  1.00  0.00    10.085 OA 
ENDROOT
BRANCH   2   3
HETATM    3  C   UNL     1      -7.109  11.459  72.531  1.00  0.00     8.594 A  
HETATM    4  C   UNL     1      -6.515  11.338  73.796  1.00  0.00     4.267 A  
HETATM    5  C   UNL     1      -5.899  10.151  74.182  1.00  0.00     0.624 A  
HETATM    6  C   UNL     1      -5.862   9.078  73.301  1.00  0.00    -0.032 A  
HETATM    7  C   UNL     1      -6.444   9.186  72.027  1.00  0.00     0.080 A  
HETATM    8  C   UNL     1      -7.070  10.369  71.633  1.00  0.00     2.343 A  
HETATM    9  C   UNL     1      -7.695  10.422  70.287  1.00  0.00     0.320 C  
HETATM   10  O   UNL     1      -8.238  11.436  69.856  1.00  0.00     0.808 OA 
HETATM   11  C   UNL     1      -7.681   9.232  69.403  1.00  0.00    -0.082 A  
HETATM   12  C   UNL     1      -8.330   9.273  68.149  1.00  0.00    -0.120 A  
HETATM   13  O   UNL     1      -9.020  10.389  67.733  1.00  0.00    -0.131 OA 
HETATM   14  C   UNL     1      -8.273   8.194  67.243  1.00  0.00    -0.121 A  
HETATM   15  H   UNL     1      -9.456  10.417  66.890  1.00  0.00     0.000 HD 
HETATM   16  C   UNL     1      -7.525   7.054  67.600  1.00  0.00    -0.098 A  
HETATM   17  C   UNL     1      -6.934   6.993  68.881  1.00  0.00    -0.079 A  
HETATM   18  C   UNL     1      -7.353   5.902  66.626  1.00  0.00    -0.079 C  
HETATM   19  C   UNL     1      -7.697   6.216  65.159  1.00  0.00    -0.097 C  
HETATM   20  C   UNL     1      -7.003   8.076  69.783  1.00  0.00    -0.052 A  
HETATM   21  O   UNL     1      -6.241   5.874  69.258  1.00  0.00    -0.030 OA 
HETATM   22  C   UNL     1      -8.839   8.365  65.838  1.00  0.00    -0.175 C  
HETATM   23  C   UNL     1      -6.374   8.016  71.129  1.00  0.00    -0.034 C  
HETATM   24  C   UNL     1      -8.989   7.035  65.099  1.00  0.00     0.358 C  
HETATM   25  O   UNL     1      -6.606   6.902  64.542  1.00  0.00    -0.041 OA 
HETATM   26  H   UNL     1      -5.845   5.833  70.119  1.00  0.00     0.000 HD 
HETATM   27  O   UNL     1      -5.804   7.016  71.547  1.00  0.00    -0.036 OA 
HETATM   28  H   UNL     1      -6.819   7.096  63.636  1.00  0.00     0.000 HD 
BRANCH  19  29
HETATM   29  C   UNL     1      -7.843   4.898  64.373  1.00  0.00    -0.088 C  
HETATM   30  O   UNL     1      -7.745   4.844  63.142  1.00  0.00    -0.061 OA 
BRANCH  29  31
HETATM   31  C   UNL     1      -8.153   3.632  65.168  1.00  0.00    -0.097 C  
HETATM   32  O   UNL     1      -7.199   2.614  64.892  1.00  0.00    -0.056 OA 
HETATM   33  H   UNL     1      -7.391   1.827  65.387  1.00  0.00     0.000 HD 
ENDBRANCH  29  31
ENDBRANCH  19  29
BRANCH  22  34
HETATM   34  O   UNL     1      -7.849   9.186  65.245  1.00  0.00    -0.100 OA 
BRANCH  34  35
HETATM   35  C   UNL     1      -6.665   8.663  64.678  1.00  0.00    -0.069 C  
HETATM   36  C   UNL     1      -5.780   7.749  65.531  1.00  0.00    -0.037 C  
HETATM   37  C   UNL     1      -6.429   6.390  65.834  1.00  0.00    -0.043 C  
HETATM   38  C   UNL     1      -7.101   5.775  64.586  1.00  0.00    -0.057 C  
HETATM   39  N   UNL     1      -5.422   5.458  66.391  1.00  0.00    -0.012 NA 
HETATM   40  C   UNL     1      -7.937   6.843  63.869  1.00  0.00    -0.064 C  
HETATM   41  H2  UNL     1      -4.953   5.847  67.209  1.00  0.00     0.000 HD 
HETATM   42  O   UNL     1      -6.095   5.246  63.710  1.00  0.00    -0.021 OA 
HETATM   43  H1  UNL     1      -5.853   4.556  66.593  1.00  0.00     0.000 HD 
HETATM   44  C   UNL     1      -8.621   6.340  62.611  1.00  0.00     0.177 C  
HETATM   45  H   UNL     1      -6.507   4.868  62.942  1.00  0.00     0.000 HD 
HETATM   46  O   UNL     1      -7.100   7.960  63.512  1.00  0.00    -0.073 OA 
ENDBRANCH  34  35
ENDBRANCH  22  34
ENDBRANCH   2   3
TORSDOF 5
ENDMDL
