MODEL        1
REMARK 921   NORMALIZED FREE ENERGY PREDICTED BY IDOCK:   -6.13 KCAL/MOL
REMARK 922        TOTAL FREE ENERGY PREDICTED BY IDOCK:  -15.31 KCAL/MOL
REMARK 923 INTER-LIGAND FREE ENERGY PREDICTED BY IDOCK:  -12.59 KCAL/MOL
REMARK 924 INTRA-LIGAND FREE ENERGY PREDICTED BY IDOCK:   -2.72 KCAL/MOL
REMARK 927      BINDING AFFINITY PREDICTED BY RF-SCORE:    0.00 PKD
ROOT
HETATM    1  C   UNL     1     -10.667   5.181  73.827  1.00  0.00    -0.352 C  
HETATM    2  C   UNL     1     -10.920   5.322  72.332  1.00  0.00    -0.273 C  
ENDROOT
BRANCH   2   3
HETATM    3  C   UNL     1     -12.167   6.171  72.084  1.00  0.00    -0.202 C  
BRANCH   3   4
HETATM    4  C   UNL     1     -12.017   7.213  70.965  1.00  0.00    -0.347 C  
BRANCH   4   5
HETATM    5  N   UNL     1     -10.717   7.917  70.824  1.00  0.00    -0.219 NA 
BRANCH   5   6
HETATM    6  C   UNL     1     -10.271   7.931  69.412  1.00  0.00    -0.206 C  
BRANCH   6   7
HETATM    7  C   UNL     1     -10.241   6.576  68.677  1.00  0.00    -0.192 C  
BRANCH   7   8
HETATM    8  C   UNL     1     -10.594   6.653  67.191  1.00  0.00    -0.401 C  
HETATM    9  C   UNL     1      -9.799   7.755  66.503  1.00  0.00    -0.255 C  
ENDBRANCH   7   8
ENDBRANCH   6   7
ENDBRANCH   5   6
BRANCH   5  10
HETATM   10  C   UNL     1     -10.849   9.301  71.346  1.00  0.00    -0.364 C  
BRANCH  10  11
HETATM   11  C   UNL     1     -12.275   9.722  71.732  1.00  0.00    -0.449 C  
BRANCH  11  12
HETATM   12  C   UNL     1     -12.717  10.952  70.947  1.00  0.00    -0.370 C  
BRANCH  12  13
HETATM   13  O   UNL     1     -12.624  10.682  69.545  1.00  0.00    -0.259 OA 
BRANCH  13  14
HETATM   14  C   UNL     1     -11.859  11.556  68.819  1.00  0.00    -0.330 A  
HETATM   15  C   UNL     1     -11.039  11.226  67.736  1.00  0.00    -0.328 A  
HETATM   16  C   UNL     1     -10.240  12.203  67.125  1.00  0.00    -0.226 A  
HETATM   17  C   UNL     1     -10.260  13.525  67.588  1.00  0.00    -0.239 A  
HETATM   18  C   UNL     1     -11.160  13.873  68.603  1.00  0.00    -0.290 A  
HETATM   19  C   UNL     1     -11.924  12.886  69.237  1.00  0.00    -0.313 A  
BRANCH  17  20
HETATM   20  C   UNL     1      -9.292  14.513  67.012  1.00  0.00    -0.238 C  
HETATM   21  O   UNL     1      -8.100  14.217  66.988  1.00  0.00    -0.147 OA 
BRANCH  20  22
HETATM   22  C   UNL     1      -9.789  15.810  66.545  1.00  0.00    -0.286 A  
HETATM   23  C   UNL     1     -10.633  16.010  65.454  1.00  0.00    -0.408 A  
HETATM   24  C   UNL     1      -8.585  19.076  68.179  1.00  0.00    -0.320 A  
HETATM   25  O   UNL     1     -10.910  17.339  65.314  1.00  0.00    -0.576 OA 
HETATM   26  C   UNL     1      -9.336  19.924  67.368  1.00  0.00    -0.468 A  
HETATM   27  C   UNL     1     -10.189  18.014  66.238  1.00  0.00    -0.381 A  
HETATM   28  C   UNL     1      -9.452  17.132  67.017  1.00  0.00    -0.257 A  
HETATM   29  C   UNL     1     -10.154  19.400  66.363  1.00  0.00    -0.532 A  
HETATM   30  C   UNL     1      -8.597  17.690  67.988  1.00  0.00    -0.248 A  
BRANCH  23  31
HETATM   31  C   UNL     1     -11.184  15.184  64.339  1.00  0.00    -0.181 C  
BRANCH  31  32
HETATM   32  C   UNL     1     -12.216  14.111  64.682  1.00  0.00    -0.465 C  
BRANCH  32  33
HETATM   33  C   UNL     1     -12.188  13.054  63.563  1.00  0.00    -0.580 C  
HETATM   34  C   UNL     1     -11.113  11.997  63.728  1.00  0.00    -0.510 C  
ENDBRANCH  32  33
ENDBRANCH  31  32
ENDBRANCH  23  31
BRANCH  24  35
HETATM   35  N   UNL     1      -7.771  19.605  69.223  1.00  0.00    -0.235 N  
HETATM   36  H   UNL     1      -8.157  19.785  70.150  1.00  0.00     0.000 HD 
BRANCH  35  37
HETATM   37  S   UNL     1      -6.149  19.925  68.881  1.00  0.00    -0.291 S  
HETATM   38  C   UNL     1      -5.398  18.356  69.259  1.00  0.00    -0.203 C  
HETATM   39  O   UNL     1      -5.986  20.210  67.474  1.00  0.00    -0.181 OA 
HETATM   40  O   UNL     1      -5.723  20.869  69.893  1.00  0.00    -0.468 OA 
ENDBRANCH  35  37
ENDBRANCH  24  35
ENDBRANCH  20  22
ENDBRANCH  17  20
ENDBRANCH  13  14
ENDBRANCH  12  13
ENDBRANCH  11  12
ENDBRANCH  10  11
ENDBRANCH   5  10
ENDBRANCH   4   5
ENDBRANCH   3   4
ENDBRANCH   2   3
TORSDOF 18
ENDMDL
MODEL        2
REMARK 921   NORMALIZED FREE ENERGY PREDICTED BY IDOCK:   -6.02 KCAL/MOL
REMARK 922        TOTAL FREE ENERGY PREDICTED BY IDOCK:  -15.08 KCAL/MOL
REMARK 923 INTER-LIGAND FREE ENERGY PREDICTED BY IDOCK:  -12.87 KCAL/MOL
REMARK 924 INTRA-LIGAND FREE ENERGY PREDICTED BY IDOCK:   -2.21 KCAL/MOL
REMARK 927      BINDING AFFINITY PREDICTED BY RF-SCORE:    0.00 PKD
ROOT
HETATM    1  C   UNL     1     -10.654  18.761  66.078  1.00  0.00    -0.442 C  
HETATM    2  C   UNL     1     -10.078  20.170  66.015  1.00  0.00    -0.497 C  
ENDROOT
BRANCH   2   3
HETATM    3  C   UNL     1      -9.463  20.551  67.361  1.00  0.00    -0.551 C  
BRANCH   3   4
HETATM    4  C   UNL     1      -8.720  19.409  68.071  1.00  0.00    -0.320 C  
BRANCH   4   5
HETATM    5  N   UNL     1      -7.238  19.374  67.991  1.00  0.00    -0.264 NA 
BRANCH   5   6
HETATM    6  C   UNL     1      -6.685  20.732  67.778  1.00  0.00    -0.333 C  
BRANCH   6   7
HETATM    7  C   UNL     1      -5.419  20.840  66.905  1.00  0.00    -0.228 C  
BRANCH   7   8
HETATM    8  C   UNL     1      -5.424  19.940  65.668  1.00  0.00    -0.185 C  
HETATM    9  C   UNL     1      -6.517  20.365  64.696  1.00  0.00    -0.329 C  
ENDBRANCH   7   8
ENDBRANCH   6   7
ENDBRANCH   5   6
BRANCH   5  10
HETATM   10  C   UNL     1      -6.694  18.776  69.237  1.00  0.00    -0.262 C  
BRANCH  10  11
HETATM   11  C   UNL     1      -5.999  17.417  69.062  1.00  0.00    -0.198 C  
BRANCH  11  12
HETATM   12  C   UNL     1      -6.013  16.976  67.603  1.00  0.00    -0.131 C  
BRANCH  12  13
HETATM   13  O   UNL     1      -6.230  15.565  67.533  1.00  0.00    -0.174 OA 
BRANCH  13  14
HETATM   14  C   UNL     1      -7.539  15.164  67.478  1.00  0.00    -0.192 A  
HETATM   15  C   UNL     1      -8.612  15.926  67.008  1.00  0.00    -0.245 A  
HETATM   16  C   UNL     1      -9.922  15.431  67.080  1.00  0.00    -0.234 A  
HETATM   17  C   UNL     1     -10.170  14.162  67.617  1.00  0.00    -0.241 A  
HETATM   18  C   UNL     1      -9.084  13.360  67.989  1.00  0.00    -0.205 A  
HETATM   19  C   UNL     1      -7.783  13.875  67.954  1.00  0.00    -0.161 A  
BRANCH  17  20
HETATM   20  C   UNL     1     -11.588  13.719  67.814  1.00  0.00    -0.346 C  
HETATM   21  O   UNL     1     -12.370  13.827  66.873  1.00  0.00    -0.392 OA 
BRANCH  20  22
HETATM   22  C   UNL     1     -12.003  13.220  69.127  1.00  0.00    -0.343 A  
HETATM   23  C   UNL     1     -12.503  13.999  70.171  1.00  0.00    -0.319 A  
HETATM   24  C   UNL     1     -11.526   9.520  70.061  1.00  0.00    -0.109 A  
HETATM   25  O   UNL     1     -12.805  13.208  71.242  1.00  0.00    -0.353 OA 
HETATM   26  C   UNL     1     -12.056   9.630  71.345  1.00  0.00    -0.472 A  
HETATM   27  C   UNL     1     -12.427  11.944  70.945  1.00  0.00    -0.300 A  
HETATM   28  C   UNL     1     -11.899  11.884  69.663  1.00  0.00    -0.406 A  
HETATM   29  C   UNL     1     -12.512  10.863  71.819  1.00  0.00    -0.238 A  
HETATM   30  C   UNL     1     -11.399  10.639  69.230  1.00  0.00    -0.346 A  
BRANCH  23  31
HETATM   31  C   UNL     1     -12.653  15.455  70.465  1.00  0.00    -0.471 C  
BRANCH  31  32
HETATM   32  C   UNL     1     -12.006  16.001  71.737  1.00  0.00    -0.592 C  
BRANCH  32  33
HETATM   33  C   UNL     1     -13.056  15.951  72.860  1.00  0.00    -0.601 C  
HETATM   34  C   UNL     1     -12.506  15.532  74.211  1.00  0.00    -0.792 C  
ENDBRANCH  32  33
ENDBRANCH  31  32
ENDBRANCH  23  31
BRANCH  24  35
HETATM   35  N   UNL     1     -11.085   8.259  69.564  1.00  0.00    -0.442 N  
HETATM   36  H   UNL     1     -10.756   8.159  68.603  1.00  0.00     0.000 HD 
BRANCH  35  37
HETATM   37  S   UNL     1     -11.125   6.935  70.611  1.00  0.00    -0.296 S  
HETATM   38  C   UNL     1     -10.720   5.602  69.501  1.00  0.00    -0.310 C  
HETATM   39  O   UNL     1     -10.089   7.061  71.610  1.00  0.00    -0.183 OA 
HETATM   40  O   UNL     1     -12.516   6.784  70.985  1.00  0.00    -0.367 OA 
ENDBRANCH  35  37
ENDBRANCH  24  35
ENDBRANCH  20  22
ENDBRANCH  17  20
ENDBRANCH  13  14
ENDBRANCH  12  13
ENDBRANCH  11  12
ENDBRANCH  10  11
ENDBRANCH   5  10
ENDBRANCH   4   5
ENDBRANCH   3   4
ENDBRANCH   2   3
TORSDOF 18
ENDMDL
MODEL        3
REMARK 921   NORMALIZED FREE ENERGY PREDICTED BY IDOCK:   -5.91 KCAL/MOL
REMARK 922        TOTAL FREE ENERGY PREDICTED BY IDOCK:  -14.85 KCAL/MOL
REMARK 923 INTER-LIGAND FREE ENERGY PREDICTED BY IDOCK:  -11.40 KCAL/MOL
REMARK 924 INTRA-LIGAND FREE ENERGY PREDICTED BY IDOCK:   -3.45 KCAL/MOL
REMARK 927      BINDING AFFINITY PREDICTED BY RF-SCORE:    0.00 PKD
ROOT
HETATM    1  C   UNL     1     -10.565   7.628  67.332  1.00  0.00    -0.356 C  
HETATM    2  C   UNL     1     -10.103   6.672  68.425  1.00  0.00    -0.163 C  
ENDROOT
BRANCH   2   3
HETATM    3  C   UNL     1     -11.285   6.263  69.304  1.00  0.00    -0.458 C  
BRANCH   3   4
HETATM    4  C   UNL     1     -10.892   5.656  70.660  1.00  0.00    -0.234 C  
BRANCH   4   5
HETATM    5  N   UNL     1     -11.539   6.187  71.886  1.00  0.00    -0.308 NA 
BRANCH   5   6
HETATM    6  C   UNL     1     -10.563   6.914  72.730  1.00  0.00    -0.240 C  
BRANCH   6   7
HETATM    7  C   UNL     1      -9.070   6.630  72.469  1.00  0.00    -0.140 C  
BRANCH   7   8
HETATM    8  C   UNL     1      -8.234   7.873  72.154  1.00  0.00    -0.160 C  
HETATM    9  C   UNL     1      -9.039   8.869  71.329  1.00  0.00    -0.323 C  
ENDBRANCH   7   8
ENDBRANCH   6   7
ENDBRANCH   5   6
BRANCH   5  10
HETATM   10  C   UNL     1     -12.663   7.079  71.500  1.00  0.00    -0.381 C  
BRANCH  10  11
HETATM   11  C   UNL     1     -12.874   8.298  72.410  1.00  0.00    -0.261 C  
BRANCH  11  12
HETATM   12  C   UNL     1     -13.773   9.333  71.742  1.00  0.00    -0.377 C  
BRANCH  12  13
HETATM   13  O   UNL     1     -13.354  10.646  72.124  1.00  0.00    -0.444 OA 
BRANCH  13  14
HETATM   14  C   UNL     1     -12.739  11.384  71.147  1.00  0.00    -0.377 A  
HETATM   15  C   UNL     1     -12.492  12.758  71.189  1.00  0.00    -0.335 A  
HETATM   16  C   UNL     1     -11.927  13.414  70.086  1.00  0.00    -0.396 A  
HETATM   17  C   UNL     1     -11.594  12.696  68.931  1.00  0.00    -0.363 A  
HETATM   18  C   UNL     1     -11.746  11.305  68.931  1.00  0.00    -0.409 A  
HETATM   19  C   UNL     1     -12.349  10.661  70.018  1.00  0.00    -0.341 A  
BRANCH  17  20
HETATM   20  C   UNL     1     -11.127  13.443  67.718  1.00  0.00    -0.268 C  
HETATM   21  O   UNL     1     -11.965  13.794  66.890  1.00  0.00    -0.388 OA 
BRANCH  20  22
HETATM   22  C   UNL     1      -9.694  13.686  67.537  1.00  0.00    -0.227 A  
HETATM   23  C   UNL     1      -8.739  12.717  67.230  1.00  0.00    -0.198 A  
HETATM   24  C   UNL     1      -8.202  17.175  68.160  1.00  0.00    -0.224 A  
HETATM   25  O   UNL     1      -7.507  13.294  67.118  1.00  0.00    -0.098 OA 
HETATM   26  C   UNL     1      -6.888  16.821  67.863  1.00  0.00    -0.156 A  
HETATM   27  C   UNL     1      -7.630  14.603  67.435  1.00  0.00    -0.192 A  
HETATM   28  C   UNL     1      -8.951  14.908  67.730  1.00  0.00    -0.177 A  
HETATM   29  C   UNL     1      -6.574  15.508  67.500  1.00  0.00    -0.206 A  
HETATM   30  C   UNL     1      -9.231  16.227  68.143  1.00  0.00    -0.199 A  
BRANCH  23  31
HETATM   31  C   UNL     1      -8.692  11.228  67.138  1.00  0.00    -0.151 C  
BRANCH  31  32
HETATM   32  C   UNL     1      -8.773  10.591  65.751  1.00  0.00    -0.188 C  
BRANCH  32  33
HETATM   33  C   UNL     1     -10.191  10.833  65.203  1.00  0.00    -0.365 C  
HETATM   34  C   UNL     1     -10.257  11.008  63.697  1.00  0.00    -0.431 C  
ENDBRANCH  32  33
ENDBRANCH  31  32
ENDBRANCH  23  31
BRANCH  24  35
HETATM   35  N   UNL     1      -8.531  18.519  68.503  1.00  0.00    -0.329 N  
HETATM   36  H   UNL     1      -8.521  18.831  69.475  1.00  0.00     0.000 HD 
BRANCH  35  37
HETATM   37  S   UNL     1      -8.937  19.581  67.254  1.00  0.00    -0.317 S  
HETATM   38  C   UNL     1      -7.522  20.662  67.243  1.00  0.00    -0.347 C  
HETATM   39  O   UNL     1      -9.008  18.867  66.000  1.00  0.00    -0.470 OA 
HETATM   40  O   UNL     1     -10.065  20.341  67.751  1.00  0.00    -0.404 OA 
ENDBRANCH  35  37
ENDBRANCH  24  35
ENDBRANCH  20  22
ENDBRANCH  17  20
ENDBRANCH  13  14
ENDBRANCH  12  13
ENDBRANCH  11  12
ENDBRANCH  10  11
ENDBRANCH   5  10
ENDBRANCH   4   5
ENDBRANCH   3   4
ENDBRANCH   2   3
TORSDOF 18
ENDMDL
MODEL        4
REMARK 921   NORMALIZED FREE ENERGY PREDICTED BY IDOCK:   -5.83 KCAL/MOL
REMARK 922        TOTAL FREE ENERGY PREDICTED BY IDOCK:  -14.67 KCAL/MOL
REMARK 923 INTER-LIGAND FREE ENERGY PREDICTED BY IDOCK:  -10.97 KCAL/MOL
REMARK 924 INTRA-LIGAND FREE ENERGY PREDICTED BY IDOCK:   -3.71 KCAL/MOL
REMARK 927      BINDING AFFINITY PREDICTED BY RF-SCORE:    0.00 PKD
ROOT
HETATM    1  C   UNL     1      -6.045   6.845  71.900  1.00  0.00    -0.038 C  
HETATM    2  C   UNL     1      -6.892   6.814  70.634  1.00  0.00    -0.058 C  
ENDROOT
BRANCH   2   3
HETATM    3  C   UNL     1      -6.771   5.453  69.949  1.00  0.00    -0.051 C  
BRANCH   3   4
HETATM    4  C   UNL     1      -8.028   4.574  70.046  1.00  0.00    -0.063 C  
BRANCH   4   5
HETATM    5  N   UNL     1      -9.338   5.238  70.266  1.00  0.00    -0.152 NA 
BRANCH   5   6
HETATM    6  C   UNL     1     -10.179   5.171  69.049  1.00  0.00    -0.171 C  
BRANCH   6   7
HETATM    7  C   UNL     1     -11.145   6.346  68.804  1.00  0.00    -0.404 C  
BRANCH   7   8
HETATM    8  C   UNL     1     -10.920   7.089  67.485  1.00  0.00    -0.299 C  
HETATM    9  C   UNL     1      -9.434   7.325  67.247  1.00  0.00    -0.169 C  
ENDBRANCH   7   8
ENDBRANCH   6   7
ENDBRANCH   5   6
BRANCH   5  10
HETATM   10  C   UNL     1     -10.025   4.596  71.415  1.00  0.00    -0.197 C  
BRANCH  10  11
HETATM   11  C   UNL     1     -10.018   5.406  72.719  1.00  0.00    -0.197 C  
BRANCH  11  12
HETATM   12  C   UNL     1     -11.228   6.330  72.801  1.00  0.00    -0.237 C  
BRANCH  12  13
HETATM   13  O   UNL     1     -10.790   7.671  73.032  1.00  0.00    -0.353 OA 
BRANCH  13  14
HETATM   14  C   UNL     1     -10.969   8.545  71.991  1.00  0.00    -0.340 A  
HETATM   15  C   UNL     1     -12.166   9.181  71.651  1.00  0.00    -0.433 A  
HETATM   16  C   UNL     1     -12.241   9.993  70.510  1.00  0.00    -0.308 A  
HETATM   17  C   UNL     1     -11.113  10.184  69.702  1.00  0.00    -0.308 A  
HETATM   18  C   UNL     1      -9.891   9.631  70.104  1.00  0.00    -0.310 A  
HETATM   19  C   UNL     1      -9.832   8.787  71.220  1.00  0.00    -0.336 A  
BRANCH  17  20
HETATM   20  C   UNL     1     -11.257  10.937  68.414  1.00  0.00    -0.285 C  
HETATM   21  O   UNL     1     -11.817  10.381  67.473  1.00  0.00    -0.084 OA 
BRANCH  20  22
HETATM   22  C   UNL     1     -10.688  12.282  68.307  1.00  0.00    -0.244 A  
HETATM   23  C   UNL     1      -9.496  12.610  67.662  1.00  0.00    -0.189 A  
HETATM   24  C   UNL     1     -12.340  15.259  70.096  1.00  0.00    -0.353 A  
HETATM   25  O   UNL     1      -9.278  13.956  67.739  1.00  0.00    -0.183 OA 
HETATM   26  C   UNL     1     -11.415  16.209  69.671  1.00  0.00    -0.290 A  
HETATM   27  C   UNL     1     -10.258  14.494  68.500  1.00  0.00    -0.240 A  
HETATM   28  C   UNL     1     -11.150  13.512  68.907  1.00  0.00    -0.305 A  
HETATM   29  C   UNL     1     -10.337  15.836  68.863  1.00  0.00    -0.224 A  
HETATM   30  C   UNL     1     -12.198  13.907  69.763  1.00  0.00    -0.388 A  
BRANCH  23  31
HETATM   31  C   UNL     1      -8.353  11.872  67.049  1.00  0.00    -0.178 C  
BRANCH  31  32
HETATM   32  C   UNL     1      -8.640  10.969  65.851  1.00  0.00    -0.165 C  
BRANCH  32  33
HETATM   33  C   UNL     1      -9.743  11.636  65.010  1.00  0.00    -0.237 C  
HETATM   34  C   UNL     1      -9.732  11.247  63.543  1.00  0.00    -0.364 C  
ENDBRANCH  32  33
ENDBRANCH  31  32
ENDBRANCH  23  31
BRANCH  24  35
HETATM   35  N   UNL     1     -13.456  15.641  70.897  1.00  0.00    -0.769 N  
HETATM   36  H   UNL     1     -14.247  16.141  70.491  1.00  0.00     0.000 HD 
BRANCH  35  37
HETATM   37  S   UNL     1     -13.430  15.242  72.538  1.00  0.00    -0.534 S  
HETATM   38  C   UNL     1     -11.679  15.189  72.855  1.00  0.00    -0.314 C  
HETATM   39  O   UNL     1     -14.028  16.302  73.315  1.00  0.00    -0.511 OA 
HETATM   40  O   UNL     1     -13.928  13.884  72.609  1.00  0.00    -0.684 OA 
ENDBRANCH  35  37
ENDBRANCH  24  35
ENDBRANCH  20  22
ENDBRANCH  17  20
ENDBRANCH  13  14
ENDBRANCH  12  13
ENDBRANCH  11  12
ENDBRANCH  10  11
ENDBRANCH   5  10
ENDBRANCH   4   5
ENDBRANCH   3   4
ENDBRANCH   2   3
TORSDOF 18
ENDMDL
MODEL        5
REMARK 921   NORMALIZED FREE ENERGY PREDICTED BY IDOCK:   -5.75 KCAL/MOL
REMARK 922        TOTAL FREE ENERGY PREDICTED BY IDOCK:  -14.52 KCAL/MOL
REMARK 923 INTER-LIGAND FREE ENERGY PREDICTED BY IDOCK:  -10.71 KCAL/MOL
REMARK 924 INTRA-LIGAND FREE ENERGY PREDICTED BY IDOCK:   -3.82 KCAL/MOL
REMARK 927      BINDING AFFINITY PREDICTED BY RF-SCORE:    0.00 PKD
ROOT
HETATM    1  C   UNL     1     -13.322   9.705  71.779  1.00  0.00    -0.505 C  
HETATM    2  C   UNL     1     -14.323   8.583  72.024  1.00  0.00    -0.537 C  
ENDROOT
BRANCH   2   3
HETATM    3  C   UNL     1     -13.788   7.264  71.469  1.00  0.00    -0.463 C  
BRANCH   3   4
HETATM    4  C   UNL     1     -12.288   7.272  71.138  1.00  0.00    -0.345 C  
BRANCH   4   5
HETATM    5  N   UNL     1     -11.504   6.034  71.379  1.00  0.00    -0.248 NA 
BRANCH   5   6
HETATM    6  C   UNL     1     -10.773   5.621  70.158  1.00  0.00    -0.305 C  
BRANCH   6   7
HETATM    7  C   UNL     1     -11.149   6.337  68.846  1.00  0.00    -0.434 C  
BRANCH   7   8
HETATM    8  C   UNL     1      -9.965   6.635  67.924  1.00  0.00    -0.152 C  
HETATM    9  C   UNL     1     -10.315   7.741  66.936  1.00  0.00    -0.396 C  
ENDBRANCH   7   8
ENDBRANCH   6   7
ENDBRANCH   5   6
BRANCH   5  10
HETATM   10  C   UNL     1     -10.561   6.261  72.503  1.00  0.00    -0.212 C  
BRANCH  10  11
HETATM   11  C   UNL     1     -10.516   7.700  73.039  1.00  0.00    -0.414 C  
BRANCH  11  12
HETATM   12  C   UNL     1      -9.157   8.342  72.780  1.00  0.00    -0.262 C  
BRANCH  12  13
HETATM   13  O   UNL     1      -8.627   7.854  71.545  1.00  0.00    -0.112 OA 
BRANCH  13  14
HETATM   14  C   UNL     1      -8.524   8.774  70.535  1.00  0.00    -0.166 A  
HETATM   15  C   UNL     1      -9.526   9.658  70.124  1.00  0.00    -0.298 A  
HETATM   16  C   UNL     1      -9.324  10.499  69.020  1.00  0.00    -0.205 A  
HETATM   17  C   UNL     1      -8.110  10.470  68.322  1.00  0.00    -0.115 A  
HETATM   18  C   UNL     1      -7.073   9.661  68.800  1.00  0.00    -0.067 A  
HETATM   19  C   UNL     1      -7.294   8.793  69.876  1.00  0.00    -0.052 A  
BRANCH  17  20
HETATM   20  C   UNL     1      -7.975  11.272  67.063  1.00  0.00    -0.150 C  
HETATM   21  O   UNL     1      -6.887  11.781  66.809  1.00  0.00    -0.127 OA 
BRANCH  20  22
HETATM   22  C   UNL     1      -9.150  11.460  66.207  1.00  0.00    -0.211 A  
HETATM   23  C   UNL     1      -9.332  10.898  64.944  1.00  0.00    -0.224 A  
HETATM   24  C   UNL     1     -11.966  13.864  67.245  1.00  0.00    -0.411 A  
HETATM   25  O   UNL     1     -10.545  11.268  64.439  1.00  0.00    -0.316 OA 
HETATM   26  C   UNL     1     -12.753  13.654  66.115  1.00  0.00    -0.295 A  
HETATM   27  C   UNL     1     -11.113  12.132  65.311  1.00  0.00    -0.321 A  
HETATM   28  C   UNL     1     -10.293  12.316  66.415  1.00  0.00    -0.250 A  
HETATM   29  C   UNL     1     -12.329  12.780  65.110  1.00  0.00    -0.555 A  
HETATM   30  C   UNL     1     -10.721  13.242  67.388  1.00  0.00    -0.266 A  
BRANCH  23  31
HETATM   31  C   UNL     1      -8.505  10.135  63.964  1.00  0.00    -0.185 C  
BRANCH  31  32
HETATM   32  C   UNL     1      -8.485   8.611  64.074  1.00  0.00    -0.080 C  
BRANCH  32  33
HETATM   33  C   UNL     1      -7.020   8.168  64.231  1.00  0.00    -0.069 C  
HETATM   34  C   UNL     1      -6.594   7.917  65.666  1.00  0.00    -0.042 C  
ENDBRANCH  32  33
ENDBRANCH  31  32
ENDBRANCH  23  31
BRANCH  24  35
HETATM   35  N   UNL     1     -12.408  14.733  68.285  1.00  0.00    -0.586 N  
HETATM   36  H   UNL     1     -12.995  15.542  68.079  1.00  0.00     0.000 HD 
BRANCH  35  37
HETATM   37  S   UNL     1     -11.932  14.385  69.867  1.00  0.00    -0.353 S  
HETATM   38  C   UNL     1     -13.179  15.244  70.802  1.00  0.00    -0.390 C  
HETATM   39  O   UNL     1     -12.038  12.965  70.115  1.00  0.00    -0.340 OA 
HETATM   40  O   UNL     1     -10.681  15.090  70.054  1.00  0.00    -0.245 OA 
ENDBRANCH  35  37
ENDBRANCH  24  35
ENDBRANCH  20  22
ENDBRANCH  17  20
ENDBRANCH  13  14
ENDBRANCH  12  13
ENDBRANCH  11  12
ENDBRANCH  10  11
ENDBRANCH   5  10
ENDBRANCH   4   5
ENDBRANCH   3   4
ENDBRANCH   2   3
TORSDOF 18
ENDMDL
MODEL        6
REMARK 921   NORMALIZED FREE ENERGY PREDICTED BY IDOCK:   -5.75 KCAL/MOL
REMARK 922        TOTAL FREE ENERGY PREDICTED BY IDOCK:  -14.51 KCAL/MOL
REMARK 923 INTER-LIGAND FREE ENERGY PREDICTED BY IDOCK:  -10.34 KCAL/MOL
REMARK 924 INTRA-LIGAND FREE ENERGY PREDICTED BY IDOCK:   -4.17 KCAL/MOL
REMARK 927      BINDING AFFINITY PREDICTED BY RF-SCORE:    0.00 PKD
ROOT
HETATM    1  C   UNL     1     -10.368   5.240  66.453  1.00  0.00    -0.315 C  
HETATM    2  C   UNL     1     -10.954   6.553  66.955  1.00  0.00    -0.466 C  
ENDROOT
BRANCH   2   3
HETATM    3  C   UNL     1     -10.471   6.839  68.377  1.00  0.00    -0.238 C  
BRANCH   3   4
HETATM    4  C   UNL     1     -11.378   6.281  69.484  1.00  0.00    -0.404 C  
BRANCH   4   5
HETATM    5  N   UNL     1     -10.754   5.488  70.574  1.00  0.00    -0.267 NA 
BRANCH   5   6
HETATM    6  C   UNL     1      -9.277   5.577  70.518  1.00  0.00    -0.148 C  
BRANCH   6   7
HETATM    7  C   UNL     1      -8.520   4.317  70.053  1.00  0.00    -0.089 C  
BRANCH   7   8
HETATM    8  C   UNL     1      -9.399   3.076  69.883  1.00  0.00    -0.221 C  
HETATM    9  C   UNL     1      -9.349   2.572  68.446  1.00  0.00    -0.259 C  
ENDBRANCH   7   8
ENDBRANCH   6   7
ENDBRANCH   5   6
BRANCH   5  10
HETATM   10  C   UNL     1     -11.259   5.973  71.884  1.00  0.00    -0.282 C  
BRANCH  10  11
HETATM   11  C   UNL     1     -12.536   6.824  71.819  1.00  0.00    -0.370 C  
BRANCH  11  12
HETATM   12  C   UNL     1     -12.287   8.231  72.351  1.00  0.00    -0.327 C  
BRANCH  12  13
HETATM   13  O   UNL     1     -10.886   8.418  72.566  1.00  0.00    -0.344 OA 
BRANCH  13  14
HETATM   14  C   UNL     1     -10.201   9.025  71.546  1.00  0.00    -0.344 A  
HETATM   15  C   UNL     1     -10.753   9.856  70.567  1.00  0.00    -0.382 A  
HETATM   16  C   UNL     1      -9.958  10.352  69.524  1.00  0.00    -0.229 A  
HETATM   17  C   UNL     1      -8.597  10.028  69.457  1.00  0.00    -0.197 A  
HETATM   18  C   UNL     1      -8.026   9.283  70.495  1.00  0.00    -0.188 A  
HETATM   19  C   UNL     1      -8.832   8.755  71.511  1.00  0.00    -0.295 A  
BRANCH  17  20
HETATM   20  C   UNL     1      -7.806  10.452  68.256  1.00  0.00    -0.105 C  
HETATM   21  O   UNL     1      -6.877  11.239  68.418  1.00  0.00    -0.059 OA 
BRANCH  20  22
HETATM   22  C   UNL     1      -8.194   9.954  66.934  1.00  0.00    -0.120 A  
HETATM   23  C   UNL     1      -7.871   8.702  66.412  1.00  0.00    -0.099 A  
HETATM   24  C   UNL     1     -10.051  12.227  64.449  1.00  0.00    -0.270 A  
HETATM   25  O   UNL     1      -8.408   8.563  65.164  1.00  0.00    -0.153 OA 
HETATM   26  C   UNL     1     -10.138  11.280  63.432  1.00  0.00    -0.445 A  
HETATM   27  C   UNL     1      -8.996   9.735  64.832  1.00  0.00    -0.216 A  
HETATM   28  C   UNL     1      -8.878  10.648  65.870  1.00  0.00    -0.187 A  
HETATM   29  C   UNL     1      -9.595  10.004  63.604  1.00  0.00    -0.160 A  
HETATM   30  C   UNL     1      -9.389  11.944  65.649  1.00  0.00    -0.125 A  
BRANCH  23  31
HETATM   31  C   UNL     1      -6.991   7.559  66.794  1.00  0.00    -0.078 C  
BRANCH  31  32
HETATM   32  C   UNL     1      -6.884   6.380  65.827  1.00  0.00    -0.053 C  
BRANCH  32  33
HETATM   33  C   UNL     1      -6.680   5.103  66.660  1.00  0.00    -0.061 C  
HETATM   34  C   UNL     1      -6.872   3.813  65.884  1.00  0.00    -0.057 C  
ENDBRANCH  32  33
ENDBRANCH  31  32
ENDBRANCH  23  31
BRANCH  24  35
HETATM   35  N   UNL     1     -10.628  13.520  64.288  1.00  0.00    -0.549 N  
HETATM   36  H   UNL     1     -10.096  14.285  63.873  1.00  0.00     0.000 HD 
BRANCH  35  37
HETATM   37  S   UNL     1     -12.220  13.750  64.804  1.00  0.00    -0.403 S  
HETATM   38  C   UNL     1     -11.967  14.299  66.478  1.00  0.00    -0.427 C  
HETATM   39  O   UNL     1     -12.841  14.807  64.040  1.00  0.00    -0.697 OA 
HETATM   40  O   UNL     1     -12.799  12.423  64.861  1.00  0.00    -0.711 OA 
ENDBRANCH  35  37
ENDBRANCH  24  35
ENDBRANCH  20  22
ENDBRANCH  17  20
ENDBRANCH  13  14
ENDBRANCH  12  13
ENDBRANCH  11  12
ENDBRANCH  10  11
ENDBRANCH   5  10
ENDBRANCH   4   5
ENDBRANCH   3   4
ENDBRANCH   2   3
TORSDOF 18
ENDMDL
MODEL        7
REMARK 921   NORMALIZED FREE ENERGY PREDICTED BY IDOCK:   -5.74 KCAL/MOL
REMARK 922        TOTAL FREE ENERGY PREDICTED BY IDOCK:  -14.51 KCAL/MOL
REMARK 923 INTER-LIGAND FREE ENERGY PREDICTED BY IDOCK:  -10.64 KCAL/MOL
REMARK 924 INTRA-LIGAND FREE ENERGY PREDICTED BY IDOCK:   -3.87 KCAL/MOL
REMARK 927      BINDING AFFINITY PREDICTED BY RF-SCORE:    0.00 PKD
ROOT
HETATM    1  C   UNL     1     -13.649   9.370  71.858  1.00  0.00    -0.482 C  
HETATM    2  C   UNL     1     -14.316   8.022  71.612  1.00  0.00    -0.581 C  
ENDROOT
BRANCH   2   3
HETATM    3  C   UNL     1     -13.261   6.923  71.492  1.00  0.00    -0.322 C  
BRANCH   3   4
HETATM    4  C   UNL     1     -11.924   7.244  72.177  1.00  0.00    -0.269 C  
BRANCH   4   5
HETATM    5  N   UNL     1     -10.697   7.299  71.341  1.00  0.00    -0.227 NA 
BRANCH   5   6
HETATM    6  C   UNL     1      -9.925   8.534  71.612  1.00  0.00    -0.259 C  
BRANCH   6   7
HETATM    7  C   UNL     1      -9.896   9.595  70.494  1.00  0.00    -0.294 C  
BRANCH   7   8
HETATM    8  C   UNL     1      -8.505   9.874  69.921  1.00  0.00    -0.210 C  
HETATM    9  C   UNL     1      -7.531   8.768  70.306  1.00  0.00    -0.067 C  
ENDBRANCH   7   8
ENDBRANCH   6   7
ENDBRANCH   5   6
BRANCH   5  10
HETATM   10  C   UNL     1      -9.870   6.094  71.606  1.00  0.00    -0.169 C  
BRANCH  10  11
HETATM   11  C   UNL     1      -9.577   5.218  70.378  1.00  0.00    -0.241 C  
BRANCH  11  12
HETATM   12  C   UNL     1     -10.558   5.510  69.248  1.00  0.00    -0.255 C  
BRANCH  12  13
HETATM   13  O   UNL     1      -9.870   5.463  67.995  1.00  0.00    -0.131 OA 
BRANCH  13  14
HETATM   14  C   UNL     1      -9.519   6.675  67.462  1.00  0.00    -0.126 A  
HETATM   15  C   UNL     1      -8.229   7.067  67.091  1.00  0.00    -0.118 A  
HETATM   16  C   UNL     1      -7.986   8.369  66.631  1.00  0.00    -0.097 A  
HETATM   17  C   UNL     1      -9.035   9.291  66.527  1.00  0.00    -0.178 A  
HETATM   18  C   UNL     1     -10.340   8.864  66.799  1.00  0.00    -0.317 A  
HETATM   19  C   UNL     1     -10.572   7.576  67.299  1.00  0.00    -0.394 A  
BRANCH  17  20
HETATM   20  C   UNL     1      -8.723  10.713  66.172  1.00  0.00    -0.170 C  
HETATM   21  O   UNL     1      -7.546  11.061  66.138  1.00  0.00    -0.145 OA 
BRANCH  20  22
HETATM   22  C   UNL     1      -9.827  11.644  65.924  1.00  0.00    -0.262 A  
HETATM   23  C   UNL     1     -10.529  11.771  64.726  1.00  0.00    -0.293 A  
HETATM   24  C   UNL     1     -10.863  14.210  68.595  1.00  0.00    -0.255 A  
HETATM   25  O   UNL     1     -11.502  12.721  64.853  1.00  0.00    -0.302 OA 
HETATM   26  C   UNL     1     -11.885  14.788  67.845  1.00  0.00    -0.327 A  
HETATM   27  C   UNL     1     -11.384  13.275  66.080  1.00  0.00    -0.309 A  
HETATM   28  C   UNL     1     -10.352  12.676  66.787  1.00  0.00    -0.246 A  
HETATM   29  C   UNL     1     -12.160  14.331  66.553  1.00  0.00    -0.454 A  
HETATM   30  C   UNL     1     -10.063  13.191  68.067  1.00  0.00    -0.232 A  
BRANCH  23  31
HETATM   31  C   UNL     1     -10.402  11.254  63.332  1.00  0.00    -0.449 C  
BRANCH  31  32
HETATM   32  C   UNL     1      -9.000  11.122  62.739  1.00  0.00    -0.321 C  
BRANCH  32  33
HETATM   33  C   UNL     1      -8.674   9.622  62.628  1.00  0.00    -0.226 C  
HETATM   34  C   UNL     1      -7.239   9.268  62.970  1.00  0.00    -0.098 C  
ENDBRANCH  32  33
ENDBRANCH  31  32
ENDBRANCH  23  31
BRANCH  24  35
HETATM   35  N   UNL     1     -10.598  14.654  69.924  1.00  0.00    -0.447 N  
HETATM   36  H   UNL     1      -9.658  14.933  70.206  1.00  0.00     0.000 HD 
BRANCH  35  37
HETATM   37  S   UNL     1     -11.885  14.705  71.016  1.00  0.00    -0.300 S  
HETATM   38  C   UNL     1     -12.477  13.027  70.932  1.00  0.00    -0.310 C  
HETATM   39  O   UNL     1     -11.395  14.976  72.347  1.00  0.00    -0.344 OA 
HETATM   40  O   UNL     1     -12.881  15.552  70.394  1.00  0.00    -0.410 OA 
ENDBRANCH  35  37
ENDBRANCH  24  35
ENDBRANCH  20  22
ENDBRANCH  17  20
ENDBRANCH  13  14
ENDBRANCH  12  13
ENDBRANCH  11  12
ENDBRANCH  10  11
ENDBRANCH   5  10
ENDBRANCH   4   5
ENDBRANCH   3   4
ENDBRANCH   2   3
TORSDOF 18
ENDMDL
MODEL        8
REMARK 921   NORMALIZED FREE ENERGY PREDICTED BY IDOCK:   -5.73 KCAL/MOL
REMARK 922        TOTAL FREE ENERGY PREDICTED BY IDOCK:  -14.48 KCAL/MOL
REMARK 923 INTER-LIGAND FREE ENERGY PREDICTED BY IDOCK:  -10.41 KCAL/MOL
REMARK 924 INTRA-LIGAND FREE ENERGY PREDICTED BY IDOCK:   -4.07 KCAL/MOL
REMARK 927      BINDING AFFINITY PREDICTED BY RF-SCORE:    0.00 PKD
ROOT
HETATM    1  C   UNL     1     -12.110  11.278  69.640  1.00  0.00    -0.391 C  
HETATM    2  C   UNL     1     -12.908  10.542  70.708  1.00  0.00    -0.454 C  
ENDROOT
BRANCH   2   3
HETATM    3  C   UNL     1     -11.969   9.770  71.634  1.00  0.00    -0.454 C  
BRANCH   3   4
HETATM    4  C   UNL     1     -11.825   8.278  71.300  1.00  0.00    -0.288 C  
BRANCH   4   5
HETATM    5  N   UNL     1     -11.527   7.332  72.405  1.00  0.00    -0.285 NA 
BRANCH   5   6
HETATM    6  C   UNL     1     -11.270   5.970  71.883  1.00  0.00    -0.282 C  
BRANCH   6   7
HETATM    7  C   UNL     1     -10.947   5.848  70.381  1.00  0.00    -0.376 C  
BRANCH   7   8
HETATM    8  C   UNL     1      -9.758   4.941  70.059  1.00  0.00    -0.285 C  
HETATM    9  C   UNL     1      -9.688   3.776  71.039  1.00  0.00    -0.248 C  
ENDBRANCH   7   8
ENDBRANCH   6   7
ENDBRANCH   5   6
BRANCH   5  10
HETATM   10  C   UNL     1     -10.357   7.829  73.173  1.00  0.00    -0.340 C  
BRANCH  10  11
HETATM   11  C   UNL     1      -9.165   6.863  73.249  1.00  0.00    -0.162 C  
BRANCH  11  12
HETATM   12  C   UNL     1      -7.886   7.527  72.751  1.00  0.00    -0.099 C  
BRANCH  12  13
HETATM   13  O   UNL     1      -7.683   7.199  71.374  1.00  0.00    -0.090 OA 
BRANCH  13  14
HETATM   14  C   UNL     1      -7.725   8.250  70.497  1.00  0.00    -0.081 A  
HETATM   15  C   UNL     1      -8.667   9.283  70.498  1.00  0.00    -0.276 A  
HETATM   16  C   UNL     1      -8.651  10.262  69.494  1.00  0.00    -0.153 A  
HETATM   17  C   UNL     1      -7.684  10.221  68.481  1.00  0.00    -0.091 A  
HETATM   18  C   UNL     1      -6.680   9.247  68.543  1.00  0.00    -0.058 A  
HETATM   19  C   UNL     1      -6.725   8.248  69.523  1.00  0.00    -0.038 A  
BRANCH  17  20
HETATM   20  C   UNL     1      -7.779  11.192  67.344  1.00  0.00    -0.120 C  
HETATM   21  O   UNL     1      -6.773  11.821  67.028  1.00  0.00    -0.136 OA 
BRANCH  20  22
HETATM   22  C   UNL     1      -9.071  11.392  66.683  1.00  0.00    -0.187 A  
HETATM   23  C   UNL     1      -9.676  10.501  65.797  1.00  0.00    -0.223 A  
HETATM   24  C   UNL     1     -10.998  14.694  67.101  1.00  0.00    -0.316 A  
HETATM   25  O   UNL     1     -10.880  10.996  65.385  1.00  0.00    -0.206 OA 
HETATM   26  C   UNL     1     -12.072  14.333  66.290  1.00  0.00    -0.433 A  
HETATM   27  C   UNL     1     -11.025  12.231  65.915  1.00  0.00    -0.302 A  
HETATM   28  C   UNL     1      -9.931  12.551  66.708  1.00  0.00    -0.234 A  
HETATM   29  C   UNL     1     -12.099  13.082  65.666  1.00  0.00    -0.507 A  
HETATM   30  C   UNL     1      -9.906  13.838  67.282  1.00  0.00    -0.241 A  
BRANCH  23  31
HETATM   31  C   UNL     1      -9.293   9.244  65.088  1.00  0.00    -0.239 C  
BRANCH  31  32
HETATM   32  C   UNL     1      -9.055   7.990  65.927  1.00  0.00    -0.159 C  
BRANCH  32  33
HETATM   33  C   UNL     1     -10.157   7.923  66.999  1.00  0.00    -0.347 C  
HETATM   34  C   UNL     1     -10.935   6.620  67.014  1.00  0.00    -0.463 C  
ENDBRANCH  32  33
ENDBRANCH  31  32
ENDBRANCH  23  31
BRANCH  24  35
HETATM   35  N   UNL     1     -10.980  15.957  67.761  1.00  0.00    -0.326 N  
HETATM   36  H   UNL     1     -11.416  16.078  68.675  1.00  0.00     0.000 HD 
BRANCH  35  37
HETATM   37  S   UNL     1     -10.217  17.248  66.985  1.00  0.00    -0.319 S  
HETATM   38  C   UNL     1      -8.594  17.180  67.714  1.00  0.00    -0.216 C  
HETATM   39  O   UNL     1     -10.119  16.986  65.568  1.00  0.00    -0.577 OA 
HETATM   40  O   UNL     1     -10.873  18.438  67.486  1.00  0.00    -0.408 OA 
ENDBRANCH  35  37
ENDBRANCH  24  35
ENDBRANCH  20  22
ENDBRANCH  17  20
ENDBRANCH  13  14
ENDBRANCH  12  13
ENDBRANCH  11  12
ENDBRANCH  10  11
ENDBRANCH   5  10
ENDBRANCH   4   5
ENDBRANCH   3   4
ENDBRANCH   2   3
TORSDOF 18
ENDMDL
MODEL        9
REMARK 921   NORMALIZED FREE ENERGY PREDICTED BY IDOCK:   -5.71 KCAL/MOL
REMARK 922        TOTAL FREE ENERGY PREDICTED BY IDOCK:  -14.44 KCAL/MOL
REMARK 923 INTER-LIGAND FREE ENERGY PREDICTED BY IDOCK:  -11.27 KCAL/MOL
REMARK 924 INTRA-LIGAND FREE ENERGY PREDICTED BY IDOCK:   -3.18 KCAL/MOL
REMARK 927      BINDING AFFINITY PREDICTED BY RF-SCORE:    0.00 PKD
ROOT
HETATM    1  C   UNL     1      -9.704   4.695  66.850  1.00  0.00    -0.215 C  
HETATM    2  C   UNL     1     -10.811   5.741  66.883  1.00  0.00    -0.337 C  
ENDROOT
BRANCH   2   3
HETATM    3  C   UNL     1     -10.777   6.508  68.204  1.00  0.00    -0.347 C  
BRANCH   3   4
HETATM    4  C   UNL     1     -10.328   5.675  69.415  1.00  0.00    -0.273 C  
BRANCH   4   5
HETATM    5  N   UNL     1     -11.093   5.802  70.682  1.00  0.00    -0.252 NA 
BRANCH   5   6
HETATM    6  C   UNL     1     -10.230   6.312  71.773  1.00  0.00    -0.196 C  
BRANCH   6   7
HETATM    7  C   UNL     1      -9.878   5.323  72.902  1.00  0.00    -0.179 C  
BRANCH   7   8
HETATM    8  C   UNL     1     -11.088   4.731  73.628  1.00  0.00    -0.380 C  
HETATM    9  C   UNL     1     -10.953   3.219  73.757  1.00  0.00    -0.310 C  
ENDBRANCH   7   8
ENDBRANCH   6   7
ENDBRANCH   5   6
BRANCH   5  10
HETATM   10  C   UNL     1     -12.253   6.704  70.466  1.00  0.00    -0.146 C  
BRANCH  10  11
HETATM   11  C   UNL     1     -12.868   7.296  71.742  1.00  0.00    -0.369 C  
BRANCH  11  12
HETATM   12  C   UNL     1     -13.113   8.794  71.591  1.00  0.00    -0.352 C  
BRANCH  12  13
HETATM   13  O   UNL     1     -11.924   9.509  71.940  1.00  0.00    -0.370 OA 
BRANCH  13  14
HETATM   14  C   UNL     1     -11.193   9.999  70.890  1.00  0.00    -0.341 A  
HETATM   15  C   UNL     1      -9.941   9.538  70.475  1.00  0.00    -0.335 A  
HETATM   16  C   UNL     1      -9.256  10.180  69.433  1.00  0.00    -0.229 A  
HETATM   17  C   UNL     1      -9.823  11.286  68.789  1.00  0.00    -0.194 A  
HETATM   18  C   UNL     1     -11.121  11.679  69.136  1.00  0.00    -0.302 A  
HETATM   19  C   UNL     1     -11.783  11.062  70.205  1.00  0.00    -0.442 A  
BRANCH  17  20
HETATM   20  C   UNL     1      -9.009  12.038  67.780  1.00  0.00    -0.176 C  
HETATM   21  O   UNL     1      -7.809  12.189  67.994  1.00  0.00    -0.125 OA 
BRANCH  20  22
HETATM   22  C   UNL     1      -9.676  12.606  66.606  1.00  0.00    -0.249 A  
HETATM   23  C   UNL     1      -9.986  11.914  65.435  1.00  0.00    -0.252 A  
HETATM   24  C   UNL     1     -10.502  16.358  66.441  1.00  0.00    -0.286 A  
HETATM   25  O   UNL     1     -10.620  12.743  64.556  1.00  0.00    -0.318 OA 
HETATM   26  C   UNL     1     -11.078  16.319  65.173  1.00  0.00    -0.219 A  
HETATM   27  C   UNL     1     -10.646  13.982  65.097  1.00  0.00    -0.386 A  
HETATM   28  C   UNL     1     -10.055  13.975  66.353  1.00  0.00    -0.299 A  
HETATM   29  C   UNL     1     -11.151  15.116  64.466  1.00  0.00    -0.252 A  
HETATM   30  C   UNL     1      -9.948  15.212  67.022  1.00  0.00    -0.242 A  
BRANCH  23  31
HETATM   31  C   UNL     1      -9.684  10.573  64.852  1.00  0.00    -0.360 C  
BRANCH  31  32
HETATM   32  C   UNL     1      -9.862   9.345  65.743  1.00  0.00    -0.345 C  
BRANCH  32  33
HETATM   33  C   UNL     1      -8.550   8.541  65.707  1.00  0.00    -0.190 C  
HETATM   34  C   UNL     1      -7.297   9.384  65.861  1.00  0.00    -0.095 C  
ENDBRANCH  32  33
ENDBRANCH  31  32
ENDBRANCH  23  31
BRANCH  24  35
HETATM   35  N   UNL     1     -10.450  17.578  67.177  1.00  0.00    -0.332 N  
HETATM   36  H   UNL     1     -11.039  17.721  67.998  1.00  0.00     0.000 HD 
BRANCH  35  37
HETATM   37  S   UNL     1      -9.387  18.779  66.650  1.00  0.00    -0.337 S  
HETATM   38  C   UNL     1     -10.484  19.829  65.719  1.00  0.00    -0.445 C  
HETATM   39  O   UNL     1      -8.866  19.511  67.781  1.00  0.00    -0.304 OA 
HETATM   40  O   UNL     1      -8.505  18.123  65.707  1.00  0.00    -0.482 OA 
ENDBRANCH  35  37
ENDBRANCH  24  35
ENDBRANCH  20  22
ENDBRANCH  17  20
ENDBRANCH  13  14
ENDBRANCH  12  13
ENDBRANCH  11  12
ENDBRANCH  10  11
ENDBRANCH   5  10
ENDBRANCH   4   5
ENDBRANCH   3   4
ENDBRANCH   2   3
TORSDOF 18
ENDMDL
MODEL       10
REMARK 921   NORMALIZED FREE ENERGY PREDICTED BY IDOCK:   -5.70 KCAL/MOL
REMARK 922        TOTAL FREE ENERGY PREDICTED BY IDOCK:  -14.41 KCAL/MOL
REMARK 923 INTER-LIGAND FREE ENERGY PREDICTED BY IDOCK:  -11.04 KCAL/MOL
REMARK 924 INTRA-LIGAND FREE ENERGY PREDICTED BY IDOCK:   -3.37 KCAL/MOL
REMARK 927      BINDING AFFINITY PREDICTED BY RF-SCORE:    0.00 PKD
ROOT
HETATM    1  C   UNL     1     -10.588   5.226  66.509  1.00  0.00    -0.348 C  
HETATM    2  C   UNL     1     -10.600   6.641  67.074  1.00  0.00    -0.404 C  
ENDROOT
BRANCH   2   3
HETATM    3  C   UNL     1     -10.238   6.621  68.559  1.00  0.00    -0.185 C  
BRANCH   3   4
HETATM    4  C   UNL     1     -11.397   6.243  69.494  1.00  0.00    -0.404 C  
BRANCH   4   5
HETATM    5  N   UNL     1     -11.077   5.570  70.778  1.00  0.00    -0.130 NA 
BRANCH   5   6
HETATM    6  C   UNL     1      -9.618   5.585  71.038  1.00  0.00    -0.170 C  
BRANCH   6   7
HETATM    7  C   UNL     1      -9.163   5.258  72.473  1.00  0.00    -0.147 C  
BRANCH   7   8
HETATM    8  C   UNL     1      -8.249   6.311  73.104  1.00  0.00    -0.116 C  
HETATM    9  C   UNL     1      -8.975   7.061  74.213  1.00  0.00    -0.238 C  
ENDBRANCH   7   8
ENDBRANCH   6   7
ENDBRANCH   5   6
BRANCH   5  10
HETATM   10  C   UNL     1     -11.813   6.241  71.880  1.00  0.00    -0.305 C  
BRANCH  10  11
HETATM   11  C   UNL     1     -12.968   7.150  71.437  1.00  0.00    -0.419 C  
BRANCH  11  12
HETATM   12  C   UNL     1     -12.839   8.541  72.049  1.00  0.00    -0.374 C  
BRANCH  12  13
HETATM   13  O   UNL     1     -11.456   8.856  72.230  1.00  0.00    -0.348 OA 
BRANCH  13  14
HETATM   14  C   UNL     1     -10.824   9.410  71.148  1.00  0.00    -0.357 A  
HETATM   15  C   UNL     1     -11.433  10.150  70.131  1.00  0.00    -0.368 A  
HETATM   16  C   UNL     1     -10.687  10.595  69.031  1.00  0.00    -0.257 A  
HETATM   17  C   UNL     1      -9.318  10.311  68.942  1.00  0.00    -0.180 A  
HETATM   18  C   UNL     1      -8.691   9.661  70.012  1.00  0.00    -0.256 A  
HETATM   19  C   UNL     1      -9.448   9.182  71.088  1.00  0.00    -0.331 A  
BRANCH  17  20
HETATM   20  C   UNL     1      -8.579  10.673  67.690  1.00  0.00    -0.118 C  
HETATM   21  O   UNL     1      -7.355  10.766  67.741  1.00  0.00    -0.090 OA 
BRANCH  20  22
HETATM   22  C   UNL     1      -9.338  10.949  66.467  1.00  0.00    -0.195 A  
HETATM   23  C   UNL     1      -9.482  10.078  65.388  1.00  0.00    -0.250 A  
HETATM   24  C   UNL     1     -10.936  14.398  65.887  1.00  0.00    -0.312 A  
HETATM   25  O   UNL     1     -10.268  10.649  64.428  1.00  0.00    -0.346 OA 
HETATM   26  C   UNL     1     -11.477  14.094  64.640  1.00  0.00    -0.392 A  
HETATM   27  C   UNL     1     -10.560  11.908  64.825  1.00  0.00    -0.299 A  
HETATM   28  C   UNL     1      -9.995  12.169  66.066  1.00  0.00    -0.257 A  
HETATM   29  C   UNL     1     -11.287  12.829  64.076  1.00  0.00    -0.468 A  
HETATM   30  C   UNL     1     -10.159  13.469  66.588  1.00  0.00    -0.277 A  
BRANCH  23  31
HETATM   31  C   UNL     1      -8.897   8.774  64.957  1.00  0.00    -0.151 C  
BRANCH  31  32
HETATM   32  C   UNL     1      -8.062   8.749  63.678  1.00  0.00    -0.169 C  
BRANCH  32  33
HETATM   33  C   UNL     1      -6.682   8.162  64.026  1.00  0.00    -0.066 C  
HETATM   34  C   UNL     1      -6.673   6.656  64.210  1.00  0.00    -0.041 C  
ENDBRANCH  32  33
ENDBRANCH  31  32
ENDBRANCH  23  31
BRANCH  24  35
HETATM   35  N   UNL     1     -11.151  15.677  66.479  1.00  0.00    -0.207 N  
HETATM   36  H   UNL     1     -11.813  15.796  67.247  1.00  0.00     0.000 HD 
BRANCH  35  37
HETATM   37  S   UNL     1     -10.281  16.990  65.871  1.00  0.00    -0.237 S  
HETATM   38  C   UNL     1     -10.451  18.164  67.199  1.00  0.00    -0.378 C  
HETATM   39  O   UNL     1      -8.889  16.634  65.720  1.00  0.00    -0.493 OA 
HETATM   40  O   UNL     1     -11.057  17.480  64.751  1.00  0.00    -0.959 OA 
ENDBRANCH  35  37
ENDBRANCH  24  35
ENDBRANCH  20  22
ENDBRANCH  17  20
ENDBRANCH  13  14
ENDBRANCH  12  13
ENDBRANCH  11  12
ENDBRANCH  10  11
ENDBRANCH   5  10
ENDBRANCH   4   5
ENDBRANCH   3   4
ENDBRANCH   2   3
TORSDOF 18
ENDMDL
MODEL       11
REMARK 921   NORMALIZED FREE ENERGY PREDICTED BY IDOCK:   -5.68 KCAL/MOL
REMARK 922        TOTAL FREE ENERGY PREDICTED BY IDOCK:  -14.37 KCAL/MOL
REMARK 923 INTER-LIGAND FREE ENERGY PREDICTED BY IDOCK:  -10.86 KCAL/MOL
REMARK 924 INTRA-LIGAND FREE ENERGY PREDICTED BY IDOCK:   -3.51 KCAL/MOL
REMARK 927      BINDING AFFINITY PREDICTED BY RF-SCORE:    0.00 PKD
ROOT
HETATM    1  C   UNL     1     -11.510   6.328  72.015  1.00  0.00    -0.359 C  
HETATM    2  C   UNL     1     -11.373   7.029  70.669  1.00  0.00    -0.349 C  
ENDROOT
BRANCH   2   3
HETATM    3  C   UNL     1     -11.243   5.999  69.547  1.00  0.00    -0.416 C  
BRANCH   3   4
HETATM    4  C   UNL     1      -9.797   5.670  69.146  1.00  0.00    -0.162 C  
BRANCH   4   5
HETATM    5  N   UNL     1      -8.810   6.779  69.091  1.00  0.00    -0.134 NA 
BRANCH   5   6
HETATM    6  C   UNL     1      -7.692   6.542  70.033  1.00  0.00    -0.102 C  
BRANCH   6   7
HETATM    7  C   UNL     1      -7.414   7.643  71.075  1.00  0.00    -0.075 C  
BRANCH   7   8
HETATM    8  C   UNL     1      -8.241   8.917  70.888  1.00  0.00    -0.207 C  
HETATM    9  C   UNL     1      -7.444   9.970  70.128  1.00  0.00    -0.176 C  
ENDBRANCH   7   8
ENDBRANCH   6   7
ENDBRANCH   5   6
BRANCH   5  10
HETATM   10  C   UNL     1      -8.304   6.916  67.701  1.00  0.00    -0.123 C  
BRANCH  10  11
HETATM   11  C   UNL     1      -9.379   7.185  66.637  1.00  0.00    -0.207 C  
BRANCH  11  12
HETATM   12  C   UNL     1      -9.933   8.601  66.760  1.00  0.00    -0.273 C  
BRANCH  12  13
HETATM   13  O   UNL     1      -8.852   9.537  66.762  1.00  0.00    -0.129 OA 
BRANCH  13  14
HETATM   14  C   UNL     1      -9.194  10.843  66.529  1.00  0.00    -0.171 A  
HETATM   15  C   UNL     1      -8.543  11.967  67.045  1.00  0.00    -0.176 A  
HETATM   16  C   UNL     1      -9.041  13.254  66.798  1.00  0.00    -0.216 A  
HETATM   17  C   UNL     1     -10.193  13.430  66.021  1.00  0.00    -0.301 A  
HETATM   18  C   UNL     1     -10.781  12.311  65.419  1.00  0.00    -0.320 A  
HETATM   19  C   UNL     1     -10.305  11.025  65.704  1.00  0.00    -0.311 A  
BRANCH  17  20
HETATM   20  C   UNL     1     -10.783  14.801  65.893  1.00  0.00    -0.316 C  
HETATM   21  O   UNL     1     -11.247  15.138  64.807  1.00  0.00    -0.394 OA 
BRANCH  20  22
HETATM   22  C   UNL     1     -10.745  15.705  67.046  1.00  0.00    -0.314 A  
HETATM   23  C   UNL     1     -11.309  15.450  68.295  1.00  0.00    -0.348 A  
HETATM   24  C   UNL     1      -9.224  19.223  66.731  1.00  0.00    -0.323 A  
HETATM   25  O   UNL     1     -11.070  16.497  69.138  1.00  0.00    -0.311 OA 
HETATM   26  C   UNL     1      -9.462  19.597  68.051  1.00  0.00    -0.446 A  
HETATM   27  C   UNL     1     -10.441  17.464  68.433  1.00  0.00    -0.384 A  
HETATM   28  C   UNL     1     -10.232  17.052  67.124  1.00  0.00    -0.306 A  
HETATM   29  C   UNL     1     -10.093  18.716  68.934  1.00  0.00    -0.357 A  
HETATM   30  C   UNL     1      -9.641  17.979  66.243  1.00  0.00    -0.246 A  
BRANCH  23  31
HETATM   31  C   UNL     1     -12.207  14.419  68.893  1.00  0.00    -0.214 C  
BRANCH  31  32
HETATM   32  C   UNL     1     -11.569  13.293  69.705  1.00  0.00    -0.329 C  
BRANCH  32  33
HETATM   33  C   UNL     1     -11.909  11.961  69.013  1.00  0.00    -0.368 C  
HETATM   34  C   UNL     1     -11.177  10.758  69.579  1.00  0.00    -0.342 C  
ENDBRANCH  32  33
ENDBRANCH  31  32
ENDBRANCH  23  31
BRANCH  24  35
HETATM   35  N   UNL     1      -8.556  20.108  65.836  1.00  0.00    -0.535 N  
HETATM   36  H   UNL     1      -9.069  20.603  65.106  1.00  0.00     0.000 HD 
BRANCH  35  37
HETATM   37  S   UNL     1      -6.889  20.313  66.017  1.00  0.00    -0.245 S  
HETATM   38  C   UNL     1      -6.421  18.744  66.718  1.00  0.00    -0.187 C  
HETATM   39  O   UNL     1      -6.265  20.467  64.724  1.00  0.00    -0.252 OA 
HETATM   40  O   UNL     1      -6.737  21.317  67.050  1.00  0.00    -0.439 OA 
ENDBRANCH  35  37
ENDBRANCH  24  35
ENDBRANCH  20  22
ENDBRANCH  17  20
ENDBRANCH  13  14
ENDBRANCH  12  13
ENDBRANCH  11  12
ENDBRANCH  10  11
ENDBRANCH   5  10
ENDBRANCH   4   5
ENDBRANCH   3   4
ENDBRANCH   2   3
TORSDOF 18
ENDMDL
MODEL       12
REMARK 921   NORMALIZED FREE ENERGY PREDICTED BY IDOCK:   -5.64 KCAL/MOL
REMARK 922        TOTAL FREE ENERGY PREDICTED BY IDOCK:  -14.29 KCAL/MOL
REMARK 923 INTER-LIGAND FREE ENERGY PREDICTED BY IDOCK:  -10.40 KCAL/MOL
REMARK 924 INTRA-LIGAND FREE ENERGY PREDICTED BY IDOCK:   -3.89 KCAL/MOL
REMARK 927      BINDING AFFINITY PREDICTED BY RF-SCORE:    0.00 PKD
ROOT
HETATM    1  C   UNL     1      -7.304  13.846  67.569  1.00  0.00    -0.181 C  
HETATM    2  C   UNL     1      -6.921  15.299  67.818  1.00  0.00    -0.185 C  
ENDROOT
BRANCH   2   3
HETATM    3  C   UNL     1      -7.234  16.148  66.585  1.00  0.00    -0.098 C  
BRANCH   3   4
HETATM    4  C   UNL     1      -7.217  17.664  66.832  1.00  0.00    -0.200 C  
BRANCH   4   5
HETATM    5  N   UNL     1      -7.305  18.153  68.232  1.00  0.00    -0.252 NA 
BRANCH   5   6
HETATM    6  C   UNL     1      -6.011  18.717  68.681  1.00  0.00    -0.206 C  
BRANCH   6   7
HETATM    7  C   UNL     1      -6.023  20.174  69.183  1.00  0.00    -0.347 C  
BRANCH   7   8
HETATM    8  C   UNL     1      -5.174  21.138  68.351  1.00  0.00    -0.306 C  
HETATM    9  C   UNL     1      -5.558  21.062  66.879  1.00  0.00    -0.283 C  
ENDBRANCH   7   8
ENDBRANCH   6   7
ENDBRANCH   5   6
BRANCH   5  10
HETATM   10  C   UNL     1      -8.383  19.170  68.329  1.00  0.00    -0.335 C  
BRANCH  10  11
HETATM   11  C   UNL     1      -9.283  19.291  67.090  1.00  0.00    -0.354 C  
BRANCH  11  12
HETATM   12  C   UNL     1     -10.671  18.721  67.362  1.00  0.00    -0.424 C  
BRANCH  12  13
HETATM   13  O   UNL     1     -10.615  17.847  68.492  1.00  0.00    -0.326 OA 
BRANCH  13  14
HETATM   14  C   UNL     1     -10.680  16.507  68.213  1.00  0.00    -0.345 A  
HETATM   15  C   UNL     1     -10.821  15.938  66.944  1.00  0.00    -0.240 A  
HETATM   16  C   UNL     1     -10.958  14.550  66.797  1.00  0.00    -0.316 A  
HETATM   17  C   UNL     1     -10.945  13.716  67.922  1.00  0.00    -0.277 A  
HETATM   18  C   UNL     1     -10.699  14.278  69.180  1.00  0.00    -0.239 A  
HETATM   19  C   UNL     1     -10.605  15.668  69.325  1.00  0.00    -0.238 A  
BRANCH  17  20
HETATM   20  C   UNL     1     -11.238  12.256  67.749  1.00  0.00    -0.276 C  
HETATM   21  O   UNL     1     -12.409  11.905  67.633  1.00  0.00    -0.357 OA 
BRANCH  20  22
HETATM   22  C   UNL     1     -10.129  11.299  67.771  1.00  0.00    -0.199 A  
HETATM   23  C   UNL     1      -9.266  11.031  66.708  1.00  0.00    -0.161 A  
HETATM   24  C   UNL     1      -9.530   9.061  70.841  1.00  0.00    -0.267 A  
HETATM   25  O   UNL     1      -8.339  10.100  67.081  1.00  0.00    -0.124 OA 
HETATM   26  C   UNL     1      -8.423   8.397  70.317  1.00  0.00    -0.126 A  
HETATM   27  C   UNL     1      -8.640   9.694  68.335  1.00  0.00    -0.119 A  
HETATM   28  C   UNL     1      -9.751  10.374  68.813  1.00  0.00    -0.184 A  
HETATM   29  C   UNL     1      -7.960   8.699  69.033  1.00  0.00    -0.115 A  
HETATM   30  C   UNL     1     -10.228  10.014  70.090  1.00  0.00    -0.297 A  
BRANCH  23  31
HETATM   31  C   UNL     1      -9.184  11.382  65.260  1.00  0.00    -0.146 C  
BRANCH  31  32
HETATM   32  C   UNL     1     -10.324  10.934  64.347  1.00  0.00    -0.430 C  
BRANCH  32  33
HETATM   33  C   UNL     1     -10.981  12.195  63.757  1.00  0.00    -0.494 C  
HETATM   34  C   UNL     1     -12.398  12.444  64.239  1.00  0.00    -0.544 C  
ENDBRANCH  32  33
ENDBRANCH  31  32
ENDBRANCH  23  31
BRANCH  24  35
HETATM   35  N   UNL     1      -9.989   8.777  72.160  1.00  0.00    -0.321 N  
HETATM   36  H   UNL     1      -9.555   9.215  72.973  1.00  0.00     0.000 HD 
BRANCH  35  37
HETATM   37  S   UNL     1     -11.271   7.693  72.339  1.00  0.00    -0.347 S  
HETATM   38  C   UNL     1     -10.531   6.445  73.371  1.00  0.00    -0.263 C  
HETATM   39  O   UNL     1     -12.358   8.324  73.051  1.00  0.00    -0.205 OA 
HETATM   40  O   UNL     1     -11.468   7.114  71.026  1.00  0.00    -0.273 OA 
ENDBRANCH  35  37
ENDBRANCH  24  35
ENDBRANCH  20  22
ENDBRANCH  17  20
ENDBRANCH  13  14
ENDBRANCH  12  13
ENDBRANCH  11  12
ENDBRANCH  10  11
ENDBRANCH   5  10
ENDBRANCH   4   5
ENDBRANCH   3   4
ENDBRANCH   2   3
TORSDOF 18
ENDMDL
MODEL       13
REMARK 921   NORMALIZED FREE ENERGY PREDICTED BY IDOCK:   -5.64 KCAL/MOL
REMARK 922        TOTAL FREE ENERGY PREDICTED BY IDOCK:  -14.29 KCAL/MOL
REMARK 923 INTER-LIGAND FREE ENERGY PREDICTED BY IDOCK:  -11.32 KCAL/MOL
REMARK 924 INTRA-LIGAND FREE ENERGY PREDICTED BY IDOCK:   -2.97 KCAL/MOL
REMARK 927      BINDING AFFINITY PREDICTED BY RF-SCORE:    0.00 PKD
ROOT
HETATM    1  C   UNL     1     -13.173  10.811  71.720  1.00  0.00    -0.523 C  
HETATM    2  C   UNL     1     -12.754   9.373  71.997  1.00  0.00    -0.483 C  
ENDROOT
BRANCH   2   3
HETATM    3  C   UNL     1     -11.545   8.999  71.140  1.00  0.00    -0.372 C  
BRANCH   3   4
HETATM    4  C   UNL     1     -11.646   7.628  70.456  1.00  0.00    -0.175 C  
BRANCH   4   5
HETATM    5  N   UNL     1     -10.679   6.571  70.846  1.00  0.00    -0.232 NA 
BRANCH   5   6
HETATM    6  C   UNL     1     -11.196   5.769  71.979  1.00  0.00    -0.247 C  
BRANCH   6   7
HETATM    7  C   UNL     1     -10.292   5.659  73.223  1.00  0.00    -0.234 C  
BRANCH   7   8
HETATM    8  C   UNL     1     -10.178   6.947  74.040  1.00  0.00    -0.384 C  
HETATM    9  C   UNL     1      -8.906   7.704  73.679  1.00  0.00    -0.295 C  
ENDBRANCH   7   8
ENDBRANCH   6   7
ENDBRANCH   5   6
BRANCH   5  10
HETATM   10  C   UNL     1     -10.402   5.703  69.673  1.00  0.00    -0.276 C  
BRANCH  10  11
HETATM   11  C   UNL     1      -9.044   5.934  68.993  1.00  0.00    -0.123 C  
BRANCH  11  12
HETATM   12  C   UNL     1      -9.202   6.737  67.706  1.00  0.00    -0.111 C  
BRANCH  12  13
HETATM   13  O   UNL     1      -8.360   7.891  67.758  1.00  0.00    -0.126 OA 
BRANCH  13  14
HETATM   14  C   UNL     1      -9.004   9.100  67.745  1.00  0.00    -0.127 A  
HETATM   15  C   UNL     1      -8.417  10.346  67.986  1.00  0.00    -0.119 A  
HETATM   16  C   UNL     1      -9.202  11.507  68.025  1.00  0.00    -0.175 A  
HETATM   17  C   UNL     1     -10.585  11.433  67.814  1.00  0.00    -0.231 A  
HETATM   18  C   UNL     1     -11.153  10.201  67.470  1.00  0.00    -0.251 A  
HETATM   19  C   UNL     1     -10.372   9.039  67.474  1.00  0.00    -0.328 A  
BRANCH  17  20
HETATM   20  C   UNL     1     -11.418  12.665  68.004  1.00  0.00    -0.318 C  
HETATM   21  O   UNL     1     -12.106  12.754  69.018  1.00  0.00    -0.262 OA 
BRANCH  20  22
HETATM   22  C   UNL     1     -11.419  13.693  66.960  1.00  0.00    -0.368 A  
HETATM   23  C   UNL     1     -11.964  13.553  65.684  1.00  0.00    -0.397 A  
HETATM   24  C   UNL     1      -9.606  17.041  67.501  1.00  0.00    -0.249 A  
HETATM   25  O   UNL     1     -11.806  14.711  64.978  1.00  0.00    -0.371 OA 
HETATM   26  C   UNL     1      -9.919  17.573  66.252  1.00  0.00    -0.316 A  
HETATM   27  C   UNL     1     -11.090  15.568  65.741  1.00  0.00    -0.217 A  
HETATM   28  C   UNL     1     -10.794  14.994  66.969  1.00  0.00    -0.311 A  
HETATM   29  C   UNL     1     -10.668  16.831  65.335  1.00  0.00    -0.201 A  
HETATM   30  C   UNL     1      -9.994  15.744  67.855  1.00  0.00    -0.227 A  
BRANCH  23  31
HETATM   31  C   UNL     1     -12.532  12.445  64.860  1.00  0.00    -0.439 C  
BRANCH  31  32
HETATM   32  C   UNL     1     -11.789  12.045  63.586  1.00  0.00    -0.602 C  
BRANCH  32  33
HETATM   33  C   UNL     1     -10.557  11.220  63.997  1.00  0.00    -0.450 C  
HETATM   34  C   UNL     1      -9.389  11.318  63.032  1.00  0.00    -0.359 C  
ENDBRANCH  32  33
ENDBRANCH  31  32
ENDBRANCH  23  31
BRANCH  24  35
HETATM   35  N   UNL     1      -8.866  17.805  68.450  1.00  0.00    -0.281 N  
HETATM   36  H   UNL     1      -8.920  17.598  69.448  1.00  0.00     0.000 HD 
BRANCH  35  37
HETATM   37  S   UNL     1      -7.898  19.064  67.876  1.00  0.00    -0.279 S  
HETATM   38  C   UNL     1      -6.949  19.463  69.328  1.00  0.00    -0.336 C  
HETATM   39  O   UNL     1      -7.014  18.577  66.842  1.00  0.00    -0.192 OA 
HETATM   40  O   UNL     1      -8.807  20.164  67.631  1.00  0.00    -0.328 OA 
ENDBRANCH  35  37
ENDBRANCH  24  35
ENDBRANCH  20  22
ENDBRANCH  17  20
ENDBRANCH  13  14
ENDBRANCH  12  13
ENDBRANCH  11  12
ENDBRANCH  10  11
ENDBRANCH   5  10
ENDBRANCH   4   5
ENDBRANCH   3   4
ENDBRANCH   2   3
TORSDOF 18
ENDMDL
MODEL       14
REMARK 921   NORMALIZED FREE ENERGY PREDICTED BY IDOCK:   -5.61 KCAL/MOL
REMARK 922        TOTAL FREE ENERGY PREDICTED BY IDOCK:  -14.23 KCAL/MOL
REMARK 923 INTER-LIGAND FREE ENERGY PREDICTED BY IDOCK:  -10.89 KCAL/MOL
REMARK 924 INTRA-LIGAND FREE ENERGY PREDICTED BY IDOCK:   -3.33 KCAL/MOL
REMARK 927      BINDING AFFINITY PREDICTED BY RF-SCORE:    0.00 PKD
ROOT
HETATM    1  C   UNL     1      -6.649  12.536  67.332  1.00  0.00    -0.152 C  
HETATM    2  C   UNL     1      -7.761  13.228  68.110  1.00  0.00    -0.143 C  
ENDROOT
BRANCH   2   3
HETATM    3  C   UNL     1      -8.602  14.096  67.175  1.00  0.00    -0.230 C  
BRANCH   3   4
HETATM    4  C   UNL     1      -9.638  14.981  67.884  1.00  0.00    -0.203 C  
BRANCH   4   5
HETATM    5  N   UNL     1     -10.609  15.736  67.052  1.00  0.00    -0.314 NA 
BRANCH   5   6
HETATM    6  C   UNL     1     -10.607  17.175  67.406  1.00  0.00    -0.297 C  
BRANCH   6   7
HETATM    7  C   UNL     1      -9.954  18.139  66.396  1.00  0.00    -0.376 C  
BRANCH   7   8
HETATM    8  C   UNL     1     -10.544  19.551  66.395  1.00  0.00    -0.571 C  
HETATM    9  C   UNL     1      -9.718  20.481  67.275  1.00  0.00    -0.600 C  
ENDBRANCH   7   8
ENDBRANCH   6   7
ENDBRANCH   5   6
BRANCH   5  10
HETATM   10  C   UNL     1     -10.275  15.549  65.617  1.00  0.00    -0.376 C  
BRANCH  10  11
HETATM   11  C   UNL     1     -11.456  15.161  64.715  1.00  0.00    -0.383 C  
BRANCH  11  12
HETATM   12  C   UNL     1     -12.333  14.106  65.380  1.00  0.00    -0.463 C  
BRANCH  12  13
HETATM   13  O   UNL     1     -11.846  12.802  65.050  1.00  0.00    -0.341 OA 
BRANCH  13  14
HETATM   14  C   UNL     1     -11.401  12.047  66.103  1.00  0.00    -0.351 A  
HETATM   15  C   UNL     1     -11.833  12.151  67.428  1.00  0.00    -0.297 A  
HETATM   16  C   UNL     1     -11.239  11.373  68.433  1.00  0.00    -0.324 A  
HETATM   17  C   UNL     1     -10.211  10.476  68.118  1.00  0.00    -0.187 A  
HETATM   18  C   UNL     1      -9.853  10.299  66.776  1.00  0.00    -0.246 A  
HETATM   19  C   UNL     1     -10.420  11.108  65.783  1.00  0.00    -0.305 A  
BRANCH  17  20
HETATM   20  C   UNL     1      -9.498   9.766  69.229  1.00  0.00    -0.194 C  
HETATM   21  O   UNL     1      -8.505  10.298  69.719  1.00  0.00    -0.159 OA 
BRANCH  20  22
HETATM   22  C   UNL     1      -9.976   8.450  69.657  1.00  0.00    -0.193 A  
HETATM   23  C   UNL     1     -10.805   8.204  70.752  1.00  0.00    -0.228 A  
HETATM   24  C   UNL     1      -8.763   5.253  67.896  1.00  0.00    -0.102 A  
HETATM   25  O   UNL     1     -11.067   6.867  70.849  1.00  0.00    -0.250 OA 
HETATM   26  C   UNL     1      -9.495   4.371  68.687  1.00  0.00    -0.219 A  
HETATM   27  C   UNL     1     -10.352   6.233  69.893  1.00  0.00    -0.196 A  
HETATM   28  C   UNL     1      -9.633   7.148  69.136  1.00  0.00    -0.154 A  
HETATM   29  C   UNL     1     -10.305   4.852  69.720  1.00  0.00    -0.203 A  
HETATM   30  C   UNL     1      -8.785   6.632  68.135  1.00  0.00    -0.117 A  
BRANCH  23  31
HETATM   31  C   UNL     1     -11.348   8.986  71.901  1.00  0.00    -0.438 C  
BRANCH  31  32
HETATM   32  C   UNL     1     -12.526   9.923  71.640  1.00  0.00    -0.507 C  
BRANCH  32  33
HETATM   33  C   UNL     1     -13.768   9.322  72.322  1.00  0.00    -0.527 C  
HETATM   34  C   UNL     1     -14.357   8.123  71.603  1.00  0.00    -0.570 C  
ENDBRANCH  32  33
ENDBRANCH  31  32
ENDBRANCH  23  31
BRANCH  24  35
HETATM   35  N   UNL     1      -7.958   4.769  66.824  1.00  0.00    -0.103 N  
HETATM   36  H   UNL     1      -7.056   4.327  67.003  1.00  0.00     0.000 HD 
BRANCH  35  37
HETATM   37  S   UNL     1      -8.540   4.949  65.249  1.00  0.00    -0.146 S  
HETATM   38  C   UNL     1     -10.254   4.514  65.462  1.00  0.00    -0.231 C  
HETATM   39  O   UNL     1      -8.442   6.330  64.839  1.00  0.00    -0.112 OA 
HETATM   40  O   UNL     1      -7.912   3.891  64.486  1.00  0.00    -0.085 OA 
ENDBRANCH  35  37
ENDBRANCH  24  35
ENDBRANCH  20  22
ENDBRANCH  17  20
ENDBRANCH  13  14
ENDBRANCH  12  13
ENDBRANCH  11  12
ENDBRANCH  10  11
ENDBRANCH   5  10
ENDBRANCH   4   5
ENDBRANCH   3   4
ENDBRANCH   2   3
TORSDOF 18
ENDMDL
MODEL       15
REMARK 921   NORMALIZED FREE ENERGY PREDICTED BY IDOCK:   -5.60 KCAL/MOL
REMARK 922        TOTAL FREE ENERGY PREDICTED BY IDOCK:  -14.21 KCAL/MOL
REMARK 923 INTER-LIGAND FREE ENERGY PREDICTED BY IDOCK:  -11.55 KCAL/MOL
REMARK 924 INTRA-LIGAND FREE ENERGY PREDICTED BY IDOCK:   -2.66 KCAL/MOL
REMARK 927      BINDING AFFINITY PREDICTED BY RF-SCORE:    0.00 PKD
ROOT
HETATM    1  C   UNL     1      -8.839   4.183  72.707  1.00  0.00    -0.111 C  
HETATM    2  C   UNL     1     -10.116   4.150  71.877  1.00  0.00    -0.224 C  
ENDROOT
BRANCH   2   3
HETATM    3  C   UNL     1      -9.986   5.076  70.668  1.00  0.00    -0.300 C  
BRANCH   3   4
HETATM    4  C   UNL     1     -10.622   6.462  70.854  1.00  0.00    -0.236 C  
BRANCH   4   5
HETATM    5  N   UNL     1     -11.554   6.665  71.992  1.00  0.00    -0.287 NA 
BRANCH   5   6
HETATM    6  C   UNL     1     -10.948   7.535  73.026  1.00  0.00    -0.390 C  
BRANCH   6   7
HETATM    7  C   UNL     1      -9.540   8.089  72.732  1.00  0.00    -0.345 C  
BRANCH   7   8
HETATM    8  C   UNL     1      -8.489   7.745  73.791  1.00  0.00    -0.289 C  
HETATM    9  C   UNL     1      -7.090   8.085  73.293  1.00  0.00    -0.136 C  
ENDBRANCH   7   8
ENDBRANCH   6   7
ENDBRANCH   5   6
BRANCH   5  10
HETATM   10  C   UNL     1     -12.822   7.252  71.489  1.00  0.00    -0.388 C  
BRANCH  10  11
HETATM   11  C   UNL     1     -13.457   8.315  72.398  1.00  0.00    -0.168 C  
BRANCH  11  12
HETATM   12  C   UNL     1     -13.657   9.629  71.652  1.00  0.00    -0.324 C  
BRANCH  12  13
HETATM   13  O   UNL     1     -12.478  10.430  71.772  1.00  0.00    -0.390 OA 
BRANCH  13  14
HETATM   14  C   UNL     1     -11.891  10.807  70.593  1.00  0.00    -0.360 A  
HETATM   15  C   UNL     1     -11.001  10.040  69.836  1.00  0.00    -0.339 A  
HETATM   16  C   UNL     1     -10.402  10.572  68.685  1.00  0.00    -0.201 A  
HETATM   17  C   UNL     1     -10.698  11.877  68.274  1.00  0.00    -0.253 A  
HETATM   18  C   UNL     1     -11.668  12.605  68.973  1.00  0.00    -0.367 A  
HETATM   19  C   UNL     1     -12.231  12.085  70.146  1.00  0.00    -0.309 A  
BRANCH  17  20
HETATM   20  C   UNL     1      -9.937  12.469  67.126  1.00  0.00    -0.216 C  
HETATM   21  O   UNL     1      -8.845  11.987  66.839  1.00  0.00    -0.186 OA 
BRANCH  20  22
HETATM   22  C   UNL     1     -10.495  13.626  66.421  1.00  0.00    -0.288 A  
HETATM   23  C   UNL     1     -11.576  13.595  65.540  1.00  0.00    -0.324 A  
HETATM   24  C   UNL     1      -8.831  17.082  66.697  1.00  0.00    -0.254 A  
HETATM   25  O   UNL     1     -11.839  14.853  65.080  1.00  0.00    -0.356 OA 
HETATM   26  C   UNL     1      -9.733  17.739  65.864  1.00  0.00    -0.035 A  
HETATM   27  C   UNL     1     -10.894  15.684  65.574  1.00  0.00    -0.346 A  
HETATM   28  C   UNL     1     -10.014  14.987  66.391  1.00  0.00    -0.295 A  
HETATM   29  C   UNL     1     -10.788  17.039  65.271  1.00  0.00    -0.079 A  
HETATM   30  C   UNL     1      -8.930  15.706  66.933  1.00  0.00    -0.267 A  
BRANCH  23  31
HETATM   31  C   UNL     1     -12.407  12.549  64.875  1.00  0.00    -0.539 C  
BRANCH  31  32
HETATM   32  C   UNL     1     -11.971  12.055  63.497  1.00  0.00    -0.605 C  
BRANCH  32  33
HETATM   33  C   UNL     1     -10.436  12.136  63.430  1.00  0.00    -0.450 C  
HETATM   34  C   UNL     1      -9.745  10.793  63.283  1.00  0.00    -0.396 C  
ENDBRANCH  32  33
ENDBRANCH  31  32
ENDBRANCH  23  31
BRANCH  24  35
HETATM   35  N   UNL     1      -7.771  17.798  67.326  1.00  0.00    -0.203 N  
HETATM   36  H   UNL     1      -6.796  17.588  67.111  1.00  0.00     0.000 HD 
BRANCH  35  37
HETATM   37  S   UNL     1      -8.175  19.004  68.436  1.00  0.00    -0.357 S  
HETATM   38  C   UNL     1      -7.949  20.471  67.453  1.00  0.00    -0.305 C  
HETATM   39  O   UNL     1      -9.565  18.886  68.812  1.00  0.00    -0.365 OA 
HETATM   40  O   UNL     1      -7.123  18.977  69.431  1.00  0.00    -0.269 OA 
ENDBRANCH  35  37
ENDBRANCH  24  35
ENDBRANCH  20  22
ENDBRANCH  17  20
ENDBRANCH  13  14
ENDBRANCH  12  13
ENDBRANCH  11  12
ENDBRANCH  10  11
ENDBRANCH   5  10
ENDBRANCH   4   5
ENDBRANCH   3   4
ENDBRANCH   2   3
TORSDOF 18
ENDMDL
MODEL       16
REMARK 921   NORMALIZED FREE ENERGY PREDICTED BY IDOCK:   -5.59 KCAL/MOL
REMARK 922        TOTAL FREE ENERGY PREDICTED BY IDOCK:  -14.18 KCAL/MOL
REMARK 923 INTER-LIGAND FREE ENERGY PREDICTED BY IDOCK:  -11.51 KCAL/MOL
REMARK 924 INTRA-LIGAND FREE ENERGY PREDICTED BY IDOCK:   -2.67 KCAL/MOL
REMARK 927      BINDING AFFINITY PREDICTED BY RF-SCORE:    0.00 PKD
ROOT
HETATM    1  C   UNL     1     -12.865   7.017  71.512  1.00  0.00    -0.420 C  
HETATM    2  C   UNL     1     -11.692   6.557  70.655  1.00  0.00    -0.436 C  
ENDROOT
BRANCH   2   3
HETATM    3  C   UNL     1     -10.505   6.180  71.541  1.00  0.00    -0.268 C  
BRANCH   3   4
HETATM    4  C   UNL     1      -9.399   5.391  70.825  1.00  0.00    -0.159 C  
BRANCH   4   5
HETATM    5  N   UNL     1      -8.017   5.936  70.843  1.00  0.00    -0.109 NA 
BRANCH   5   6
HETATM    6  C   UNL     1      -7.226   5.342  71.945  1.00  0.00    -0.086 C  
BRANCH   6   7
HETATM    7  C   UNL     1      -7.483   5.893  73.362  1.00  0.00    -0.094 C  
BRANCH   7   8
HETATM    8  C   UNL     1      -7.222   4.891  74.488  1.00  0.00    -0.077 C  
HETATM    9  C   UNL     1      -8.209   3.732  74.418  1.00  0.00    -0.085 C  
ENDBRANCH   7   8
ENDBRANCH   6   7
ENDBRANCH   5   6
BRANCH   5  10
HETATM   10  C   UNL     1      -7.370   5.674  69.532  1.00  0.00    -0.067 C  
BRANCH  10  11
HETATM   11  C   UNL     1      -8.302   5.752  68.314  1.00  0.00    -0.107 C  
BRANCH  11  12
HETATM   12  C   UNL     1      -7.914   6.906  67.397  1.00  0.00    -0.112 C  
BRANCH  12  13
HETATM   13  O   UNL     1      -7.766   8.100  68.169  1.00  0.00    -0.106 OA 
BRANCH  13  14
HETATM   14  C   UNL     1      -8.931   8.703  68.565  1.00  0.00    -0.139 A  
HETATM   15  C   UNL     1     -10.050   8.934  67.760  1.00  0.00    -0.263 A  
HETATM   16  C   UNL     1     -11.155   9.636  68.263  1.00  0.00    -0.102 A  
HETATM   17  C   UNL     1     -11.155  10.106  69.582  1.00  0.00    -0.308 A  
HETATM   18  C   UNL     1     -10.078   9.781  70.416  1.00  0.00    -0.313 A  
HETATM   19  C   UNL     1      -8.959   9.117  69.897  1.00  0.00    -0.183 A  
BRANCH  17  20
HETATM   20  C   UNL     1     -12.284  10.975  70.047  1.00  0.00    -0.343 C  
HETATM   21  O   UNL     1     -13.291  10.433  70.494  1.00  0.00    -0.238 OA 
BRANCH  20  22
HETATM   22  C   UNL     1     -12.168  12.429  69.909  1.00  0.00    -0.227 A  
HETATM   23  C   UNL     1     -12.445  13.363  70.906  1.00  0.00    -0.359 A  
HETATM   24  C   UNL     1     -11.277  14.013  66.520  1.00  0.00    -0.322 A  
HETATM   25  O   UNL     1     -12.214  14.626  70.441  1.00  0.00    -0.289 OA 
HETATM   26  C   UNL     1     -11.319  15.332  66.966  1.00  0.00    -0.230 A  
HETATM   27  C   UNL     1     -11.879  14.533  69.135  1.00  0.00    -0.319 A  
HETATM   28  C   UNL     1     -11.857  13.205  68.732  1.00  0.00    -0.361 A  
HETATM   29  C   UNL     1     -11.636  15.619  68.297  1.00  0.00    -0.326 A  
HETATM   30  C   UNL     1     -11.586  12.948  67.373  1.00  0.00    -0.414 A  
BRANCH  23  31
HETATM   31  C   UNL     1     -13.052  13.350  72.270  1.00  0.00    -0.484 C  
BRANCH  31  32
HETATM   32  C   UNL     1     -13.646  14.653  72.804  1.00  0.00    -0.538 C  
BRANCH  32  33
HETATM   33  C   UNL     1     -12.672  15.221  73.852  1.00  0.00    -0.662 C  
HETATM   34  C   UNL     1     -12.003  16.520  73.444  1.00  0.00    -0.429 C  
ENDBRANCH  32  33
ENDBRANCH  31  32
ENDBRANCH  23  31
BRANCH  24  35
HETATM   35  N   UNL     1     -10.927  13.715  65.170  1.00  0.00    -0.315 N  
HETATM   36  H   UNL     1     -10.005  13.951  64.803  1.00  0.00     0.000 HD 
BRANCH  35  37
HETATM   37  S   UNL     1     -12.082  12.959  64.199  1.00  0.00    -0.452 S  
HETATM   38  C   UNL     1     -11.138  11.609  63.522  1.00  0.00    -0.393 C  
HETATM   39  O   UNL     1     -13.152  12.435  65.016  1.00  0.00    -0.678 OA 
HETATM   40  O   UNL     1     -12.346  13.891  63.122  1.00  0.00    -0.696 OA 
ENDBRANCH  35  37
ENDBRANCH  24  35
ENDBRANCH  20  22
ENDBRANCH  17  20
ENDBRANCH  13  14
ENDBRANCH  12  13
ENDBRANCH  11  12
ENDBRANCH  10  11
ENDBRANCH   5  10
ENDBRANCH   4   5
ENDBRANCH   3   4
ENDBRANCH   2   3
TORSDOF 18
ENDMDL
MODEL       17
REMARK 921   NORMALIZED FREE ENERGY PREDICTED BY IDOCK:   -5.57 KCAL/MOL
REMARK 922        TOTAL FREE ENERGY PREDICTED BY IDOCK:  -14.15 KCAL/MOL
REMARK 923 INTER-LIGAND FREE ENERGY PREDICTED BY IDOCK:  -11.25 KCAL/MOL
REMARK 924 INTRA-LIGAND FREE ENERGY PREDICTED BY IDOCK:   -2.90 KCAL/MOL
REMARK 927      BINDING AFFINITY PREDICTED BY RF-SCORE:    0.00 PKD
ROOT
HETATM    1  C   UNL     1     -13.626   8.488  72.282  1.00  0.00    -0.371 C  
HETATM    2  C   UNL     1     -13.157   7.390  71.336  1.00  0.00    -0.401 C  
ENDROOT
BRANCH   2   3
HETATM    3  C   UNL     1     -12.400   6.312  72.110  1.00  0.00    -0.193 C  
BRANCH   3   4
HETATM    4  C   UNL     1     -10.878   6.329  71.908  1.00  0.00    -0.242 C  
BRANCH   4   5
HETATM    5  N   UNL     1     -10.230   5.129  71.319  1.00  0.00    -0.219 NA 
BRANCH   5   6
HETATM    6  C   UNL     1     -10.338   5.137  69.842  1.00  0.00    -0.277 C  
BRANCH   6   7
HETATM    7  C   UNL     1     -10.204   6.504  69.141  1.00  0.00    -0.208 C  
BRANCH   7   8
HETATM    8  C   UNL     1     -10.788   6.552  67.728  1.00  0.00    -0.395 C  
HETATM    9  C   UNL     1     -10.412   7.854  67.033  1.00  0.00    -0.419 C  
ENDBRANCH   7   8
ENDBRANCH   6   7
ENDBRANCH   5   6
BRANCH   5  10
HETATM   10  C   UNL     1      -8.806   5.085  71.740  1.00  0.00    -0.133 C  
BRANCH  10  11
HETATM   11  C   UNL     1      -8.236   6.412  72.261  1.00  0.00    -0.107 C  
BRANCH  11  12
HETATM   12  C   UNL     1      -7.248   7.014  71.267  1.00  0.00    -0.075 C  
BRANCH  12  13
HETATM   13  O   UNL     1      -7.199   8.432  71.442  1.00  0.00    -0.069 OA 
BRANCH  13  14
HETATM   14  C   UNL     1      -8.194   9.145  70.826  1.00  0.00    -0.190 A  
HETATM   15  C   UNL     1      -9.531   9.202  71.228  1.00  0.00    -0.313 A  
HETATM   16  C   UNL     1     -10.474   9.904  70.463  1.00  0.00    -0.330 A  
HETATM   17  C   UNL     1     -10.084  10.565  69.292  1.00  0.00    -0.244 A  
HETATM   18  C   UNL     1      -8.727  10.593  68.950  1.00  0.00    -0.163 A  
HETATM   19  C   UNL     1      -7.797   9.856  69.693  1.00  0.00    -0.156 A  
BRANCH  17  20
HETATM   20  C   UNL     1     -11.135  11.184  68.420  1.00  0.00    -0.247 C  
HETATM   21  O   UNL     1     -12.101  10.499  68.094  1.00  0.00    -0.279 OA 
BRANCH  20  22
HETATM   22  C   UNL     1     -10.952  12.560  67.951  1.00  0.00    -0.262 A  
HETATM   23  C   UNL     1     -10.506  12.932  66.683  1.00  0.00    -0.263 A  
HETATM   24  C   UNL     1     -11.456  15.531  70.339  1.00  0.00    -0.345 A  
HETATM   25  O   UNL     1     -10.471  14.293  66.580  1.00  0.00    -0.273 OA 
HETATM   26  C   UNL     1     -11.154  16.517  69.402  1.00  0.00    -0.253 A  
HETATM   27  C   UNL     1     -10.798  14.809  67.786  1.00  0.00    -0.278 A  
HETATM   28  C   UNL     1     -11.083  13.794  68.688  1.00  0.00    -0.293 A  
HETATM   29  C   UNL     1     -10.805  16.167  68.095  1.00  0.00    -0.329 A  
HETATM   30  C   UNL     1     -11.381  14.173  70.013  1.00  0.00    -0.195 A  
BRANCH  23  31
HETATM   31  C   UNL     1      -9.934  12.246  65.487  1.00  0.00    -0.264 C  
BRANCH  31  32
HETATM   32  C   UNL     1     -10.861  11.364  64.652  1.00  0.00    -0.359 C  
BRANCH  32  33
HETATM   33  C   UNL     1      -9.986  10.375  63.861  1.00  0.00    -0.269 C  
HETATM   34  C   UNL     1      -9.296  10.981  62.653  1.00  0.00    -0.348 C  
ENDBRANCH  32  33
ENDBRANCH  31  32
ENDBRANCH  23  31
BRANCH  24  35
HETATM   35  N   UNL     1     -11.840  15.885  71.666  1.00  0.00    -0.449 N  
HETATM   36  H   UNL     1     -11.186  16.352  72.295  1.00  0.00     0.000 HD 
BRANCH  35  37
HETATM   37  S   UNL     1     -13.408  15.508  72.166  1.00  0.00    -0.484 S  
HETATM   38  C   UNL     1     -13.233  13.788  72.591  1.00  0.00    -0.470 C  
HETATM   39  O   UNL     1     -13.746  16.264  73.350  1.00  0.00    -0.597 OA 
HETATM   40  O   UNL     1     -14.220  15.583  70.969  1.00  0.00    -0.490 OA 
ENDBRANCH  35  37
ENDBRANCH  24  35
ENDBRANCH  20  22
ENDBRANCH  17  20
ENDBRANCH  13  14
ENDBRANCH  12  13
ENDBRANCH  11  12
ENDBRANCH  10  11
ENDBRANCH   5  10
ENDBRANCH   4   5
ENDBRANCH   3   4
ENDBRANCH   2   3
TORSDOF 18
ENDMDL
MODEL       18
REMARK 921   NORMALIZED FREE ENERGY PREDICTED BY IDOCK:   -5.55 KCAL/MOL
REMARK 922        TOTAL FREE ENERGY PREDICTED BY IDOCK:  -14.11 KCAL/MOL
REMARK 923 INTER-LIGAND FREE ENERGY PREDICTED BY IDOCK:  -11.08 KCAL/MOL
REMARK 924 INTRA-LIGAND FREE ENERGY PREDICTED BY IDOCK:   -3.04 KCAL/MOL
REMARK 927      BINDING AFFINITY PREDICTED BY RF-SCORE:    0.00 PKD
ROOT
HETATM    1  C   UNL     1     -10.740   3.425  73.987  1.00  0.00    -0.283 C  
HETATM    2  C   UNL     1     -10.145   4.357  72.940  1.00  0.00    -0.214 C  
ENDROOT
BRANCH   2   3
HETATM    3  C   UNL     1     -11.137   5.466  72.592  1.00  0.00    -0.332 C  
BRANCH   3   4
HETATM    4  C   UNL     1     -11.094   5.927  71.128  1.00  0.00    -0.236 C  
BRANCH   4   5
HETATM    5  N   UNL     1     -10.716   7.334  70.841  1.00  0.00    -0.231 NA 
BRANCH   5   6
HETATM    6  C   UNL     1     -11.341   8.261  71.814  1.00  0.00    -0.288 C  
BRANCH   6   7
HETATM    7  C   UNL     1     -12.873   8.416  71.743  1.00  0.00    -0.371 C  
BRANCH   7   8
HETATM    8  C   UNL     1     -13.350   9.782  71.246  1.00  0.00    -0.413 C  
HETATM    9  C   UNL     1     -12.324  10.861  71.568  1.00  0.00    -0.344 C  
ENDBRANCH   7   8
ENDBRANCH   6   7
ENDBRANCH   5   6
BRANCH   5  10
HETATM   10  C   UNL     1      -9.237   7.461  70.872  1.00  0.00    -0.154 C  
BRANCH  10  11
HETATM   11  C   UNL     1      -8.513   6.997  69.599  1.00  0.00    -0.134 C  
BRANCH  11  12
HETATM   12  C   UNL     1      -7.725   8.139  68.967  1.00  0.00    -0.099 C  
BRANCH  12  13
HETATM   13  O   UNL     1      -8.410   8.605  67.802  1.00  0.00    -0.117 OA 
BRANCH  13  14
HETATM   14  C   UNL     1      -9.260   9.663  67.993  1.00  0.00    -0.125 A  
HETATM   15  C   UNL     1     -10.656   9.601  68.013  1.00  0.00    -0.292 A  
HETATM   16  C   UNL     1     -11.418  10.772  68.136  1.00  0.00    -0.346 A  
HETATM   17  C   UNL     1     -10.789  12.017  68.251  1.00  0.00    -0.263 A  
HETATM   18  C   UNL     1      -9.392  12.064  68.337  1.00  0.00    -0.175 A  
HETATM   19  C   UNL     1      -8.635  10.898  68.171  1.00  0.00    -0.133 A  
BRANCH  17  20
HETATM   20  C   UNL     1     -11.625  13.261  68.236  1.00  0.00    -0.334 C  
HETATM   21  O   UNL     1     -12.375  13.472  69.186  1.00  0.00    -0.251 OA 
BRANCH  20  22
HETATM   22  C   UNL     1     -11.556  14.153  67.076  1.00  0.00    -0.404 A  
HETATM   23  C   UNL     1     -11.947  13.827  65.778  1.00  0.00    -0.399 A  
HETATM   24  C   UNL     1      -9.970  17.643  67.376  1.00  0.00    -0.321 A  
HETATM   25  O   UNL     1     -11.763  14.898  64.951  1.00  0.00    -0.382 OA 
HETATM   26  C   UNL     1     -10.165  18.001  66.044  1.00  0.00    -0.304 A  
HETATM   27  C   UNL     1     -11.178  15.882  65.670  1.00  0.00     0.003 A  
HETATM   28  C   UNL     1     -10.996  15.480  66.986  1.00  0.00    -0.283 A  
HETATM   29  C   UNL     1     -10.771  17.110  65.154  1.00  0.00    -0.009 A  
HETATM   30  C   UNL     1     -10.336  16.378  67.849  1.00  0.00    -0.286 A  
BRANCH  23  31
HETATM   31  C   UNL     1     -12.366  12.596  65.045  1.00  0.00    -0.561 C  
BRANCH  31  32
HETATM   32  C   UNL     1     -11.913  12.433  63.595  1.00  0.00    -0.626 C  
BRANCH  32  33
HETATM   33  C   UNL     1     -10.467  11.905  63.609  1.00  0.00    -0.493 C  
HETATM   34  C   UNL     1     -10.240  10.730  64.541  1.00  0.00    -0.428 C  
ENDBRANCH  32  33
ENDBRANCH  31  32
ENDBRANCH  23  31
BRANCH  24  35
HETATM   35  N   UNL     1      -9.378  18.560  68.294  1.00  0.00    -0.315 N  
HETATM   36  H   UNL     1      -9.927  18.980  69.044  1.00  0.00     0.000 HD 
BRANCH  35  37
HETATM   37  S   UNL     1      -7.742  18.930  68.102  1.00  0.00    -0.297 S  
HETATM   38  C   UNL     1      -7.833  20.392  67.090  1.00  0.00    -0.335 C  
HETATM   39  O   UNL     1      -7.157  19.265  69.380  1.00  0.00    -0.319 OA 
HETATM   40  O   UNL     1      -7.202  17.865  67.284  1.00  0.00    -0.180 OA 
ENDBRANCH  35  37
ENDBRANCH  24  35
ENDBRANCH  20  22
ENDBRANCH  17  20
ENDBRANCH  13  14
ENDBRANCH  12  13
ENDBRANCH  11  12
ENDBRANCH  10  11
ENDBRANCH   5  10
ENDBRANCH   4   5
ENDBRANCH   3   4
ENDBRANCH   2   3
TORSDOF 18
ENDMDL
MODEL       19
REMARK 921   NORMALIZED FREE ENERGY PREDICTED BY IDOCK:   -5.55 KCAL/MOL
REMARK 922        TOTAL FREE ENERGY PREDICTED BY IDOCK:  -14.10 KCAL/MOL
REMARK 923 INTER-LIGAND FREE ENERGY PREDICTED BY IDOCK:  -10.42 KCAL/MOL
REMARK 924 INTRA-LIGAND FREE ENERGY PREDICTED BY IDOCK:   -3.68 KCAL/MOL
REMARK 927      BINDING AFFINITY PREDICTED BY RF-SCORE:    0.00 PKD
ROOT
HETATM    1  C   UNL     1      -5.893  15.014  69.919  1.00  0.00    -0.128 C  
HETATM    2  C   UNL     1      -6.170  16.506  69.780  1.00  0.00    -0.205 C  
ENDROOT
BRANCH   2   3
HETATM    3  C   UNL     1      -5.946  16.954  68.336  1.00  0.00    -0.134 C  
BRANCH   3   4
HETATM    4  C   UNL     1      -6.995  17.941  67.803  1.00  0.00    -0.199 C  
BRANCH   4   5
HETATM    5  N   UNL     1      -7.249  19.186  68.571  1.00  0.00    -0.292 NA 
BRANCH   5   6
HETATM    6  C   UNL     1      -6.140  20.153  68.398  1.00  0.00    -0.279 C  
BRANCH   6   7
HETATM    7  C   UNL     1      -6.354  21.281  67.369  1.00  0.00    -0.426 C  
BRANCH   7   8
HETATM    8  C   UNL     1      -5.601  21.089  66.051  1.00  0.00    -0.268 C  
HETATM    9  C   UNL     1      -6.454  20.319  65.050  1.00  0.00    -0.332 C  
ENDBRANCH   7   8
ENDBRANCH   6   7
ENDBRANCH   5   6
BRANCH   5  10
HETATM   10  C   UNL     1      -8.537  19.780  68.130  1.00  0.00    -0.287 C  
BRANCH  10  11
HETATM   11  C   UNL     1      -9.354  18.922  67.153  1.00  0.00    -0.328 C  
BRANCH  11  12
HETATM   12  C   UNL     1     -10.631  18.408  67.809  1.00  0.00    -0.391 C  
BRANCH  12  13
HETATM   13  O   UNL     1     -10.296  17.620  68.954  1.00  0.00    -0.363 OA 
BRANCH  13  14
HETATM   14  C   UNL     1     -10.495  16.271  68.830  1.00  0.00    -0.282 A  
HETATM   15  C   UNL     1      -9.532  15.329  68.458  1.00  0.00    -0.200 A  
HETATM   16  C   UNL     1      -9.882  13.982  68.287  1.00  0.00    -0.233 A  
HETATM   17  C   UNL     1     -11.202  13.562  68.495  1.00  0.00    -0.310 A  
HETATM   18  C   UNL     1     -12.140  14.487  68.969  1.00  0.00    -0.286 A  
HETATM   19  C   UNL     1     -11.795  15.838  69.098  1.00  0.00    -0.367 A  
BRANCH  17  20
HETATM   20  C   UNL     1     -11.578  12.149  68.165  1.00  0.00    -0.337 C  
HETATM   21  O   UNL     1     -12.353  11.561  68.915  1.00  0.00    -0.400 OA 
BRANCH  20  22
HETATM   22  C   UNL     1     -10.975  11.505  66.995  1.00  0.00    -0.347 A  
HETATM   23  C   UNL     1     -11.334  11.737  65.668  1.00  0.00    -0.233 A  
HETATM   24  C   UNL     1      -8.339   8.737  67.419  1.00  0.00    -0.109 A  
HETATM   25  O   UNL     1     -10.557  10.982  64.836  1.00  0.00    -0.302 OA 
HETATM   26  C   UNL     1      -8.153   8.512  66.058  1.00  0.00    -0.110 A  
HETATM   27  C   UNL     1      -9.765  10.200  65.602  1.00  0.00    -0.259 A  
HETATM   28  C   UNL     1      -9.989  10.452  66.949  1.00  0.00    -0.254 A  
HETATM   29  C   UNL     1      -8.880   9.242  65.113  1.00  0.00    -0.238 A  
HETATM   30  C   UNL     1      -9.280   9.666  67.879  1.00  0.00    -0.134 A  
BRANCH  23  31
HETATM   31  C   UNL     1     -12.416  12.468  64.945  1.00  0.00    -0.524 C  
BRANCH  31  32
HETATM   32  C   UNL     1     -12.432  13.993  65.029  1.00  0.00    -0.446 C  
BRANCH  32  33
HETATM   33  C   UNL     1     -10.987  14.491  64.848  1.00  0.00    -0.421 C  
HETATM   34  C   UNL     1     -10.811  15.984  65.057  1.00  0.00    -0.421 C  
ENDBRANCH  32  33
ENDBRANCH  31  32
ENDBRANCH  23  31
BRANCH  24  35
HETATM   35  N   UNL     1      -7.579   8.015  68.385  1.00  0.00    -0.106 N  
HETATM   36  H   UNL     1      -6.565   8.113  68.435  1.00  0.00     0.000 HD 
BRANCH  35  37
HETATM   37  S   UNL     1      -8.407   6.993  69.444  1.00  0.00    -0.133 S  
HETATM   38  C   UNL     1      -8.510   8.011  70.901  1.00  0.00    -0.124 C  
HETATM   39  O   UNL     1      -9.737   6.733  68.944  1.00  0.00    -0.137 OA 
HETATM   40  O   UNL     1      -7.487   5.911  69.730  1.00  0.00    -0.076 OA 
ENDBRANCH  35  37
ENDBRANCH  24  35
ENDBRANCH  20  22
ENDBRANCH  17  20
ENDBRANCH  13  14
ENDBRANCH  12  13
ENDBRANCH  11  12
ENDBRANCH  10  11
ENDBRANCH   5  10
ENDBRANCH   4   5
ENDBRANCH   3   4
ENDBRANCH   2   3
TORSDOF 18
ENDMDL
MODEL       20
REMARK 921   NORMALIZED FREE ENERGY PREDICTED BY IDOCK:   -5.50 KCAL/MOL
REMARK 922        TOTAL FREE ENERGY PREDICTED BY IDOCK:  -14.01 KCAL/MOL
REMARK 923 INTER-LIGAND FREE ENERGY PREDICTED BY IDOCK:  -10.59 KCAL/MOL
REMARK 924 INTRA-LIGAND FREE ENERGY PREDICTED BY IDOCK:   -3.42 KCAL/MOL
REMARK 927      BINDING AFFINITY PREDICTED BY RF-SCORE:    0.00 PKD
ROOT
HETATM    1  C   UNL     1     -13.254  15.048  71.216  1.00  0.00    -0.502 C  
HETATM    2  C   UNL     1     -12.126  14.065  70.928  1.00  0.00    -0.404 C  
ENDROOT
BRANCH   2   3
HETATM    3  C   UNL     1     -11.391  14.463  69.648  1.00  0.00    -0.309 C  
BRANCH   3   4
HETATM    4  C   UNL     1     -11.907  15.750  68.989  1.00  0.00    -0.355 C  
BRANCH   4   5
HETATM    5  N   UNL     1     -10.982  16.516  68.115  1.00  0.00    -0.351 NA 
BRANCH   5   6
HETATM    6  C   UNL     1     -10.195  17.494  68.902  1.00  0.00    -0.353 C  
BRANCH   6   7
HETATM    7  C   UNL     1      -9.802  18.804  68.192  1.00  0.00    -0.396 C  
BRANCH   7   8
HETATM    8  C   UNL     1     -10.910  19.417  67.334  1.00  0.00    -0.555 C  
HETATM    9  C   UNL     1     -10.423  19.645  65.908  1.00  0.00    -0.591 C  
ENDBRANCH   7   8
ENDBRANCH   6   7
ENDBRANCH   5   6
BRANCH   5  10
HETATM   10  C   UNL     1     -10.084  15.571  67.404  1.00  0.00    -0.246 C  
BRANCH  10  11
HETATM   11  C   UNL     1     -10.523  15.195  65.981  1.00  0.00    -0.330 C  
BRANCH  11  12
HETATM   12  C   UNL     1     -11.282  13.872  65.971  1.00  0.00    -0.300 C  
BRANCH  12  13
HETATM   13  O   UNL     1     -10.351  12.790  65.877  1.00  0.00    -0.271 OA 
BRANCH  13  14
HETATM   14  C   UNL     1     -10.227  12.011  66.997  1.00  0.00    -0.203 A  
HETATM   15  C   UNL     1      -9.035  11.718  67.666  1.00  0.00    -0.169 A  
HETATM   16  C   UNL     1      -9.029  10.838  68.758  1.00  0.00    -0.171 A  
HETATM   17  C   UNL     1     -10.221  10.248  69.197  1.00  0.00    -0.234 A  
HETATM   18  C   UNL     1     -11.426  10.625  68.592  1.00  0.00    -0.332 A  
HETATM   19  C   UNL     1     -11.421  11.471  67.477  1.00  0.00    -0.355 A  
BRANCH  17  20
HETATM   20  C   UNL     1     -10.164   9.203  70.271  1.00  0.00    -0.214 C  
HETATM   21  O   UNL     1      -9.908   9.559  71.418  1.00  0.00    -0.200 OA 
BRANCH  20  22
HETATM   22  C   UNL     1     -10.368   7.798  69.909  1.00  0.00    -0.223 A  
HETATM   23  C   UNL     1     -11.377   6.972  70.402  1.00  0.00    -0.310 A  
HETATM   24  C   UNL     1      -7.872   5.982  67.616  1.00  0.00    -0.101 A  
HETATM   25  O   UNL     1     -11.281   5.731  69.840  1.00  0.00    -0.346 OA 
HETATM   26  C   UNL     1      -8.531   4.755  67.635  1.00  0.00    -0.104 A  
HETATM   27  C   UNL     1     -10.175   5.711  69.063  1.00  0.00    -0.222 A  
HETATM   28  C   UNL     1      -9.547   6.948  69.080  1.00  0.00    -0.144 A  
HETATM   29  C   UNL     1      -9.704   4.594  68.377  1.00  0.00    -0.198 A  
HETATM   30  C   UNL     1      -8.338   7.068  68.365  1.00  0.00    -0.124 A  
BRANCH  23  31
HETATM   31  C   UNL     1     -12.422   7.047  71.465  1.00  0.00    -0.426 C  
BRANCH  31  32
HETATM   32  C   UNL     1     -13.553   8.059  71.291  1.00  0.00    -0.196 C  
BRANCH  32  33
HETATM   33  C   UNL     1     -13.392   9.138  72.376  1.00  0.00    -0.527 C  
HETATM   34  C   UNL     1     -13.216  10.546  71.836  1.00  0.00    -0.526 C  
ENDBRANCH  32  33
ENDBRANCH  31  32
ENDBRANCH  23  31
BRANCH  24  35
HETATM   35  N   UNL     1      -6.691   6.158  66.838  1.00  0.00    -0.059 N  
HETATM   36  H   UNL     1      -5.766   6.027  67.249  1.00  0.00     0.000 HD 
BRANCH  35  37
HETATM   37  S   UNL     1      -6.866   6.591  65.215  1.00  0.00    -0.048 S  
HETATM   38  C   UNL     1      -6.221   5.146  64.398  1.00  0.00    -0.022 C  
HETATM   39  O   UNL     1      -8.266   6.742  64.891  1.00  0.00    -0.134 OA 
HETATM   40  O   UNL     1      -5.925   7.671  65.003  1.00  0.00    -0.037 OA 
ENDBRANCH  35  37
ENDBRANCH  24  35
ENDBRANCH  20  22
ENDBRANCH  17  20
ENDBRANCH  13  14
ENDBRANCH  12  13
ENDBRANCH  11  12
ENDBRANCH  10  11
ENDBRANCH   5  10
ENDBRANCH   4   5
ENDBRANCH   3   4
ENDBRANCH   2   3
TORSDOF 18
ENDMDL
MODEL       21
REMARK 921   NORMALIZED FREE ENERGY PREDICTED BY IDOCK:   -5.50 KCAL/MOL
REMARK 922        TOTAL FREE ENERGY PREDICTED BY IDOCK:  -14.00 KCAL/MOL
REMARK 923 INTER-LIGAND FREE ENERGY PREDICTED BY IDOCK:  -11.69 KCAL/MOL
REMARK 924 INTRA-LIGAND FREE ENERGY PREDICTED BY IDOCK:   -2.31 KCAL/MOL
REMARK 927      BINDING AFFINITY PREDICTED BY RF-SCORE:    0.00 PKD
ROOT
HETATM    1  C   UNL     1     -10.425  20.166  66.212  1.00  0.00    -0.454 C  
HETATM    2  C   UNL     1      -9.421  20.141  67.358  1.00  0.00    -0.531 C  
ENDROOT
BRANCH   2   3
HETATM    3  C   UNL     1     -10.025  19.445  68.577  1.00  0.00    -0.520 C  
BRANCH   3   4
HETATM    4  C   UNL     1      -9.548  18.000  68.788  1.00  0.00    -0.301 C  
BRANCH   4   5
HETATM    5  N   UNL     1     -10.558  16.912  68.760  1.00  0.00    -0.343 NA 
BRANCH   5   6
HETATM    6  C   UNL     1     -10.450  16.118  67.514  1.00  0.00    -0.302 C  
BRANCH   6   7
HETATM    7  C   UNL     1     -10.142  14.616  67.669  1.00  0.00    -0.228 C  
BRANCH   7   8
HETATM    8  C   UNL     1     -10.898  13.710  66.695  1.00  0.00    -0.283 C  
HETATM    9  C   UNL     1     -12.261  14.300  66.356  1.00  0.00    -0.426 C  
ENDBRANCH   7   8
ENDBRANCH   6   7
ENDBRANCH   5   6
BRANCH   5  10
HETATM   10  C   UNL     1     -10.377  16.044  69.952  1.00  0.00    -0.249 C  
BRANCH  10  11
HETATM   11  C   UNL     1     -11.523  16.087  70.973  1.00  0.00    -0.460 C  
BRANCH  11  12
HETATM   12  C   UNL     1     -12.805  15.505  70.388  1.00  0.00    -0.281 C  
BRANCH  12  13
HETATM   13  O   UNL     1     -13.358  14.554  71.302  1.00  0.00    -0.346 OA 
BRANCH  13  14
HETATM   14  C   UNL     1     -12.901  13.269  71.174  1.00  0.00    -0.280 A  
HETATM   15  C   UNL     1     -12.015  12.805  70.197  1.00  0.00    -0.371 A  
HETATM   16  C   UNL     1     -11.686  11.444  70.123  1.00  0.00    -0.414 A  
HETATM   17  C   UNL     1     -12.234  10.533  71.035  1.00  0.00    -0.505 A  
HETATM   18  C   UNL     1     -13.037  11.016  72.076  1.00  0.00    -0.449 A  
HETATM   19  C   UNL     1     -13.396  12.369  72.120  1.00  0.00    -0.508 A  
BRANCH  17  20
HETATM   20  C   UNL     1     -11.980   9.068  70.844  1.00  0.00    -0.225 C  
HETATM   21  O   UNL     1     -12.914   8.288  71.008  1.00  0.00    -0.118 OA 
BRANCH  20  22
HETATM   22  C   UNL     1     -10.625   8.616  70.518  1.00  0.00    -0.248 A  
HETATM   23  C   UNL     1      -9.648   8.250  71.443  1.00  0.00    -0.177 A  
HETATM   24  C   UNL     1      -9.384   8.604  66.879  1.00  0.00    -0.170 A  
HETATM   25  O   UNL     1      -8.510   7.864  70.793  1.00  0.00    -0.119 OA 
HETATM   26  C   UNL     1      -8.110   8.120  67.167  1.00  0.00    -0.116 A  
HETATM   27  C   UNL     1      -8.701   8.060  69.469  1.00  0.00    -0.136 A  
HETATM   28  C   UNL     1      -9.978   8.549  69.230  1.00  0.00    -0.195 A  
HETATM   29  C   UNL     1      -7.738   7.846  68.486  1.00  0.00    -0.114 A  
HETATM   30  C   UNL     1     -10.308   8.865  67.896  1.00  0.00    -0.286 A  
BRANCH  23  31
HETATM   31  C   UNL     1      -9.477   8.305  72.925  1.00  0.00    -0.321 C  
BRANCH  31  32
HETATM   32  C   UNL     1      -9.988   7.126  73.752  1.00  0.00    -0.373 C  
BRANCH  32  33
HETATM   33  C   UNL     1      -9.867   5.857  72.889  1.00  0.00    -0.179 C  
HETATM   34  C   UNL     1     -11.028   4.891  73.034  1.00  0.00    -0.358 C  
ENDBRANCH  32  33
ENDBRANCH  31  32
ENDBRANCH  23  31
BRANCH  24  35
HETATM   35  N   UNL     1      -9.776   8.857  65.532  1.00  0.00    -0.447 N  
HETATM   36  H   UNL     1     -10.665   8.513  65.170  1.00  0.00     0.000 HD 
BRANCH  35  37
HETATM   37  S   UNL     1      -8.725   9.745  64.553  1.00  0.00    -0.215 S  
HETATM   38  C   UNL     1      -9.874  10.702  63.587  1.00  0.00    -0.333 C  
HETATM   39  O   UNL     1      -7.922  10.632  65.363  1.00  0.00    -0.148 OA 
HETATM   40  O   UNL     1      -8.113   8.774  63.669  1.00  0.00    -0.155 OA 
ENDBRANCH  35  37
ENDBRANCH  24  35
ENDBRANCH  20  22
ENDBRANCH  17  20
ENDBRANCH  13  14
ENDBRANCH  12  13
ENDBRANCH  11  12
ENDBRANCH  10  11
ENDBRANCH   5  10
ENDBRANCH   4   5
ENDBRANCH   3   4
ENDBRANCH   2   3
TORSDOF 18
ENDMDL
MODEL       22
REMARK 921   NORMALIZED FREE ENERGY PREDICTED BY IDOCK:   -5.46 KCAL/MOL
REMARK 922        TOTAL FREE ENERGY PREDICTED BY IDOCK:  -13.93 KCAL/MOL
REMARK 923 INTER-LIGAND FREE ENERGY PREDICTED BY IDOCK:  -11.67 KCAL/MOL
REMARK 924 INTRA-LIGAND FREE ENERGY PREDICTED BY IDOCK:   -2.26 KCAL/MOL
REMARK 927      BINDING AFFINITY PREDICTED BY RF-SCORE:    0.00 PKD
ROOT
HETATM    1  C   UNL     1     -11.629  13.314  64.761  1.00  0.00    -0.364 C  
HETATM    2  C   UNL     1     -11.701  13.996  66.121  1.00  0.00    -0.395 C  
ENDROOT
BRANCH   2   3
HETATM    3  C   UNL     1     -10.331  14.549  66.510  1.00  0.00    -0.283 C  
BRANCH   3   4
HETATM    4  C   UNL     1     -10.219  16.080  66.450  1.00  0.00    -0.305 C  
BRANCH   4   5
HETATM    5  N   UNL     1      -9.704  16.797  67.645  1.00  0.00    -0.248 NA 
BRANCH   5   6
HETATM    6  C   UNL     1      -8.926  17.994  67.251  1.00  0.00    -0.251 C  
BRANCH   6   7
HETATM    7  C   UNL     1      -9.073  19.244  68.141  1.00  0.00    -0.381 C  
BRANCH   7   8
HETATM    8  C   UNL     1      -9.696  20.453  67.439  1.00  0.00    -0.597 C  
HETATM    9  C   UNL     1     -10.307  20.045  66.104  1.00  0.00    -0.570 C  
ENDBRANCH   7   8
ENDBRANCH   6   7
ENDBRANCH   5   6
BRANCH   5  10
HETATM   10  C   UNL     1     -10.844  17.177  68.517  1.00  0.00    -0.281 C  
BRANCH  10  11
HETATM   11  C   UNL     1     -10.998  16.339  69.795  1.00  0.00    -0.354 C  
BRANCH  11  12
HETATM   12  C   UNL     1     -12.161  15.359  69.674  1.00  0.00    -0.327 C  
BRANCH  12  13
HETATM   13  O   UNL     1     -12.426  14.774  70.951  1.00  0.00    -0.286 OA 
BRANCH  13  14
HETATM   14  C   UNL     1     -12.459  13.404  70.984  1.00  0.00    -0.353 A  
HETATM   15  C   UNL     1     -13.096  12.622  71.951  1.00  0.00    -0.470 A  
HETATM   16  C   UNL     1     -12.988  11.224  71.920  1.00  0.00    -0.471 A  
HETATM   17  C   UNL     1     -12.246  10.594  70.912  1.00  0.00    -0.497 A  
HETATM   18  C   UNL     1     -11.698  11.375  69.887  1.00  0.00    -0.424 A  
HETATM   19  C   UNL     1     -11.773  12.772  69.947  1.00  0.00    -0.321 A  
BRANCH  17  20
HETATM   20  C   UNL     1     -12.028   9.113  70.985  1.00  0.00    -0.282 C  
HETATM   21  O   UNL     1     -12.946   8.407  71.394  1.00  0.00    -0.299 OA 
BRANCH  20  22
HETATM   22  C   UNL     1     -10.720   8.566  70.616  1.00  0.00    -0.251 A  
HETATM   23  C   UNL     1      -9.741   8.132  71.508  1.00  0.00    -0.176 A  
HETATM   24  C   UNL     1      -9.607   8.462  66.936  1.00  0.00    -0.202 A  
HETATM   25  O   UNL     1      -8.656   7.666  70.822  1.00  0.00    -0.131 OA 
HETATM   26  C   UNL     1      -8.361   7.889  67.183  1.00  0.00    -0.117 A  
HETATM   27  C   UNL     1      -8.877   7.874  69.504  1.00  0.00    -0.142 A  
HETATM   28  C   UNL     1     -10.124   8.451  69.306  1.00  0.00    -0.202 A  
HETATM   29  C   UNL     1      -7.966   7.591  68.490  1.00  0.00    -0.123 A  
HETATM   30  C   UNL     1     -10.476   8.789  67.984  1.00  0.00    -0.260 A  
BRANCH  23  31
HETATM   31  C   UNL     1      -9.516   8.177  72.983  1.00  0.00    -0.333 C  
BRANCH  31  32
HETATM   32  C   UNL     1     -10.273   7.177  73.856  1.00  0.00    -0.358 C  
BRANCH  32  33
HETATM   33  C   UNL     1      -9.813   5.763  73.460  1.00  0.00    -0.169 C  
HETATM   34  C   UNL     1     -10.773   5.027  72.542  1.00  0.00    -0.271 C  
ENDBRANCH  32  33
ENDBRANCH  31  32
ENDBRANCH  23  31
BRANCH  24  35
HETATM   35  N   UNL     1     -10.025   8.741  65.602  1.00  0.00    -0.353 N  
HETATM   36  H   UNL     1     -10.823   8.257  65.190  1.00  0.00     0.000 HD 
BRANCH  35  37
HETATM   37  S   UNL     1      -9.162   9.897  64.725  1.00  0.00    -0.267 S  
HETATM   38  C   UNL     1      -9.022  11.208  65.921  1.00  0.00    -0.199 C  
HETATM   39  O   UNL     1      -7.845   9.395  64.406  1.00  0.00    -0.112 OA 
HETATM   40  O   UNL     1     -10.067  10.345  63.688  1.00  0.00    -0.247 OA 
ENDBRANCH  35  37
ENDBRANCH  24  35
ENDBRANCH  20  22
ENDBRANCH  17  20
ENDBRANCH  13  14
ENDBRANCH  12  13
ENDBRANCH  11  12
ENDBRANCH  10  11
ENDBRANCH   5  10
ENDBRANCH   4   5
ENDBRANCH   3   4
ENDBRANCH   2   3
TORSDOF 18
ENDMDL
MODEL       23
REMARK 921   NORMALIZED FREE ENERGY PREDICTED BY IDOCK:   -5.46 KCAL/MOL
REMARK 922        TOTAL FREE ENERGY PREDICTED BY IDOCK:  -13.93 KCAL/MOL
REMARK 923 INTER-LIGAND FREE ENERGY PREDICTED BY IDOCK:  -11.02 KCAL/MOL
REMARK 924 INTRA-LIGAND FREE ENERGY PREDICTED BY IDOCK:   -2.90 KCAL/MOL
REMARK 927      BINDING AFFINITY PREDICTED BY RF-SCORE:    0.00 PKD
ROOT
HETATM    1  C   UNL     1      -9.868  19.442  68.555  1.00  0.00    -0.509 C  
HETATM    2  C   UNL     1     -10.133  19.985  67.157  1.00  0.00    -0.587 C  
ENDROOT
BRANCH   2   3
HETATM    3  C   UNL     1     -10.395  18.837  66.183  1.00  0.00    -0.494 C  
BRANCH   3   4
HETATM    4  C   UNL     1      -9.313  17.746  66.175  1.00  0.00    -0.132 C  
BRANCH   4   5
HETATM    5  N   UNL     1      -9.646  16.425  65.585  1.00  0.00    -0.507 NA 
BRANCH   5   6
HETATM    6  C   UNL     1      -9.242  15.323  66.488  1.00  0.00    -0.290 C  
BRANCH   6   7
HETATM    7  C   UNL     1      -9.333  15.594  68.003  1.00  0.00    -0.193 C  
BRANCH   7   8
HETATM    8  C   UNL     1     -10.476  14.863  68.710  1.00  0.00    -0.242 C  
HETATM    9  C   UNL     1     -11.661  15.796  68.927  1.00  0.00    -0.400 C  
ENDBRANCH   7   8
ENDBRANCH   6   7
ENDBRANCH   5   6
BRANCH   5  10
HETATM   10  C   UNL     1     -11.103  16.366  65.306  1.00  0.00    -0.113 C  
BRANCH  10  11
HETATM   11  C   UNL     1     -11.562  15.160  64.473  1.00  0.00    -0.330 C  
BRANCH  11  12
HETATM   12  C   UNL     1     -12.607  14.340  65.223  1.00  0.00    -0.394 C  
BRANCH  12  13
HETATM   13  O   UNL     1     -12.661  13.021  64.673  1.00  0.00    -0.658 OA 
BRANCH  13  14
HETATM   14  C   UNL     1     -11.644  12.179  65.040  1.00  0.00    -0.310 A  
HETATM   15  C   UNL     1     -10.921  11.344  64.184  1.00  0.00    -0.411 A  
HETATM   16  C   UNL     1      -9.955  10.466  64.696  1.00  0.00    -0.408 A  
HETATM   17  C   UNL     1      -9.695  10.423  66.071  1.00  0.00    -0.265 A  
HETATM   18  C   UNL     1     -10.346  11.334  66.911  1.00  0.00    -0.272 A  
HETATM   19  C   UNL     1     -11.339  12.179  66.402  1.00  0.00    -0.411 A  
BRANCH  17  20
HETATM   20  C   UNL     1      -8.764   9.377  66.605  1.00  0.00    -0.131 C  
HETATM   21  O   UNL     1      -7.558   9.524  66.427  1.00  0.00    -0.096 OA 
BRANCH  20  22
HETATM   22  C   UNL     1      -9.323   8.199  67.273  1.00  0.00    -0.174 A  
HETATM   23  C   UNL     1      -9.311   6.898  66.770  1.00  0.00    -0.158 A  
HETATM   24  C   UNL     1     -11.240   8.550  70.588  1.00  0.00    -0.252 A  
HETATM   25  O   UNL     1      -9.900   6.047  67.660  1.00  0.00    -0.115 OA 
HETATM   26  C   UNL     1     -11.525   7.194  70.730  1.00  0.00    -0.342 A  
HETATM   27  C   UNL     1     -10.374   6.785  68.690  1.00  0.00    -0.186 A  
HETATM   28  C   UNL     1     -10.075   8.127  68.503  1.00  0.00    -0.220 A  
HETATM   29  C   UNL     1     -11.099   6.277  69.764  1.00  0.00    -0.473 A  
HETATM   30  C   UNL     1     -10.561   9.036  69.465  1.00  0.00    -0.231 A  
BRANCH  23  31
HETATM   31  C   UNL     1      -8.960   6.235  65.480  1.00  0.00     0.016 C  
BRANCH  31  32
HETATM   32  C   UNL     1      -8.792   4.716  65.476  1.00  0.00    -0.134 C  
BRANCH  32  33
HETATM   33  C   UNL     1      -7.307   4.405  65.731  1.00  0.00    -0.080 C  
HETATM   34  C   UNL     1      -7.004   3.913  67.135  1.00  0.00    -0.062 C  
ENDBRANCH  32  33
ENDBRANCH  31  32
ENDBRANCH  23  31
BRANCH  24  35
HETATM   35  N   UNL     1     -11.648   9.484  71.584  1.00  0.00    -0.393 N  
HETATM   36  H   UNL     1     -11.015   9.760  72.336  1.00  0.00     0.000 HD 
BRANCH  35  37
HETATM   37  S   UNL     1     -13.209  10.121  71.485  1.00  0.00    -0.382 S  
HETATM   38  C   UNL     1     -14.143   8.888  72.367  1.00  0.00    -0.420 C  
HETATM   39  O   UNL     1     -13.278  11.377  72.196  1.00  0.00    -0.490 OA 
HETATM   40  O   UNL     1     -13.572  10.028  70.086  1.00  0.00     0.226 OA 
ENDBRANCH  35  37
ENDBRANCH  24  35
ENDBRANCH  20  22
ENDBRANCH  17  20
ENDBRANCH  13  14
ENDBRANCH  12  13
ENDBRANCH  11  12
ENDBRANCH  10  11
ENDBRANCH   5  10
ENDBRANCH   4   5
ENDBRANCH   3   4
ENDBRANCH   2   3
TORSDOF 18
ENDMDL
MODEL       24
REMARK 921   NORMALIZED FREE ENERGY PREDICTED BY IDOCK:   -5.41 KCAL/MOL
REMARK 922        TOTAL FREE ENERGY PREDICTED BY IDOCK:  -13.82 KCAL/MOL
REMARK 923 INTER-LIGAND FREE ENERGY PREDICTED BY IDOCK:  -10.17 KCAL/MOL
REMARK 924 INTRA-LIGAND FREE ENERGY PREDICTED BY IDOCK:   -3.64 KCAL/MOL
REMARK 927      BINDING AFFINITY PREDICTED BY RF-SCORE:    0.00 PKD
ROOT
HETATM    1  C   UNL     1      -7.727   8.686  71.852  1.00  0.00    -0.111 C  
HETATM    2  C   UNL     1      -9.213   8.577  71.536  1.00  0.00    -0.288 C  
ENDROOT
BRANCH   2   3
HETATM    3  C   UNL     1      -9.629   7.109  71.446  1.00  0.00    -0.163 C  
BRANCH   3   4
HETATM    4  C   UNL     1      -8.848   6.166  72.374  1.00  0.00    -0.136 C  
BRANCH   4   5
HETATM    5  N   UNL     1      -8.146   5.004  71.771  1.00  0.00    -0.112 NA 
BRANCH   5   6
HETATM    6  C   UNL     1      -8.615   3.732  72.369  1.00  0.00    -0.090 C  
BRANCH   6   7
HETATM    7  C   UNL     1     -10.104   3.381  72.182  1.00  0.00    -0.200 C  
BRANCH   7   8
HETATM    8  C   UNL     1     -10.865   3.130  73.486  1.00  0.00    -0.316 C  
HETATM    9  C   UNL     1     -11.435   1.718  73.515  1.00  0.00    -0.309 C  
ENDBRANCH   7   8
ENDBRANCH   6   7
ENDBRANCH   5   6
BRANCH   5  10
HETATM   10  C   UNL     1      -8.368   5.005  70.302  1.00  0.00    -0.092 C  
BRANCH  10  11
HETATM   11  C   UNL     1      -7.094   5.092  69.448  1.00  0.00    -0.056 C  
BRANCH  11  12
HETATM   12  C   UNL     1      -6.799   6.533  69.045  1.00  0.00    -0.066 C  
BRANCH  12  13
HETATM   13  O   UNL     1      -7.478   6.835  67.824  1.00  0.00    -0.093 OA 
BRANCH  13  14
HETATM   14  C   UNL     1      -8.480   7.766  67.913  1.00  0.00    -0.122 A  
HETATM   15  C   UNL     1      -9.849   7.513  67.790  1.00  0.00    -0.191 A  
HETATM   16  C   UNL     1     -10.773   8.567  67.819  1.00  0.00    -0.170 A  
HETATM   17  C   UNL     1     -10.335   9.887  67.982  1.00  0.00    -0.244 A  
HETATM   18  C   UNL     1      -8.974  10.126  68.210  1.00  0.00    -0.120 A  
HETATM   19  C   UNL     1      -8.052   9.075  68.138  1.00  0.00    -0.105 A  
BRANCH  17  20
HETATM   20  C   UNL     1     -11.328  11.004  67.866  1.00  0.00    -0.311 C  
HETATM   21  O   UNL     1     -11.763  11.284  66.752  1.00  0.00    -0.418 OA 
BRANCH  20  22
HETATM   22  C   UNL     1     -11.706  11.750  69.068  1.00  0.00    -0.390 A  
HETATM   23  C   UNL     1     -12.194  11.193  70.249  1.00  0.00    -0.352 A  
HETATM   24  C   UNL     1     -11.656  15.596  69.087  1.00  0.00    -0.383 A  
HETATM   25  O   UNL     1     -12.427  12.175  71.169  1.00  0.00    -0.343 OA 
HETATM   26  C   UNL     1     -12.093  15.735  70.402  1.00  0.00    -0.399 A  
HETATM   27  C   UNL     1     -12.186  13.366  70.575  1.00  0.00    -0.352 A  
HETATM   28  C   UNL     1     -11.762  13.179  69.267  1.00  0.00    -0.376 A  
HETATM   29  C   UNL     1     -12.379  14.607  71.176  1.00  0.00    -0.403 A  
HETATM   30  C   UNL     1     -11.530  14.335  68.494  1.00  0.00    -0.329 A  
BRANCH  23  31
HETATM   31  C   UNL     1     -12.653   9.849  70.709  1.00  0.00    -0.324 C  
BRANCH  31  32
HETATM   32  C   UNL     1     -13.446   9.768  72.012  1.00  0.00    -0.498 C  
BRANCH  32  33
HETATM   33  C   UNL     1     -14.328   8.508  71.950  1.00  0.00    -0.536 C  
HETATM   34  C   UNL     1     -13.582   7.240  71.578  1.00  0.00    -0.442 C  
ENDBRANCH  32  33
ENDBRANCH  31  32
ENDBRANCH  23  31
BRANCH  24  35
HETATM   35  N   UNL     1     -11.336  16.743  68.303  1.00  0.00    -0.178 N  
HETATM   36  H   UNL     1     -12.070  17.304  67.869  1.00  0.00     0.000 HD 
BRANCH  35  37
HETATM   37  S   UNL     1      -9.707  17.147  68.114  1.00  0.00    -0.288 S  
HETATM   38  C   UNL     1      -9.745  18.899  68.428  1.00  0.00    -0.379 C  
HETATM   39  O   UNL     1      -8.914  16.493  69.129  1.00  0.00    -0.246 OA 
HETATM   40  O   UNL     1      -9.428  16.960  66.706  1.00  0.00    -0.237 OA 
ENDBRANCH  35  37
ENDBRANCH  24  35
ENDBRANCH  20  22
ENDBRANCH  17  20
ENDBRANCH  13  14
ENDBRANCH  12  13
ENDBRANCH  11  12
ENDBRANCH  10  11
ENDBRANCH   5  10
ENDBRANCH   4   5
ENDBRANCH   3   4
ENDBRANCH   2   3
TORSDOF 18
ENDMDL
MODEL       25
REMARK 921   NORMALIZED FREE ENERGY PREDICTED BY IDOCK:   -5.40 KCAL/MOL
REMARK 922        TOTAL FREE ENERGY PREDICTED BY IDOCK:  -13.79 KCAL/MOL
REMARK 923 INTER-LIGAND FREE ENERGY PREDICTED BY IDOCK:  -10.78 KCAL/MOL
REMARK 924 INTRA-LIGAND FREE ENERGY PREDICTED BY IDOCK:   -3.01 KCAL/MOL
REMARK 927      BINDING AFFINITY PREDICTED BY RF-SCORE:    0.00 PKD
ROOT
HETATM    1  C   UNL     1     -13.056  15.358  71.009  1.00  0.00    -0.565 C  
HETATM    2  C   UNL     1     -12.118  14.609  70.071  1.00  0.00    -0.383 C  
ENDROOT
BRANCH   2   3
HETATM    3  C   UNL     1     -10.737  15.264  70.069  1.00  0.00    -0.297 C  
BRANCH   3   4
HETATM    4  C   UNL     1     -10.622  16.509  69.177  1.00  0.00    -0.319 C  
BRANCH   4   5
HETATM    5  N   UNL     1      -9.516  16.569  68.188  1.00  0.00    -0.218 NA 
BRANCH   5   6
HETATM    6  C   UNL     1      -9.009  17.954  68.040  1.00  0.00    -0.267 C  
BRANCH   6   7
HETATM    7  C   UNL     1      -9.861  19.077  68.665  1.00  0.00    -0.474 C  
BRANCH   7   8
HETATM    8  C   UNL     1     -10.654  19.908  67.655  1.00  0.00    -0.483 C  
HETATM    9  C   UNL     1     -10.343  19.466  66.231  1.00  0.00    -0.584 C  
ENDBRANCH   7   8
ENDBRANCH   6   7
ENDBRANCH   5   6
BRANCH   5  10
HETATM   10  C   UNL     1      -8.426  15.655  68.615  1.00  0.00    -0.179 C  
BRANCH  10  11
HETATM   11  C   UNL     1      -7.409  15.293  67.522  1.00  0.00    -0.223 C  
BRANCH  11  12
HETATM   12  C   UNL     1      -6.068  14.895  68.129  1.00  0.00    -0.139 C  
BRANCH  12  13
HETATM   13  O   UNL     1      -5.589  13.709  67.490  1.00  0.00    -0.330 OA 
BRANCH  13  14
HETATM   14  C   UNL     1      -6.392  12.605  67.601  1.00  0.00    -0.147 A  
HETATM   15  C   UNL     1      -6.735  11.732  66.565  1.00  0.00     0.111 A  
HETATM   16  C   UNL     1      -7.636  10.680  66.789  1.00  0.00    -0.120 A  
HETATM   17  C   UNL     1      -8.195  10.487  68.058  1.00  0.00    -0.112 A  
HETATM   18  C   UNL     1      -7.770  11.298  69.117  1.00  0.00    -0.047 A  
HETATM   19  C   UNL     1      -6.903  12.372  68.878  1.00  0.00    -0.099 A  
BRANCH  17  20
HETATM   20  C   UNL     1      -9.261   9.448  68.234  1.00  0.00    -0.130 C  
HETATM   21  O   UNL     1      -9.056   8.320  67.793  1.00  0.00    -0.132 OA 
BRANCH  20  22
HETATM   22  C   UNL     1     -10.523   9.822  68.877  1.00  0.00    -0.233 A  
HETATM   23  C   UNL     1     -11.434  10.760  68.393  1.00  0.00    -0.288 A  
HETATM   24  C   UNL     1     -11.467   8.394  72.321  1.00  0.00    -0.384 A  
HETATM   25  O   UNL     1     -12.507  10.848  69.233  1.00  0.00    -0.392 OA 
HETATM   26  C   UNL     1     -12.682   9.068  72.424  1.00  0.00    -0.433 A  
HETATM   27  C   UNL     1     -12.266  10.051  70.299  1.00  0.00    -0.112 A  
HETATM   28  C   UNL     1     -11.045   9.407  70.158  1.00  0.00    -0.277 A  
HETATM   29  C   UNL     1     -13.103   9.928  71.406  1.00  0.00    -0.500 A  
HETATM   30  C   UNL     1     -10.622   8.586  71.223  1.00  0.00    -0.296 A  
BRANCH  23  31
HETATM   31  C   UNL     1     -11.473  11.774  67.298  1.00  0.00    -0.373 C  
BRANCH  31  32
HETATM   32  C   UNL     1     -10.496  12.947  67.369  1.00  0.00    -0.235 C  
BRANCH  32  33
HETATM   33  C   UNL     1     -10.113  13.330  65.929  1.00  0.00    -0.296 C  
HETATM   34  C   UNL     1     -10.831  14.556  65.396  1.00  0.00    -0.362 C  
ENDBRANCH  32  33
ENDBRANCH  31  32
ENDBRANCH  23  31
BRANCH  24  35
HETATM   35  N   UNL     1     -11.048   7.495  73.344  1.00  0.00    -0.537 N  
HETATM   36  H   UNL     1     -10.949   7.808  74.310  1.00  0.00     0.000 HD 
BRANCH  35  37
HETATM   37  S   UNL     1     -10.720   5.896  72.911  1.00  0.00    -0.265 S  
HETATM   38  C   UNL     1      -8.947   5.936  72.753  1.00  0.00    -0.123 C  
HETATM   39  O   UNL     1     -11.087   5.005  73.988  1.00  0.00    -0.276 OA 
HETATM   40  O   UNL     1     -11.274   5.738  71.583  1.00  0.00    -0.259 OA 
ENDBRANCH  35  37
ENDBRANCH  24  35
ENDBRANCH  20  22
ENDBRANCH  17  20
ENDBRANCH  13  14
ENDBRANCH  12  13
ENDBRANCH  11  12
ENDBRANCH  10  11
ENDBRANCH   5  10
ENDBRANCH   4   5
ENDBRANCH   3   4
ENDBRANCH   2   3
TORSDOF 18
ENDMDL
MODEL       26
REMARK 921   NORMALIZED FREE ENERGY PREDICTED BY IDOCK:   -5.38 KCAL/MOL
REMARK 922        TOTAL FREE ENERGY PREDICTED BY IDOCK:  -13.75 KCAL/MOL
REMARK 923 INTER-LIGAND FREE ENERGY PREDICTED BY IDOCK:  -12.04 KCAL/MOL
REMARK 924 INTRA-LIGAND FREE ENERGY PREDICTED BY IDOCK:   -1.71 KCAL/MOL
REMARK 927      BINDING AFFINITY PREDICTED BY RF-SCORE:    0.00 PKD
ROOT
HETATM    1  C   UNL     1     -10.725  19.595  65.924  1.00  0.00    -0.515 C  
HETATM    2  C   UNL     1      -9.856  20.170  67.035  1.00  0.00    -0.595 C  
ENDROOT
BRANCH   2   3
HETATM    3  C   UNL     1      -9.064  19.055  67.718  1.00  0.00    -0.331 C  
BRANCH   3   4
HETATM    4  C   UNL     1      -9.924  18.042  68.489  1.00  0.00    -0.390 C  
BRANCH   4   5
HETATM    5  N   UNL     1      -9.794  16.602  68.149  1.00  0.00    -0.244 NA 
BRANCH   5   6
HETATM    6  C   UNL     1     -11.123  15.990  67.913  1.00  0.00    -0.307 C  
BRANCH   6   7
HETATM    7  C   UNL     1     -11.142  14.503  67.506  1.00  0.00    -0.316 C  
BRANCH   7   8
HETATM    8  C   UNL     1     -12.085  14.176  66.346  1.00  0.00    -0.475 C  
HETATM    9  C   UNL     1     -11.349  14.252  65.015  1.00  0.00    -0.365 C  
ENDBRANCH   7   8
ENDBRANCH   6   7
ENDBRANCH   5   6
BRANCH   5  10
HETATM   10  C   UNL     1      -8.931  16.458  66.949  1.00  0.00    -0.216 C  
BRANCH  10  11
HETATM   11  C   UNL     1      -7.535  15.874  67.213  1.00  0.00    -0.244 C  
BRANCH  11  12
HETATM   12  C   UNL     1      -7.599  14.730  68.220  1.00  0.00    -0.115 C  
BRANCH  12  13
HETATM   13  O   UNL     1      -6.969  13.572  67.666  1.00  0.00    -0.147 OA 
BRANCH  13  14
HETATM   14  C   UNL     1      -7.690  12.409  67.739  1.00  0.00    -0.139 A  
HETATM   15  C   UNL     1      -8.693  12.008  66.853  1.00  0.00    -0.193 A  
HETATM   16  C   UNL     1      -9.416  10.828  67.083  1.00  0.00    -0.180 A  
HETATM   17  C   UNL     1      -9.134  10.032  68.200  1.00  0.00    -0.121 A  
HETATM   18  C   UNL     1      -8.059  10.382  69.026  1.00  0.00    -0.138 A  
HETATM   19  C   UNL     1      -7.369  11.582  68.816  1.00  0.00    -0.115 A  
BRANCH  17  20
HETATM   20  C   UNL     1     -10.015   8.857  68.499  1.00  0.00    -0.177 C  
HETATM   21  O   UNL     1      -9.993   7.900  67.730  1.00  0.00    -0.155 OA 
BRANCH  20  22
HETATM   22  C   UNL     1     -10.903   8.910  69.663  1.00  0.00    -0.186 A  
HETATM   23  C   UNL     1     -11.325   7.812  70.412  1.00  0.00    -0.207 A  
HETATM   24  C   UNL     1     -12.506  12.229  70.760  1.00  0.00    -0.265 A  
HETATM   25  O   UNL     1     -12.130   8.224  71.435  1.00  0.00    -0.291 OA 
HETATM   26  C   UNL     1     -13.207  11.696  71.839  1.00  0.00    -0.475 A  
HETATM   27  C   UNL     1     -12.310   9.559  71.309  1.00  0.00    -0.345 A  
HETATM   28  C   UNL     1     -11.601  10.044  70.219  1.00  0.00    -0.354 A  
HETATM   29  C   UNL     1     -13.128  10.331  72.130  1.00  0.00    -0.444 A  
HETATM   30  C   UNL     1     -11.740  11.414  69.918  1.00  0.00    -0.424 A  
BRANCH  23  31
HETATM   31  C   UNL     1     -11.245   6.325  70.302  1.00  0.00    -0.455 C  
BRANCH  31  32
HETATM   32  C   UNL     1     -10.089   5.614  71.004  1.00  0.00    -0.266 C  
BRANCH  32  33
HETATM   33  C   UNL     1     -10.641   4.968  72.287  1.00  0.00    -0.269 C  
HETATM   34  C   UNL     1     -10.487   5.822  73.532  1.00  0.00    -0.276 C  
ENDBRANCH  32  33
ENDBRANCH  31  32
ENDBRANCH  23  31
BRANCH  24  35
HETATM   35  N   UNL     1     -12.562  13.625  70.477  1.00  0.00    -0.299 N  
HETATM   36  H   UNL     1     -12.244  13.992  69.580  1.00  0.00     0.000 HD 
BRANCH  35  37
HETATM   37  S   UNL     1     -13.168  14.654  71.671  1.00  0.00    -0.377 S  
HETATM   38  C   UNL     1     -11.663  15.240  72.421  1.00  0.00    -0.440 C  
HETATM   39  O   UNL     1     -13.866  15.763  71.062  1.00  0.00    -0.501 OA 
HETATM   40  O   UNL     1     -13.824  13.786  72.627  1.00  0.00    -0.691 OA 
ENDBRANCH  35  37
ENDBRANCH  24  35
ENDBRANCH  20  22
ENDBRANCH  17  20
ENDBRANCH  13  14
ENDBRANCH  12  13
ENDBRANCH  11  12
ENDBRANCH  10  11
ENDBRANCH   5  10
ENDBRANCH   4   5
ENDBRANCH   3   4
ENDBRANCH   2   3
TORSDOF 18
ENDMDL
MODEL       27
REMARK 921   NORMALIZED FREE ENERGY PREDICTED BY IDOCK:   -5.37 KCAL/MOL
REMARK 922        TOTAL FREE ENERGY PREDICTED BY IDOCK:  -13.74 KCAL/MOL
REMARK 923 INTER-LIGAND FREE ENERGY PREDICTED BY IDOCK:  -10.30 KCAL/MOL
REMARK 924 INTRA-LIGAND FREE ENERGY PREDICTED BY IDOCK:   -3.44 KCAL/MOL
REMARK 927      BINDING AFFINITY PREDICTED BY RF-SCORE:    0.00 PKD
ROOT
HETATM    1  C   UNL     1     -12.562  10.827  70.950  1.00  0.00    -0.498 C  
HETATM    2  C   UNL     1     -13.046  10.105  72.201  1.00  0.00    -0.463 C  
ENDROOT
BRANCH   2   3
HETATM    3  C   UNL     1     -12.711   8.616  72.117  1.00  0.00    -0.447 C  
BRANCH   3   4
HETATM    4  C   UNL     1     -11.280   8.258  72.543  1.00  0.00    -0.376 C  
BRANCH   4   5
HETATM    5  N   UNL     1     -11.022   6.898  73.080  1.00  0.00    -0.282 NA 
BRANCH   5   6
HETATM    6  C   UNL     1     -11.388   5.857  72.091  1.00  0.00    -0.288 C  
BRANCH   6   7
HETATM    7  C   UNL     1     -10.853   6.040  70.657  1.00  0.00    -0.364 C  
BRANCH   7   8
HETATM    8  C   UNL     1      -9.739   5.067  70.267  1.00  0.00    -0.285 C  
HETATM    9  C   UNL     1      -9.838   4.696  68.793  1.00  0.00    -0.201 C  
ENDBRANCH   7   8
ENDBRANCH   6   7
ENDBRANCH   5   6
BRANCH   5  10
HETATM   10  C   UNL     1      -9.590   6.782  73.457  1.00  0.00    -0.179 C  
BRANCH  10  11
HETATM   11  C   UNL     1      -8.823   8.111  73.529  1.00  0.00    -0.310 C  
BRANCH  11  12
HETATM   12  C   UNL     1      -7.488   8.016  72.800  1.00  0.00    -0.114 C  
BRANCH  12  13
HETATM   13  O   UNL     1      -7.354   9.121  71.903  1.00  0.00    -0.334 OA 
BRANCH  13  14
HETATM   14  C   UNL     1      -7.983   8.987  70.693  1.00  0.00    -0.141 A  
HETATM   15  C   UNL     1      -9.125   9.680  70.280  1.00  0.00    -0.272 A  
HETATM   16  C   UNL     1      -9.723   9.393  69.045  1.00  0.00    -0.166 A  
HETATM   17  C   UNL     1      -9.177   8.415  68.204  1.00  0.00    -0.141 A  
HETATM   18  C   UNL     1      -7.976   7.799  68.574  1.00  0.00    -0.122 A  
HETATM   19  C   UNL     1      -7.406   8.058  69.826  1.00  0.00    -0.074 A  
BRANCH  17  20
HETATM   20  C   UNL     1      -9.917   8.029  66.959  1.00  0.00    -0.254 C  
HETATM   21  O   UNL     1     -11.009   7.479  67.076  1.00  0.00    -0.306 OA 
BRANCH  20  22
HETATM   22  C   UNL     1      -9.296   8.275  65.656  1.00  0.00    -0.018 A  
HETATM   23  C   UNL     1      -8.449   7.396  64.981  1.00  0.00     0.018 A  
HETATM   24  C   UNL     1      -9.714  11.667  63.892  1.00  0.00    -0.230 A  
HETATM   25  O   UNL     1      -8.068   7.937  63.787  1.00  0.00    -0.144 OA 
HETATM   26  C   UNL     1      -8.947  11.340  62.777  1.00  0.00    -0.288 A  
HETATM   27  C   UNL     1      -8.579   9.187  63.715  1.00  0.00    -0.169 A  
HETATM   28  C   UNL     1      -9.327   9.471  64.849  1.00  0.00    -0.264 A  
HETATM   29  C   UNL     1      -8.349  10.081  62.672  1.00  0.00    -0.165 A  
HETATM   30  C   UNL     1      -9.875  10.766  64.951  1.00  0.00    -0.350 A  
BRANCH  23  31
HETATM   31  C   UNL     1      -7.753   6.111  65.283  1.00  0.00    -0.095 C  
BRANCH  31  32
HETATM   32  C   UNL     1      -7.511   5.137  64.131  1.00  0.00    -0.065 C  
BRANCH  32  33
HETATM   33  C   UNL     1      -8.280   3.840  64.439  1.00  0.00    -0.090 C  
HETATM   34  C   UNL     1      -9.787   3.964  64.315  1.00  0.00    -0.185 C  
ENDBRANCH  32  33
ENDBRANCH  31  32
ENDBRANCH  23  31
BRANCH  24  35
HETATM   35  N   UNL     1     -10.347  12.940  63.989  1.00  0.00    -0.520 N  
HETATM   36  H   UNL     1      -9.802  13.788  64.144  1.00  0.00     0.000 HD 
BRANCH  35  37
HETATM   37  S   UNL     1     -12.028  13.004  63.841  1.00  0.00    -0.508 S  
HETATM   38  C   UNL     1     -12.522  13.158  65.545  1.00  0.00    -0.458 C  
HETATM   39  O   UNL     1     -12.418  14.192  63.118  1.00  0.00    -0.678 OA 
HETATM   40  O   UNL     1     -12.423  11.686  63.389  1.00  0.00    -0.473 OA 
ENDBRANCH  35  37
ENDBRANCH  24  35
ENDBRANCH  20  22
ENDBRANCH  17  20
ENDBRANCH  13  14
ENDBRANCH  12  13
ENDBRANCH  11  12
ENDBRANCH  10  11
ENDBRANCH   5  10
ENDBRANCH   4   5
ENDBRANCH   3   4
ENDBRANCH   2   3
TORSDOF 18
ENDMDL
MODEL       28
REMARK 921   NORMALIZED FREE ENERGY PREDICTED BY IDOCK:   -5.37 KCAL/MOL
REMARK 922        TOTAL FREE ENERGY PREDICTED BY IDOCK:  -13.73 KCAL/MOL
REMARK 923 INTER-LIGAND FREE ENERGY PREDICTED BY IDOCK:  -11.19 KCAL/MOL
REMARK 924 INTRA-LIGAND FREE ENERGY PREDICTED BY IDOCK:   -2.55 KCAL/MOL
REMARK 927      BINDING AFFINITY PREDICTED BY RF-SCORE:    0.00 PKD
ROOT
HETATM    1  C   UNL     1      -9.884  20.160  66.544  1.00  0.00    -0.574 C  
HETATM    2  C   UNL     1     -10.812  19.336  67.427  1.00  0.00    -0.554 C  
ENDROOT
BRANCH   2   3
HETATM    3  C   UNL     1     -10.349  17.880  67.468  1.00  0.00    -0.383 C  
BRANCH   3   4
HETATM    4  C   UNL     1     -10.414  17.228  68.857  1.00  0.00    -0.327 C  
BRANCH   4   5
HETATM    5  N   UNL     1     -10.550  15.751  68.938  1.00  0.00    -0.222 NA 
BRANCH   5   6
HETATM    6  C   UNL     1     -11.747  15.370  69.724  1.00  0.00    -0.333 C  
BRANCH   6   7
HETATM    7  C   UNL     1     -11.754  15.759  71.215  1.00  0.00    -0.496 C  
BRANCH   7   8
HETATM    8  C   UNL     1     -13.100  15.563  71.916  1.00  0.00    -0.539 C  
HETATM    9  C   UNL     1     -12.897  15.144  73.366  1.00  0.00    -0.661 C  
ENDBRANCH   7   8
ENDBRANCH   6   7
ENDBRANCH   5   6
BRANCH   5  10
HETATM   10  C   UNL     1     -10.624  15.189  67.565  1.00  0.00    -0.269 C  
BRANCH  10  11
HETATM   11  C   UNL     1     -11.859  14.324  67.277  1.00  0.00    -0.444 C  
BRANCH  11  12
HETATM   12  C   UNL     1     -11.566  13.289  66.196  1.00  0.00    -0.348 C  
BRANCH  12  13
HETATM   13  O   UNL     1     -12.036  12.008  66.622  1.00  0.00    -0.615 OA 
BRANCH  13  14
HETATM   14  C   UNL     1     -11.217  11.329  67.485  1.00  0.00    -0.291 A  
HETATM   15  C   UNL     1      -9.945  10.831  67.190  1.00  0.00    -0.230 A  
HETATM   16  C   UNL     1      -9.238  10.078  68.138  1.00  0.00    -0.130 A  
HETATM   17  C   UNL     1      -9.794   9.826  69.398  1.00  0.00    -0.217 A  
HETATM   18  C   UNL     1     -11.021  10.414  69.727  1.00  0.00    -0.345 A  
HETATM   19  C   UNL     1     -11.742  11.128  68.762  1.00  0.00    -0.394 A  
BRANCH  17  20
HETATM   20  C   UNL     1      -9.080   8.901  70.337  1.00  0.00    -0.190 C  
HETATM   21  O   UNL     1      -8.174   9.356  71.029  1.00  0.00    -0.294 OA 
BRANCH  20  22
HETATM   22  C   UNL     1      -9.454   7.484  70.364  1.00  0.00    -0.161 A  
HETATM   23  C   UNL     1     -10.228   6.868  71.347  1.00  0.00    -0.197 A  
HETATM   24  C   UNL     1      -8.081   5.044  67.728  1.00  0.00    -0.098 A  
HETATM   25  O   UNL     1     -10.395   5.546  71.049  1.00  0.00    -0.217 OA 
HETATM   26  C   UNL     1      -8.726   3.916  68.232  1.00  0.00    -0.126 A  
HETATM   27  C   UNL     1      -9.669   5.274  69.941  1.00  0.00    -0.193 A  
HETATM   28  C   UNL     1      -9.040   6.421  69.480  1.00  0.00    -0.138 A  
HETATM   29  C   UNL     1      -9.533   4.012  69.369  1.00  0.00    -0.259 A  
HETATM   30  C   UNL     1      -8.191   6.286  68.362  1.00  0.00    -0.116 A  
BRANCH  23  31
HETATM   31  C   UNL     1     -10.787   7.236  72.681  1.00  0.00    -0.331 C  
BRANCH  31  32
HETATM   32  C   UNL     1     -11.731   8.434  72.759  1.00  0.00    -0.245 C  
BRANCH  32  33
HETATM   33  C   UNL     1     -12.904   8.174  71.797  1.00  0.00    -0.355 C  
HETATM   34  C   UNL     1     -13.890   9.322  71.690  1.00  0.00    -0.366 C  
ENDBRANCH  32  33
ENDBRANCH  31  32
ENDBRANCH  23  31
BRANCH  24  35
HETATM   35  N   UNL     1      -7.280   4.956  66.552  1.00  0.00    -0.075 N  
HETATM   36  H   UNL     1      -6.273   4.803  66.614  1.00  0.00     0.000 HD 
BRANCH  35  37
HETATM   37  S   UNL     1      -8.046   5.113  65.056  1.00  0.00    -0.123 S  
HETATM   38  C   UNL     1      -7.858   6.857  64.750  1.00  0.00    -0.119 C  
HETATM   39  O   UNL     1      -7.324   4.368  64.050  1.00  0.00    -0.053 OA 
HETATM   40  O   UNL     1      -9.448   4.862  65.315  1.00  0.00    -0.156 OA 
ENDBRANCH  35  37
ENDBRANCH  24  35
ENDBRANCH  20  22
ENDBRANCH  17  20
ENDBRANCH  13  14
ENDBRANCH  12  13
ENDBRANCH  11  12
ENDBRANCH  10  11
ENDBRANCH   5  10
ENDBRANCH   4   5
ENDBRANCH   3   4
ENDBRANCH   2   3
TORSDOF 18
ENDMDL
MODEL       29
REMARK 921   NORMALIZED FREE ENERGY PREDICTED BY IDOCK:   -5.36 KCAL/MOL
REMARK 922        TOTAL FREE ENERGY PREDICTED BY IDOCK:  -13.72 KCAL/MOL
REMARK 923 INTER-LIGAND FREE ENERGY PREDICTED BY IDOCK:  -10.90 KCAL/MOL
REMARK 924 INTRA-LIGAND FREE ENERGY PREDICTED BY IDOCK:   -2.82 KCAL/MOL
REMARK 927      BINDING AFFINITY PREDICTED BY RF-SCORE:    0.00 PKD
ROOT
HETATM    1  C   UNL     1     -10.196   8.699  72.035  1.00  0.00    -0.407 C  
HETATM    2  C   UNL     1     -11.470   7.891  72.247  1.00  0.00    -0.403 C  
ENDROOT
BRANCH   2   3
HETATM    3  C   UNL     1     -11.770   7.043  71.012  1.00  0.00    -0.375 C  
BRANCH   3   4
HETATM    4  C   UNL     1     -10.881   5.799  70.859  1.00  0.00    -0.256 C  
BRANCH   4   5
HETATM    5  N   UNL     1      -9.980   5.715  69.682  1.00  0.00    -0.185 NA 
BRANCH   5   6
HETATM    6  C   UNL     1      -9.790   4.308  69.258  1.00  0.00    -0.110 C  
BRANCH   6   7
HETATM    7  C   UNL     1      -9.449   4.068  67.774  1.00  0.00    -0.228 C  
BRANCH   7   8
HETATM    8  C   UNL     1      -7.951   4.044  67.464  1.00  0.00    -0.091 C  
HETATM    9  C   UNL     1      -7.151   3.637  68.695  1.00  0.00    -0.050 C  
ENDBRANCH   7   8
ENDBRANCH   6   7
ENDBRANCH   5   6
BRANCH   5  10
HETATM   10  C   UNL     1     -10.546   6.524  68.573  1.00  0.00    -0.244 C  
BRANCH  10  11
HETATM   11  C   UNL     1      -9.543   7.435  67.849  1.00  0.00    -0.157 C  
BRANCH  11  12
HETATM   12  C   UNL     1      -9.930   8.903  67.992  1.00  0.00    -0.178 C  
BRANCH  12  13
HETATM   13  O   UNL     1      -9.393   9.647  66.895  1.00  0.00    -0.140 OA 
BRANCH  13  14
HETATM   14  C   UNL     1      -9.845  10.933  66.769  1.00  0.00    -0.195 A  
HETATM   15  C   UNL     1     -11.070  11.322  66.219  1.00  0.00    -0.229 A  
HETATM   16  C   UNL     1     -11.384  12.681  66.070  1.00  0.00    -0.369 A  
HETATM   17  C   UNL     1     -10.477  13.666  66.480  1.00  0.00    -0.281 A  
HETATM   18  C   UNL     1      -9.298  13.273  67.126  1.00  0.00    -0.240 A  
HETATM   19  C   UNL     1      -8.971  11.916  67.234  1.00  0.00    -0.176 A  
BRANCH  17  20
HETATM   20  C   UNL     1     -10.775  15.103  66.178  1.00  0.00    -0.325 C  
HETATM   21  O   UNL     1     -11.072  15.408  65.026  1.00  0.00    -0.388 OA 
BRANCH  20  22
HETATM   22  C   UNL     1     -10.657  16.096  67.249  1.00  0.00    -0.305 A  
HETATM   23  C   UNL     1     -11.215  15.987  68.522  1.00  0.00    -0.374 A  
HETATM   24  C   UNL     1      -8.911  19.464  66.616  1.00  0.00    -0.346 A  
HETATM   25  O   UNL     1     -10.892  17.084  69.269  1.00  0.00    -0.279 OA 
HETATM   26  C   UNL     1      -9.101  19.964  67.902  1.00  0.00    -0.399 A  
HETATM   27  C   UNL     1     -10.213  17.942  68.476  1.00  0.00    -0.390 A  
HETATM   28  C   UNL     1     -10.054  17.407  67.205  1.00  0.00    -0.310 A  
HETATM   29  C   UNL     1      -9.774  19.206  68.864  1.00  0.00    -0.474 A  
HETATM   30  C   UNL     1      -9.418  18.215  66.241  1.00  0.00    -0.231 A  
BRANCH  23  31
HETATM   31  C   UNL     1     -12.170  15.074  69.216  1.00  0.00    -0.214 C  
BRANCH  31  32
HETATM   32  C   UNL     1     -11.593  13.916  70.030  1.00  0.00    -0.282 C  
BRANCH  32  33
HETATM   33  C   UNL     1     -12.283  12.622  69.564  1.00  0.00    -0.149 C  
HETATM   34  C   UNL     1     -11.665  11.351  70.117  1.00  0.00    -0.414 C  
ENDBRANCH  32  33
ENDBRANCH  31  32
ENDBRANCH  23  31
BRANCH  24  35
HETATM   35  N   UNL     1      -8.201  20.223  65.640  1.00  0.00    -0.460 N  
HETATM   36  H   UNL     1      -8.675  20.930  65.078  1.00  0.00     0.000 HD 
BRANCH  35  37
HETATM   37  S   UNL     1      -6.552  19.917  65.442  1.00  0.00    -0.291 S  
HETATM   38  C   UNL     1      -6.173  20.951  64.043  1.00  0.00    -0.320 C  
HETATM   39  O   UNL     1      -5.820  20.383  66.597  1.00  0.00    -0.172 OA 
HETATM   40  O   UNL     1      -6.468  18.539  65.004  1.00  0.00    -0.464 OA 
ENDBRANCH  35  37
ENDBRANCH  24  35
ENDBRANCH  20  22
ENDBRANCH  17  20
ENDBRANCH  13  14
ENDBRANCH  12  13
ENDBRANCH  11  12
ENDBRANCH  10  11
ENDBRANCH   5  10
ENDBRANCH   4   5
ENDBRANCH   3   4
ENDBRANCH   2   3
TORSDOF 18
ENDMDL
MODEL       30
REMARK 921   NORMALIZED FREE ENERGY PREDICTED BY IDOCK:   -5.34 KCAL/MOL
REMARK 922        TOTAL FREE ENERGY PREDICTED BY IDOCK:  -13.68 KCAL/MOL
REMARK 923 INTER-LIGAND FREE ENERGY PREDICTED BY IDOCK:  -10.44 KCAL/MOL
REMARK 924 INTRA-LIGAND FREE ENERGY PREDICTED BY IDOCK:   -3.25 KCAL/MOL
REMARK 927      BINDING AFFINITY PREDICTED BY RF-SCORE:    0.00 PKD
ROOT
HETATM    1  C   UNL     1     -11.301   6.253  71.534  1.00  0.00    -0.352 C  
HETATM    2  C   UNL     1     -11.155   6.712  70.089  1.00  0.00    -0.384 C  
ENDROOT
BRANCH   2   3
HETATM    3  C   UNL     1     -10.525   5.606  69.243  1.00  0.00    -0.356 C  
BRANCH   3   4
HETATM    4  C   UNL     1      -8.992   5.537  69.321  1.00  0.00    -0.112 C  
BRANCH   4   5
HETATM    5  N   UNL     1      -8.212   6.755  68.983  1.00  0.00    -0.117 NA 
BRANCH   5   6
HETATM    6  C   UNL     1      -7.595   7.344  70.194  1.00  0.00    -0.089 C  
BRANCH   6   7
HETATM    7  C   UNL     1      -6.629   8.526  69.979  1.00  0.00    -0.038 C  
BRANCH   7   8
HETATM    8  C   UNL     1      -7.189   9.887  70.398  1.00  0.00    -0.143 C  
HETATM    9  C   UNL     1      -8.295  10.331  69.449  1.00  0.00    -0.169 C  
ENDBRANCH   7   8
ENDBRANCH   6   7
ENDBRANCH   5   6
BRANCH   5  10
HETATM   10  C   UNL     1      -7.173   6.409  67.980  1.00  0.00    -0.087 C  
BRANCH  10  11
HETATM   11  C   UNL     1      -7.697   5.762  66.689  1.00  0.00    -0.100 C  
BRANCH  11  12
HETATM   12  C   UNL     1      -8.307   6.806  65.760  1.00  0.00    -0.143 C  
BRANCH  12  13
HETATM   13  O   UNL     1      -7.760   8.092  66.063  1.00  0.00    -0.086 OA 
BRANCH  13  14
HETATM   14  C   UNL     1      -8.655   9.129  66.091  1.00  0.00    -0.136 A  
HETATM   15  C   UNL     1      -8.417  10.432  65.643  1.00  0.00    -0.169 A  
HETATM   16  C   UNL     1      -9.390  11.428  65.802  1.00  0.00    -0.247 A  
HETATM   17  C   UNL     1     -10.618  11.127  66.405  1.00  0.00    -0.315 A  
HETATM   18  C   UNL     1     -10.893   9.801  66.756  1.00  0.00    -0.071 A  
HETATM   19  C   UNL     1      -9.902   8.819  66.634  1.00  0.00    -0.335 A  
BRANCH  17  20
HETATM   20  C   UNL     1     -11.581  12.240  66.692  1.00  0.00    -0.375 C  
HETATM   21  O   UNL     1     -12.348  12.593  65.800  1.00  0.00    -0.594 OA 
BRANCH  20  22
HETATM   22  C   UNL     1     -11.542  12.896  68.001  1.00  0.00    -0.385 A  
HETATM   23  C   UNL     1     -11.852  12.294  69.220  1.00  0.00    -0.306 A  
HETATM   24  C   UNL     1     -10.781  16.655  68.290  1.00  0.00    -0.351 A  
HETATM   25  O   UNL     1     -11.693  13.190  70.238  1.00  0.00    -0.250 OA 
HETATM   26  C   UNL     1     -10.884  16.713  69.677  1.00  0.00    -0.282 A  
HETATM   27  C   UNL     1     -11.372  14.386  69.694  1.00  0.00    -0.263 A  
HETATM   28  C   UNL     1     -11.288  14.283  68.312  1.00  0.00    -0.314 A  
HETATM   29  C   UNL     1     -11.197  15.565  70.412  1.00  0.00    -0.356 A  
HETATM   30  C   UNL     1     -11.022  15.466  67.593  1.00  0.00    -0.315 A  
BRANCH  23  31
HETATM   31  C   UNL     1     -12.439  10.999  69.675  1.00  0.00    -0.208 C  
BRANCH  31  32
HETATM   32  C   UNL     1     -11.932  10.403  70.988  1.00  0.00    -0.481 C  
BRANCH  32  33
HETATM   33  C   UNL     1     -13.109  10.375  71.979  1.00  0.00    -0.521 C  
HETATM   34  C   UNL     1     -13.700   8.997  72.208  1.00  0.00    -0.550 C  
ENDBRANCH  32  33
ENDBRANCH  31  32
ENDBRANCH  23  31
BRANCH  24  35
HETATM   35  N   UNL     1     -10.435  17.816  67.539  1.00  0.00    -0.369 N  
HETATM   36  H   UNL     1     -11.133  18.309  66.982  1.00  0.00     0.000 HD 
BRANCH  35  37
HETATM   37  S   UNL     1      -8.835  18.353  67.599  1.00  0.00    -0.265 S  
HETATM   38  C   UNL     1      -7.947  16.815  67.476  1.00  0.00    -0.172 C  
HETATM   39  O   UNL     1      -8.543  19.171  66.444  1.00  0.00    -0.314 OA 
HETATM   40  O   UNL     1      -8.651  18.859  68.944  1.00  0.00    -0.316 OA 
ENDBRANCH  35  37
ENDBRANCH  24  35
ENDBRANCH  20  22
ENDBRANCH  17  20
ENDBRANCH  13  14
ENDBRANCH  12  13
ENDBRANCH  11  12
ENDBRANCH  10  11
ENDBRANCH   5  10
ENDBRANCH   4   5
ENDBRANCH   3   4
ENDBRANCH   2   3
TORSDOF 18
ENDMDL
MODEL       31
REMARK 921   NORMALIZED FREE ENERGY PREDICTED BY IDOCK:   -5.32 KCAL/MOL
REMARK 922        TOTAL FREE ENERGY PREDICTED BY IDOCK:  -13.64 KCAL/MOL
REMARK 923 INTER-LIGAND FREE ENERGY PREDICTED BY IDOCK:   -9.91 KCAL/MOL
REMARK 924 INTRA-LIGAND FREE ENERGY PREDICTED BY IDOCK:   -3.73 KCAL/MOL
REMARK 927      BINDING AFFINITY PREDICTED BY RF-SCORE:    0.00 PKD
ROOT
HETATM    1  C   UNL     1      -9.822   2.496  72.180  1.00  0.00    -0.226 C  
HETATM    2  C   UNL     1     -10.026   3.965  71.830  1.00  0.00    -0.234 C  
ENDROOT
BRANCH   2   3
HETATM    3  C   UNL     1     -10.812   4.669  72.936  1.00  0.00    -0.295 C  
BRANCH   3   4
HETATM    4  C   UNL     1     -11.387   6.037  72.539  1.00  0.00    -0.300 C  
BRANCH   4   5
HETATM    5  N   UNL     1     -10.468   7.202  72.491  1.00  0.00    -0.211 NA 
BRANCH   5   6
HETATM    6  C   UNL     1     -11.226   8.475  72.440  1.00  0.00    -0.329 C  
BRANCH   6   7
HETATM    7  C   UNL     1     -11.639   8.984  71.045  1.00  0.00    -0.360 C  
BRANCH   7   8
HETATM    8  C   UNL     1     -11.721  10.507  70.924  1.00  0.00    -0.431 C  
HETATM    9  C   UNL     1     -11.750  10.931  69.461  1.00  0.00    -0.400 C  
ENDBRANCH   7   8
ENDBRANCH   6   7
ENDBRANCH   5   6
BRANCH   5  10
HETATM   10  C   UNL     1      -9.575   7.172  73.677  1.00  0.00    -0.246 C  
BRANCH  10  11
HETATM   11  C   UNL     1      -8.072   7.113  73.363  1.00  0.00    -0.128 C  
BRANCH  11  12
HETATM   12  C   UNL     1      -7.829   6.859  71.879  1.00  0.00    -0.095 C  
BRANCH  12  13
HETATM   13  O   UNL     1      -6.677   7.591  71.453  1.00  0.00    -0.048 OA 
BRANCH  13  14
HETATM   14  C   UNL     1      -6.901   8.558  70.509  1.00  0.00    -0.039 A  
HETATM   15  C   UNL     1      -8.001   9.419  70.460  1.00  0.00    -0.199 A  
HETATM   16  C   UNL     1      -8.156  10.315  69.392  1.00  0.00    -0.167 A  
HETATM   17  C   UNL     1      -7.205  10.364  68.366  1.00  0.00    -0.080 A  
HETATM   18  C   UNL     1      -6.053   9.576  68.472  1.00  0.00    -0.044 A  
HETATM   19  C   UNL     1      -5.923   8.653  69.517  1.00  0.00    -0.033 A  
BRANCH  17  20
HETATM   20  C   UNL     1      -7.469  11.225  67.168  1.00  0.00    -0.130 C  
HETATM   21  O   UNL     1      -6.551  11.912  66.729  1.00  0.00    -0.121 OA 
BRANCH  20  22
HETATM   22  C   UNL     1      -8.817  11.255  66.594  1.00  0.00    -0.175 A  
HETATM   23  C   UNL     1      -9.453  10.186  65.963  1.00  0.00    -0.197 A  
HETATM   24  C   UNL     1     -10.837  14.525  66.499  1.00  0.00    -0.314 A  
HETATM   25  O   UNL     1     -10.706  10.558  65.565  1.00  0.00    -0.130 OA 
HETATM   26  C   UNL     1     -11.956  13.980  65.874  1.00  0.00    -0.424 A  
HETATM   27  C   UNL     1     -10.858  11.872  65.845  1.00  0.00    -0.297 A  
HETATM   28  C   UNL     1      -9.719  12.373  66.458  1.00  0.00    -0.245 A  
HETATM   29  C   UNL     1     -11.982  12.628  65.522  1.00  0.00    -0.509 A  
HETATM   30  C   UNL     1      -9.700  13.751  66.755  1.00  0.00    -0.277 A  
BRANCH  23  31
HETATM   31  C   UNL     1      -9.078   8.820  65.493  1.00  0.00    -0.221 C  
BRANCH  31  32
HETATM   32  C   UNL     1      -8.544   7.827  66.524  1.00  0.00    -0.149 C  
BRANCH  32  33
HETATM   33  C   UNL     1      -9.581   7.719  67.656  1.00  0.00    -0.177 C  
HETATM   34  C   UNL     1     -10.801   6.886  67.308  1.00  0.00    -0.426 C  
ENDBRANCH  32  33
ENDBRANCH  31  32
ENDBRANCH  23  31
BRANCH  24  35
HETATM   35  N   UNL     1     -10.818  15.897  66.886  1.00  0.00    -0.286 N  
HETATM   36  H   UNL     1     -11.263  16.206  67.750  1.00  0.00     0.000 HD 
BRANCH  35  37
HETATM   37  S   UNL     1     -10.038  16.998  65.870  1.00  0.00    -0.212 S  
HETATM   38  C   UNL     1     -10.317  18.528  66.736  1.00  0.00    -0.401 C  
HETATM   39  O   UNL     1      -8.621  16.718  65.831  1.00  0.00    -0.500 OA 
HETATM   40  O   UNL     1     -10.832  17.029  64.658  1.00  0.00    -0.855 OA 
ENDBRANCH  35  37
ENDBRANCH  24  35
ENDBRANCH  20  22
ENDBRANCH  17  20
ENDBRANCH  13  14
ENDBRANCH  12  13
ENDBRANCH  11  12
ENDBRANCH  10  11
ENDBRANCH   5  10
ENDBRANCH   4   5
ENDBRANCH   3   4
ENDBRANCH   2   3
TORSDOF 18
ENDMDL
MODEL       32
REMARK 921   NORMALIZED FREE ENERGY PREDICTED BY IDOCK:   -5.31 KCAL/MOL
REMARK 922        TOTAL FREE ENERGY PREDICTED BY IDOCK:  -13.61 KCAL/MOL
REMARK 923 INTER-LIGAND FREE ENERGY PREDICTED BY IDOCK:  -10.21 KCAL/MOL
REMARK 924 INTRA-LIGAND FREE ENERGY PREDICTED BY IDOCK:   -3.40 KCAL/MOL
REMARK 927      BINDING AFFINITY PREDICTED BY RF-SCORE:    0.00 PKD
ROOT
HETATM    1  C   UNL     1     -12.935  15.571  71.753  1.00  0.00    -0.528 C  
HETATM    2  C   UNL     1     -12.932  14.440  70.733  1.00  0.00    -0.388 C  
ENDROOT
BRANCH   2   3
HETATM    3  C   UNL     1     -11.707  14.548  69.826  1.00  0.00    -0.356 C  
BRANCH   3   4
HETATM    4  C   UNL     1     -11.978  15.202  68.462  1.00  0.00    -0.214 C  
BRANCH   4   5
HETATM    5  N   UNL     1     -11.292  14.650  67.266  1.00  0.00    -0.341 NA 
BRANCH   5   6
HETATM    6  C   UNL     1     -12.270  14.089  66.305  1.00  0.00    -0.462 C  
BRANCH   6   7
HETATM    7  C   UNL     1     -11.984  12.674  65.766  1.00  0.00    -0.503 C  
BRANCH   7   8
HETATM    8  C   UNL     1     -10.773  12.582  64.835  1.00  0.00    -0.327 C  
HETATM    9  C   UNL     1     -11.105  11.756  63.599  1.00  0.00    -0.518 C  
ENDBRANCH   7   8
ENDBRANCH   6   7
ENDBRANCH   5   6
BRANCH   5  10
HETATM   10  C   UNL     1     -10.483  15.719  66.628  1.00  0.00    -0.302 C  
BRANCH  10  11
HETATM   11  C   UNL     1      -8.970  15.460  66.586  1.00  0.00    -0.319 C  
BRANCH  11  12
HETATM   12  C   UNL     1      -8.518  14.648  67.795  1.00  0.00    -0.174 C  
BRANCH  12  13
HETATM   13  O   UNL     1      -7.997  13.390  67.357  1.00  0.00    -0.167 OA 
BRANCH  13  14
HETATM   14  C   UNL     1      -8.244  12.323  68.179  1.00  0.00    -0.168 A  
HETATM   15  C   UNL     1      -7.282  11.556  68.842  1.00  0.00    -0.117 A  
HETATM   16  C   UNL     1      -7.659  10.433  69.593  1.00  0.00    -0.158 A  
HETATM   17  C   UNL     1      -9.009  10.073  69.696  1.00  0.00    -0.221 A  
HETATM   18  C   UNL     1      -9.977  10.902  69.119  1.00  0.00    -0.181 A  
HETATM   19  C   UNL     1      -9.593  11.997  68.335  1.00  0.00    -0.190 A  
BRANCH  17  20
HETATM   20  C   UNL     1      -9.369   8.790  70.383  1.00  0.00    -0.180 C  
HETATM   21  O   UNL     1      -9.127   8.682  71.582  1.00  0.00    -0.204 OA 
BRANCH  20  22
HETATM   22  C   UNL     1      -9.951   7.699  69.597  1.00  0.00    -0.185 A  
HETATM   23  C   UNL     1     -11.027   6.902  69.987  1.00  0.00    -0.279 A  
HETATM   24  C   UNL     1      -8.369   6.626  66.260  1.00  0.00    -0.125 A  
HETATM   25  O   UNL     1     -11.317   5.997  69.007  1.00  0.00    -0.340 OA 
HETATM   26  C   UNL     1      -9.282   5.609  65.993  1.00  0.00    -0.164 A  
HETATM   27  C   UNL     1     -10.393   6.132  68.029  1.00  0.00    -0.199 A  
HETATM   28  C   UNL     1      -9.502   7.149  68.340  1.00  0.00    -0.138 A  
HETATM   29  C   UNL     1     -10.318   5.334  66.890  1.00  0.00    -0.303 A  
HETATM   30  C   UNL     1      -8.438   7.371  67.443  1.00  0.00    -0.119 A  
BRANCH  23  31
HETATM   31  C   UNL     1     -11.830   6.691  71.227  1.00  0.00    -0.403 C  
BRANCH  31  32
HETATM   32  C   UNL     1     -13.072   7.556  71.434  1.00  0.00    -0.373 C  
BRANCH  32  33
HETATM   33  C   UNL     1     -12.643   8.824  72.194  1.00  0.00    -0.463 C  
HETATM   34  C   UNL     1     -12.827  10.112  71.414  1.00  0.00    -0.530 C  
ENDBRANCH  32  33
ENDBRANCH  31  32
ENDBRANCH  23  31
BRANCH  24  35
HETATM   35  N   UNL     1      -7.328   6.929  65.334  1.00  0.00    -0.076 N  
HETATM   36  H   UNL     1      -6.485   6.356  65.286  1.00  0.00     0.000 HD 
BRANCH  35  37
HETATM   37  S   UNL     1      -7.532   8.262  64.318  1.00  0.00    -0.114 S  
HETATM   38  C   UNL     1      -7.795   7.466  62.747  1.00  0.00    -0.130 C  
HETATM   39  O   UNL     1      -8.720   8.993  64.692  1.00  0.00    -0.179 OA 
HETATM   40  O   UNL     1      -6.236   8.908  64.270  1.00  0.00    -0.070 OA 
ENDBRANCH  35  37
ENDBRANCH  24  35
ENDBRANCH  20  22
ENDBRANCH  17  20
ENDBRANCH  13  14
ENDBRANCH  12  13
ENDBRANCH  11  12
ENDBRANCH  10  11
ENDBRANCH   5  10
ENDBRANCH   4   5
ENDBRANCH   3   4
ENDBRANCH   2   3
TORSDOF 18
ENDMDL
MODEL       33
REMARK 921   NORMALIZED FREE ENERGY PREDICTED BY IDOCK:   -5.28 KCAL/MOL
REMARK 922        TOTAL FREE ENERGY PREDICTED BY IDOCK:  -13.56 KCAL/MOL
REMARK 923 INTER-LIGAND FREE ENERGY PREDICTED BY IDOCK:   -9.73 KCAL/MOL
REMARK 924 INTRA-LIGAND FREE ENERGY PREDICTED BY IDOCK:   -3.83 KCAL/MOL
REMARK 927      BINDING AFFINITY PREDICTED BY RF-SCORE:    0.00 PKD
ROOT
HETATM    1  C   UNL     1      -7.504  15.833  68.714  1.00  0.00    -0.158 C  
HETATM    2  C   UNL     1      -7.987  14.396  68.560  1.00  0.00    -0.144 C  
ENDROOT
BRANCH   2   3
HETATM    3  C   UNL     1      -8.383  14.123  67.109  1.00  0.00    -0.189 C  
BRANCH   3   4
HETATM    4  C   UNL     1      -9.074  15.300  66.403  1.00  0.00    -0.312 C  
BRANCH   4   5
HETATM    5  N   UNL     1     -10.556  15.299  66.316  1.00  0.00    -0.302 NA 
BRANCH   5   6
HETATM    6  C   UNL     1     -11.142  16.321  67.214  1.00  0.00    -0.055 C  
BRANCH   6   7
HETATM    7  C   UNL     1     -11.365  15.911  68.683  1.00  0.00    -0.376 C  
BRANCH   7   8
HETATM    8  C   UNL     1     -11.948  14.509  68.869  1.00  0.00    -0.326 C  
HETATM    9  C   UNL     1     -12.093  14.176  70.349  1.00  0.00    -0.417 C  
ENDBRANCH   7   8
ENDBRANCH   6   7
ENDBRANCH   5   6
BRANCH   5  10
HETATM   10  C   UNL     1     -10.964  15.542  64.909  1.00  0.00    -0.436 C  
BRANCH  10  11
HETATM   11  C   UNL     1     -12.153  14.703  64.418  1.00  0.00    -0.481 C  
BRANCH  11  12
HETATM   12  C   UNL     1     -11.679  13.438  63.711  1.00  0.00    -0.376 C  
BRANCH  12  13
HETATM   13  O   UNL     1     -12.208  12.290  64.382  1.00  0.00    -0.410 OA 
BRANCH  13  14
HETATM   14  C   UNL     1     -11.390  11.718  65.320  1.00  0.00    -0.222 A  
HETATM   15  C   UNL     1     -11.514  11.847  66.706  1.00  0.00    -0.384 A  
HETATM   16  C   UNL     1     -10.561  11.276  67.562  1.00  0.00    -0.257 A  
HETATM   17  C   UNL     1      -9.477  10.561  67.037  1.00  0.00    -0.188 A  
HETATM   18  C   UNL     1      -9.413  10.345  65.656  1.00  0.00    -0.262 A  
HETATM   19  C   UNL     1     -10.344  10.952  64.803  1.00  0.00    -0.391 A  
BRANCH  17  20
HETATM   20  C   UNL     1      -8.399  10.087  67.965  1.00  0.00    -0.117 C  
HETATM   21  O   UNL     1      -7.491  10.864  68.250  1.00  0.00    -0.086 OA 
BRANCH  20  22
HETATM   22  C   UNL     1      -8.438   8.709  68.459  1.00  0.00    -0.131 A  
HETATM   23  C   UNL     1      -7.442   7.751  68.271  1.00  0.00    -0.104 A  
HETATM   24  C   UNL     1     -11.569   7.349  70.231  1.00  0.00    -0.128 A  
HETATM   25  O   UNL     1      -7.798   6.581  68.879  1.00  0.00    -0.106 OA 
HETATM   26  C   UNL     1     -11.061   6.070  70.450  1.00  0.00    -0.399 A  
HETATM   27  C   UNL     1      -9.045   6.735  69.378  1.00  0.00    -0.144 A  
HETATM   28  C   UNL     1      -9.512   8.018  69.132  1.00  0.00    -0.155 A  
HETATM   29  C   UNL     1      -9.777   5.733  70.012  1.00  0.00    -0.218 A  
HETATM   30  C   UNL     1     -10.829   8.314  69.538  1.00  0.00    -0.124 A  
BRANCH  23  31
HETATM   31  C   UNL     1      -6.185   7.631  67.476  1.00  0.00    -0.050 C  
BRANCH  31  32
HETATM   32  C   UNL     1      -6.209   6.758  66.222  1.00  0.00    -0.044 C  
BRANCH  32  33
HETATM   33  C   UNL     1      -7.356   7.253  65.324  1.00  0.00    -0.080 C  
HETATM   34  C   UNL     1      -8.552   6.321  65.268  1.00  0.00    -0.068 C  
ENDBRANCH  32  33
ENDBRANCH  31  32
ENDBRANCH  23  31
BRANCH  24  35
HETATM   35  N   UNL     1     -12.866   7.704  70.701  1.00  0.00    -0.424 N  
HETATM   36  H   UNL     1     -13.706   7.365  70.231  1.00  0.00     0.000 HD 
BRANCH  35  37
HETATM   37  S   UNL     1     -12.974   8.702  72.059  1.00  0.00    -0.398 S  
HETATM   38  C   UNL     1     -12.725  10.308  71.331  1.00  0.00    -0.442 C  
HETATM   39  O   UNL     1     -14.301   8.630  72.624  1.00  0.00    -0.533 OA 
HETATM   40  O   UNL     1     -11.802   8.396  72.853  1.00  0.00    -0.298 OA 
ENDBRANCH  35  37
ENDBRANCH  24  35
ENDBRANCH  20  22
ENDBRANCH  17  20
ENDBRANCH  13  14
ENDBRANCH  12  13
ENDBRANCH  11  12
ENDBRANCH  10  11
ENDBRANCH   5  10
ENDBRANCH   4   5
ENDBRANCH   3   4
ENDBRANCH   2   3
TORSDOF 18
ENDMDL
MODEL       34
REMARK 921   NORMALIZED FREE ENERGY PREDICTED BY IDOCK:   -5.28 KCAL/MOL
REMARK 922        TOTAL FREE ENERGY PREDICTED BY IDOCK:  -13.56 KCAL/MOL
REMARK 923 INTER-LIGAND FREE ENERGY PREDICTED BY IDOCK:  -10.25 KCAL/MOL
REMARK 924 INTRA-LIGAND FREE ENERGY PREDICTED BY IDOCK:   -3.31 KCAL/MOL
REMARK 927      BINDING AFFINITY PREDICTED BY RF-SCORE:    0.00 PKD
ROOT
HETATM    1  C   UNL     1     -12.068  12.575  63.645  1.00  0.00    -0.642 C  
HETATM    2  C   UNL     1     -12.415  12.597  65.129  1.00  0.00    -0.531 C  
ENDROOT
BRANCH   2   3
HETATM    3  C   UNL     1     -12.362  14.028  65.664  1.00  0.00    -0.502 C  
BRANCH   3   4
HETATM    4  C   UNL     1     -12.057  14.138  67.165  1.00  0.00    -0.397 C  
BRANCH   4   5
HETATM    5  N   UNL     1     -11.465  15.401  67.675  1.00  0.00    -0.298 NA 
BRANCH   5   6
HETATM    6  C   UNL     1     -11.478  15.434  69.156  1.00  0.00    -0.333 C  
BRANCH   6   7
HETATM    7  C   UNL     1     -12.257  14.312  69.871  1.00  0.00    -0.407 C  
BRANCH   7   8
HETATM    8  C   UNL     1     -12.236  14.399  71.398  1.00  0.00    -0.424 C  
HETATM    9  C   UNL     1     -13.564  13.936  71.983  1.00  0.00    -0.566 C  
ENDBRANCH   7   8
ENDBRANCH   6   7
ENDBRANCH   5   6
BRANCH   5  10
HETATM   10  C   UNL     1     -10.079  15.537  67.159  1.00  0.00    -0.254 C  
BRANCH  10  11
HETATM   11  C   UNL     1      -8.974  15.085  68.125  1.00  0.00    -0.173 C  
BRANCH  11  12
HETATM   12  C   UNL     1      -8.023  14.102  67.452  1.00  0.00    -0.184 C  
BRANCH  12  13
HETATM   13  O   UNL     1      -8.775  13.034  66.869  1.00  0.00    -0.207 OA 
BRANCH  13  14
HETATM   14  C   UNL     1      -9.009  11.956  67.681  1.00  0.00    -0.169 A  
HETATM   15  C   UNL     1     -10.221  11.271  67.807  1.00  0.00    -0.203 A  
HETATM   16  C   UNL     1     -10.357  10.230  68.737  1.00  0.00    -0.211 A  
HETATM   17  C   UNL     1      -9.276   9.859  69.546  1.00  0.00    -0.238 A  
HETATM   18  C   UNL     1      -8.036  10.476  69.344  1.00  0.00    -0.146 A  
HETATM   19  C   UNL     1      -7.916  11.542  68.444  1.00  0.00    -0.143 A  
BRANCH  17  20
HETATM   20  C   UNL     1      -9.490   8.845  70.628  1.00  0.00    -0.214 C  
HETATM   21  O   UNL     1      -9.252   9.170  71.788  1.00  0.00    -0.338 OA 
BRANCH  20  22
HETATM   22  C   UNL     1      -9.928   7.495  70.264  1.00  0.00    -0.192 A  
HETATM   23  C   UNL     1     -11.016   6.819  70.815  1.00  0.00    -0.262 A  
HETATM   24  C   UNL     1      -7.896   5.377  67.780  1.00  0.00    -0.096 A  
HETATM   25  O   UNL     1     -11.147   5.591  70.233  1.00  0.00    -0.231 OA 
HETATM   26  C   UNL     1      -8.732   4.263  67.829  1.00  0.00    -0.117 A  
HETATM   27  C   UNL     1     -10.111   5.422  69.380  1.00  0.00    -0.234 A  
HETATM   28  C   UNL     1      -9.303   6.551  69.369  1.00  0.00    -0.143 A  
HETATM   29  C   UNL     1      -9.863   4.263  68.649  1.00  0.00    -0.118 A  
HETATM   30  C   UNL     1      -8.141   6.504  68.573  1.00  0.00    -0.114 A  
BRANCH  23  31
HETATM   31  C   UNL     1     -11.964   7.025  71.950  1.00  0.00    -0.355 C  
BRANCH  31  32
HETATM   32  C   UNL     1     -13.307   7.691  71.652  1.00  0.00    -0.400 C  
BRANCH  32  33
HETATM   33  C   UNL     1     -13.321   9.060  72.353  1.00  0.00    -0.516 C  
HETATM   34  C   UNL     1     -12.888  10.218  71.472  1.00  0.00    -0.557 C  
ENDBRANCH  32  33
ENDBRANCH  31  32
ENDBRANCH  23  31
BRANCH  24  35
HETATM   35  N   UNL     1      -6.757   5.392  66.923  1.00  0.00    -0.060 N  
HETATM   36  H   UNL     1      -5.864   5.006  67.231  1.00  0.00     0.000 HD 
BRANCH  35  37
HETATM   37  S   UNL     1      -6.929   6.065  65.384  1.00  0.00    -0.065 S  
HETATM   38  C   UNL     1      -6.396   4.715  64.353  1.00  0.00    -0.034 C  
HETATM   39  O   UNL     1      -8.320   6.351  65.121  1.00  0.00    -0.142 OA 
HETATM   40  O   UNL     1      -5.920   7.101  65.305  1.00  0.00    -0.036 OA 
ENDBRANCH  35  37
ENDBRANCH  24  35
ENDBRANCH  20  22
ENDBRANCH  17  20
ENDBRANCH  13  14
ENDBRANCH  12  13
ENDBRANCH  11  12
ENDBRANCH  10  11
ENDBRANCH   5  10
ENDBRANCH   4   5
ENDBRANCH   3   4
ENDBRANCH   2   3
TORSDOF 18
ENDMDL
MODEL       35
REMARK 921   NORMALIZED FREE ENERGY PREDICTED BY IDOCK:   -5.28 KCAL/MOL
REMARK 922        TOTAL FREE ENERGY PREDICTED BY IDOCK:  -13.55 KCAL/MOL
REMARK 923 INTER-LIGAND FREE ENERGY PREDICTED BY IDOCK:  -10.00 KCAL/MOL
REMARK 924 INTRA-LIGAND FREE ENERGY PREDICTED BY IDOCK:   -3.55 KCAL/MOL
REMARK 927      BINDING AFFINITY PREDICTED BY RF-SCORE:    0.00 PKD
ROOT
HETATM    1  C   UNL     1      -9.574  19.666  67.931  1.00  0.00    -0.459 C  
HETATM    2  C   UNL     1     -10.826  19.423  67.097  1.00  0.00    -0.561 C  
ENDROOT
BRANCH   2   3
HETATM    3  C   UNL     1     -10.490  18.571  65.873  1.00  0.00    -0.379 C  
BRANCH   3   4
HETATM    4  C   UNL     1     -10.834  17.081  66.018  1.00  0.00     0.005 C  
BRANCH   4   5
HETATM    5  N   UNL     1      -9.862  16.080  65.511  1.00  0.00    -0.451 NA 
BRANCH   5   6
HETATM    6  C   UNL     1      -8.987  15.589  66.601  1.00  0.00    -0.287 C  
BRANCH   6   7
HETATM    7  C   UNL     1      -9.414  15.927  68.043  1.00  0.00    -0.206 C  
BRANCH   7   8
HETATM    8  C   UNL     1      -9.934  14.733  68.846  1.00  0.00    -0.233 C  
HETATM    9  C   UNL     1     -11.427  14.872  69.113  1.00  0.00    -0.324 C  
ENDBRANCH   7   8
ENDBRANCH   6   7
ENDBRANCH   5   6
BRANCH   5  10
HETATM   10  C   UNL     1     -10.601  14.954  64.884  1.00  0.00    -0.391 C  
BRANCH  10  11
HETATM   11  C   UNL     1     -11.983  14.661  65.487  1.00  0.00    -0.256 C  
BRANCH  11  12
HETATM   12  C   UNL     1     -12.212  13.160  65.634  1.00  0.00    -0.466 C  
BRANCH  12  13
HETATM   13  O   UNL     1     -10.986  12.465  65.396  1.00  0.00    -0.283 OA 
BRANCH  13  14
HETATM   14  C   UNL     1     -10.410  11.879  66.493  1.00  0.00    -0.216 A  
HETATM   15  C   UNL     1      -9.042  11.842  66.780  1.00  0.00    -0.194 A  
HETATM   16  C   UNL     1      -8.569  11.138  67.897  1.00  0.00    -0.135 A  
HETATM   17  C   UNL     1      -9.463  10.472  68.744  1.00  0.00    -0.181 A  
HETATM   18  C   UNL     1     -10.838  10.599  68.512  1.00  0.00    -0.275 A  
HETATM   19  C   UNL     1     -11.303  11.267  67.373  1.00  0.00    -0.349 A  
BRANCH  17  20
HETATM   20  C   UNL     1      -8.920   9.610  69.844  1.00  0.00    -0.221 C  
HETATM   21  O   UNL     1      -7.945  10.012  70.473  1.00  0.00    -0.224 OA 
BRANCH  20  22
HETATM   22  C   UNL     1      -9.537   8.306  70.099  1.00  0.00    -0.167 A  
HETATM   23  C   UNL     1     -10.476   8.032  71.093  1.00  0.00    -0.198 A  
HETATM   24  C   UNL     1      -8.426   5.194  68.131  1.00  0.00    -0.099 A  
HETATM   25  O   UNL     1     -10.850   6.720  71.034  1.00  0.00    -0.230 OA 
HETATM   26  C   UNL     1      -9.293   4.309  68.768  1.00  0.00    -0.216 A  
HETATM   27  C   UNL     1     -10.105   6.118  70.081  1.00  0.00    -0.184 A  
HETATM   28  C   UNL     1      -9.252   7.033  69.479  1.00  0.00    -0.149 A  
HETATM   29  C   UNL     1     -10.151   4.760  69.775  1.00  0.00    -0.289 A  
HETATM   30  C   UNL     1      -8.362   6.541  68.504  1.00  0.00    -0.121 A  
BRANCH  23  31
HETATM   31  C   UNL     1     -11.056   8.748  72.267  1.00  0.00    -0.340 C  
BRANCH  31  32
HETATM   32  C   UNL     1     -12.578   8.830  72.378  1.00  0.00    -0.430 C  
BRANCH  32  33
HETATM   33  C   UNL     1     -13.078   9.801  71.294  1.00  0.00    -0.465 C  
HETATM   34  C   UNL     1     -13.069  11.261  71.710  1.00  0.00    -0.527 C  
ENDBRANCH  32  33
ENDBRANCH  31  32
ENDBRANCH  23  31
BRANCH  24  35
HETATM   35  N   UNL     1      -7.570   4.743  67.084  1.00  0.00    -0.086 N  
HETATM   36  H   UNL     1      -6.594   4.512  67.268  1.00  0.00     0.000 HD 
BRANCH  35  37
HETATM   37  S   UNL     1      -8.219   4.604  65.531  1.00  0.00    -0.118 S  
HETATM   38  C   UNL     1      -7.119   5.651  64.601  1.00  0.00    -0.057 C  
HETATM   39  O   UNL     1      -8.097   3.243  65.063  1.00  0.00    -0.089 OA 
HETATM   40  O   UNL     1      -9.505   5.266  65.593  1.00  0.00    -0.152 OA 
ENDBRANCH  35  37
ENDBRANCH  24  35
ENDBRANCH  20  22
ENDBRANCH  17  20
ENDBRANCH  13  14
ENDBRANCH  12  13
ENDBRANCH  11  12
ENDBRANCH  10  11
ENDBRANCH   5  10
ENDBRANCH   4   5
ENDBRANCH   3   4
ENDBRANCH   2   3
TORSDOF 18
ENDMDL
MODEL       36
REMARK 921   NORMALIZED FREE ENERGY PREDICTED BY IDOCK:   -5.28 KCAL/MOL
REMARK 922        TOTAL FREE ENERGY PREDICTED BY IDOCK:  -13.55 KCAL/MOL
REMARK 923 INTER-LIGAND FREE ENERGY PREDICTED BY IDOCK:  -12.45 KCAL/MOL
REMARK 924 INTRA-LIGAND FREE ENERGY PREDICTED BY IDOCK:   -1.10 KCAL/MOL
REMARK 927      BINDING AFFINITY PREDICTED BY RF-SCORE:    0.00 PKD
ROOT
HETATM    1  C   UNL     1     -11.676  12.107  63.709  1.00  0.00    -0.576 C  
HETATM    2  C   UNL     1     -11.507  12.957  64.962  1.00  0.00    -0.350 C  
ENDROOT
BRANCH   2   3
HETATM    3  C   UNL     1     -10.542  14.112  64.692  1.00  0.00    -0.391 C  
BRANCH   3   4
HETATM    4  C   UNL     1     -10.946  15.446  65.338  1.00  0.00    -0.368 C  
BRANCH   4   5
HETATM    5  N   UNL     1      -9.893  16.255  66.003  1.00  0.00    -0.325 NA 
BRANCH   5   6
HETATM    6  C   UNL     1     -10.484  17.410  66.719  1.00  0.00    -0.257 C  
BRANCH   6   7
HETATM    7  C   UNL     1     -10.182  18.811  66.151  1.00  0.00    -0.462 C  
BRANCH   7   8
HETATM    8  C   UNL     1     -10.398  19.957  67.141  1.00  0.00    -0.581 C  
HETATM    9  C   UNL     1      -9.860  19.589  68.518  1.00  0.00    -0.518 C  
ENDBRANCH   7   8
ENDBRANCH   6   7
ENDBRANCH   5   6
BRANCH   5  10
HETATM   10  C   UNL     1      -9.129  15.392  66.940  1.00  0.00    -0.242 C  
BRANCH  10  11
HETATM   11  C   UNL     1      -7.604  15.564  66.893  1.00  0.00    -0.162 C  
BRANCH  11  12
HETATM   12  C   UNL     1      -6.912  14.596  67.847  1.00  0.00    -0.159 C  
BRANCH  12  13
HETATM   13  O   UNL     1      -6.731  13.335  67.199  1.00  0.00    -0.162 OA 
BRANCH  13  14
HETATM   14  C   UNL     1      -7.484  12.300  67.687  1.00  0.00    -0.134 A  
HETATM   15  C   UNL     1      -7.329  11.689  68.934  1.00  0.00    -0.107 A  
HETATM   16  C   UNL     1      -8.113  10.581  69.286  1.00  0.00    -0.152 A  
HETATM   17  C   UNL     1      -9.068  10.078  68.394  1.00  0.00    -0.121 A  
HETATM   18  C   UNL     1      -9.292  10.755  67.189  1.00  0.00    -0.171 A  
HETATM   19  C   UNL     1      -8.479  11.835  66.825  1.00  0.00    -0.177 A  
BRANCH  17  20
HETATM   20  C   UNL     1      -9.788   8.808  68.736  1.00  0.00    -0.171 C  
HETATM   21  O   UNL     1      -9.560   7.808  68.062  1.00  0.00    -0.146 OA 
BRANCH  20  22
HETATM   22  C   UNL     1     -10.768   8.816  69.825  1.00  0.00    -0.220 A  
HETATM   23  C   UNL     1     -11.232   7.691  70.506  1.00  0.00    -0.261 A  
HETATM   24  C   UNL     1     -12.505  12.081  70.878  1.00  0.00    -0.288 A  
HETATM   25  O   UNL     1     -12.124   8.064  71.471  1.00  0.00    -0.283 OA 
HETATM   26  C   UNL     1     -13.284  11.508  71.881  1.00  0.00    -0.479 A  
HETATM   27  C   UNL     1     -12.314   9.399  71.368  1.00  0.00    -0.357 A  
HETATM   28  C   UNL     1     -11.526   9.924  70.353  1.00  0.00    -0.372 A  
HETATM   29  C   UNL     1     -13.208  10.137  72.140  1.00  0.00    -0.463 A  
HETATM   30  C   UNL     1     -11.661  11.301  70.080  1.00  0.00    -0.429 A  
BRANCH  23  31
HETATM   31  C   UNL     1     -11.121   6.210  70.362  1.00  0.00    -0.420 C  
BRANCH  31  32
HETATM   32  C   UNL     1      -9.937   5.510  71.029  1.00  0.00    -0.253 C  
BRANCH  32  33
HETATM   33  C   UNL     1     -10.024   5.775  72.542  1.00  0.00    -0.194 C  
HETATM   34  C   UNL     1     -11.247   5.178  73.212  1.00  0.00    -0.389 C  
ENDBRANCH  32  33
ENDBRANCH  31  32
ENDBRANCH  23  31
BRANCH  24  35
HETATM   35  N   UNL     1     -12.559  13.484  70.631  1.00  0.00    -0.305 N  
HETATM   36  H   UNL     1     -12.188  13.879  69.766  1.00  0.00     0.000 HD 
BRANCH  35  37
HETATM   37  S   UNL     1     -13.255  14.472  71.810  1.00  0.00    -0.379 S  
HETATM   38  C   UNL     1     -11.814  15.007  72.709  1.00  0.00    -0.286 C  
HETATM   39  O   UNL     1     -13.886  15.614  71.190  1.00  0.00    -0.583 OA 
HETATM   40  O   UNL     1     -14.000  13.576  72.669  1.00  0.00    -0.752 OA 
ENDBRANCH  35  37
ENDBRANCH  24  35
ENDBRANCH  20  22
ENDBRANCH  17  20
ENDBRANCH  13  14
ENDBRANCH  12  13
ENDBRANCH  11  12
ENDBRANCH  10  11
ENDBRANCH   5  10
ENDBRANCH   4   5
ENDBRANCH   3   4
ENDBRANCH   2   3
TORSDOF 18
ENDMDL
MODEL       37
REMARK 921   NORMALIZED FREE ENERGY PREDICTED BY IDOCK:   -5.27 KCAL/MOL
REMARK 922        TOTAL FREE ENERGY PREDICTED BY IDOCK:  -13.54 KCAL/MOL
REMARK 923 INTER-LIGAND FREE ENERGY PREDICTED BY IDOCK:  -11.11 KCAL/MOL
REMARK 924 INTRA-LIGAND FREE ENERGY PREDICTED BY IDOCK:   -2.43 KCAL/MOL
REMARK 927      BINDING AFFINITY PREDICTED BY RF-SCORE:    0.00 PKD
ROOT
HETATM    1  C   UNL     1     -10.396   6.028  71.641  1.00  0.00    -0.260 C  
HETATM    2  C   UNL     1     -10.434   5.432  70.240  1.00  0.00    -0.355 C  
ENDROOT
BRANCH   2   3
HETATM    3  C   UNL     1     -11.273   6.311  69.313  1.00  0.00    -0.458 C  
BRANCH   3   4
HETATM    4  C   UNL     1     -10.745   6.409  67.874  1.00  0.00    -0.299 C  
BRANCH   4   5
HETATM    5  N   UNL     1      -9.547   5.611  67.505  1.00  0.00    -0.114 NA 
BRANCH   5   6
HETATM    6  C   UNL     1      -9.855   4.668  66.405  1.00  0.00    -0.225 C  
BRANCH   6   7
HETATM    7  C   UNL     1      -9.253   3.254  66.511  1.00  0.00    -0.169 C  
BRANCH   7   8
HETATM    8  C   UNL     1      -8.693   2.905  67.892  1.00  0.00    -0.135 C  
HETATM    9  C   UNL     1      -9.629   1.954  68.628  1.00  0.00    -0.143 C  
ENDBRANCH   7   8
ENDBRANCH   6   7
ENDBRANCH   5   6
BRANCH   5  10
HETATM   10  C   UNL     1      -8.447   6.530  67.116  1.00  0.00    -0.112 C  
BRANCH  10  11
HETATM   11  C   UNL     1      -7.675   7.159  68.285  1.00  0.00    -0.120 C  
BRANCH  11  12
HETATM   12  C   UNL     1      -7.626   8.678  68.157  1.00  0.00    -0.097 C  
BRANCH  12  13
HETATM   13  O   UNL     1      -8.434   9.090  67.052  1.00  0.00    -0.118 OA 
BRANCH  13  14
HETATM   14  C   UNL     1      -9.185  10.219  67.251  1.00  0.00    -0.141 A  
HETATM   15  C   UNL     1     -10.569  10.324  67.087  1.00  0.00    -0.320 A  
HETATM   16  C   UNL     1     -11.213  11.560  67.242  1.00  0.00    -0.365 A  
HETATM   17  C   UNL     1     -10.476  12.704  67.574  1.00  0.00    -0.229 A  
HETATM   18  C   UNL     1      -9.108  12.575  67.840  1.00  0.00    -0.199 A  
HETATM   19  C   UNL     1      -8.463  11.347  67.642  1.00  0.00    -0.130 A  
BRANCH  17  20
HETATM   20  C   UNL     1     -11.166  14.035  67.591  1.00  0.00    -0.297 C  
HETATM   21  O   UNL     1     -11.463  14.552  66.518  1.00  0.00    -0.345 OA 
BRANCH  20  22
HETATM   22  C   UNL     1     -11.417  14.691  68.877  1.00  0.00    -0.323 A  
HETATM   23  C   UNL     1     -11.051  15.995  69.208  1.00  0.00    -0.331 A  
HETATM   24  C   UNL     1     -12.987  12.744  71.799  1.00  0.00    -0.314 A  
HETATM   25  O   UNL     1     -11.455  16.286  70.479  1.00  0.00    -0.367 OA 
HETATM   26  C   UNL     1     -12.974  13.808  72.698  1.00  0.00    -0.404 A  
HETATM   27  C   UNL     1     -11.996  15.167  71.010  1.00  0.00    -0.333 A  
HETATM   28  C   UNL     1     -11.981  14.134  70.083  1.00  0.00    -0.400 A  
HETATM   29  C   UNL     1     -12.462  15.051  72.317  1.00  0.00    -0.429 A  
HETATM   30  C   UNL     1     -12.456  12.877  70.511  1.00  0.00    -0.294 A  
BRANCH  23  31
HETATM   31  C   UNL     1     -10.224  17.080  68.600  1.00  0.00    -0.321 C  
BRANCH  31  32
HETATM   32  C   UNL     1     -10.783  17.812  67.382  1.00  0.00    -0.287 C  
BRANCH  32  33
HETATM   33  C   UNL     1     -10.589  19.322  67.608  1.00  0.00    -0.553 C  
HETATM   34  C   UNL     1      -9.634  19.982  66.631  1.00  0.00    -0.548 C  
ENDBRANCH  32  33
ENDBRANCH  31  32
ENDBRANCH  23  31
BRANCH  24  35
HETATM   35  N   UNL     1     -13.534  11.483  72.174  1.00  0.00    -0.523 N  
HETATM   36  H   UNL     1     -14.243  11.414  72.905  1.00  0.00     0.000 HD 
BRANCH  35  37
HETATM   37  S   UNL     1     -12.974  10.104  71.376  1.00  0.00    -0.453 S  
HETATM   38  C   UNL     1     -13.811   8.817  72.276  1.00  0.00    -0.447 C  
HETATM   39  O   UNL     1     -13.429  10.107  70.005  1.00  0.00     0.164 OA 
HETATM   40  O   UNL     1     -11.565  10.020  71.700  1.00  0.00    -0.317 OA 
ENDBRANCH  35  37
ENDBRANCH  24  35
ENDBRANCH  20  22
ENDBRANCH  17  20
ENDBRANCH  13  14
ENDBRANCH  12  13
ENDBRANCH  11  12
ENDBRANCH  10  11
ENDBRANCH   5  10
ENDBRANCH   4   5
ENDBRANCH   3   4
ENDBRANCH   2   3
TORSDOF 18
ENDMDL
MODEL       38
REMARK 921   NORMALIZED FREE ENERGY PREDICTED BY IDOCK:   -5.25 KCAL/MOL
REMARK 922        TOTAL FREE ENERGY PREDICTED BY IDOCK:  -13.50 KCAL/MOL
REMARK 923 INTER-LIGAND FREE ENERGY PREDICTED BY IDOCK:  -11.05 KCAL/MOL
REMARK 924 INTRA-LIGAND FREE ENERGY PREDICTED BY IDOCK:   -2.45 KCAL/MOL
REMARK 927      BINDING AFFINITY PREDICTED BY RF-SCORE:    0.00 PKD
ROOT
HETATM    1  C   UNL     1     -10.235  19.835  68.522  1.00  0.00    -0.547 C  
HETATM    2  C   UNL     1      -9.716  20.343  67.182  1.00  0.00    -0.601 C  
ENDROOT
BRANCH   2   3
HETATM    3  C   UNL     1     -10.183  19.427  66.051  1.00  0.00    -0.540 C  
BRANCH   3   4
HETATM    4  C   UNL     1     -10.162  17.929  66.393  1.00  0.00    -0.372 C  
BRANCH   4   5
HETATM    5  N   UNL     1      -9.135  17.072  65.747  1.00  0.00    -0.516 NA 
BRANCH   5   6
HETATM    6  C   UNL     1      -7.902  17.012  66.567  1.00  0.00    -0.296 C  
BRANCH   6   7
HETATM    7  C   UNL     1      -8.085  16.910  68.094  1.00  0.00    -0.201 C  
BRANCH   7   8
HETATM    8  C   UNL     1      -8.571  15.545  68.585  1.00  0.00    -0.179 C  
HETATM    9  C   UNL     1      -9.851  15.689  69.399  1.00  0.00    -0.284 C  
ENDBRANCH   7   8
ENDBRANCH   6   7
ENDBRANCH   5   6
BRANCH   5  10
HETATM   10  C   UNL     1      -9.692  15.712  65.538  1.00  0.00    -0.251 C  
BRANCH  10  11
HETATM   11  C   UNL     1     -11.212  15.592  65.724  1.00  0.00    -0.133 C  
BRANCH  11  12
HETATM   12  C   UNL     1     -11.579  14.286  66.421  1.00  0.00    -0.372 C  
BRANCH  12  13
HETATM   13  O   UNL     1     -10.430  13.437  66.480  1.00  0.00    -0.276 OA 
BRANCH  13  14
HETATM   14  C   UNL     1     -10.406  12.535  67.510  1.00  0.00    -0.220 A  
HETATM   15  C   UNL     1      -9.262  12.042  68.144  1.00  0.00    -0.195 A  
HETATM   16  C   UNL     1      -9.367  11.056  69.136  1.00  0.00    -0.039 A  
HETATM   17  C   UNL     1     -10.622  10.560  69.511  1.00  0.00    -0.278 A  
HETATM   18  C   UNL     1     -11.771  11.131  68.949  1.00  0.00    -0.406 A  
HETATM   19  C   UNL     1     -11.659  12.084  67.930  1.00  0.00    -0.405 A  
BRANCH  17  20
HETATM   20  C   UNL     1     -10.694   9.408  70.467  1.00  0.00    -0.276 C  
HETATM   21  O   UNL     1     -10.606   9.641  71.669  1.00  0.00    -0.199 OA 
BRANCH  20  22
HETATM   22  C   UNL     1     -10.820   8.048  69.936  1.00  0.00    -0.217 A  
HETATM   23  C   UNL     1     -11.354   6.957  70.620  1.00  0.00    -0.320 A  
HETATM   24  C   UNL     1      -9.392   7.151  66.480  1.00  0.00    -0.164 A  
HETATM   25  O   UNL     1     -11.333   5.849  69.822  1.00  0.00    -0.371 OA 
HETATM   26  C   UNL     1      -9.773   5.812  66.515  1.00  0.00    -0.185 A  
HETATM   27  C   UNL     1     -10.713   6.180  68.667  1.00  0.00    -0.307 A  
HETATM   28  C   UNL     1     -10.345   7.519  68.680  1.00  0.00    -0.218 A  
HETATM   29  C   UNL     1     -10.439   5.294  67.629  1.00  0.00    -0.176 A  
HETATM   30  C   UNL     1      -9.629   8.001  67.566  1.00  0.00    -0.191 A  
BRANCH  23  31
HETATM   31  C   UNL     1     -11.798   6.658  72.014  1.00  0.00    -0.365 C  
BRANCH  31  32
HETATM   32  C   UNL     1     -10.731   6.303  73.048  1.00  0.00    -0.278 C  
BRANCH  32  33
HETATM   33  C   UNL     1     -10.834   4.794  73.334  1.00  0.00    -0.361 C  
HETATM   34  C   UNL     1      -9.755   3.958  72.670  1.00  0.00    -0.198 C  
ENDBRANCH  32  33
ENDBRANCH  31  32
ENDBRANCH  23  31
BRANCH  24  35
HETATM   35  N   UNL     1      -8.737   7.690  65.334  1.00  0.00    -0.342 N  
HETATM   36  H   UNL     1      -8.202   7.091  64.705  1.00  0.00     0.000 HD 
BRANCH  35  37
HETATM   37  S   UNL     1      -8.874   9.348  65.047  1.00  0.00    -0.197 S  
HETATM   38  C   UNL     1      -8.642   9.416  63.283  1.00  0.00    -0.214 C  
HETATM   39  O   UNL     1     -10.207   9.800  65.375  1.00  0.00    -0.246 OA 
HETATM   40  O   UNL     1      -7.706   9.941  65.665  1.00  0.00    -0.111 OA 
ENDBRANCH  35  37
ENDBRANCH  24  35
ENDBRANCH  20  22
ENDBRANCH  17  20
ENDBRANCH  13  14
ENDBRANCH  12  13
ENDBRANCH  11  12
ENDBRANCH  10  11
ENDBRANCH   5  10
ENDBRANCH   4   5
ENDBRANCH   3   4
ENDBRANCH   2   3
TORSDOF 18
ENDMDL
MODEL       39
REMARK 921   NORMALIZED FREE ENERGY PREDICTED BY IDOCK:   -5.25 KCAL/MOL
REMARK 922        TOTAL FREE ENERGY PREDICTED BY IDOCK:  -13.49 KCAL/MOL
REMARK 923 INTER-LIGAND FREE ENERGY PREDICTED BY IDOCK:  -10.21 KCAL/MOL
REMARK 924 INTRA-LIGAND FREE ENERGY PREDICTED BY IDOCK:   -3.28 KCAL/MOL
REMARK 927      BINDING AFFINITY PREDICTED BY RF-SCORE:    0.00 PKD
ROOT
HETATM    1  C   UNL     1      -6.085  19.252  65.874  1.00  0.00    -0.213 C  
HETATM    2  C   UNL     1      -7.015  18.053  65.740  1.00  0.00    -0.266 C  
ENDROOT
BRANCH   2   3
HETATM    3  C   UNL     1      -6.847  17.117  66.936  1.00  0.00    -0.242 C  
BRANCH   3   4
HETATM    4  C   UNL     1      -8.152  16.479  67.436  1.00  0.00    -0.150 C  
BRANCH   4   5
HETATM    5  N   UNL     1      -8.785  17.034  68.660  1.00  0.00    -0.259 NA 
BRANCH   5   6
HETATM    6  C   UNL     1      -9.747  18.108  68.321  1.00  0.00    -0.337 C  
BRANCH   6   7
HETATM    7  C   UNL     1      -9.215  19.555  68.354  1.00  0.00    -0.412 C  
BRANCH   7   8
HETATM    8  C   UNL     1      -9.688  20.430  67.192  1.00  0.00    -0.601 C  
HETATM    9  C   UNL     1     -10.387  19.589  66.132  1.00  0.00    -0.614 C  
ENDBRANCH   7   8
ENDBRANCH   6   7
ENDBRANCH   5   6
BRANCH   5  10
HETATM   10  C   UNL     1      -9.461  15.939  69.401  1.00  0.00    -0.248 C  
BRANCH  10  11
HETATM   11  C   UNL     1     -10.932  16.200  69.758  1.00  0.00    -0.349 C  
BRANCH  11  12
HETATM   12  C   UNL     1     -11.818  15.037  69.325  1.00  0.00    -0.315 C  
BRANCH  12  13
HETATM   13  O   UNL     1     -11.779  14.912  67.901  1.00  0.00    -0.340 OA 
BRANCH  13  14
HETATM   14  C   UNL     1     -11.380  13.692  67.420  1.00  0.00    -0.315 A  
HETATM   15  C   UNL     1     -11.715  12.447  67.959  1.00  0.00    -0.414 A  
HETATM   16  C   UNL     1     -11.175  11.270  67.422  1.00  0.00    -0.370 A  
HETATM   17  C   UNL     1     -10.298  11.328  66.331  1.00  0.00    -0.291 A  
HETATM   18  C   UNL     1     -10.048  12.567  65.729  1.00  0.00    -0.278 A  
HETATM   19  C   UNL     1     -10.556  13.742  66.295  1.00  0.00    -0.289 A  
BRANCH  17  20
HETATM   20  C   UNL     1      -9.624  10.071  65.871  1.00  0.00    -0.224 C  
HETATM   21  O   UNL     1      -9.777   9.721  64.704  1.00  0.00    -0.268 OA 
BRANCH  20  22
HETATM   22  C   UNL     1      -8.851   9.282  66.833  1.00  0.00    -0.141 A  
HETATM   23  C   UNL     1      -7.460   9.198  66.882  1.00  0.00    -0.091 A  
HETATM   24  C   UNL     1     -10.622   6.992  69.365  1.00  0.00    -0.230 A  
HETATM   25  O   UNL     1      -7.076   8.390  67.914  1.00  0.00    -0.079 OA 
HETATM   26  C   UNL     1      -9.458   6.522  69.967  1.00  0.00    -0.163 A  
HETATM   27  C   UNL     1      -8.193   7.878  68.478  1.00  0.00    -0.127 A  
HETATM   28  C   UNL     1      -9.326   8.367  67.843  1.00  0.00    -0.147 A  
HETATM   29  C   UNL     1      -8.206   6.955  69.521  1.00  0.00    -0.131 A  
HETATM   30  C   UNL     1     -10.573   7.874  68.279  1.00  0.00    -0.163 A  
BRANCH  23  31
HETATM   31  C   UNL     1      -6.314   9.634  66.031  1.00  0.00    -0.073 C  
BRANCH  31  32
HETATM   32  C   UNL     1      -5.954  11.119  66.016  1.00  0.00    -0.064 C  
BRANCH  32  33
HETATM   33  C   UNL     1      -6.081  11.649  67.455  1.00  0.00    -0.097 C  
HETATM   34  C   UNL     1      -6.946  12.889  67.589  1.00  0.00    -0.152 C  
ENDBRANCH  32  33
ENDBRANCH  31  32
ENDBRANCH  23  31
BRANCH  24  35
HETATM   35  N   UNL     1     -11.902   6.574  69.835  1.00  0.00    -0.615 N  
HETATM   36  H   UNL     1     -12.473   5.925  69.295  1.00  0.00     0.000 HD 
BRANCH  35  37
HETATM   37  S   UNL     1     -12.443   7.186  71.313  1.00  0.00    -0.368 S  
HETATM   38  C   UNL     1     -11.858   5.939  72.441  1.00  0.00    -0.207 C  
HETATM   39  O   UNL     1     -11.787   8.441  71.600  1.00  0.00    -0.274 OA 
HETATM   40  O   UNL     1     -13.887   7.088  71.262  1.00  0.00    -0.291 OA 
ENDBRANCH  35  37
ENDBRANCH  24  35
ENDBRANCH  20  22
ENDBRANCH  17  20
ENDBRANCH  13  14
ENDBRANCH  12  13
ENDBRANCH  11  12
ENDBRANCH  10  11
ENDBRANCH   5  10
ENDBRANCH   4   5
ENDBRANCH   3   4
ENDBRANCH   2   3
TORSDOF 18
ENDMDL
MODEL       40
REMARK 921   NORMALIZED FREE ENERGY PREDICTED BY IDOCK:   -5.25 KCAL/MOL
REMARK 922        TOTAL FREE ENERGY PREDICTED BY IDOCK:  -13.48 KCAL/MOL
REMARK 923 INTER-LIGAND FREE ENERGY PREDICTED BY IDOCK:  -10.72 KCAL/MOL
REMARK 924 INTRA-LIGAND FREE ENERGY PREDICTED BY IDOCK:   -2.76 KCAL/MOL
REMARK 927      BINDING AFFINITY PREDICTED BY RF-SCORE:    0.00 PKD
ROOT
HETATM    1  C   UNL     1     -10.341   3.514  63.860  1.00  0.00    -0.244 C  
HETATM    2  C   UNL     1      -9.650   4.361  64.922  1.00  0.00    -0.160 C  
ENDROOT
BRANCH   2   3
HETATM    3  C   UNL     1     -10.643   4.750  66.017  1.00  0.00    -0.300 C  
BRANCH   3   4
HETATM    4  C   UNL     1     -10.016   5.465  67.223  1.00  0.00    -0.171 C  
BRANCH   4   5
HETATM    5  N   UNL     1     -10.812   6.510  67.917  1.00  0.00    -0.287 NA 
BRANCH   5   6
HETATM    6  C   UNL     1     -10.763   6.326  69.386  1.00  0.00    -0.303 C  
BRANCH   6   7
HETATM    7  C   UNL     1     -11.499   7.375  70.244  1.00  0.00    -0.206 C  
BRANCH   7   8
HETATM    8  C   UNL     1     -10.578   8.306  71.035  1.00  0.00    -0.243 C  
HETATM    9  C   UNL     1     -11.391   9.323  71.826  1.00  0.00    -0.437 C  
ENDBRANCH   7   8
ENDBRANCH   6   7
ENDBRANCH   5   6
BRANCH   5  10
HETATM   10  C   UNL     1     -10.297   7.850  67.539  1.00  0.00    -0.259 C  
BRANCH  10  11
HETATM   11  C   UNL     1      -8.768   7.964  67.452  1.00  0.00    -0.128 C  
BRANCH  11  12
HETATM   12  C   UNL     1      -8.334   9.411  67.247  1.00  0.00    -0.125 C  
BRANCH  12  13
HETATM   13  O   UNL     1      -8.559  10.152  68.450  1.00  0.00    -0.114 OA 
BRANCH  13  14
HETATM   14  C   UNL     1      -9.066  11.414  68.287  1.00  0.00    -0.179 A  
HETATM   15  C   UNL     1      -8.332  12.558  67.960  1.00  0.00    -0.171 A  
HETATM   16  C   UNL     1      -8.957  13.812  67.903  1.00  0.00    -0.193 A  
HETATM   17  C   UNL     1     -10.328  13.932  68.164  1.00  0.00    -0.247 A  
HETATM   18  C   UNL     1     -11.078  12.771  68.387  1.00  0.00    -0.293 A  
HETATM   19  C   UNL     1     -10.442  11.528  68.485  1.00  0.00    -0.228 A  
BRANCH  17  20
HETATM   20  C   UNL     1     -10.939  15.298  68.237  1.00  0.00    -0.276 C  
HETATM   21  O   UNL     1     -11.832  15.495  69.056  1.00  0.00    -0.361 OA 
BRANCH  20  22
HETATM   22  C   UNL     1     -10.486  16.333  67.304  1.00  0.00    -0.300 A  
HETATM   23  C   UNL     1     -10.750  16.362  65.935  1.00  0.00    -0.214 A  
HETATM   24  C   UNL     1      -8.161  19.159  68.485  1.00  0.00    -0.359 A  
HETATM   25  O   UNL     1     -10.193  17.476  65.375  1.00  0.00    -0.593 OA 
HETATM   26  C   UNL     1      -8.066  19.789  67.246  1.00  0.00    -0.327 A  
HETATM   27  C   UNL     1      -9.497  18.122  66.338  1.00  0.00    -0.278 A  
HETATM   28  C   UNL     1      -9.613  17.456  67.550  1.00  0.00    -0.257 A  
HETATM   29  C   UNL     1      -8.733  19.268  66.134  1.00  0.00    -0.259 A  
HETATM   30  C   UNL     1      -8.889  17.974  68.642  1.00  0.00    -0.272 A  
BRANCH  23  31
HETATM   31  C   UNL     1     -11.345  15.441  64.922  1.00  0.00    -0.367 C  
BRANCH  31  32
HETATM   32  C   UNL     1     -10.628  14.120  64.644  1.00  0.00    -0.391 C  
BRANCH  32  33
HETATM   33  C   UNL     1     -11.698  13.024  64.500  1.00  0.00    -0.419 C  
HETATM   34  C   UNL     1     -11.183  11.720  63.918  1.00  0.00    -0.493 C  
ENDBRANCH  32  33
ENDBRANCH  31  32
ENDBRANCH  23  31
BRANCH  24  35
HETATM   35  N   UNL     1      -7.505  19.703  69.627  1.00  0.00    -0.097 N  
HETATM   36  H   UNL     1      -8.040  20.083  70.409  1.00  0.00     0.000 HD 
BRANCH  35  37
HETATM   37  S   UNL     1      -5.816  19.702  69.649  1.00  0.00    -0.282 S  
HETATM   38  C   UNL     1      -5.492  19.598  71.397  1.00  0.00    -0.329 C  
HETATM   39  O   UNL     1      -5.313  18.515  68.996  1.00  0.00    -0.192 OA 
HETATM   40  O   UNL     1      -5.426  21.025  69.210  1.00  0.00    -0.370 OA 
ENDBRANCH  35  37
ENDBRANCH  24  35
ENDBRANCH  20  22
ENDBRANCH  17  20
ENDBRANCH  13  14
ENDBRANCH  12  13
ENDBRANCH  11  12
ENDBRANCH  10  11
ENDBRANCH   5  10
ENDBRANCH   4   5
ENDBRANCH   3   4
ENDBRANCH   2   3
TORSDOF 18
ENDMDL
MODEL       41
REMARK 921   NORMALIZED FREE ENERGY PREDICTED BY IDOCK:   -5.23 KCAL/MOL
REMARK 922        TOTAL FREE ENERGY PREDICTED BY IDOCK:  -13.46 KCAL/MOL
REMARK 923 INTER-LIGAND FREE ENERGY PREDICTED BY IDOCK:  -10.85 KCAL/MOL
REMARK 924 INTRA-LIGAND FREE ENERGY PREDICTED BY IDOCK:   -2.61 KCAL/MOL
REMARK 927      BINDING AFFINITY PREDICTED BY RF-SCORE:    0.00 PKD
ROOT
HETATM    1  C   UNL     1      -9.242   4.497  63.841  1.00  0.00    -0.095 C  
HETATM    2  C   UNL     1      -8.525   4.649  65.176  1.00  0.00    -0.130 C  
ENDROOT
BRANCH   2   3
HETATM    3  C   UNL     1      -8.447   6.124  65.570  1.00  0.00    -0.149 C  
BRANCH   3   4
HETATM    4  C   UNL     1      -8.049   7.071  64.428  1.00  0.00    -0.052 C  
BRANCH   4   5
HETATM    5  N   UNL     1      -7.796   8.498  64.750  1.00  0.00    -0.117 NA 
BRANCH   5   6
HETATM    6  C   UNL     1      -6.736   9.060  63.880  1.00  0.00    -0.088 C  
BRANCH   6   7
HETATM    7  C   UNL     1      -5.493   9.640  64.583  1.00  0.00    -0.063 C  
BRANCH   7   8
HETATM    8  C   UNL     1      -5.639   9.805  66.097  1.00  0.00    -0.052 C  
HETATM    9  C   UNL     1      -6.192  11.183  66.438  1.00  0.00    -0.127 C  
ENDBRANCH   7   8
ENDBRANCH   6   7
ENDBRANCH   5   6
BRANCH   5  10
HETATM   10  C   UNL     1      -9.059   9.266  64.600  1.00  0.00    -0.121 C  
BRANCH  10  11
HETATM   11  C   UNL     1      -9.065  10.301  63.465  1.00  0.00    -0.288 C  
BRANCH  11  12
HETATM   12  C   UNL     1     -10.392  11.050  63.411  1.00  0.00    -0.312 C  
BRANCH  12  13
HETATM   13  O   UNL     1     -10.177  12.425  63.740  1.00  0.00    -0.409 OA 
BRANCH  13  14
HETATM   14  C   UNL     1     -10.544  12.801  65.005  1.00  0.00    -0.308 A  
HETATM   15  C   UNL     1     -11.834  13.147  65.417  1.00  0.00    -0.410 A  
HETATM   16  C   UNL     1     -12.067  13.594  66.726  1.00  0.00    -0.445 A  
HETATM   17  C   UNL     1     -11.010  13.690  67.640  1.00  0.00    -0.283 A  
HETATM   18  C   UNL     1      -9.740  13.243  67.255  1.00  0.00    -0.231 A  
HETATM   19  C   UNL     1      -9.504  12.838  65.936  1.00  0.00    -0.076 A  
BRANCH  17  20
HETATM   20  C   UNL     1     -11.262  14.305  68.983  1.00  0.00    -0.266 C  
HETATM   21  O   UNL     1     -10.739  15.387  69.236  1.00  0.00    -0.226 OA 
BRANCH  20  22
HETATM   22  C   UNL     1     -12.078  13.579  69.959  1.00  0.00    -0.411 A  
HETATM   23  C   UNL     1     -12.995  14.154  70.838  1.00  0.00    -0.305 A  
HETATM   24  C   UNL     1     -11.624   9.794  70.466  1.00  0.00    -0.292 A  
HETATM   25  O   UNL     1     -13.591  13.185  71.592  1.00  0.00    -0.304 OA 
HETATM   26  C   UNL     1     -12.594   9.668  71.458  1.00  0.00    -0.483 A  
HETATM   27  C   UNL     1     -13.012  12.002  71.283  1.00  0.00    -0.217 A  
HETATM   28  C   UNL     1     -12.049  12.176  70.298  1.00  0.00    -0.385 A  
HETATM   29  C   UNL     1     -13.307  10.788  71.896  1.00  0.00    -0.445 A  
HETATM   30  C   UNL     1     -11.310  11.040  69.912  1.00  0.00    -0.364 A  
BRANCH  23  31
HETATM   31  C   UNL     1     -13.380  15.533  71.258  1.00  0.00    -0.588 C  
BRANCH  31  32
HETATM   32  C   UNL     1     -14.086  15.704  72.603  1.00  0.00    -0.527 C  
BRANCH  32  33
HETATM   33  C   UNL     1     -13.029  16.120  73.641  1.00  0.00    -0.619 C  
HETATM   34  C   UNL     1     -12.046  15.024  74.007  1.00  0.00    -0.566 C  
ENDBRANCH  32  33
ENDBRANCH  31  32
ENDBRANCH  23  31
BRANCH  24  35
HETATM   35  N   UNL     1     -10.915   8.650  69.996  1.00  0.00    -0.325 N  
HETATM   36  H   UNL     1     -11.394   7.907  69.488  1.00  0.00     0.000 HD 
BRANCH  35  37
HETATM   37  S   UNL     1      -9.257   8.562  70.305  1.00  0.00    -0.164 S  
HETATM   38  C   UNL     1      -9.033   6.806  70.499  1.00  0.00    -0.152 C  
HETATM   39  O   UNL     1      -8.513   9.016  69.153  1.00  0.00    -0.123 OA 
HETATM   40  O   UNL     1      -9.077   9.173  71.605  1.00  0.00    -0.334 OA 
ENDBRANCH  35  37
ENDBRANCH  24  35
ENDBRANCH  20  22
ENDBRANCH  17  20
ENDBRANCH  13  14
ENDBRANCH  12  13
ENDBRANCH  11  12
ENDBRANCH  10  11
ENDBRANCH   5  10
ENDBRANCH   4   5
ENDBRANCH   3   4
ENDBRANCH   2   3
TORSDOF 18
ENDMDL
MODEL       42
REMARK 921   NORMALIZED FREE ENERGY PREDICTED BY IDOCK:   -5.18 KCAL/MOL
REMARK 922        TOTAL FREE ENERGY PREDICTED BY IDOCK:  -13.35 KCAL/MOL
REMARK 923 INTER-LIGAND FREE ENERGY PREDICTED BY IDOCK:  -10.34 KCAL/MOL
REMARK 924 INTRA-LIGAND FREE ENERGY PREDICTED BY IDOCK:   -3.02 KCAL/MOL
REMARK 927      BINDING AFFINITY PREDICTED BY RF-SCORE:    0.00 PKD
ROOT
HETATM    1  C   UNL     1     -10.766  11.661  63.521  1.00  0.00    -0.495 C  
HETATM    2  C   UNL     1     -11.186  11.951  64.956  1.00  0.00    -0.350 C  
ENDROOT
BRANCH   2   3
HETATM    3  C   UNL     1     -12.199  13.095  64.991  1.00  0.00    -0.488 C  
BRANCH   3   4
HETATM    4  C   UNL     1     -11.858  14.220  65.981  1.00  0.00    -0.391 C  
BRANCH   4   5
HETATM    5  N   UNL     1     -10.506  14.235  66.595  1.00  0.00    -0.275 NA 
BRANCH   5   6
HETATM    6  C   UNL     1      -9.704  15.371  66.084  1.00  0.00    -0.318 C  
BRANCH   6   7
HETATM    7  C   UNL     1     -10.467  16.665  65.739  1.00  0.00    -0.324 C  
BRANCH   7   8
HETATM    8  C   UNL     1     -10.045  17.887  66.556  1.00  0.00    -0.370 C  
HETATM    9  C   UNL     1     -10.639  19.161  65.967  1.00  0.00    -0.524 C  
ENDBRANCH   7   8
ENDBRANCH   6   7
ENDBRANCH   5   6
BRANCH   5  10
HETATM   10  C   UNL     1     -10.640  14.310  68.072  1.00  0.00    -0.238 C  
BRANCH  10  11
HETATM   11  C   UNL     1     -12.023  13.937  68.624  1.00  0.00    -0.401 C  
BRANCH  11  12
HETATM   12  C   UNL     1     -11.910  12.903  69.739  1.00  0.00    -0.310 C  
BRANCH  12  13
HETATM   13  O   UNL     1     -11.045  11.844  69.321  1.00  0.00    -0.240 OA 
BRANCH  13  14
HETATM   14  C   UNL     1     -11.301  10.614  69.867  1.00  0.00    -0.313 A  
HETATM   15  C   UNL     1     -12.040  10.368  71.027  1.00  0.00    -0.488 A  
HETATM   16  C   UNL     1     -12.163   9.065  71.530  1.00  0.00    -0.403 A  
HETATM   17  C   UNL     1     -11.553   7.991  70.870  1.00  0.00    -0.284 A  
HETATM   18  C   UNL     1     -10.902   8.226  69.653  1.00  0.00    -0.154 A  
HETATM   19  C   UNL     1     -10.747   9.534  69.177  1.00  0.00    -0.228 A  
BRANCH  17  20
HETATM   20  C   UNL     1     -11.579   6.634  71.506  1.00  0.00    -0.309 C  
HETATM   21  O   UNL     1     -12.635   6.237  71.991  1.00  0.00    -0.269 OA 
BRANCH  20  22
HETATM   22  C   UNL     1     -10.341   5.853  71.571  1.00  0.00    -0.273 A  
HETATM   23  C   UNL     1      -9.404   5.900  72.603  1.00  0.00    -0.143 A  
HETATM   24  C   UNL     1      -9.283   3.609  68.632  1.00  0.00    -0.160 A  
HETATM   25  O   UNL     1      -8.383   5.031  72.347  1.00  0.00    -0.117 OA 
HETATM   26  C   UNL     1      -8.103   3.157  69.219  1.00  0.00    -0.062 A  
HETATM   27  C   UNL     1      -8.594   4.488  71.127  1.00  0.00    -0.106 A  
HETATM   28  C   UNL     1      -9.774   4.972  70.578  1.00  0.00    -0.273 A  
HETATM   29  C   UNL     1      -7.729   3.603  70.490  1.00  0.00    -0.047 A  
HETATM   30  C   UNL     1     -10.101   4.545  69.275  1.00  0.00    -0.102 A  
BRANCH  23  31
HETATM   31  C   UNL     1      -9.161   6.739  73.813  1.00  0.00    -0.190 C  
BRANCH  31  32
HETATM   32  C   UNL     1      -8.819   8.214  73.608  1.00  0.00    -0.296 C  
BRANCH  32  33
HETATM   33  C   UNL     1      -7.544   8.287  72.749  1.00  0.00    -0.162 C  
HETATM   34  C   UNL     1      -7.767   8.815  71.344  1.00  0.00    -0.148 C  
ENDBRANCH  32  33
ENDBRANCH  31  32
ENDBRANCH  23  31
BRANCH  24  35
HETATM   35  N   UNL     1      -9.683   3.135  67.349  1.00  0.00    -0.330 N  
HETATM   36  H   UNL     1     -10.023   2.181  67.223  1.00  0.00     0.000 HD 
BRANCH  35  37
HETATM   37  S   UNL     1      -9.577   4.198  66.041  1.00  0.00    -0.202 S  
HETATM   38  C   UNL     1      -9.237   3.072  64.704  1.00  0.00    -0.144 C  
HETATM   39  O   UNL     1     -10.853   4.838  65.818  1.00  0.00    -0.295 OA 
HETATM   40  O   UNL     1      -8.377   4.974  66.275  1.00  0.00    -0.111 OA 
ENDBRANCH  35  37
ENDBRANCH  24  35
ENDBRANCH  20  22
ENDBRANCH  17  20
ENDBRANCH  13  14
ENDBRANCH  12  13
ENDBRANCH  11  12
ENDBRANCH  10  11
ENDBRANCH   5  10
ENDBRANCH   4   5
ENDBRANCH   3   4
ENDBRANCH   2   3
TORSDOF 18
ENDMDL
MODEL       43
REMARK 921   NORMALIZED FREE ENERGY PREDICTED BY IDOCK:   -5.17 KCAL/MOL
REMARK 922        TOTAL FREE ENERGY PREDICTED BY IDOCK:  -13.34 KCAL/MOL
REMARK 923 INTER-LIGAND FREE ENERGY PREDICTED BY IDOCK:   -9.60 KCAL/MOL
REMARK 924 INTRA-LIGAND FREE ENERGY PREDICTED BY IDOCK:   -3.74 KCAL/MOL
REMARK 927      BINDING AFFINITY PREDICTED BY RF-SCORE:    0.00 PKD
ROOT
HETATM    1  C   UNL     1     -13.967   9.376  71.927  1.00  0.00    -0.302 C  
HETATM    2  C   UNL     1     -14.190   7.883  71.722  1.00  0.00    -0.555 C  
ENDROOT
BRANCH   2   3
HETATM    3  C   UNL     1     -12.881   7.202  71.325  1.00  0.00    -0.399 C  
BRANCH   3   4
HETATM    4  C   UNL     1     -11.670   8.143  71.244  1.00  0.00    -0.279 C  
BRANCH   4   5
HETATM    5  N   UNL     1     -10.451   7.666  70.543  1.00  0.00    -0.217 NA 
BRANCH   5   6
HETATM    6  C   UNL     1      -9.436   8.742  70.450  1.00  0.00    -0.179 C  
BRANCH   6   7
HETATM    7  C   UNL     1      -7.958   8.305  70.424  1.00  0.00    -0.098 C  
BRANCH   7   8
HETATM    8  C   UNL     1      -7.007   9.323  69.792  1.00  0.00    -0.058 C  
HETATM    9  C   UNL     1      -7.761  10.580  69.376  1.00  0.00    -0.157 C  
ENDBRANCH   7   8
ENDBRANCH   6   7
ENDBRANCH   5   6
BRANCH   5  10
HETATM   10  C   UNL     1      -9.901   6.488  71.261  1.00  0.00    -0.181 C  
BRANCH  10  11
HETATM   11  C   UNL     1      -9.812   5.198  70.432  1.00  0.00    -0.288 C  
BRANCH  11  12
HETATM   12  C   UNL     1     -10.384   5.403  69.033  1.00  0.00    -0.212 C  
BRANCH  12  13
HETATM   13  O   UNL     1      -9.332   5.304  68.069  1.00  0.00    -0.111 OA 
BRANCH  13  14
HETATM   14  C   UNL     1      -9.032   6.458  67.394  1.00  0.00    -0.109 A  
HETATM   15  C   UNL     1      -7.752   6.886  67.030  1.00  0.00    -0.103 A  
HETATM   16  C   UNL     1      -7.567   8.130  66.410  1.00  0.00    -0.091 A  
HETATM   17  C   UNL     1      -8.666   8.956  66.140  1.00  0.00    -0.177 A  
HETATM   18  C   UNL     1      -9.954   8.478  66.410  1.00  0.00    -0.314 A  
HETATM   19  C   UNL     1     -10.130   7.254  67.067  1.00  0.00    -0.316 A  
BRANCH  17  20
HETATM   20  C   UNL     1      -8.426  10.337  65.610  1.00  0.00    -0.160 C  
HETATM   21  O   UNL     1      -7.366  10.892  65.887  1.00  0.00    -0.126 OA 
BRANCH  20  22
HETATM   22  C   UNL     1      -9.476  10.993  64.827  1.00  0.00    -0.267 A  
HETATM   23  C   UNL     1      -9.804  10.700  63.504  1.00  0.00    -0.326 A  
HETATM   24  C   UNL     1     -11.443  13.961  66.279  1.00  0.00    -0.339 A  
HETATM   25  O   UNL     1     -10.841  11.488  63.093  1.00  0.00    -0.306 OA 
HETATM   26  C   UNL     1     -12.241  14.164  65.156  1.00  0.00    -0.439 A  
HETATM   27  C   UNL     1     -11.131  12.348  64.095  1.00  0.00    -0.372 A  
HETATM   28  C   UNL     1     -10.309  12.116  65.188  1.00  0.00    -0.311 A  
HETATM   29  C   UNL     1     -12.090  13.356  64.025  1.00  0.00    -0.506 A  
HETATM   30  C   UNL     1     -10.448  12.978  66.295  1.00  0.00    -0.285 A  
BRANCH  23  31
HETATM   31  C   UNL     1      -9.235   9.871  62.401  1.00  0.00    -0.308 C  
BRANCH  31  32
HETATM   32  C   UNL     1      -7.892   9.182  62.639  1.00  0.00    -0.122 C  
BRANCH  32  33
HETATM   33  C   UNL     1      -8.123   7.662  62.569  1.00  0.00    -0.118 C  
HETATM   34  C   UNL     1      -6.968   6.830  63.097  1.00  0.00    -0.052 C  
ENDBRANCH  32  33
ENDBRANCH  31  32
ENDBRANCH  23  31
BRANCH  24  35
HETATM   35  N   UNL     1     -11.614  14.764  67.445  1.00  0.00    -0.364 N  
HETATM   36  H   UNL     1     -12.424  14.641  68.053  1.00  0.00     0.000 HD 
BRANCH  35  37
HETATM   37  S   UNL     1     -10.438  15.926  67.788  1.00  0.00    -0.294 S  
HETATM   38  C   UNL     1      -9.507  15.111  69.068  1.00  0.00    -0.221 C  
HETATM   39  O   UNL     1      -9.592  16.132  66.635  1.00  0.00    -0.222 OA 
HETATM   40  O   UNL     1     -11.154  17.026  68.400  1.00  0.00    -0.320 OA 
ENDBRANCH  35  37
ENDBRANCH  24  35
ENDBRANCH  20  22
ENDBRANCH  17  20
ENDBRANCH  13  14
ENDBRANCH  12  13
ENDBRANCH  11  12
ENDBRANCH  10  11
ENDBRANCH   5  10
ENDBRANCH   4   5
ENDBRANCH   3   4
ENDBRANCH   2   3
TORSDOF 18
ENDMDL
MODEL       44
REMARK 921   NORMALIZED FREE ENERGY PREDICTED BY IDOCK:   -5.17 KCAL/MOL
REMARK 922        TOTAL FREE ENERGY PREDICTED BY IDOCK:  -13.32 KCAL/MOL
REMARK 923 INTER-LIGAND FREE ENERGY PREDICTED BY IDOCK:  -11.41 KCAL/MOL
REMARK 924 INTRA-LIGAND FREE ENERGY PREDICTED BY IDOCK:   -1.91 KCAL/MOL
REMARK 927      BINDING AFFINITY PREDICTED BY RF-SCORE:    0.00 PKD
ROOT
HETATM    1  C   UNL     1      -9.860   5.048  66.262  1.00  0.00    -0.217 C  
HETATM    2  C   UNL     1      -8.519   5.716  65.988  1.00  0.00    -0.132 C  
ENDROOT
BRANCH   2   3
HETATM    3  C   UNL     1      -8.698   7.228  65.853  1.00  0.00    -0.150 C  
BRANCH   3   4
HETATM    4  C   UNL     1      -8.057   7.838  64.598  1.00  0.00    -0.123 C  
BRANCH   4   5
HETATM    5  N   UNL     1      -8.195   9.300  64.374  1.00  0.00    -0.141 NA 
BRANCH   5   6
HETATM    6  C   UNL     1      -6.868   9.950  64.274  1.00  0.00    -0.125 C  
BRANCH   6   7
HETATM    7  C   UNL     1      -5.670   9.182  64.868  1.00  0.00    -0.062 C  
BRANCH   7   8
HETATM    8  C   UNL     1      -5.240   9.655  66.258  1.00  0.00    -0.039 C  
HETATM    9  C   UNL     1      -5.620  11.115  66.473  1.00  0.00    -0.127 C  
ENDBRANCH   7   8
ENDBRANCH   6   7
ENDBRANCH   5   6
BRANCH   5  10
HETATM   10  C   UNL     1      -8.988   9.534  63.140  1.00  0.00    -0.194 C  
BRANCH  10  11
HETATM   11  C   UNL     1      -9.190  11.009  62.761  1.00  0.00    -0.374 C  
BRANCH  11  12
HETATM   12  C   UNL     1     -10.547  11.517  63.237  1.00  0.00    -0.338 C  
BRANCH  12  13
HETATM   13  O   UNL     1     -10.357  12.620  64.128  1.00  0.00    -0.373 OA 
BRANCH  13  14
HETATM   14  C   UNL     1     -10.414  12.324  65.464  1.00  0.00    -0.264 A  
HETATM   15  C   UNL     1      -9.318  12.104  66.303  1.00  0.00    -0.221 A  
HETATM   16  C   UNL     1      -9.509  11.727  67.640  1.00  0.00    -0.180 A  
HETATM   17  C   UNL     1     -10.803  11.576  68.154  1.00  0.00    -0.259 A  
HETATM   18  C   UNL     1     -11.896  11.899  67.341  1.00  0.00    -0.239 A  
HETATM   19  C   UNL     1     -11.701  12.234  65.996  1.00  0.00    -0.451 A  
BRANCH  17  20
HETATM   20  C   UNL     1     -10.978  11.034  69.540  1.00  0.00    -0.243 C  
HETATM   21  O   UNL     1     -10.358  10.021  69.853  1.00  0.00    -0.243 OA 
BRANCH  20  22
HETATM   22  C   UNL     1     -11.912  11.698  70.453  1.00  0.00    -0.448 A  
HETATM   23  C   UNL     1     -12.874  11.060  71.235  1.00  0.00    -0.425 A  
HETATM   24  C   UNL     1     -12.048  15.535  70.672  1.00  0.00    -0.389 A  
HETATM   25  O   UNL     1     -13.557  11.979  71.979  1.00  0.00    -0.362 OA 
HETATM   26  C   UNL     1     -13.059  15.585  71.628  1.00  0.00    -0.561 A  
HETATM   27  C   UNL     1     -13.117  13.208  71.627  1.00  0.00    -0.353 A  
HETATM   28  C   UNL     1     -12.118  13.110  70.668  1.00  0.00    -0.346 A  
HETATM   29  C   UNL     1     -13.626  14.407  72.121  1.00  0.00    -0.529 A  
HETATM   30  C   UNL     1     -11.601  14.315  70.151  1.00  0.00    -0.312 A  
BRANCH  23  31
HETATM   31  C   UNL     1     -13.435   9.682  71.360  1.00  0.00    -0.403 C  
BRANCH  31  32
HETATM   32  C   UNL     1     -13.037   8.852  72.579  1.00  0.00    -0.426 C  
BRANCH  32  33
HETATM   33  C   UNL     1     -11.881   7.926  72.163  1.00  0.00    -0.384 C  
HETATM   34  C   UNL     1     -12.248   6.905  71.102  1.00  0.00    -0.428 C  
ENDBRANCH  32  33
ENDBRANCH  31  32
ENDBRANCH  23  31
BRANCH  24  35
HETATM   35  N   UNL     1     -11.447  16.734  70.187  1.00  0.00    -0.251 N  
HETATM   36  H   UNL     1     -11.479  17.595  70.734  1.00  0.00     0.000 HD 
BRANCH  35  37
HETATM   37  S   UNL     1     -10.683  16.688  68.682  1.00  0.00    -0.353 S  
HETATM   38  C   UNL     1      -9.047  16.155  69.140  1.00  0.00    -0.243 C  
HETATM   39  O   UNL     1     -11.298  15.684  67.845  1.00  0.00    -0.344 OA 
HETATM   40  O   UNL     1     -10.591  18.069  68.257  1.00  0.00    -0.363 OA 
ENDBRANCH  35  37
ENDBRANCH  24  35
ENDBRANCH  20  22
ENDBRANCH  17  20
ENDBRANCH  13  14
ENDBRANCH  12  13
ENDBRANCH  11  12
ENDBRANCH  10  11
ENDBRANCH   5  10
ENDBRANCH   4   5
ENDBRANCH   3   4
ENDBRANCH   2   3
TORSDOF 18
ENDMDL
MODEL       45
REMARK 921   NORMALIZED FREE ENERGY PREDICTED BY IDOCK:   -5.16 KCAL/MOL
REMARK 922        TOTAL FREE ENERGY PREDICTED BY IDOCK:  -13.32 KCAL/MOL
REMARK 923 INTER-LIGAND FREE ENERGY PREDICTED BY IDOCK:   -9.83 KCAL/MOL
REMARK 924 INTRA-LIGAND FREE ENERGY PREDICTED BY IDOCK:   -3.49 KCAL/MOL
REMARK 927      BINDING AFFINITY PREDICTED BY RF-SCORE:    0.00 PKD
ROOT
HETATM    1  C   UNL     1      -6.944  15.677  68.002  1.00  0.00    -0.141 C  
HETATM    2  C   UNL     1      -7.695  15.372  69.292  1.00  0.00    -0.221 C  
ENDROOT
BRANCH   2   3
HETATM    3  C   UNL     1      -9.145  15.841  69.184  1.00  0.00    -0.262 C  
BRANCH   3   4
HETATM    4  C   UNL     1      -9.329  17.188  68.468  1.00  0.00    -0.274 C  
BRANCH   4   5
HETATM    5  N   UNL     1     -10.413  17.310  67.460  1.00  0.00    -0.356 NA 
BRANCH   5   6
HETATM    6  C   UNL     1     -11.021  18.660  67.495  1.00  0.00    -0.180 C  
BRANCH   6   7
HETATM    7  C   UNL     1     -10.185  19.785  68.138  1.00  0.00    -0.577 C  
BRANCH   7   8
HETATM    8  C   UNL     1      -9.481  20.702  67.137  1.00  0.00    -0.505 C  
HETATM    9  C   UNL     1      -7.977  20.457  67.146  1.00  0.00    -0.379 C  
ENDBRANCH   7   8
ENDBRANCH   6   7
ENDBRANCH   5   6
BRANCH   5  10
HETATM   10  C   UNL     1      -9.864  17.016  66.112  1.00  0.00    -0.278 C  
BRANCH  10  11
HETATM   11  C   UNL     1     -10.905  16.637  65.049  1.00  0.00    -0.190 C  
BRANCH  11  12
HETATM   12  C   UNL     1     -10.953  15.128  64.838  1.00  0.00    -0.419 C  
BRANCH  12  13
HETATM   13  O   UNL     1     -11.694  14.521  65.900  1.00  0.00    -0.361 OA 
BRANCH  13  14
HETATM   14  C   UNL     1     -11.108  13.433  66.491  1.00  0.00    -0.297 A  
HETATM   15  C   UNL     1     -11.779  12.344  67.054  1.00  0.00    -0.423 A  
HETATM   16  C   UNL     1     -11.065  11.327  67.704  1.00  0.00    -0.336 A  
HETATM   17  C   UNL     1      -9.669  11.386  67.789  1.00  0.00    -0.184 A  
HETATM   18  C   UNL     1      -8.994  12.423  67.134  1.00  0.00    -0.195 A  
HETATM   19  C   UNL     1      -9.713  13.458  66.523  1.00  0.00    -0.284 A  
BRANCH  17  20
HETATM   20  C   UNL     1      -8.945  10.364  68.612  1.00  0.00    -0.146 C  
HETATM   21  O   UNL     1      -8.246  10.754  69.544  1.00  0.00    -0.091 OA 
BRANCH  20  22
HETATM   22  C   UNL     1      -9.056   8.949  68.251  1.00  0.00    -0.140 A  
HETATM   23  C   UNL     1      -8.730   8.400  67.012  1.00  0.00    -0.126 A  
HETATM   24  C   UNL     1     -10.584   6.413  70.706  1.00  0.00    -0.238 A  
HETATM   25  O   UNL     1      -8.938   7.050  67.029  1.00  0.00    -0.119 OA 
HETATM   26  C   UNL     1     -10.446   5.308  69.869  1.00  0.00    -0.351 A  
HETATM   27  C   UNL     1      -9.478   6.728  68.226  1.00  0.00    -0.125 A  
HETATM   28  C   UNL     1      -9.604   7.858  69.022  1.00  0.00    -0.155 A  
HETATM   29  C   UNL     1      -9.893   5.450  68.593  1.00  0.00    -0.204 A  
HETATM   30  C   UNL     1     -10.212   7.694  70.283  1.00  0.00    -0.205 A  
BRANCH  23  31
HETATM   31  C   UNL     1      -8.359   8.911  65.659  1.00  0.00    -0.144 C  
BRANCH  31  32
HETATM   32  C   UNL     1      -9.477   9.429  64.756  1.00  0.00    -0.088 C  
BRANCH  32  33
HETATM   33  C   UNL     1      -8.935  10.643  63.982  1.00  0.00    -0.210 C  
HETATM   34  C   UNL     1     -10.000  11.632  63.545  1.00  0.00    -0.429 C  
ENDBRANCH  32  33
ENDBRANCH  31  32
ENDBRANCH  23  31
BRANCH  24  35
HETATM   35  N   UNL     1     -11.122   6.267  72.018  1.00  0.00    -0.254 N  
HETATM   36  H   UNL     1     -12.101   6.480  72.211  1.00  0.00     0.000 HD 
BRANCH  35  37
HETATM   37  S   UNL     1     -10.092   5.731  73.243  1.00  0.00    -0.200 S  
HETATM   38  C   UNL     1     -10.917   4.241  73.764  1.00  0.00    -0.266 C  
HETATM   39  O   UNL     1      -8.798   5.397  72.693  1.00  0.00    -0.123 OA 
HETATM   40  O   UNL     1     -10.227   6.702  74.309  1.00  0.00    -0.349 OA 
ENDBRANCH  35  37
ENDBRANCH  24  35
ENDBRANCH  20  22
ENDBRANCH  17  20
ENDBRANCH  13  14
ENDBRANCH  12  13
ENDBRANCH  11  12
ENDBRANCH  10  11
ENDBRANCH   5  10
ENDBRANCH   4   5
ENDBRANCH   3   4
ENDBRANCH   2   3
TORSDOF 18
ENDMDL
MODEL       46
REMARK 921   NORMALIZED FREE ENERGY PREDICTED BY IDOCK:   -5.16 KCAL/MOL
REMARK 922        TOTAL FREE ENERGY PREDICTED BY IDOCK:  -13.31 KCAL/MOL
REMARK 923 INTER-LIGAND FREE ENERGY PREDICTED BY IDOCK:  -10.99 KCAL/MOL
REMARK 924 INTRA-LIGAND FREE ENERGY PREDICTED BY IDOCK:   -2.32 KCAL/MOL
REMARK 927      BINDING AFFINITY PREDICTED BY RF-SCORE:    0.00 PKD
ROOT
HETATM    1  C   UNL     1      -9.245  19.003  67.932  1.00  0.00    -0.345 C  
HETATM    2  C   UNL     1     -10.555  18.228  67.875  1.00  0.00    -0.392 C  
ENDROOT
BRANCH   2   3
HETATM    3  C   UNL     1     -10.564  17.124  68.933  1.00  0.00    -0.314 C  
BRANCH   3   4
HETATM    4  C   UNL     1     -11.737  16.140  68.819  1.00  0.00    -0.231 C  
BRANCH   4   5
HETATM    5  N   UNL     1     -11.603  14.805  69.456  1.00  0.00    -0.286 NA 
BRANCH   5   6
HETATM    6  C   UNL     1     -12.743  14.531  70.361  1.00  0.00    -0.322 C  
BRANCH   6   7
HETATM    7  C   UNL     1     -13.088  15.620  71.396  1.00  0.00    -0.559 C  
BRANCH   7   8
HETATM    8  C   UNL     1     -12.038  15.808  72.492  1.00  0.00    -0.591 C  
HETATM    9  C   UNL     1     -12.675  15.706  73.873  1.00  0.00    -0.737 C  
ENDBRANCH   7   8
ENDBRANCH   6   7
ENDBRANCH   5   6
BRANCH   5  10
HETATM   10  C   UNL     1     -11.512  13.765  68.399  1.00  0.00    -0.316 C  
BRANCH  10  11
HETATM   11  C   UNL     1     -11.974  14.208  67.003  1.00  0.00    -0.471 C  
BRANCH  11  12
HETATM   12  C   UNL     1     -12.029  13.026  66.041  1.00  0.00    -0.440 C  
BRANCH  12  13
HETATM   13  O   UNL     1     -10.769  12.891  65.378  1.00  0.00    -0.276 OA 
BRANCH  13  14
HETATM   14  C   UNL     1     -10.051  11.765  65.684  1.00  0.00    -0.243 A  
HETATM   15  C   UNL     1     -10.299  10.477  65.201  1.00  0.00    -0.310 A  
HETATM   16  C   UNL     1      -9.540   9.389  65.655  1.00  0.00    -0.345 A  
HETATM   17  C   UNL     1      -8.517   9.582  66.591  1.00  0.00    -0.136 A  
HETATM   18  C   UNL     1      -8.203  10.886  66.992  1.00  0.00    -0.134 A  
HETATM   19  C   UNL     1      -8.990  11.963  66.569  1.00  0.00    -0.199 A  
BRANCH  17  20
HETATM   20  C   UNL     1      -7.819   8.385  67.165  1.00  0.00    -0.100 C  
HETATM   21  O   UNL     1      -6.616   8.256  66.958  1.00  0.00    -0.056 OA 
BRANCH  20  22
HETATM   22  C   UNL     1      -8.600   7.394  67.909  1.00  0.00    -0.125 A  
HETATM   23  C   UNL     1      -8.665   6.031  67.621  1.00  0.00    -0.104 A  
HETATM   24  C   UNL     1     -10.923   8.475  70.777  1.00  0.00    -0.247 A  
HETATM   25  O   UNL     1      -9.471   5.400  68.526  1.00  0.00    -0.114 OA 
HETATM   26  C   UNL     1     -11.379   7.194  71.079  1.00  0.00    -0.310 A  
HETATM   27  C   UNL     1     -10.000   6.342  69.339  1.00  0.00    -0.159 A  
HETATM   28  C   UNL     1      -9.525   7.601  68.998  1.00  0.00    -0.150 A  
HETATM   29  C   UNL     1     -10.927   6.092  70.348  1.00  0.00    -0.399 A  
HETATM   30  C   UNL     1     -10.037   8.699  69.717  1.00  0.00    -0.199 A  
BRANCH  23  31
HETATM   31  C   UNL     1      -8.211   5.128  66.523  1.00  0.00    -0.108 C  
BRANCH  31  32
HETATM   32  C   UNL     1      -8.943   5.202  65.184  1.00  0.00    -0.129 C  
BRANCH  32  33
HETATM   33  C   UNL     1      -9.760   3.908  65.020  1.00  0.00    -0.192 C  
HETATM   34  C   UNL     1     -10.404   3.745  63.656  1.00  0.00    -0.232 C  
ENDBRANCH  32  33
ENDBRANCH  31  32
ENDBRANCH  23  31
BRANCH  24  35
HETATM   35  N   UNL     1     -11.360   9.599  71.538  1.00  0.00    -0.380 N  
HETATM   36  H   UNL     1     -10.778   9.989  72.279  1.00  0.00     0.000 HD 
BRANCH  35  37
HETATM   37  S   UNL     1     -12.870  10.264  71.177  1.00  0.00    -0.434 S  
HETATM   38  C   UNL     1     -13.957   8.941  71.665  1.00  0.00    -0.362 C  
HETATM   39  O   UNL     1     -13.114  11.419  72.010  1.00  0.00    -0.487 OA 
HETATM   40  O   UNL     1     -12.912  10.355  69.733  1.00  0.00    -0.059 OA 
ENDBRANCH  35  37
ENDBRANCH  24  35
ENDBRANCH  20  22
ENDBRANCH  17  20
ENDBRANCH  13  14
ENDBRANCH  12  13
ENDBRANCH  11  12
ENDBRANCH  10  11
ENDBRANCH   5  10
ENDBRANCH   4   5
ENDBRANCH   3   4
ENDBRANCH   2   3
TORSDOF 18
ENDMDL
MODEL       47
REMARK 921   NORMALIZED FREE ENERGY PREDICTED BY IDOCK:   -5.15 KCAL/MOL
REMARK 922        TOTAL FREE ENERGY PREDICTED BY IDOCK:  -13.30 KCAL/MOL
REMARK 923 INTER-LIGAND FREE ENERGY PREDICTED BY IDOCK:  -10.75 KCAL/MOL
REMARK 924 INTRA-LIGAND FREE ENERGY PREDICTED BY IDOCK:   -2.55 KCAL/MOL
REMARK 927      BINDING AFFINITY PREDICTED BY RF-SCORE:    0.00 PKD
ROOT
HETATM    1  C   UNL     1      -9.416  20.172  67.180  1.00  0.00    -0.537 C  
HETATM    2  C   UNL     1     -10.652  19.343  67.503  1.00  0.00    -0.591 C  
ENDROOT
BRANCH   2   3
HETATM    3  C   UNL     1     -10.290  18.198  68.449  1.00  0.00    -0.371 C  
BRANCH   3   4
HETATM    4  C   UNL     1     -11.165  16.944  68.299  1.00  0.00    -0.105 C  
BRANCH   4   5
HETATM    5  N   UNL     1     -10.927  15.803  69.218  1.00  0.00    -0.259 NA 
BRANCH   5   6
HETATM    6  C   UNL     1     -12.043  15.654  70.181  1.00  0.00    -0.377 C  
BRANCH   6   7
HETATM    7  C   UNL     1     -11.694  15.776  71.677  1.00  0.00    -0.542 C  
BRANCH   7   8
HETATM    8  C   UNL     1     -12.859  15.488  72.626  1.00  0.00    -0.524 C  
HETATM    9  C   UNL     1     -12.505  15.889  74.052  1.00  0.00    -0.764 C  
ENDBRANCH   7   8
ENDBRANCH   6   7
ENDBRANCH   5   6
BRANCH   5  10
HETATM   10  C   UNL     1     -10.751  14.561  68.423  1.00  0.00    -0.243 C  
BRANCH  10  11
HETATM   11  C   UNL     1     -12.034  13.755  68.174  1.00  0.00    -0.394 C  
BRANCH  11  12
HETATM   12  C   UNL     1     -11.822  12.275  68.476  1.00  0.00    -0.307 C  
BRANCH  12  13
HETATM   13  O   UNL     1     -11.313  11.620  67.312  1.00  0.00    -0.293 OA 
BRANCH  13  14
HETATM   14  C   UNL     1     -10.454  10.578  67.541  1.00  0.00    -0.239 A  
HETATM   15  C   UNL     1     -10.444   9.356  66.862  1.00  0.00    -0.281 A  
HETATM   16  C   UNL     1      -9.563   8.335  67.248  1.00  0.00    -0.215 A  
HETATM   17  C   UNL     1      -8.675   8.531  68.312  1.00  0.00    -0.143 A  
HETATM   18  C   UNL     1      -8.615   9.790  68.921  1.00  0.00    -0.134 A  
HETATM   19  C   UNL     1      -9.525  10.792  68.561  1.00  0.00    -0.181 A  
BRANCH  17  20
HETATM   20  C   UNL     1      -7.850   7.377  68.794  1.00  0.00    -0.121 C  
HETATM   21  O   UNL     1      -6.650   7.368  68.533  1.00  0.00    -0.046 OA 
BRANCH  20  22
HETATM   22  C   UNL     1      -8.505   6.282  69.514  1.00  0.00    -0.129 A  
HETATM   23  C   UNL     1      -8.306   4.922  69.279  1.00  0.00    -0.084 A  
HETATM   24  C   UNL     1     -11.216   7.010  72.144  1.00  0.00    -0.256 A  
HETATM   25  O   UNL     1      -9.063   4.183  70.142  1.00  0.00    -0.092 OA 
HETATM   26  C   UNL     1     -11.464   5.677  72.461  1.00  0.00    -0.335 A  
HETATM   27  C   UNL     1      -9.816   5.037  70.872  1.00  0.00    -0.205 A  
HETATM   28  C   UNL     1      -9.541   6.350  70.517  1.00  0.00    -0.179 A  
HETATM   29  C   UNL     1     -10.766   4.653  71.814  1.00  0.00     0.013 A  
HETATM   30  C   UNL     1     -10.296   7.360  71.148  1.00  0.00    -0.209 A  
BRANCH  23  31
HETATM   31  C   UNL     1      -7.610   4.086  68.258  1.00  0.00    -0.066 C  
BRANCH  31  32
HETATM   32  C   UNL     1      -7.793   4.450  66.785  1.00  0.00    -0.098 C  
BRANCH  32  33
HETATM   33  C   UNL     1      -9.085   3.777  66.290  1.00  0.00    -0.152 C  
HETATM   34  C   UNL     1     -10.261   4.723  66.133  1.00  0.00    -0.313 C  
ENDBRANCH  32  33
ENDBRANCH  31  32
ENDBRANCH  23  31
BRANCH  24  35
HETATM   35  N   UNL     1     -11.905   8.058  72.821  1.00  0.00    -0.595 N  
HETATM   36  H   UNL     1     -11.533   8.461  73.681  1.00  0.00     0.000 HD 
BRANCH  35  37
HETATM   37  S   UNL     1     -13.357   8.611  72.159  1.00  0.00    -0.396 S  
HETATM   38  C   UNL     1     -12.811  10.072  71.299  1.00  0.00    -0.402 C  
HETATM   39  O   UNL     1     -13.864   7.652  71.205  1.00  0.00    -0.326 OA 
HETATM   40  O   UNL     1     -14.154   9.041  73.289  1.00  0.00    -0.261 OA 
ENDBRANCH  35  37
ENDBRANCH  24  35
ENDBRANCH  20  22
ENDBRANCH  17  20
ENDBRANCH  13  14
ENDBRANCH  12  13
ENDBRANCH  11  12
ENDBRANCH  10  11
ENDBRANCH   5  10
ENDBRANCH   4   5
ENDBRANCH   3   4
ENDBRANCH   2   3
TORSDOF 18
ENDMDL
MODEL       48
REMARK 921   NORMALIZED FREE ENERGY PREDICTED BY IDOCK:   -5.15 KCAL/MOL
REMARK 922        TOTAL FREE ENERGY PREDICTED BY IDOCK:  -13.28 KCAL/MOL
REMARK 923 INTER-LIGAND FREE ENERGY PREDICTED BY IDOCK:  -10.04 KCAL/MOL
REMARK 924 INTRA-LIGAND FREE ENERGY PREDICTED BY IDOCK:   -3.24 KCAL/MOL
REMARK 927      BINDING AFFINITY PREDICTED BY RF-SCORE:    0.00 PKD
ROOT
HETATM    1  C   UNL     1     -12.941  10.597  71.519  1.00  0.00    -0.566 C  
HETATM    2  C   UNL     1     -13.367   9.302  72.200  1.00  0.00    -0.537 C  
ENDROOT
BRANCH   2   3
HETATM    3  C   UNL     1     -12.176   8.352  72.323  1.00  0.00    -0.449 C  
BRANCH   3   4
HETATM    4  C   UNL     1     -10.824   8.968  71.933  1.00  0.00    -0.343 C  
BRANCH   4   5
HETATM    5  N   UNL     1      -9.794   8.086  71.329  1.00  0.00    -0.161 NA 
BRANCH   5   6
HETATM    6  C   UNL     1      -8.458   8.351  71.912  1.00  0.00    -0.177 C  
BRANCH   6   7
HETATM    7  C   UNL     1      -7.238   7.840  71.121  1.00  0.00    -0.061 C  
BRANCH   7   8
HETATM    8  C   UNL     1      -6.842   8.716  69.931  1.00  0.00    -0.042 C  
HETATM    9  C   UNL     1      -7.286  10.157  70.150  1.00  0.00    -0.162 C  
ENDBRANCH   7   8
ENDBRANCH   6   7
ENDBRANCH   5   6
BRANCH   5  10
HETATM   10  C   UNL     1     -10.183   6.667  71.534  1.00  0.00    -0.197 C  
BRANCH  10  11
HETATM   11  C   UNL     1     -10.061   5.769  70.293  1.00  0.00    -0.273 C  
BRANCH  11  12
HETATM   12  C   UNL     1     -10.876   6.325  69.130  1.00  0.00    -0.340 C  
BRANCH  12  13
HETATM   13  O   UNL     1     -10.040   6.443  67.976  1.00  0.00    -0.132 OA 
BRANCH  13  14
HETATM   14  C   UNL     1      -9.770   7.722  67.564  1.00  0.00    -0.158 A  
HETATM   15  C   UNL     1      -8.642   8.133  66.848  1.00  0.00    -0.126 A  
HETATM   16  C   UNL     1      -8.441   9.489  66.554  1.00  0.00    -0.130 A  
HETATM   17  C   UNL     1      -9.374  10.448  66.967  1.00  0.00    -0.176 A  
HETATM   18  C   UNL     1     -10.552  10.022  67.591  1.00  0.00    -0.323 A  
HETATM   19  C   UNL     1     -10.728   8.672  67.919  1.00  0.00    -0.158 A  
BRANCH  17  20
HETATM   20  C   UNL     1      -9.062  11.901  66.767  1.00  0.00    -0.197 C  
HETATM   21  O   UNL     1      -8.205  12.417  67.478  1.00  0.00    -0.152 OA 
BRANCH  20  22
HETATM   22  C   UNL     1      -9.820  12.662  65.770  1.00  0.00    -0.236 A  
HETATM   23  C   UNL     1     -10.277  12.168  64.549  1.00  0.00    -0.293 A  
HETATM   24  C   UNL     1     -10.493  16.416  66.264  1.00  0.00    -0.293 A  
HETATM   25  O   UNL     1     -10.960  13.141  63.878  1.00  0.00    -0.381 OA 
HETATM   26  C   UNL     1     -11.196  16.589  65.075  1.00  0.00    -0.091 A  
HETATM   27  C   UNL     1     -10.877  14.282  64.600  1.00  0.00    -0.368 A  
HETATM   28  C   UNL     1     -10.163  14.064  65.770  1.00  0.00    -0.343 A  
HETATM   29  C   UNL     1     -11.394  15.513  64.205  1.00  0.00    -0.165 A  
HETATM   30  C   UNL     1      -9.934  15.178  66.603  1.00  0.00    -0.261 A  
BRANCH  23  31
HETATM   31  C   UNL     1     -10.095  10.927  63.740  1.00  0.00    -0.413 C  
BRANCH  31  32
HETATM   32  C   UNL     1      -9.116  10.971  62.567  1.00  0.00    -0.362 C  
BRANCH  32  33
HETATM   33  C   UNL     1      -7.727  10.571  63.096  1.00  0.00    -0.048 C  
HETATM   34  C   UNL     1      -7.439   9.082  63.030  1.00  0.00    -0.101 C  
ENDBRANCH  32  33
ENDBRANCH  31  32
ENDBRANCH  23  31
BRANCH  24  35
HETATM   35  N   UNL     1     -10.314  17.504  67.167  1.00  0.00    -0.329 N  
HETATM   36  H   UNL     1     -10.651  17.450  68.128  1.00  0.00     0.000 HD 
BRANCH  35  37
HETATM   37  S   UNL     1      -9.528  18.886  66.598  1.00  0.00    -0.345 S  
HETATM   38  C   UNL     1      -8.787  19.505  68.094  1.00  0.00    -0.330 C  
HETATM   39  O   UNL     1      -8.490  18.517  65.664  1.00  0.00    -0.348 OA 
HETATM   40  O   UNL     1     -10.586  19.801  66.223  1.00  0.00    -0.472 OA 
ENDBRANCH  35  37
ENDBRANCH  24  35
ENDBRANCH  20  22
ENDBRANCH  17  20
ENDBRANCH  13  14
ENDBRANCH  12  13
ENDBRANCH  11  12
ENDBRANCH  10  11
ENDBRANCH   5  10
ENDBRANCH   4   5
ENDBRANCH   3   4
ENDBRANCH   2   3
TORSDOF 18
ENDMDL
MODEL       49
REMARK 921   NORMALIZED FREE ENERGY PREDICTED BY IDOCK:   -5.14 KCAL/MOL
REMARK 922        TOTAL FREE ENERGY PREDICTED BY IDOCK:  -13.27 KCAL/MOL
REMARK 923 INTER-LIGAND FREE ENERGY PREDICTED BY IDOCK:   -9.79 KCAL/MOL
REMARK 924 INTRA-LIGAND FREE ENERGY PREDICTED BY IDOCK:   -3.48 KCAL/MOL
REMARK 927      BINDING AFFINITY PREDICTED BY RF-SCORE:    0.00 PKD
ROOT
HETATM    1  C   UNL     1     -12.126  14.236  70.729  1.00  0.00    -0.418 C  
HETATM    2  C   UNL     1     -11.433  13.820  69.438  1.00  0.00    -0.341 C  
ENDROOT
BRANCH   2   3
HETATM    3  C   UNL     1     -12.011  14.594  68.253  1.00  0.00    -0.282 C  
BRANCH   3   4
HETATM    4  C   UNL     1     -11.793  13.927  66.887  1.00  0.00    -0.423 C  
BRANCH   4   5
HETATM    5  N   UNL     1     -11.555  14.796  65.707  1.00  0.00    -0.327 NA 
BRANCH   5   6
HETATM    6  C   UNL     1     -10.114  15.101  65.552  1.00  0.00    -0.370 C  
BRANCH   6   7
HETATM    7  C   UNL     1      -9.604  16.405  66.197  1.00  0.00    -0.356 C  
BRANCH   7   8
HETATM    8  C   UNL     1      -8.738  16.201  67.441  1.00  0.00    -0.194 C  
HETATM    9  C   UNL     1      -9.262  17.033  68.605  1.00  0.00    -0.266 C  
ENDBRANCH   7   8
ENDBRANCH   6   7
ENDBRANCH   5   6
BRANCH   5  10
HETATM   10  C   UNL     1     -12.083  14.127  64.491  1.00  0.00    -0.468 C  
BRANCH  10  11
HETATM   11  C   UNL     1     -12.498  12.660  64.678  1.00  0.00    -0.538 C  
BRANCH  11  12
HETATM   12  C   UNL     1     -11.658  11.734  63.806  1.00  0.00    -0.413 C  
BRANCH  12  13
HETATM   13  O   UNL     1     -10.272  12.033  63.991  1.00  0.00    -0.315 OA 
BRANCH  13  14
HETATM   14  C   UNL     1      -9.604  11.240  64.886  1.00  0.00    -0.232 A  
HETATM   15  C   UNL     1      -9.310  11.566  66.213  1.00  0.00    -0.227 A  
HETATM   16  C   UNL     1      -8.547  10.698  67.007  1.00  0.00    -0.128 A  
HETATM   17  C   UNL     1      -8.077   9.488  66.482  1.00  0.00    -0.112 A  
HETATM   18  C   UNL     1      -8.462   9.117  65.188  1.00  0.00    -0.182 A  
HETATM   19  C   UNL     1      -9.188  10.005  64.385  1.00  0.00    -0.316 A  
BRANCH  17  20
HETATM   20  C   UNL     1      -7.146   8.649  67.304  1.00  0.00    -0.079 C  
HETATM   21  O   UNL     1      -5.984   9.025  67.434  1.00  0.00    -0.049 OA 
BRANCH  20  22
HETATM   22  C   UNL     1      -7.636   7.395  67.881  1.00  0.00    -0.114 A  
HETATM   23  C   UNL     1      -7.042   6.143  67.723  1.00  0.00    -0.081 A  
HETATM   24  C   UNL     1     -10.955   7.293  69.820  1.00  0.00    -0.216 A  
HETATM   25  O   UNL     1      -7.751   5.200  68.410  1.00  0.00    -0.078 OA 
HETATM   26  C   UNL     1     -10.912   5.929  70.100  1.00  0.00    -0.412 A  
HETATM   27  C   UNL     1      -8.843   5.801  68.935  1.00  0.00    -0.110 A  
HETATM   28  C   UNL     1      -8.849   7.154  68.624  1.00  0.00    -0.126 A  
HETATM   29  C   UNL     1      -9.845   5.147  69.647  1.00  0.00    -0.286 A  
HETATM   30  C   UNL     1      -9.962   7.908  69.049  1.00  0.00    -0.188 A  
BRANCH  23  31
HETATM   31  C   UNL     1      -5.943   5.556  66.901  1.00  0.00    -0.018 C  
BRANCH  31  32
HETATM   32  C   UNL     1      -6.320   4.828  65.613  1.00  0.00    -0.035 C  
BRANCH  32  33
HETATM   33  C   UNL     1      -6.662   5.890  64.553  1.00  0.00    -0.046 C  
HETATM   34  C   UNL     1      -8.111   5.878  64.100  1.00  0.00    -0.110 C  
ENDBRANCH  32  33
ENDBRANCH  31  32
ENDBRANCH  23  31
BRANCH  24  35
HETATM   35  N   UNL     1     -12.026   8.099  70.304  1.00  0.00    -0.410 N  
HETATM   36  H   UNL     1     -12.956   8.043  69.887  1.00  0.00     0.000 HD 
BRANCH  35  37
HETATM   37  S   UNL     1     -11.712   9.151  71.587  1.00  0.00    -0.398 S  
HETATM   38  C   UNL     1     -13.298   9.196  72.396  1.00  0.00    -0.463 C  
HETATM   39  O   UNL     1     -10.734   8.568  72.477  1.00  0.00    -0.332 OA 
HETATM   40  O   UNL     1     -11.495  10.446  70.977  1.00  0.00    -0.328 OA 
ENDBRANCH  35  37
ENDBRANCH  24  35
ENDBRANCH  20  22
ENDBRANCH  17  20
ENDBRANCH  13  14
ENDBRANCH  12  13
ENDBRANCH  11  12
ENDBRANCH  10  11
ENDBRANCH   5  10
ENDBRANCH   4   5
ENDBRANCH   3   4
ENDBRANCH   2   3
TORSDOF 18
ENDMDL
MODEL       50
REMARK 921   NORMALIZED FREE ENERGY PREDICTED BY IDOCK:   -5.14 KCAL/MOL
REMARK 922        TOTAL FREE ENERGY PREDICTED BY IDOCK:  -13.27 KCAL/MOL
REMARK 923 INTER-LIGAND FREE ENERGY PREDICTED BY IDOCK:  -10.22 KCAL/MOL
REMARK 924 INTRA-LIGAND FREE ENERGY PREDICTED BY IDOCK:   -3.05 KCAL/MOL
REMARK 927      BINDING AFFINITY PREDICTED BY RF-SCORE:    0.00 PKD
ROOT
HETATM    1  C   UNL     1      -6.899  14.659  69.342  1.00  0.00    -0.159 C  
HETATM    2  C   UNL     1      -6.721  14.340  67.863  1.00  0.00    -0.177 C  
ENDROOT
BRANCH   2   3
HETATM    3  C   UNL     1      -8.077  14.054  67.216  1.00  0.00    -0.174 C  
BRANCH   3   4
HETATM    4  C   UNL     1      -8.811  15.299  66.696  1.00  0.00    -0.293 C  
BRANCH   4   5
HETATM    5  N   UNL     1     -10.296  15.303  66.718  1.00  0.00    -0.273 NA 
BRANCH   5   6
HETATM    6  C   UNL     1     -10.807  15.855  67.994  1.00  0.00    -0.317 C  
BRANCH   6   7
HETATM    7  C   UNL     1     -11.226  14.839  69.075  1.00  0.00    -0.286 C  
BRANCH   7   8
HETATM    8  C   UNL     1     -11.238  15.397  70.499  1.00  0.00    -0.358 C  
HETATM    9  C   UNL     1     -12.662  15.484  71.032  1.00  0.00    -0.526 C  
ENDBRANCH   7   8
ENDBRANCH   6   7
ENDBRANCH   5   6
BRANCH   5  10
HETATM   10  C   UNL     1     -10.801  16.092  65.566  1.00  0.00    -0.270 C  
BRANCH  10  11
HETATM   11  C   UNL     1     -11.526  15.279  64.482  1.00  0.00    -0.318 C  
BRANCH  11  12
HETATM   12  C   UNL     1     -12.750  14.572  65.052  1.00  0.00    -0.144 C  
BRANCH  12  13
HETATM   13  O   UNL     1     -12.836  13.253  64.506  1.00  0.00    -0.665 OA 
BRANCH  13  14
HETATM   14  C   UNL     1     -11.854  12.381  64.895  1.00  0.00    -0.386 A  
HETATM   15  C   UNL     1     -11.513  12.063  66.212  1.00  0.00    -0.408 A  
HETATM   16  C   UNL     1     -10.429  11.214  66.482  1.00  0.00    -0.305 A  
HETATM   17  C   UNL     1      -9.682  10.666  65.432  1.00  0.00    -0.306 A  
HETATM   18  C   UNL     1     -10.091  10.902  64.114  1.00  0.00    -0.416 A  
HETATM   19  C   UNL     1     -11.147  11.784  63.850  1.00  0.00    -0.482 A  
BRANCH  17  20
HETATM   20  C   UNL     1      -8.445   9.881  65.750  1.00  0.00    -0.135 C  
HETATM   21  O   UNL     1      -7.406  10.496  65.976  1.00  0.00    -0.128 OA 
BRANCH  20  22
HETATM   22  C   UNL     1      -8.506   8.418  65.735  1.00  0.00    -0.169 A  
HETATM   23  C   UNL     1      -7.855   7.588  64.822  1.00  0.00    -0.126 A  
HETATM   24  C   UNL     1     -10.790   6.523  68.181  1.00  0.00    -0.295 A  
HETATM   25  O   UNL     1      -8.116   6.280  65.111  1.00  0.00    -0.120 OA 
HETATM   26  C   UNL     1     -10.461   5.250  67.722  1.00  0.00    -0.164 A  
HETATM   27  C   UNL     1      -8.995   6.248  66.138  1.00  0.00    -0.153 A  
HETATM   28  C   UNL     1      -9.300   7.536  66.556  1.00  0.00    -0.231 A  
HETATM   29  C   UNL     1      -9.553   5.089  66.671  1.00  0.00    -0.166 A  
HETATM   30  C   UNL     1     -10.257   7.670  67.582  1.00  0.00    -0.277 A  
BRANCH  23  31
HETATM   31  C   UNL     1      -7.084   7.759  63.556  1.00  0.00    -0.075 C  
BRANCH  31  32
HETATM   32  C   UNL     1      -7.566   8.811  62.558  1.00  0.00    -0.113 C  
BRANCH  32  33
HETATM   33  C   UNL     1      -6.529   9.948  62.534  1.00  0.00    -0.111 C  
HETATM   34  C   UNL     1      -5.262   9.655  63.315  1.00  0.00    -0.074 C  
ENDBRANCH  32  33
ENDBRANCH  31  32
ENDBRANCH  23  31
BRANCH  24  35
HETATM   35  N   UNL     1     -11.694   6.690  69.270  1.00  0.00    -0.628 N  
HETATM   36  H   UNL     1     -12.702   6.611  69.134  1.00  0.00     0.000 HD 
BRANCH  35  37
HETATM   37  S   UNL     1     -11.047   7.024  70.794  1.00  0.00    -0.287 S  
HETATM   38  C   UNL     1      -9.690   5.874  70.855  1.00  0.00    -0.172 C  
HETATM   39  O   UNL     1     -10.535   8.375  70.830  1.00  0.00    -0.192 OA 
HETATM   40  O   UNL     1     -12.046   6.574  71.741  1.00  0.00    -0.338 OA 
ENDBRANCH  35  37
ENDBRANCH  24  35
ENDBRANCH  20  22
ENDBRANCH  17  20
ENDBRANCH  13  14
ENDBRANCH  12  13
ENDBRANCH  11  12
ENDBRANCH  10  11
ENDBRANCH   5  10
ENDBRANCH   4   5
ENDBRANCH   3   4
ENDBRANCH   2   3
TORSDOF 18
ENDMDL
MODEL       51
REMARK 921   NORMALIZED FREE ENERGY PREDICTED BY IDOCK:   -5.14 KCAL/MOL
REMARK 922        TOTAL FREE ENERGY PREDICTED BY IDOCK:  -13.26 KCAL/MOL
REMARK 923 INTER-LIGAND FREE ENERGY PREDICTED BY IDOCK:   -9.34 KCAL/MOL
REMARK 924 INTRA-LIGAND FREE ENERGY PREDICTED BY IDOCK:   -3.92 KCAL/MOL
REMARK 927      BINDING AFFINITY PREDICTED BY RF-SCORE:    0.00 PKD
ROOT
HETATM    1  C   UNL     1     -12.646  13.840  65.713  1.00  0.00    -0.525 C  
HETATM    2  C   UNL     1     -11.509  14.527  66.459  1.00  0.00    -0.366 C  
ENDROOT
BRANCH   2   3
HETATM    3  C   UNL     1     -10.888  13.571  67.476  1.00  0.00    -0.276 C  
BRANCH   3   4
HETATM    4  C   UNL     1     -11.884  12.968  68.477  1.00  0.00    -0.325 C  
BRANCH   4   5
HETATM    5  N   UNL     1     -12.035  11.491  68.522  1.00  0.00    -0.529 NA 
BRANCH   5   6
HETATM    6  C   UNL     1     -11.285  10.847  67.418  1.00  0.00    -0.273 C  
BRANCH   6   7
HETATM    7  C   UNL     1     -10.663   9.467  67.712  1.00  0.00    -0.302 C  
BRANCH   7   8
HETATM    8  C   UNL     1     -10.014   8.794  66.500  1.00  0.00    -0.360 C  
HETATM    9  C   UNL     1      -9.832   7.302  66.746  1.00  0.00    -0.281 C  
ENDBRANCH   7   8
ENDBRANCH   6   7
ENDBRANCH   5   6
BRANCH   5  10
HETATM   10  C   UNL     1     -11.565  10.990  69.838  1.00  0.00    -0.337 C  
BRANCH  10  11
HETATM   11  C   UNL     1     -12.641  10.908  70.931  1.00  0.00    -0.494 C  
BRANCH  11  12
HETATM   12  C   UNL     1     -13.098   9.469  71.146  1.00  0.00    -0.265 C  
BRANCH  12  13
HETATM   13  O   UNL     1     -12.312   8.869  72.179  1.00  0.00    -0.357 OA 
BRANCH  13  14
HETATM   14  C   UNL     1     -11.720   7.675  71.861  1.00  0.00    -0.289 A  
HETATM   15  C   UNL     1     -11.043   6.832  72.746  1.00  0.00    -0.292 A  
HETATM   16  C   UNL     1     -10.408   5.673  72.280  1.00  0.00    -0.250 A  
HETATM   17  C   UNL     1     -10.453   5.339  70.921  1.00  0.00    -0.285 A  
HETATM   18  C   UNL     1     -11.220   6.128  70.055  1.00  0.00    -0.471 A  
HETATM   19  C   UNL     1     -11.817   7.308  70.518  1.00  0.00    -0.237 A  
BRANCH  17  20
HETATM   20  C   UNL     1      -9.646   4.176  70.429  1.00  0.00    -0.196 C  
HETATM   21  O   UNL     1      -9.855   3.071  70.922  1.00  0.00    -0.140 OA 
BRANCH  20  22
HETATM   22  C   UNL     1      -8.611   4.402  69.417  1.00  0.00    -0.107 A  
HETATM   23  C   UNL     1      -7.480   5.201  69.579  1.00  0.00    -0.057 A  
HETATM   24  C   UNL     1      -8.985   2.960  65.871  1.00  0.00    -0.145 A  
HETATM   25  O   UNL     1      -6.721   5.173  68.444  1.00  0.00    -0.051 OA 
HETATM   26  C   UNL     1      -7.786   3.475  65.384  1.00  0.00    -0.081 A  
HETATM   27  C   UNL     1      -7.385   4.444  67.518  1.00  0.00    -0.069 A  
HETATM   28  C   UNL     1      -8.574   3.959  68.044  1.00  0.00    -0.112 A  
HETATM   29  C   UNL     1      -6.959   4.245  66.207  1.00  0.00    -0.066 A  
HETATM   30  C   UNL     1      -9.412   3.229  67.177  1.00  0.00    -0.178 A  
BRANCH  23  31
HETATM   31  C   UNL     1      -6.968   6.170  70.593  1.00  0.00    -0.064 C  
BRANCH  31  32
HETATM   32  C   UNL     1      -6.686   7.601  70.139  1.00  0.00    -0.049 C  
BRANCH  32  33
HETATM   33  C   UNL     1      -8.031   8.258  69.782  1.00  0.00    -0.106 C  
HETATM   34  C   UNL     1      -8.607   9.137  70.877  1.00  0.00    -0.259 C  
ENDBRANCH  32  33
ENDBRANCH  31  32
ENDBRANCH  23  31
BRANCH  24  35
HETATM   35  N   UNL     1      -9.817   2.151  65.044  1.00  0.00    -0.336 N  
HETATM   36  H   UNL     1      -9.903   1.148  65.207  1.00  0.00     0.000 HD 
BRANCH  35  37
HETATM   37  S   UNL     1     -10.654   2.902  63.784  1.00  0.00    -0.118 S  
HETATM   38  C   UNL     1      -9.338   3.204  62.623  1.00  0.00    -0.090 C  
HETATM   39  O   UNL     1     -11.606   1.983  63.204  1.00  0.00    -0.343 OA 
HETATM   40  O   UNL     1     -11.073   4.183  64.313  1.00  0.00    -0.259 OA 
ENDBRANCH  35  37
ENDBRANCH  24  35
ENDBRANCH  20  22
ENDBRANCH  17  20
ENDBRANCH  13  14
ENDBRANCH  12  13
ENDBRANCH  11  12
ENDBRANCH  10  11
ENDBRANCH   5  10
ENDBRANCH   4   5
ENDBRANCH   3   4
ENDBRANCH   2   3
TORSDOF 18
ENDMDL
MODEL       52
REMARK 921   NORMALIZED FREE ENERGY PREDICTED BY IDOCK:   -5.13 KCAL/MOL
REMARK 922        TOTAL FREE ENERGY PREDICTED BY IDOCK:  -13.25 KCAL/MOL
REMARK 923 INTER-LIGAND FREE ENERGY PREDICTED BY IDOCK:  -10.01 KCAL/MOL
REMARK 924 INTRA-LIGAND FREE ENERGY PREDICTED BY IDOCK:   -3.24 KCAL/MOL
REMARK 927      BINDING AFFINITY PREDICTED BY RF-SCORE:    0.00 PKD
ROOT
HETATM    1  C   UNL     1     -13.809   7.758  71.589  1.00  0.00    -0.465 C  
HETATM    2  C   UNL     1     -12.706   8.509  72.324  1.00  0.00    -0.420 C  
ENDROOT
BRANCH   2   3
HETATM    3  C   UNL     1     -11.679   7.526  72.886  1.00  0.00    -0.159 C  
BRANCH   3   4
HETATM    4  C   UNL     1     -10.219   7.986  72.761  1.00  0.00    -0.319 C  
BRANCH   4   5
HETATM    5  N   UNL     1      -9.148   6.958  72.807  1.00  0.00    -0.134 NA 
BRANCH   5   6
HETATM    6  C   UNL     1      -9.589   5.702  72.158  1.00  0.00    -0.149 C  
BRANCH   6   7
HETATM    7  C   UNL     1      -9.550   5.663  70.618  1.00  0.00    -0.213 C  
BRANCH   7   8
HETATM    8  C   UNL     1     -10.920   5.522  69.952  1.00  0.00    -0.192 C  
HETATM    9  C   UNL     1     -10.924   6.184  68.579  1.00  0.00    -0.404 C  
ENDBRANCH   7   8
ENDBRANCH   6   7
ENDBRANCH   5   6
BRANCH   5  10
HETATM   10  C   UNL     1      -7.929   7.490  72.147  1.00  0.00    -0.098 C  
BRANCH  10  11
HETATM   11  C   UNL     1      -8.147   8.735  71.274  1.00  0.00    -0.195 C  
BRANCH  11  12
HETATM   12  C   UNL     1      -7.677   8.493  69.844  1.00  0.00    -0.091 C  
BRANCH  12  13
HETATM   13  O   UNL     1      -8.796   8.568  68.956  1.00  0.00    -0.143 OA 
BRANCH  13  14
HETATM   14  C   UNL     1      -9.533   9.721  69.020  1.00  0.00    -0.173 A  
HETATM   15  C   UNL     1     -10.899   9.807  69.301  1.00  0.00    -0.240 A  
HETATM   16  C   UNL     1     -11.558  11.044  69.257  1.00  0.00    -0.384 A  
HETATM   17  C   UNL     1     -10.852  12.211  68.939  1.00  0.00    -0.241 A  
HETATM   18  C   UNL     1      -9.465  12.136  68.762  1.00  0.00     0.048 A  
HETATM   19  C   UNL     1      -8.820  10.893  68.765  1.00  0.00    -0.162 A  
BRANCH  17  20
HETATM   20  C   UNL     1     -11.606  13.493  68.758  1.00  0.00    -0.325 C  
HETATM   21  O   UNL     1     -12.381  13.845  69.644  1.00  0.00    -0.328 OA 
BRANCH  20  22
HETATM   22  C   UNL     1     -11.432  14.254  67.519  1.00  0.00    -0.368 A  
HETATM   23  C   UNL     1     -11.841  13.843  66.250  1.00  0.00    -0.408 A  
HETATM   24  C   UNL     1      -9.493  17.575  67.511  1.00  0.00    -0.255 A  
HETATM   25  O   UNL     1     -11.538  14.803  65.327  1.00  0.00    -0.349 OA 
HETATM   26  C   UNL     1      -9.635  17.817  66.146  1.00  0.00    -0.202 A  
HETATM   27  C   UNL     1     -10.860  15.788  65.959  1.00  0.00    -0.255 A  
HETATM   28  C   UNL     1     -10.735  15.501  67.311  1.00  0.00    -0.308 A  
HETATM   29  C   UNL     1     -10.322  16.910  65.334  1.00  0.00    -0.126 A  
HETATM   30  C   UNL     1      -9.994  16.407  68.097  1.00  0.00    -0.242 A  
BRANCH  23  31
HETATM   31  C   UNL     1     -12.379  12.596  65.632  1.00  0.00    -0.390 C  
BRANCH  31  32
HETATM   32  C   UNL     1     -11.681  12.051  64.388  1.00  0.00    -0.399 C  
BRANCH  32  33
HETATM   33  C   UNL     1     -10.180  11.928  64.705  1.00  0.00    -0.316 C  
HETATM   34  C   UNL     1      -9.776  10.595  65.307  1.00  0.00    -0.315 C  
ENDBRANCH  32  33
ENDBRANCH  31  32
ENDBRANCH  23  31
BRANCH  24  35
HETATM   35  N   UNL     1      -8.818  18.512  68.347  1.00  0.00    -0.316 N  
HETATM   36  H   UNL     1      -9.317  19.298  68.763  1.00  0.00     0.000 HD 
BRANCH  35  37
HETATM   37  S   UNL     1      -7.169  18.281  68.628  1.00  0.00    -0.285 S  
HETATM   38  C   UNL     1      -6.800  19.667  69.684  1.00  0.00    -0.273 C  
HETATM   39  O   UNL     1      -6.957  17.052  69.357  1.00  0.00    -0.226 OA 
HETATM   40  O   UNL     1      -6.527  18.520  67.352  1.00  0.00    -0.191 OA 
ENDBRANCH  35  37
ENDBRANCH  24  35
ENDBRANCH  20  22
ENDBRANCH  17  20
ENDBRANCH  13  14
ENDBRANCH  12  13
ENDBRANCH  11  12
ENDBRANCH  10  11
ENDBRANCH   5  10
ENDBRANCH   4   5
ENDBRANCH   3   4
ENDBRANCH   2   3
TORSDOF 18
ENDMDL
MODEL       53
REMARK 921   NORMALIZED FREE ENERGY PREDICTED BY IDOCK:   -5.12 KCAL/MOL
REMARK 922        TOTAL FREE ENERGY PREDICTED BY IDOCK:  -13.24 KCAL/MOL
REMARK 923 INTER-LIGAND FREE ENERGY PREDICTED BY IDOCK:  -11.05 KCAL/MOL
REMARK 924 INTRA-LIGAND FREE ENERGY PREDICTED BY IDOCK:   -2.19 KCAL/MOL
REMARK 927      BINDING AFFINITY PREDICTED BY RF-SCORE:    0.00 PKD
ROOT
HETATM    1  C   UNL     1     -12.505  10.370  71.364  1.00  0.00    -0.521 C  
HETATM    2  C   UNL     1     -13.530   9.362  71.869  1.00  0.00    -0.500 C  
ENDROOT
BRANCH   2   3
HETATM    3  C   UNL     1     -12.916   7.963  71.922  1.00  0.00    -0.323 C  
BRANCH   3   4
HETATM    4  C   UNL     1     -11.481   7.915  72.469  1.00  0.00    -0.398 C  
BRANCH   4   5
HETATM    5  N   UNL     1     -10.664   6.704  72.204  1.00  0.00    -0.213 NA 
BRANCH   5   6
HETATM    6  C   UNL     1     -10.592   5.839  73.405  1.00  0.00    -0.258 C  
BRANCH   6   7
HETATM    7  C   UNL     1     -11.280   4.462  73.313  1.00  0.00    -0.364 C  
BRANCH   7   8
HETATM    8  C   UNL     1     -10.421   3.291  73.793  1.00  0.00    -0.256 C  
HETATM    9  C   UNL     1     -11.228   1.999  73.804  1.00  0.00    -0.291 C  
ENDBRANCH   7   8
ENDBRANCH   6   7
ENDBRANCH   5   6
BRANCH   5  10
HETATM   10  C   UNL     1     -11.245   5.962  71.057  1.00  0.00    -0.210 C  
BRANCH  10  11
HETATM   11  C   UNL     1     -10.256   5.610  69.936  1.00  0.00    -0.320 C  
BRANCH  11  12
HETATM   12  C   UNL     1     -10.795   6.033  68.574  1.00  0.00    -0.286 C  
BRANCH  12  13
HETATM   13  O   UNL     1      -9.702   6.295  67.689  1.00  0.00    -0.117 OA 
BRANCH  13  14
HETATM   14  C   UNL     1      -9.489   7.612  67.378  1.00  0.00    -0.143 A  
HETATM   15  C   UNL     1      -8.312   8.151  66.851  1.00  0.00    -0.115 A  
HETATM   16  C   UNL     1      -8.189   9.533  66.651  1.00  0.00    -0.116 A  
HETATM   17  C   UNL     1      -9.250  10.391  66.968  1.00  0.00    -0.165 A  
HETATM   18  C   UNL     1     -10.463   9.838  67.395  1.00  0.00    -0.319 A  
HETATM   19  C   UNL     1     -10.566   8.462  67.633  1.00  0.00    -0.265 A  
BRANCH  17  20
HETATM   20  C   UNL     1      -9.041  11.872  66.880  1.00  0.00    -0.196 C  
HETATM   21  O   UNL     1      -8.256  12.398  67.665  1.00  0.00    -0.146 OA 
BRANCH  20  22
HETATM   22  C   UNL     1      -9.808  12.644  65.901  1.00  0.00    -0.251 A  
HETATM   23  C   UNL     1     -10.356  12.142  64.720  1.00  0.00    -0.288 A  
HETATM   24  C   UNL     1     -10.256  16.442  66.311  1.00  0.00    -0.330 A  
HETATM   25  O   UNL     1     -11.021  13.132  64.055  1.00  0.00    -0.392 OA 
HETATM   26  C   UNL     1     -11.011  16.620  65.154  1.00  0.00    -0.160 A  
HETATM   27  C   UNL     1     -10.839  14.285  64.736  1.00  0.00    -0.405 A  
HETATM   28  C   UNL     1     -10.076  14.063  65.874  1.00  0.00    -0.336 A  
HETATM   29  C   UNL     1     -11.311  15.531  64.330  1.00  0.00    -0.260 A  
HETATM   30  C   UNL     1      -9.746  15.186  66.659  1.00  0.00    -0.274 A  
BRANCH  23  31
HETATM   31  C   UNL     1     -10.282  10.870  63.943  1.00  0.00    -0.418 C  
BRANCH  31  32
HETATM   32  C   UNL     1      -9.553  10.890  62.600  1.00  0.00    -0.290 C  
BRANCH  32  33
HETATM   33  C   UNL     1      -8.245  10.096  62.761  1.00  0.00    -0.159 C  
HETATM   34  C   UNL     1      -8.442   8.635  63.123  1.00  0.00    -0.100 C  
ENDBRANCH  32  33
ENDBRANCH  31  32
ENDBRANCH  23  31
BRANCH  24  35
HETATM   35  N   UNL     1      -9.972  17.545  67.169  1.00  0.00    -0.303 N  
HETATM   36  H   UNL     1     -10.392  17.611  68.096  1.00  0.00     0.000 HD 
BRANCH  35  37
HETATM   37  S   UNL     1      -8.919  18.739  66.605  1.00  0.00    -0.320 S  
HETATM   38  C   UNL     1      -8.187  19.303  68.126  1.00  0.00    -0.318 C  
HETATM   39  O   UNL     1      -7.899  18.147  65.770  1.00  0.00    -0.526 OA 
HETATM   40  O   UNL     1      -9.773  19.799  66.110  1.00  0.00    -0.397 OA 
ENDBRANCH  35  37
ENDBRANCH  24  35
ENDBRANCH  20  22
ENDBRANCH  17  20
ENDBRANCH  13  14
ENDBRANCH  12  13
ENDBRANCH  11  12
ENDBRANCH  10  11
ENDBRANCH   5  10
ENDBRANCH   4   5
ENDBRANCH   3   4
ENDBRANCH   2   3
TORSDOF 18
ENDMDL
MODEL       54
REMARK 921   NORMALIZED FREE ENERGY PREDICTED BY IDOCK:   -5.12 KCAL/MOL
REMARK 922        TOTAL FREE ENERGY PREDICTED BY IDOCK:  -13.23 KCAL/MOL
REMARK 923 INTER-LIGAND FREE ENERGY PREDICTED BY IDOCK:  -11.03 KCAL/MOL
REMARK 924 INTRA-LIGAND FREE ENERGY PREDICTED BY IDOCK:   -2.20 KCAL/MOL
REMARK 927      BINDING AFFINITY PREDICTED BY RF-SCORE:    0.00 PKD
ROOT
HETATM    1  C   UNL     1      -6.201  14.142  67.824  1.00  0.00    -0.153 C  
HETATM    2  C   UNL     1      -6.919  15.475  67.648  1.00  0.00    -0.203 C  
ENDROOT
BRANCH   2   3
HETATM    3  C   UNL     1      -7.583  15.895  68.959  1.00  0.00    -0.202 C  
BRANCH   3   4
HETATM    4  C   UNL     1      -8.272  17.268  68.914  1.00  0.00    -0.181 C  
BRANCH   4   5
HETATM    5  N   UNL     1      -9.755  17.317  68.971  1.00  0.00    -0.239 NA 
BRANCH   5   6
HETATM    6  C   UNL     1     -10.330  17.575  67.630  1.00  0.00    -0.360 C  
BRANCH   6   7
HETATM    7  C   UNL     1     -10.854  19.000  67.361  1.00  0.00    -0.496 C  
BRANCH   7   8
HETATM    8  C   UNL     1     -10.350  19.625  66.059  1.00  0.00    -0.620 C  
HETATM    9  C   UNL     1      -8.837  19.804  66.097  1.00  0.00    -0.378 C  
ENDBRANCH   7   8
ENDBRANCH   6   7
ENDBRANCH   5   6
BRANCH   5  10
HETATM   10  C   UNL     1     -10.266  16.036  69.523  1.00  0.00    -0.274 C  
BRANCH  10  11
HETATM   11  C   UNL     1     -11.401  16.172  70.549  1.00  0.00    -0.392 C  
BRANCH  11  12
HETATM   12  C   UNL     1     -12.689  15.541  70.032  1.00  0.00    -0.111 C  
BRANCH  12  13
HETATM   13  O   UNL     1     -13.228  14.671  71.030  1.00  0.00    -0.364 OA 
BRANCH  13  14
HETATM   14  C   UNL     1     -12.812  13.367  70.973  1.00  0.00    -0.251 A  
HETATM   15  C   UNL     1     -11.931  12.827  70.033  1.00  0.00    -0.371 A  
HETATM   16  C   UNL     1     -11.646  11.454  70.031  1.00  0.00    -0.382 A  
HETATM   17  C   UNL     1     -12.234  10.608  70.980  1.00  0.00    -0.498 A  
HETATM   18  C   UNL     1     -13.032  11.168  71.984  1.00  0.00    -0.385 A  
HETATM   19  C   UNL     1     -13.347  12.532  71.956  1.00  0.00    -0.528 A  
BRANCH  17  20
HETATM   20  C   UNL     1     -12.025   9.128  70.865  1.00  0.00    -0.242 C  
HETATM   21  O   UNL     1     -12.958   8.383  71.154  1.00  0.00    -0.198 OA 
BRANCH  20  22
HETATM   22  C   UNL     1     -10.711   8.622  70.462  1.00  0.00    -0.252 A  
HETATM   23  C   UNL     1      -9.726   8.142  71.326  1.00  0.00    -0.164 A  
HETATM   24  C   UNL     1      -9.594   8.773  66.785  1.00  0.00    -0.206 A  
HETATM   25  O   UNL     1      -8.636   7.736  70.612  1.00  0.00    -0.125 OA 
HETATM   26  C   UNL     1      -8.342   8.201  66.996  1.00  0.00    -0.116 A  
HETATM   27  C   UNL     1      -8.859   8.027  69.310  1.00  0.00    -0.141 A  
HETATM   28  C   UNL     1     -10.112   8.601  69.149  1.00  0.00    -0.203 A  
HETATM   29  C   UNL     1      -7.943   7.822  68.281  1.00  0.00    -0.122 A  
HETATM   30  C   UNL     1     -10.467   9.020  67.851  1.00  0.00    -0.291 A  
BRANCH  23  31
HETATM   31  C   UNL     1      -9.503   8.093  72.801  1.00  0.00    -0.349 C  
BRANCH  31  32
HETATM   32  C   UNL     1     -10.364   7.138  73.626  1.00  0.00    -0.411 C  
BRANCH  32  33
HETATM   33  C   UNL     1      -9.882   5.704  73.344  1.00  0.00    -0.175 C  
HETATM   34  C   UNL     1     -10.830   4.882  72.491  1.00  0.00    -0.234 C  
ENDBRANCH  32  33
ENDBRANCH  31  32
ENDBRANCH  23  31
BRANCH  24  35
HETATM   35  N   UNL     1     -10.015   9.134  65.472  1.00  0.00    -0.389 N  
HETATM   36  H   UNL     1     -10.365   8.431  64.821  1.00  0.00     0.000 HD 
BRANCH  35  37
HETATM   37  S   UNL     1      -9.918  10.760  65.026  1.00  0.00    -0.323 S  
HETATM   38  C   UNL     1      -9.366  10.624  63.339  1.00  0.00    -0.297 C  
HETATM   39  O   UNL     1     -11.231  11.361  65.056  1.00  0.00    -0.207 OA 
HETATM   40  O   UNL     1      -8.823  11.305  65.802  1.00  0.00    -0.196 OA 
ENDBRANCH  35  37
ENDBRANCH  24  35
ENDBRANCH  20  22
ENDBRANCH  17  20
ENDBRANCH  13  14
ENDBRANCH  12  13
ENDBRANCH  11  12
ENDBRANCH  10  11
ENDBRANCH   5  10
ENDBRANCH   4   5
ENDBRANCH   3   4
ENDBRANCH   2   3
TORSDOF 18
ENDMDL
MODEL       55
REMARK 921   NORMALIZED FREE ENERGY PREDICTED BY IDOCK:   -5.11 KCAL/MOL
REMARK 922        TOTAL FREE ENERGY PREDICTED BY IDOCK:  -13.20 KCAL/MOL
REMARK 923 INTER-LIGAND FREE ENERGY PREDICTED BY IDOCK:   -9.72 KCAL/MOL
REMARK 924 INTRA-LIGAND FREE ENERGY PREDICTED BY IDOCK:   -3.48 KCAL/MOL
REMARK 927      BINDING AFFINITY PREDICTED BY RF-SCORE:    0.00 PKD
ROOT
HETATM    1  C   UNL     1      -6.118   4.841  69.381  1.00  0.00    -0.026 C  
HETATM    2  C   UNL     1      -7.561   5.305  69.227  1.00  0.00    -0.073 C  
ENDROOT
BRANCH   2   3
HETATM    3  C   UNL     1      -7.638   6.829  69.308  1.00  0.00    -0.096 C  
BRANCH   3   4
HETATM    4  C   UNL     1      -7.850   7.531  67.958  1.00  0.00    -0.121 C  
BRANCH   4   5
HETATM    5  N   UNL     1      -7.329   6.875  66.732  1.00  0.00    -0.076 NA 
BRANCH   5   6
HETATM    6  C   UNL     1      -8.418   6.627  65.758  1.00  0.00    -0.148 C  
BRANCH   6   7
HETATM    7  C   UNL     1      -9.162   5.282  65.873  1.00  0.00    -0.166 C  
BRANCH   7   8
HETATM    8  C   UNL     1     -10.436   5.332  66.719  1.00  0.00    -0.330 C  
HETATM    9  C   UNL     1     -10.898   6.771  66.913  1.00  0.00    -0.402 C  
ENDBRANCH   7   8
ENDBRANCH   6   7
ENDBRANCH   5   6
BRANCH   5  10
HETATM   10  C   UNL     1      -6.272   7.728  66.131  1.00  0.00    -0.045 C  
BRANCH  10  11
HETATM   11  C   UNL     1      -5.432   8.533  67.132  1.00  0.00    -0.038 C  
BRANCH  11  12
HETATM   12  C   UNL     1      -5.739  10.024  67.035  1.00  0.00    -0.046 C  
BRANCH  12  13
HETATM   13  O   UNL     1      -6.624  10.258  65.936  1.00  0.00    -0.097 OA 
BRANCH  13  14
HETATM   14  C   UNL     1      -7.810  10.870  66.245  1.00  0.00    -0.158 A  
HETATM   15  C   UNL     1      -9.076  10.478  65.802  1.00  0.00    -0.204 A  
HETATM   16  C   UNL     1     -10.209  11.239  66.123  1.00  0.00    -0.291 A  
HETATM   17  C   UNL     1     -10.087  12.396  66.901  1.00  0.00    -0.230 A  
HETATM   18  C   UNL     1      -8.834  12.727  67.430  1.00  0.00    -0.190 A  
HETATM   19  C   UNL     1      -7.700  11.989  67.072  1.00  0.00    -0.129 A  
BRANCH  17  20
HETATM   20  C   UNL     1     -11.290  13.266  67.106  1.00  0.00    -0.317 C  
HETATM   21  O   UNL     1     -11.798  13.801  66.125  1.00  0.00    -0.358 OA 
BRANCH  20  22
HETATM   22  C   UNL     1     -11.787  13.486  68.467  1.00  0.00    -0.398 A  
HETATM   23  C   UNL     1     -11.951  14.727  69.081  1.00  0.00    -0.282 A  
HETATM   24  C   UNL     1     -12.526  10.511  70.789  1.00  0.00    -0.378 A  
HETATM   25  O   UNL     1     -12.450  14.564  70.341  1.00  0.00    -0.319 OA 
HETATM   26  C   UNL     1     -12.931  11.280  71.878  1.00  0.00    -0.471 A  
HETATM   27  C   UNL     1     -12.528  13.237  70.588  1.00  0.00    -0.298 A  
HETATM   28  C   UNL     1     -12.109  12.511  69.482  1.00  0.00    -0.248 A  
HETATM   29  C   UNL     1     -12.928  12.675  71.798  1.00  0.00    -0.417 A  
HETATM   30  C   UNL     1     -12.072  11.108  69.607  1.00  0.00    -0.406 A  
BRANCH  23  31
HETATM   31  C   UNL     1     -11.594  16.145  68.779  1.00  0.00    -0.297 C  
BRANCH  31  32
HETATM   32  C   UNL     1     -10.130  16.471  68.488  1.00  0.00    -0.255 C  
BRANCH  32  33
HETATM   33  C   UNL     1     -10.034  16.948  67.028  1.00  0.00    -0.279 C  
HETATM   34  C   UNL     1      -9.179  16.065  66.137  1.00  0.00    -0.388 C  
ENDBRANCH  32  33
ENDBRANCH  31  32
ENDBRANCH  23  31
BRANCH  24  35
HETATM   35  N   UNL     1     -12.554   9.087  70.856  1.00  0.00    -0.500 N  
HETATM   36  H   UNL     1     -13.355   8.560  70.508  1.00  0.00     0.000 HD 
BRANCH  35  37
HETATM   37  S   UNL     1     -11.222   8.298  71.531  1.00  0.00    -0.278 S  
HETATM   38  C   UNL     1     -11.227   6.769  70.618  1.00  0.00    -0.312 C  
HETATM   39  O   UNL     1     -10.012   9.029  71.237  1.00  0.00    -0.260 OA 
HETATM   40  O   UNL     1     -11.606   7.995  72.894  1.00  0.00    -0.397 OA 
ENDBRANCH  35  37
ENDBRANCH  24  35
ENDBRANCH  20  22
ENDBRANCH  17  20
ENDBRANCH  13  14
ENDBRANCH  12  13
ENDBRANCH  11  12
ENDBRANCH  10  11
ENDBRANCH   5  10
ENDBRANCH   4   5
ENDBRANCH   3   4
ENDBRANCH   2   3
TORSDOF 18
ENDMDL
MODEL       56
REMARK 921   NORMALIZED FREE ENERGY PREDICTED BY IDOCK:   -5.10 KCAL/MOL
REMARK 922        TOTAL FREE ENERGY PREDICTED BY IDOCK:  -13.19 KCAL/MOL
REMARK 923 INTER-LIGAND FREE ENERGY PREDICTED BY IDOCK:   -9.37 KCAL/MOL
REMARK 924 INTRA-LIGAND FREE ENERGY PREDICTED BY IDOCK:   -3.82 KCAL/MOL
REMARK 927      BINDING AFFINITY PREDICTED BY RF-SCORE:    0.00 PKD
ROOT
HETATM    1  C   UNL     1      -6.923  11.838  67.038  1.00  0.00    -0.135 C  
HETATM    2  C   UNL     1      -7.474  12.235  68.401  1.00  0.00    -0.122 C  
ENDROOT
BRANCH   2   3
HETATM    3  C   UNL     1      -7.892  13.705  68.396  1.00  0.00    -0.140 C  
BRANCH   3   4
HETATM    4  C   UNL     1      -8.561  14.174  67.095  1.00  0.00    -0.214 C  
BRANCH   4   5
HETATM    5  N   UNL     1      -9.865  14.880  67.185  1.00  0.00    -0.229 NA 
BRANCH   5   6
HETATM    6  C   UNL     1      -9.793  16.007  68.144  1.00  0.00    -0.222 C  
BRANCH   6   7
HETATM    7  C   UNL     1     -11.103  16.402  68.854  1.00  0.00    -0.328 C  
BRANCH   7   8
HETATM    8  C   UNL     1     -11.897  15.223  69.421  1.00  0.00    -0.367 C  
HETATM    9  C   UNL     1     -12.286  15.483  70.871  1.00  0.00    -0.450 C  
ENDBRANCH   7   8
ENDBRANCH   6   7
ENDBRANCH   5   6
BRANCH   5  10
HETATM   10  C   UNL     1     -10.255  15.363  65.836  1.00  0.00    -0.344 C  
BRANCH  10  11
HETATM   11  C   UNL     1     -11.155  14.411  65.035  1.00  0.00    -0.385 C  
BRANCH  11  12
HETATM   12  C   UNL     1     -12.281  13.857  65.903  1.00  0.00    -0.467 C  
BRANCH  12  13
HETATM   13  O   UNL     1     -12.368  12.441  65.724  1.00  0.00    -0.644 OA 
BRANCH  13  14
HETATM   14  C   UNL     1     -11.618  11.683  66.585  1.00  0.00    -0.115 A  
HETATM   15  C   UNL     1     -10.716  10.679  66.222  1.00  0.00    -0.172 A  
HETATM   16  C   UNL     1     -10.068   9.917  67.204  1.00  0.00    -0.270 A  
HETATM   17  C   UNL     1     -10.309  10.159  68.562  1.00  0.00    -0.203 A  
HETATM   18  C   UNL     1     -11.132  11.233  68.922  1.00  0.00    -0.295 A  
HETATM   19  C   UNL     1     -11.809  11.964  67.938  1.00  0.00    -0.308 A  
BRANCH  17  20
HETATM   20  C   UNL     1      -9.716   9.237  69.584  1.00  0.00    -0.182 C  
HETATM   21  O   UNL     1      -8.917   9.700  70.394  1.00  0.00    -0.244 OA 
BRANCH  20  22
HETATM   22  C   UNL     1     -10.069   7.816  69.552  1.00  0.00    -0.194 A  
HETATM   23  C   UNL     1     -11.153   7.234  70.208  1.00  0.00    -0.266 A  
HETATM   24  C   UNL     1      -7.802   5.271  67.770  1.00  0.00    -0.092 A  
HETATM   25  O   UNL     1     -11.193   5.895  69.948  1.00  0.00    -0.378 OA 
HETATM   26  C   UNL     1      -8.586   4.157  68.062  1.00  0.00    -0.108 A  
HETATM   27  C   UNL     1     -10.104   5.581  69.211  1.00  0.00    -0.223 A  
HETATM   28  C   UNL     1      -9.350   6.717  68.951  1.00  0.00    -0.129 A  
HETATM   29  C   UNL     1      -9.761   4.294  68.806  1.00  0.00    -0.184 A  
HETATM   30  C   UNL     1      -8.144   6.543  68.243  1.00  0.00    -0.110 A  
BRANCH  23  31
HETATM   31  C   UNL     1     -12.172   7.660  71.212  1.00  0.00    -0.339 C  
BRANCH  31  32
HETATM   32  C   UNL     1     -11.688   8.406  72.455  1.00  0.00    -0.452 C  
BRANCH  32  33
HETATM   33  C   UNL     1     -10.770   7.459  73.247  1.00  0.00    -0.441 C  
HETATM   34  C   UNL     1      -9.338   7.944  73.381  1.00  0.00    -0.348 C  
ENDBRANCH  32  33
ENDBRANCH  31  32
ENDBRANCH  23  31
BRANCH  24  35
HETATM   35  N   UNL     1      -6.618   5.140  66.987  1.00  0.00    -0.052 N  
HETATM   36  H   UNL     1      -5.720   4.931  67.424  1.00  0.00     0.000 HD 
BRANCH  35  37
HETATM   37  S   UNL     1      -6.745   5.341  65.315  1.00  0.00    -0.049 S  
HETATM   38  C   UNL     1      -6.137   7.003  65.119  1.00  0.00    -0.037 C  
HETATM   39  O   UNL     1      -5.861   4.422  64.637  1.00  0.00    -0.014 OA 
HETATM   40  O   UNL     1      -8.166   5.360  65.039  1.00  0.00    -0.123 OA 
ENDBRANCH  35  37
ENDBRANCH  24  35
ENDBRANCH  20  22
ENDBRANCH  17  20
ENDBRANCH  13  14
ENDBRANCH  12  13
ENDBRANCH  11  12
ENDBRANCH  10  11
ENDBRANCH   5  10
ENDBRANCH   4   5
ENDBRANCH   3   4
ENDBRANCH   2   3
TORSDOF 18
ENDMDL
MODEL       57
REMARK 921   NORMALIZED FREE ENERGY PREDICTED BY IDOCK:   -5.09 KCAL/MOL
REMARK 922        TOTAL FREE ENERGY PREDICTED BY IDOCK:  -13.17 KCAL/MOL
REMARK 923 INTER-LIGAND FREE ENERGY PREDICTED BY IDOCK:  -10.54 KCAL/MOL
REMARK 924 INTRA-LIGAND FREE ENERGY PREDICTED BY IDOCK:   -2.64 KCAL/MOL
REMARK 927      BINDING AFFINITY PREDICTED BY RF-SCORE:    0.00 PKD
ROOT
HETATM    1  C   UNL     1     -11.783  15.192  71.787  1.00  0.00    -0.480 C  
HETATM    2  C   UNL     1     -12.415  14.256  70.764  1.00  0.00    -0.428 C  
ENDROOT
BRANCH   2   3
HETATM    3  C   UNL     1     -11.502  14.106  69.547  1.00  0.00    -0.334 C  
BRANCH   3   4
HETATM    4  C   UNL     1     -12.154  13.417  68.340  1.00  0.00    -0.235 C  
BRANCH   4   5
HETATM    5  N   UNL     1     -11.522  13.582  67.006  1.00  0.00    -0.324 NA 
BRANCH   5   6
HETATM    6  C   UNL     1     -12.526  13.969  65.987  1.00  0.00    -0.455 C  
BRANCH   6   7
HETATM    7  C   UNL     1     -12.039  14.050  64.527  1.00  0.00    -0.484 C  
BRANCH   7   8
HETATM    8  C   UNL     1     -11.539  12.724  63.950  1.00  0.00    -0.518 C  
HETATM    9  C   UNL     1     -12.709  11.853  63.509  1.00  0.00    -0.530 C  
ENDBRANCH   7   8
ENDBRANCH   6   7
ENDBRANCH   5   6
BRANCH   5  10
HETATM   10  C   UNL     1     -10.446  14.601  67.096  1.00  0.00    -0.268 C  
BRANCH  10  11
HETATM   11  C   UNL     1      -9.054  14.124  66.658  1.00  0.00    -0.238 C  
BRANCH  11  12
HETATM   12  C   UNL     1      -8.754  12.731  67.200  1.00  0.00    -0.202 C  
BRANCH  12  13
HETATM   13  O   UNL     1      -8.746  11.791  66.122  1.00  0.00    -0.160 OA 
BRANCH  13  14
HETATM   14  C   UNL     1      -8.752  10.469  66.483  1.00  0.00    -0.139 A  
HETATM   15  C   UNL     1      -7.646   9.730  66.910  1.00  0.00    -0.095 A  
HETATM   16  C   UNL     1      -7.765   8.358  67.174  1.00  0.00    -0.097 A  
HETATM   17  C   UNL     1      -8.999   7.713  67.021  1.00  0.00    -0.148 A  
HETATM   18  C   UNL     1     -10.126   8.477  66.695  1.00  0.00    -0.364 A  
HETATM   19  C   UNL     1      -9.993   9.838  66.392  1.00  0.00    -0.314 A  
BRANCH  17  20
HETATM   20  C   UNL     1      -9.066   6.223  67.169  1.00  0.00    -0.119 C  
HETATM   21  O   UNL     1      -9.074   5.535  66.152  1.00  0.00    -0.142 OA 
BRANCH  20  22
HETATM   22  C   UNL     1      -9.167   5.644  68.511  1.00  0.00    -0.131 A  
HETATM   23  C   UNL     1      -8.354   4.632  69.022  1.00  0.00    -0.080 A  
HETATM   24  C   UNL     1     -12.001   6.690  70.892  1.00  0.00    -0.355 A  
HETATM   25  O   UNL     1      -8.714   4.347  70.308  1.00  0.00    -0.078 OA 
HETATM   26  C   UNL     1     -11.616   5.859  71.941  1.00  0.00    -0.255 A  
HETATM   27  C   UNL     1      -9.802   5.091  70.609  1.00  0.00    -0.212 A  
HETATM   28  C   UNL     1     -10.153   5.896  69.535  1.00  0.00    -0.262 A  
HETATM   29  C   UNL     1     -10.501   5.026  71.812  1.00  0.00    -0.246 A  
HETATM   30  C   UNL     1     -11.311   6.688  69.674  1.00  0.00    -0.387 A  
BRANCH  23  31
HETATM   31  C   UNL     1      -7.313   3.703  68.492  1.00  0.00    -0.054 C  
BRANCH  31  32
HETATM   32  C   UNL     1      -7.621   2.206  68.490  1.00  0.00    -0.050 C  
BRANCH  32  33
HETATM   33  C   UNL     1      -8.885   1.986  67.639  1.00  0.00    -0.152 C  
HETATM   34  C   UNL     1      -8.628   1.907  66.146  1.00  0.00    -0.112 C  
ENDBRANCH  32  33
ENDBRANCH  31  32
ENDBRANCH  23  31
BRANCH  24  35
HETATM   35  N   UNL     1     -13.120   7.562  71.029  1.00  0.00    -0.583 N  
HETATM   36  H   UNL     1     -14.005   7.358  70.563  1.00  0.00     0.000 HD 
BRANCH  35  37
HETATM   37  S   UNL     1     -12.940   8.941  71.987  1.00  0.00    -0.431 S  
HETATM   38  C   UNL     1     -13.027  10.229  70.761  1.00  0.00    -0.330 C  
HETATM   39  O   UNL     1     -14.058   9.064  72.894  1.00  0.00    -0.487 OA 
HETATM   40  O   UNL     1     -11.578   8.892  72.475  1.00  0.00    -0.258 OA 
ENDBRANCH  35  37
ENDBRANCH  24  35
ENDBRANCH  20  22
ENDBRANCH  17  20
ENDBRANCH  13  14
ENDBRANCH  12  13
ENDBRANCH  11  12
ENDBRANCH  10  11
ENDBRANCH   5  10
ENDBRANCH   4   5
ENDBRANCH   3   4
ENDBRANCH   2   3
TORSDOF 18
ENDMDL
MODEL       58
REMARK 921   NORMALIZED FREE ENERGY PREDICTED BY IDOCK:   -5.09 KCAL/MOL
REMARK 922        TOTAL FREE ENERGY PREDICTED BY IDOCK:  -13.17 KCAL/MOL
REMARK 923 INTER-LIGAND FREE ENERGY PREDICTED BY IDOCK:   -9.78 KCAL/MOL
REMARK 924 INTRA-LIGAND FREE ENERGY PREDICTED BY IDOCK:   -3.39 KCAL/MOL
REMARK 927      BINDING AFFINITY PREDICTED BY RF-SCORE:    0.00 PKD
ROOT
HETATM    1  C   UNL     1     -12.623   7.337  71.310  1.00  0.00    -0.402 C  
HETATM    2  C   UNL     1     -11.538   7.845  72.251  1.00  0.00    -0.406 C  
ENDROOT
BRANCH   2   3
HETATM    3  C   UNL     1     -11.037   9.214  71.790  1.00  0.00    -0.437 C  
BRANCH   3   4
HETATM    4  C   UNL     1     -11.408   9.576  70.344  1.00  0.00    -0.264 C  
BRANCH   4   5
HETATM    5  N   UNL     1     -10.395   9.358  69.280  1.00  0.00    -0.201 NA 
BRANCH   5   6
HETATM    6  C   UNL     1     -10.746  10.107  68.051  1.00  0.00    -0.260 C  
BRANCH   6   7
HETATM    7  C   UNL     1     -11.175  11.576  68.229  1.00  0.00    -0.322 C  
BRANCH   7   8
HETATM    8  C   UNL     1     -10.672  12.521  67.136  1.00  0.00    -0.263 C  
HETATM    9  C   UNL     1     -11.806  12.910  66.195  1.00  0.00    -0.487 C  
ENDBRANCH   7   8
ENDBRANCH   6   7
ENDBRANCH   5   6
BRANCH   5  10
HETATM   10  C   UNL     1      -9.060   9.769  69.781  1.00  0.00    -0.225 C  
BRANCH  10  11
HETATM   11  C   UNL     1      -7.888   8.888  69.324  1.00  0.00    -0.096 C  
BRANCH  11  12
HETATM   12  C   UNL     1      -6.613   9.227  70.089  1.00  0.00    -0.052 C  
BRANCH  12  13
HETATM   13  O   UNL     1      -5.721   9.948  69.234  1.00  0.00    -0.035 OA 
BRANCH  13  14
HETATM   14  C   UNL     1      -5.856  11.311  69.246  1.00  0.00    -0.049 A  
HETATM   15  C   UNL     1      -5.736  12.138  70.366  1.00  0.00    -0.169 A  
HETATM   16  C   UNL     1      -5.978  13.516  70.262  1.00  0.00    -0.146 A  
HETATM   17  C   UNL     1      -6.333  14.081  69.031  1.00  0.00    -0.097 A  
HETATM   18  C   UNL     1      -6.348  13.267  67.892  1.00  0.00    -0.144 A  
HETATM   19  C   UNL     1      -6.148  11.886  68.009  1.00  0.00    -0.055 A  
BRANCH  17  20
HETATM   20  C   UNL     1      -6.725  15.527  68.979  1.00  0.00    -0.131 C  
HETATM   21  O   UNL     1      -5.985  16.352  69.509  1.00  0.00    -0.153 OA 
BRANCH  20  22
HETATM   22  C   UNL     1      -7.991  15.900  68.344  1.00  0.00    -0.147 A  
HETATM   23  C   UNL     1      -8.125  16.699  67.209  1.00  0.00    -0.168 A  
HETATM   24  C   UNL     1     -11.349  14.897  69.928  1.00  0.00    -0.277 A  
HETATM   25  O   UNL     1      -9.445  16.828  66.881  1.00  0.00    -0.228 OA 
HETATM   26  C   UNL     1     -12.147  15.496  68.955  1.00  0.00    -0.246 A  
HETATM   27  C   UNL     1     -10.173  16.203  67.835  1.00  0.00    -0.261 A  
HETATM   28  C   UNL     1      -9.339  15.630  68.784  1.00  0.00    -0.213 A  
HETATM   29  C   UNL     1     -11.564  16.177  67.883  1.00  0.00    -0.000 A  
HETATM   30  C   UNL     1      -9.954  14.994  69.882  1.00  0.00    -0.026 A  
BRANCH  23  31
HETATM   31  C   UNL     1      -7.234  17.547  66.365  1.00  0.00    -0.326 C  
BRANCH  31  32
HETATM   32  C   UNL     1      -7.444  19.060  66.393  1.00  0.00    -0.274 C  
BRANCH  32  33
HETATM   33  C   UNL     1      -6.751  19.610  67.652  1.00  0.00    -0.262 C  
HETATM   34  C   UNL     1      -7.617  19.598  68.898  1.00  0.00    -0.344 C  
ENDBRANCH  32  33
ENDBRANCH  31  32
ENDBRANCH  23  31
BRANCH  24  35
HETATM   35  N   UNL     1     -11.939  14.177  71.008  1.00  0.00    -0.462 N  
HETATM   36  H   UNL     1     -11.683  13.208  71.194  1.00  0.00     0.000 HD 
BRANCH  35  37
HETATM   37  S   UNL     1     -13.074  14.977  71.969  1.00  0.00    -0.386 S  
HETATM   38  C   UNL     1     -12.043  16.157  72.815  1.00  0.00    -0.553 C  
HETATM   39  O   UNL     1     -14.024  15.678  71.136  1.00  0.00    -0.564 OA 
HETATM   40  O   UNL     1     -13.508  13.997  72.943  1.00  0.00    -0.647 OA 
ENDBRANCH  35  37
ENDBRANCH  24  35
ENDBRANCH  20  22
ENDBRANCH  17  20
ENDBRANCH  13  14
ENDBRANCH  12  13
ENDBRANCH  11  12
ENDBRANCH  10  11
ENDBRANCH   5  10
ENDBRANCH   4   5
ENDBRANCH   3   4
ENDBRANCH   2   3
TORSDOF 18
ENDMDL
MODEL       59
REMARK 921   NORMALIZED FREE ENERGY PREDICTED BY IDOCK:   -5.09 KCAL/MOL
REMARK 922        TOTAL FREE ENERGY PREDICTED BY IDOCK:  -13.15 KCAL/MOL
REMARK 923 INTER-LIGAND FREE ENERGY PREDICTED BY IDOCK:   -9.87 KCAL/MOL
REMARK 924 INTRA-LIGAND FREE ENERGY PREDICTED BY IDOCK:   -3.28 KCAL/MOL
REMARK 927      BINDING AFFINITY PREDICTED BY RF-SCORE:    0.00 PKD
ROOT
HETATM    1  C   UNL     1     -10.624  19.062  67.477  1.00  0.00    -0.546 C  
HETATM    2  C   UNL     1     -10.489  18.301  66.164  1.00  0.00    -0.403 C  
ENDROOT
BRANCH   2   3
HETATM    3  C   UNL     1     -10.105  16.846  66.433  1.00  0.00    -0.331 C  
BRANCH   3   4
HETATM    4  C   UNL     1     -10.951  16.151  67.510  1.00  0.00    -0.238 C  
BRANCH   4   5
HETATM    5  N   UNL     1     -11.021  14.668  67.505  1.00  0.00    -0.290 NA 
BRANCH   5   6
HETATM    6  C   UNL     1     -10.776  14.119  68.858  1.00  0.00    -0.256 C  
BRANCH   6   7
HETATM    7  C   UNL     1     -12.016  13.746  69.695  1.00  0.00    -0.399 C  
BRANCH   7   8
HETATM    8  C   UNL     1     -12.034  12.300  70.192  1.00  0.00    -0.377 C  
HETATM    9  C   UNL     1     -11.663  11.338  69.070  1.00  0.00    -0.410 C  
ENDBRANCH   7   8
ENDBRANCH   6   7
ENDBRANCH   5   6
BRANCH   5  10
HETATM   10  C   UNL     1     -12.351  14.242  67.000  1.00  0.00    -0.168 C  
BRANCH  10  11
HETATM   11  C   UNL     1     -12.431  14.001  65.485  1.00  0.00    -0.533 C  
BRANCH  11  12
HETATM   12  C   UNL     1     -12.270  12.522  65.154  1.00  0.00    -0.448 C  
BRANCH  12  13
HETATM   13  O   UNL     1     -11.106  12.338  64.343  1.00  0.00    -0.298 OA 
BRANCH  13  14
HETATM   14  C   UNL     1     -10.149  11.501  64.854  1.00  0.00    -0.268 A  
HETATM   15  C   UNL     1      -9.813  10.239  64.357  1.00  0.00    -0.374 A  
HETATM   16  C   UNL     1      -8.869   9.441  65.020  1.00  0.00    -0.234 A  
HETATM   17  C   UNL     1      -8.244   9.905  66.185  1.00  0.00    -0.118 A  
HETATM   18  C   UNL     1      -8.506  11.210  66.619  1.00  0.00    -0.164 A  
HETATM   19  C   UNL     1      -9.479  11.986  65.978  1.00  0.00    -0.229 A  
BRANCH  17  20
HETATM   20  C   UNL     1      -7.350   8.978  66.951  1.00  0.00    -0.086 C  
HETATM   21  O   UNL     1      -6.215   9.357  67.227  1.00  0.00    -0.056 OA 
BRANCH  20  22
HETATM   22  C   UNL     1      -7.839   7.642  67.300  1.00  0.00    -0.117 A  
HETATM   23  C   UNL     1      -7.342   6.439  66.800  1.00  0.00    -0.079 A  
HETATM   24  C   UNL     1     -10.905   7.210  69.582  1.00  0.00    -0.234 A  
HETATM   25  O   UNL     1      -8.017   5.388  67.351  1.00  0.00    -0.100 OA 
HETATM   26  C   UNL     1     -10.906   5.818  69.552  1.00  0.00    -0.410 A  
HETATM   27  C   UNL     1      -9.003   5.890  68.130  1.00  0.00    -0.115 A  
HETATM   28  C   UNL     1      -8.967   7.277  68.123  1.00  0.00    -0.132 A  
HETATM   29  C   UNL     1      -9.949   5.124  68.807  1.00  0.00    -0.237 A  
HETATM   30  C   UNL     1      -9.976   7.951  68.842  1.00  0.00    -0.194 A  
BRANCH  23  31
HETATM   31  C   UNL     1      -6.384   6.017  65.735  1.00  0.00    -0.042 C  
BRANCH  31  32
HETATM   32  C   UNL     1      -6.674   6.445  64.297  1.00  0.00    -0.038 C  
BRANCH  32  33
HETATM   33  C   UNL     1      -8.007   5.802  63.873  1.00  0.00    -0.121 C  
HETATM   34  C   UNL     1      -7.976   4.286  63.808  1.00  0.00    -0.089 C  
ENDBRANCH  32  33
ENDBRANCH  31  32
ENDBRANCH  23  31
BRANCH  24  35
HETATM   35  N   UNL     1     -11.862   7.920  70.364  1.00  0.00    -0.472 N  
HETATM   36  H   UNL     1     -12.817   8.053  70.031  1.00  0.00     0.000 HD 
BRANCH  35  37
HETATM   37  S   UNL     1     -11.369   8.536  71.857  1.00  0.00    -0.354 S  
HETATM   38  C   UNL     1     -11.162   7.040  72.798  1.00  0.00    -0.257 C  
HETATM   39  O   UNL     1     -10.093   9.201  71.722  1.00  0.00    -0.329 OA 
HETATM   40  O   UNL     1     -12.525   9.230  72.385  1.00  0.00    -0.328 OA 
ENDBRANCH  35  37
ENDBRANCH  24  35
ENDBRANCH  20  22
ENDBRANCH  17  20
ENDBRANCH  13  14
ENDBRANCH  12  13
ENDBRANCH  11  12
ENDBRANCH  10  11
ENDBRANCH   5  10
ENDBRANCH   4   5
ENDBRANCH   3   4
ENDBRANCH   2   3
TORSDOF 18
ENDMDL
MODEL       60
REMARK 921   NORMALIZED FREE ENERGY PREDICTED BY IDOCK:   -5.06 KCAL/MOL
REMARK 922        TOTAL FREE ENERGY PREDICTED BY IDOCK:  -13.11 KCAL/MOL
REMARK 923 INTER-LIGAND FREE ENERGY PREDICTED BY IDOCK:  -10.64 KCAL/MOL
REMARK 924 INTRA-LIGAND FREE ENERGY PREDICTED BY IDOCK:   -2.47 KCAL/MOL
REMARK 927      BINDING AFFINITY PREDICTED BY RF-SCORE:    0.00 PKD
ROOT
HETATM    1  C   UNL     1     -13.363  14.753  72.077  1.00  0.00    -0.459 C  
HETATM    2  C   UNL     1     -13.122  15.481  70.761  1.00  0.00    -0.446 C  
ENDROOT
BRANCH   2   3
HETATM    3  C   UNL     1     -11.624  15.580  70.477  1.00  0.00    -0.371 C  
BRANCH   3   4
HETATM    4  C   UNL     1     -11.187  14.980  69.132  1.00  0.00    -0.281 C  
BRANCH   4   5
HETATM    5  N   UNL     1     -11.279  15.828  67.917  1.00  0.00    -0.336 NA 
BRANCH   5   6
HETATM    6  C   UNL     1     -10.193  16.834  67.887  1.00  0.00    -0.300 C  
BRANCH   6   7
HETATM    7  C   UNL     1     -10.234  17.871  66.747  1.00  0.00    -0.360 C  
BRANCH   7   8
HETATM    8  C   UNL     1     -10.692  19.266  67.176  1.00  0.00    -0.584 C  
HETATM    9  C   UNL     1     -10.046  19.663  68.498  1.00  0.00    -0.557 C  
ENDBRANCH   7   8
ENDBRANCH   6   7
ENDBRANCH   5   6
BRANCH   5  10
HETATM   10  C   UNL     1     -11.226  14.963  66.711  1.00  0.00    -0.338 C  
BRANCH  10  11
HETATM   11  C   UNL     1     -12.055  13.672  66.793  1.00  0.00    -0.445 C  
BRANCH  11  12
HETATM   12  C   UNL     1     -11.653  12.690  65.698  1.00  0.00    -0.377 C  
BRANCH  12  13
HETATM   13  O   UNL     1     -10.229  12.565  65.669  1.00  0.00    -0.260 OA 
BRANCH  13  14
HETATM   14  C   UNL     1      -9.715  11.451  66.280  1.00  0.00    -0.212 A  
HETATM   15  C   UNL     1      -8.665  11.432  67.202  1.00  0.00    -0.155 A  
HETATM   16  C   UNL     1      -8.174  10.215  67.696  1.00  0.00    -0.110 A  
HETATM   17  C   UNL     1      -8.738   9.003  67.279  1.00  0.00    -0.122 A  
HETATM   18  C   UNL     1      -9.857   9.031  66.438  1.00  0.00    -0.356 A  
HETATM   19  C   UNL     1     -10.316  10.246  65.914  1.00  0.00    -0.241 A  
BRANCH  17  20
HETATM   20  C   UNL     1      -8.102   7.717  67.711  1.00  0.00    -0.118 C  
HETATM   21  O   UNL     1      -7.009   7.418  67.237  1.00  0.00    -0.077 OA 
BRANCH  20  22
HETATM   22  C   UNL     1      -8.821   6.842  68.639  1.00  0.00    -0.123 A  
HETATM   23  C   UNL     1      -8.843   5.448  68.590  1.00  0.00    -0.103 A  
HETATM   24  C   UNL     1     -11.095   8.321  71.365  1.00  0.00    -0.251 A  
HETATM   25  O   UNL     1      -9.596   4.955  69.617  1.00  0.00    -0.139 OA 
HETATM   26  C   UNL     1     -11.492   7.096  71.896  1.00  0.00    -0.305 A  
HETATM   27  C   UNL     1     -10.136   6.005  70.277  1.00  0.00    -0.194 A  
HETATM   28  C   UNL     1      -9.720   7.201  69.710  1.00  0.00    -0.165 A  
HETATM   29  C   UNL     1     -11.021   5.901  71.347  1.00  0.00    -0.327 A  
HETATM   30  C   UNL     1     -10.251   8.390  70.251  1.00  0.00    -0.204 A  
BRANCH  23  31
HETATM   31  C   UNL     1      -8.389   4.387  67.644  1.00  0.00    -0.099 C  
BRANCH  31  32
HETATM   32  C   UNL     1      -9.450   3.643  66.835  1.00  0.00    -0.213 C  
BRANCH  32  33
HETATM   33  C   UNL     1      -9.976   4.602  65.752  1.00  0.00    -0.246 C  
HETATM   34  C   UNL     1      -8.892   5.237  64.900  1.00  0.00    -0.090 C  
ENDBRANCH  32  33
ENDBRANCH  31  32
ENDBRANCH  23  31
BRANCH  24  35
HETATM   35  N   UNL     1     -11.551   9.543  71.940  1.00  0.00    -0.311 N  
HETATM   36  H   UNL     1     -11.037   9.990  72.700  1.00  0.00     0.000 HD 
BRANCH  35  37
HETATM   37  S   UNL     1     -12.968  10.229  71.329  1.00  0.00    -0.434 S  
HETATM   38  C   UNL     1     -12.392  10.894  69.781  1.00  0.00    -0.256 C  
HETATM   39  O   UNL     1     -13.948   9.198  71.074  1.00  0.00    -0.181 OA 
HETATM   40  O   UNL     1     -13.261  11.345  72.203  1.00  0.00    -0.490 OA 
ENDBRANCH  35  37
ENDBRANCH  24  35
ENDBRANCH  20  22
ENDBRANCH  17  20
ENDBRANCH  13  14
ENDBRANCH  12  13
ENDBRANCH  11  12
ENDBRANCH  10  11
ENDBRANCH   5  10
ENDBRANCH   4   5
ENDBRANCH   3   4
ENDBRANCH   2   3
TORSDOF 18
ENDMDL
MODEL       61
REMARK 921   NORMALIZED FREE ENERGY PREDICTED BY IDOCK:   -5.04 KCAL/MOL
REMARK 922        TOTAL FREE ENERGY PREDICTED BY IDOCK:  -13.07 KCAL/MOL
REMARK 923 INTER-LIGAND FREE ENERGY PREDICTED BY IDOCK:  -10.22 KCAL/MOL
REMARK 924 INTRA-LIGAND FREE ENERGY PREDICTED BY IDOCK:   -2.85 KCAL/MOL
REMARK 927      BINDING AFFINITY PREDICTED BY RF-SCORE:    0.00 PKD
ROOT
HETATM    1  C   UNL     1     -10.740   5.463  66.556  1.00  0.00    -0.309 C  
HETATM    2  C   UNL     1     -10.138   6.762  67.076  1.00  0.00    -0.264 C  
ENDROOT
BRANCH   2   3
HETATM    3  C   UNL     1      -9.940   6.687  68.589  1.00  0.00    -0.151 C  
BRANCH   3   4
HETATM    4  C   UNL     1     -11.223   6.408  69.388  1.00  0.00    -0.394 C  
BRANCH   4   5
HETATM    5  N   UNL     1     -11.104   5.707  70.692  1.00  0.00    -0.203 NA 
BRANCH   5   6
HETATM    6  C   UNL     1      -9.702   5.709  71.171  1.00  0.00    -0.172 C  
BRANCH   6   7
HETATM    7  C   UNL     1      -9.477   6.009  72.666  1.00  0.00    -0.150 C  
BRANCH   7   8
HETATM    8  C   UNL     1      -8.171   6.743  72.975  1.00  0.00    -0.115 C  
HETATM    9  C   UNL     1      -8.418   7.906  73.928  1.00  0.00    -0.316 C  
ENDBRANCH   7   8
ENDBRANCH   6   7
ENDBRANCH   5   6
BRANCH   5  10
HETATM   10  C   UNL     1     -11.997   6.361  71.683  1.00  0.00    -0.291 C  
BRANCH  10  11
HETATM   11  C   UNL     1     -13.136   7.200  71.084  1.00  0.00    -0.294 C  
BRANCH  11  12
HETATM   12  C   UNL     1     -13.315   8.508  71.848  1.00  0.00    -0.372 C  
BRANCH  12  13
HETATM   13  O   UNL     1     -12.034   9.075  72.130  1.00  0.00    -0.357 OA 
BRANCH  13  14
HETATM   14  C   UNL     1     -11.408   9.690  71.077  1.00  0.00    -0.374 A  
HETATM   15  C   UNL     1     -12.025  10.482  70.105  1.00  0.00    -0.398 A  
HETATM   16  C   UNL     1     -11.286  10.990  69.027  1.00  0.00    -0.345 A  
HETATM   17  C   UNL     1      -9.917  10.717  68.917  1.00  0.00    -0.213 A  
HETATM   18  C   UNL     1      -9.282  10.013  69.947  1.00  0.00    -0.195 A  
HETATM   19  C   UNL     1     -10.032   9.472  70.999  1.00  0.00    -0.269 A  
BRANCH  17  20
HETATM   20  C   UNL     1      -9.184  11.150  67.683  1.00  0.00    -0.151 C  
HETATM   21  O   UNL     1      -8.082  10.659  67.457  1.00  0.00    -0.110 OA 
BRANCH  20  22
HETATM   22  C   UNL     1      -9.783  12.172  66.820  1.00  0.00    -0.215 A  
HETATM   23  C   UNL     1     -10.380  11.939  65.582  1.00  0.00    -0.247 A  
HETATM   24  C   UNL     1      -9.574  15.896  67.755  1.00  0.00    -0.218 A  
HETATM   25  O   UNL     1     -10.847  13.112  65.060  1.00  0.00    -0.292 OA 
HETATM   26  C   UNL     1     -10.258  16.360  66.634  1.00  0.00    -0.296 A  
HETATM   27  C   UNL     1     -10.484  14.112  65.895  1.00  0.00    -0.306 A  
HETATM   28  C   UNL     1      -9.800  13.605  66.991  1.00  0.00    -0.251 A  
HETATM   29  C   UNL     1     -10.722  15.465  65.667  1.00  0.00    -0.381 A  
HETATM   30  C   UNL     1      -9.298  14.535  67.924  1.00  0.00    -0.201 A  
BRANCH  23  31
HETATM   31  C   UNL     1     -10.509  10.793  64.635  1.00  0.00    -0.346 C  
BRANCH  31  32
HETATM   32  C   UNL     1      -9.910  10.944  63.237  1.00  0.00    -0.409 C  
BRANCH  32  33
HETATM   33  C   UNL     1      -8.809   9.881  63.078  1.00  0.00    -0.251 C  
HETATM   34  C   UNL     1      -7.543  10.170  63.864  1.00  0.00    -0.128 C  
ENDBRANCH  32  33
ENDBRANCH  31  32
ENDBRANCH  23  31
BRANCH  24  35
HETATM   35  N   UNL     1      -9.124  16.804  68.757  1.00  0.00    -0.259 N  
HETATM   36  H   UNL     1      -9.715  17.043  69.554  1.00  0.00     0.000 HD 
BRANCH  35  37
HETATM   37  S   UNL     1      -7.583  17.473  68.589  1.00  0.00    -0.266 S  
HETATM   38  C   UNL     1      -7.357  17.386  66.825  1.00  0.00    -0.215 C  
HETATM   39  O   UNL     1      -7.595  18.857  69.005  1.00  0.00    -0.314 OA 
HETATM   40  O   UNL     1      -6.681  16.515  69.193  1.00  0.00    -0.187 OA 
ENDBRANCH  35  37
ENDBRANCH  24  35
ENDBRANCH  20  22
ENDBRANCH  17  20
ENDBRANCH  13  14
ENDBRANCH  12  13
ENDBRANCH  11  12
ENDBRANCH  10  11
ENDBRANCH   5  10
ENDBRANCH   4   5
ENDBRANCH   3   4
ENDBRANCH   2   3
TORSDOF 18
ENDMDL
MODEL       62
REMARK 921   NORMALIZED FREE ENERGY PREDICTED BY IDOCK:   -5.04 KCAL/MOL
REMARK 922        TOTAL FREE ENERGY PREDICTED BY IDOCK:  -13.07 KCAL/MOL
REMARK 923 INTER-LIGAND FREE ENERGY PREDICTED BY IDOCK:   -8.11 KCAL/MOL
REMARK 924 INTRA-LIGAND FREE ENERGY PREDICTED BY IDOCK:   -4.96 KCAL/MOL
REMARK 927      BINDING AFFINITY PREDICTED BY RF-SCORE:    0.00 PKD
ROOT
HETATM    1  C   UNL     1     -12.194  12.944  63.364  1.00  0.00    -0.574 C  
HETATM    2  C   UNL     1     -12.458  12.757  64.852  1.00  0.00    -0.563 C  
ENDROOT
BRANCH   2   3
HETATM    3  C   UNL     1     -11.890  13.936  65.643  1.00  0.00    -0.383 C  
BRANCH   3   4
HETATM    4  C   UNL     1     -12.132  13.865  67.158  1.00  0.00    -0.387 C  
BRANCH   4   5
HETATM    5  N   UNL     1     -10.992  14.141  68.069  1.00  0.00    -0.250 NA 
BRANCH   5   6
HETATM    6  C   UNL     1     -10.375  12.881  68.545  1.00  0.00    -0.229 C  
BRANCH   6   7
HETATM    7  C   UNL     1     -10.203  11.754  67.508  1.00  0.00    -0.214 C  
BRANCH   7   8
HETATM    8  C   UNL     1     -10.998  10.483  67.814  1.00  0.00    -0.372 C  
HETATM    9  C   UNL     1     -11.661  10.578  69.182  1.00  0.00    -0.295 C  
ENDBRANCH   7   8
ENDBRANCH   6   7
ENDBRANCH   5   6
BRANCH   5  10
HETATM   10  C   UNL     1      -9.992  14.980  67.362  1.00  0.00    -0.226 C  
BRANCH  10  11
HETATM   11  C   UNL     1      -8.741  15.337  68.180  1.00  0.00    -0.162 C  
BRANCH  11  12
HETATM   12  C   UNL     1      -7.468  15.030  67.399  1.00  0.00    -0.205 C  
BRANCH  12  13
HETATM   13  O   UNL     1      -6.558  14.310  68.235  1.00  0.00    -0.091 OA 
BRANCH  13  14
HETATM   14  C   UNL     1      -6.692  12.946  68.227  1.00  0.00    -0.093 A  
HETATM   15  C   UNL     1      -6.891  12.134  69.347  1.00  0.00    -0.010 A  
HETATM   16  C   UNL     1      -6.931  10.738  69.215  1.00  0.00    -0.102 A  
HETATM   17  C   UNL     1      -6.782  10.142  67.957  1.00  0.00    -0.063 A  
HETATM   18  C   UNL     1      -6.689  10.961  66.826  1.00  0.00    -0.120 A  
HETATM   19  C   UNL     1      -6.607  12.352  66.967  1.00  0.00    -0.002 A  
BRANCH  17  20
HETATM   20  C   UNL     1      -6.685   8.649  67.866  1.00  0.00    -0.066 C  
HETATM   21  O   UNL     1      -5.574   8.131  67.942  1.00  0.00    -0.033 OA 
BRANCH  20  22
HETATM   22  C   UNL     1      -7.903   7.867  67.642  1.00  0.00    -0.122 A  
HETATM   23  C   UNL     1      -8.307   7.324  66.423  1.00  0.00    -0.124 A  
HETATM   24  C   UNL     1     -10.459   7.366  70.472  1.00  0.00    -0.218 A  
HETATM   25  O   UNL     1      -9.480   6.642  66.580  1.00  0.00    -0.163 OA 
HETATM   26  C   UNL     1     -11.351   6.605  69.722  1.00  0.00    -0.412 A  
HETATM   27  C   UNL     1      -9.890   6.809  67.858  1.00  0.00    -0.129 A  
HETATM   28  C   UNL     1      -8.976   7.578  68.564  1.00  0.00    -0.128 A  
HETATM   29  C   UNL     1     -11.084   6.318  68.380  1.00  0.00    -0.371 A  
HETATM   30  C   UNL     1      -9.296   7.895  69.900  1.00  0.00    -0.156 A  
BRANCH  23  31
HETATM   31  C   UNL     1      -7.876   7.414  64.997  1.00  0.00    -0.124 C  
BRANCH  31  32
HETATM   32  C   UNL     1      -7.847   8.794  64.341  1.00  0.00    -0.132 C  
BRANCH  32  33
HETATM   33  C   UNL     1      -9.178   9.497  64.662  1.00  0.00    -0.247 C  
HETATM   34  C   UNL     1      -9.348  10.848  63.992  1.00  0.00    -0.266 C  
ENDBRANCH  32  33
ENDBRANCH  31  32
ENDBRANCH  23  31
BRANCH  24  35
HETATM   35  N   UNL     1     -10.714   7.636  71.849  1.00  0.00    -0.215 N  
HETATM   36  H   UNL     1     -11.429   8.309  72.127  1.00  0.00     0.000 HD 
BRANCH  35  37
HETATM   37  S   UNL     1      -9.800   6.810  73.003  1.00  0.00    -0.182 S  
HETATM   38  C   UNL     1      -8.634   8.066  73.486  1.00  0.00    -0.256 C  
HETATM   39  O   UNL     1     -10.629   6.462  74.135  1.00  0.00    -0.283 OA 
HETATM   40  O   UNL     1      -9.074   5.799  72.265  1.00  0.00    -0.142 OA 
ENDBRANCH  35  37
ENDBRANCH  24  35
ENDBRANCH  20  22
ENDBRANCH  17  20
ENDBRANCH  13  14
ENDBRANCH  12  13
ENDBRANCH  11  12
ENDBRANCH  10  11
ENDBRANCH   5  10
ENDBRANCH   4   5
ENDBRANCH   3   4
ENDBRANCH   2   3
TORSDOF 18
ENDMDL
MODEL       63
REMARK 921   NORMALIZED FREE ENERGY PREDICTED BY IDOCK:   -5.03 KCAL/MOL
REMARK 922        TOTAL FREE ENERGY PREDICTED BY IDOCK:  -13.05 KCAL/MOL
REMARK 923 INTER-LIGAND FREE ENERGY PREDICTED BY IDOCK:  -10.34 KCAL/MOL
REMARK 924 INTRA-LIGAND FREE ENERGY PREDICTED BY IDOCK:   -2.71 KCAL/MOL
REMARK 927      BINDING AFFINITY PREDICTED BY RF-SCORE:    0.00 PKD
ROOT
HETATM    1  C   UNL     1      -7.335   4.459  67.811  1.00  0.00    -0.069 C  
HETATM    2  C   UNL     1      -8.540   3.527  67.836  1.00  0.00    -0.117 C  
ENDROOT
BRANCH   2   3
HETATM    3  C   UNL     1      -9.812   4.295  67.476  1.00  0.00    -0.162 C  
BRANCH   3   4
HETATM    4  C   UNL     1     -10.266   5.311  68.536  1.00  0.00    -0.144 C  
BRANCH   4   5
HETATM    5  N   UNL     1     -10.622   6.682  68.092  1.00  0.00    -0.216 NA 
BRANCH   5   6
HETATM    6  C   UNL     1     -10.079   7.699  69.022  1.00  0.00    -0.198 C  
BRANCH   6   7
HETATM    7  C   UNL     1      -9.092   7.203  70.098  1.00  0.00    -0.152 C  
BRANCH   7   8
HETATM    8  C   UNL     1      -8.134   8.275  70.622  1.00  0.00    -0.110 C  
HETATM    9  C   UNL     1      -8.518   9.649  70.088  1.00  0.00    -0.231 C  
ENDBRANCH   7   8
ENDBRANCH   6   7
ENDBRANCH   5   6
BRANCH   5  10
HETATM   10  C   UNL     1     -10.106   6.902  66.716  1.00  0.00    -0.194 C  
BRANCH  10  11
HETATM   11  C   UNL     1      -8.805   7.713  66.626  1.00  0.00    -0.159 C  
BRANCH  11  12
HETATM   12  C   UNL     1      -8.565   8.212  65.205  1.00  0.00    -0.106 C  
BRANCH  12  13
HETATM   13  O   UNL     1      -8.063   9.550  65.248  1.00  0.00    -0.116 OA 
BRANCH  13  14
HETATM   14  C   UNL     1      -8.922  10.494  65.744  1.00  0.00    -0.180 A  
HETATM   15  C   UNL     1     -10.246  10.692  65.343  1.00  0.00    -0.341 A  
HETATM   16  C   UNL     1     -11.000  11.749  65.872  1.00  0.00    -0.354 A  
HETATM   17  C   UNL     1     -10.437  12.616  66.817  1.00  0.00    -0.254 A  
HETATM   18  C   UNL     1      -9.147  12.352  67.293  1.00  0.00    -0.187 A  
HETATM   19  C   UNL     1      -8.384  11.321  66.732  1.00  0.00    -0.156 A  
BRANCH  17  20
HETATM   20  C   UNL     1     -11.215  13.820  67.256  1.00  0.00    -0.311 C  
HETATM   21  O   UNL     1     -11.433  14.705  66.433  1.00  0.00    -0.349 OA 
BRANCH  20  22
HETATM   22  C   UNL     1     -11.643  13.921  68.653  1.00  0.00    -0.363 A  
HETATM   23  C   UNL     1     -11.595  15.075  69.434  1.00  0.00    -0.315 A  
HETATM   24  C   UNL     1     -12.800  10.802  70.582  1.00  0.00    -0.293 A  
HETATM   25  O   UNL     1     -12.089  14.817  70.681  1.00  0.00    -0.271 OA 
HETATM   26  C   UNL     1     -13.055  11.465  71.780  1.00  0.00    -0.523 A  
HETATM   27  C   UNL     1     -12.372  13.496  70.750  1.00  0.00    -0.363 A  
HETATM   28  C   UNL     1     -12.096  12.876  69.540  1.00  0.00    -0.274 A  
HETATM   29  C   UNL     1     -12.832  12.841  71.889  1.00  0.00    -0.306 A  
HETATM   30  C   UNL     1     -12.280  11.481  69.473  1.00  0.00    -0.287 A  
BRANCH  23  31
HETATM   31  C   UNL     1     -11.024  16.449  69.311  1.00  0.00    -0.322 C  
BRANCH  31  32
HETATM   32  C   UNL     1      -9.543  16.582  68.958  1.00  0.00    -0.255 C  
BRANCH  32  33
HETATM   33  C   UNL     1      -9.435  17.470  67.706  1.00  0.00    -0.269 C  
HETATM   34  C   UNL     1     -10.632  18.373  67.475  1.00  0.00    -0.447 C  
ENDBRANCH  32  33
ENDBRANCH  31  32
ENDBRANCH  23  31
BRANCH  24  35
HETATM   35  N   UNL     1     -13.053   9.405  70.458  1.00  0.00    -0.365 N  
HETATM   36  H   UNL     1     -13.160   8.970  69.541  1.00  0.00     0.000 HD 
BRANCH  35  37
HETATM   37  S   UNL     1     -13.169   8.490  71.873  1.00  0.00    -0.383 S  
HETATM   38  C   UNL     1     -11.497   8.576  72.480  1.00  0.00    -0.298 C  
HETATM   39  O   UNL     1     -14.055   9.139  72.811  1.00  0.00    -0.518 OA 
HETATM   40  O   UNL     1     -13.405   7.131  71.432  1.00  0.00    -0.381 OA 
ENDBRANCH  35  37
ENDBRANCH  24  35
ENDBRANCH  20  22
ENDBRANCH  17  20
ENDBRANCH  13  14
ENDBRANCH  12  13
ENDBRANCH  11  12
ENDBRANCH  10  11
ENDBRANCH   5  10
ENDBRANCH   4   5
ENDBRANCH   3   4
ENDBRANCH   2   3
TORSDOF 18
ENDMDL
MODEL       64
REMARK 921   NORMALIZED FREE ENERGY PREDICTED BY IDOCK:   -5.03 KCAL/MOL
REMARK 922        TOTAL FREE ENERGY PREDICTED BY IDOCK:  -13.05 KCAL/MOL
REMARK 923 INTER-LIGAND FREE ENERGY PREDICTED BY IDOCK:  -10.00 KCAL/MOL
REMARK 924 INTRA-LIGAND FREE ENERGY PREDICTED BY IDOCK:   -3.05 KCAL/MOL
REMARK 927      BINDING AFFINITY PREDICTED BY RF-SCORE:    0.00 PKD
ROOT
HETATM    1  C   UNL     1     -10.601  19.829  66.291  1.00  0.00    -0.572 C  
HETATM    2  C   UNL     1      -9.793  19.933  67.578  1.00  0.00    -0.538 C  
ENDROOT
BRANCH   2   3
HETATM    3  C   UNL     1      -9.905  18.637  68.380  1.00  0.00    -0.424 C  
BRANCH   3   4
HETATM    4  C   UNL     1     -10.741  17.539  67.706  1.00  0.00    -0.332 C  
BRANCH   4   5
HETATM    5  N   UNL     1     -10.134  16.195  67.533  1.00  0.00    -0.251 NA 
BRANCH   5   6
HETATM    6  C   UNL     1     -11.176  15.143  67.479  1.00  0.00    -0.330 C  
BRANCH   6   7
HETATM    7  C   UNL     1     -11.124  14.055  68.570  1.00  0.00    -0.279 C  
BRANCH   7   8
HETATM    8  C   UNL     1     -11.741  12.717  68.160  1.00  0.00    -0.396 C  
HETATM    9  C   UNL     1     -11.892  12.633  66.647  1.00  0.00    -0.449 C  
ENDBRANCH   7   8
ENDBRANCH   6   7
ENDBRANCH   5   6
BRANCH   5  10
HETATM   10  C   UNL     1      -9.314  16.183  66.294  1.00  0.00    -0.317 C  
BRANCH  10  11
HETATM   11  C   UNL     1      -7.802  16.355  66.508  1.00  0.00    -0.323 C  
BRANCH  11  12
HETATM   12  C   UNL     1      -7.318  15.533  67.697  1.00  0.00    -0.174 C  
BRANCH  12  13
HETATM   13  O   UNL     1      -6.636  14.368  67.226  1.00  0.00    -0.283 OA 
BRANCH  13  14
HETATM   14  C   UNL     1      -7.000  13.185  67.814  1.00  0.00    -0.145 A  
HETATM   15  C   UNL     1      -8.138  12.433  67.510  1.00  0.00    -0.173 A  
HETATM   16  C   UNL     1      -8.443  11.277  68.243  1.00  0.00    -0.152 A  
HETATM   17  C   UNL     1      -7.605  10.856  69.283  1.00  0.00    -0.113 A  
HETATM   18  C   UNL     1      -6.412  11.552  69.514  1.00  0.00    -0.124 A  
HETATM   19  C   UNL     1      -6.134  12.729  68.809  1.00  0.00    -0.071 A  
BRANCH  17  20
HETATM   20  C   UNL     1      -8.030   9.703  70.140  1.00  0.00    -0.176 C  
HETATM   21  O   UNL     1      -7.387   9.465  71.159  1.00  0.00    -0.283 OA 
BRANCH  20  22
HETATM   22  C   UNL     1      -9.160   8.875  69.713  1.00  0.00    -0.151 A  
HETATM   23  C   UNL     1     -10.347   8.693  70.423  1.00  0.00    -0.200 A  
HETATM   24  C   UNL     1      -8.937   6.749  66.516  1.00  0.00    -0.149 A  
HETATM   25  O   UNL     1     -11.188   7.874  69.725  1.00  0.00    -0.143 OA 
HETATM   26  C   UNL     1     -10.215   6.206  66.619  1.00  0.00    -0.237 A  
HETATM   27  C   UNL     1     -10.534   7.450  68.620  1.00  0.00    -0.189 A  
HETATM   28  C   UNL     1      -9.265   8.009  68.563  1.00  0.00    -0.135 A  
HETATM   29  C   UNL     1     -11.043   6.544  67.693  1.00  0.00    -0.380 A  
HETATM   30  C   UNL     1      -8.433   7.611  67.497  1.00  0.00    -0.116 A  
BRANCH  23  31
HETATM   31  C   UNL     1     -10.866   9.035  71.780  1.00  0.00    -0.437 C  
BRANCH  31  32
HETATM   32  C   UNL     1     -12.337   9.427  71.908  1.00  0.00    -0.450 C  
BRANCH  32  33
HETATM   33  C   UNL     1     -12.559  10.705  71.080  1.00  0.00    -0.526 C  
HETATM   34  C   UNL     1     -13.246  11.828  71.836  1.00  0.00    -0.468 C  
ENDBRANCH  32  33
ENDBRANCH  31  32
ENDBRANCH  23  31
BRANCH  24  35
HETATM   35  N   UNL     1      -8.100   6.430  65.407  1.00  0.00    -0.123 N  
HETATM   36  H   UNL     1      -7.768   5.477  65.258  1.00  0.00     0.000 HD 
BRANCH  35  37
HETATM   37  S   UNL     1      -7.676   7.674  64.347  1.00  0.00    -0.131 S  
HETATM   38  C   UNL     1      -7.672   6.816  62.787  1.00  0.00    -0.105 C  
HETATM   39  O   UNL     1      -8.705   8.688  64.336  1.00  0.00    -0.109 OA 
HETATM   40  O   UNL     1      -6.302   8.000  64.670  1.00  0.00    -0.052 OA 
ENDBRANCH  35  37
ENDBRANCH  24  35
ENDBRANCH  20  22
ENDBRANCH  17  20
ENDBRANCH  13  14
ENDBRANCH  12  13
ENDBRANCH  11  12
ENDBRANCH  10  11
ENDBRANCH   5  10
ENDBRANCH   4   5
ENDBRANCH   3   4
ENDBRANCH   2   3
TORSDOF 18
ENDMDL
MODEL       65
REMARK 921   NORMALIZED FREE ENERGY PREDICTED BY IDOCK:   -5.02 KCAL/MOL
REMARK 922        TOTAL FREE ENERGY PREDICTED BY IDOCK:  -13.02 KCAL/MOL
REMARK 923 INTER-LIGAND FREE ENERGY PREDICTED BY IDOCK:   -9.96 KCAL/MOL
REMARK 924 INTRA-LIGAND FREE ENERGY PREDICTED BY IDOCK:   -3.06 KCAL/MOL
REMARK 927      BINDING AFFINITY PREDICTED BY RF-SCORE:    0.00 PKD
ROOT
HETATM    1  C   UNL     1     -11.233   4.696  73.064  1.00  0.00    -0.312 C  
HETATM    2  C   UNL     1     -11.472   5.951  72.234  1.00  0.00    -0.351 C  
ENDROOT
BRANCH   2   3
HETATM    3  C   UNL     1     -10.825   5.807  70.857  1.00  0.00    -0.326 C  
BRANCH   3   4
HETATM    4  C   UNL     1      -9.477   5.070  70.858  1.00  0.00    -0.162 C  
BRANCH   4   5
HETATM    5  N   UNL     1      -8.266   5.814  71.287  1.00  0.00    -0.121 NA 
BRANCH   5   6
HETATM    6  C   UNL     1      -7.407   4.976  72.156  1.00  0.00    -0.090 C  
BRANCH   6   7
HETATM    7  C   UNL     1      -7.499   5.225  73.675  1.00  0.00    -0.095 C  
BRANCH   7   8
HETATM    8  C   UNL     1      -7.880   3.992  74.498  1.00  0.00    -0.086 C  
HETATM    9  C   UNL     1      -8.070   2.779  73.596  1.00  0.00    -0.067 C  
ENDBRANCH   7   8
ENDBRANCH   6   7
ENDBRANCH   5   6
BRANCH   5  10
HETATM   10  C   UNL     1      -7.516   6.264  70.087  1.00  0.00    -0.094 C  
BRANCH  10  11
HETATM   11  C   UNL     1      -7.690   5.386  68.839  1.00  0.00    -0.083 C  
BRANCH  11  12
HETATM   12  C   UNL     1      -8.112   6.219  67.634  1.00  0.00    -0.117 C  
BRANCH  12  13
HETATM   13  O   UNL     1      -7.562   7.534  67.748  1.00  0.00    -0.101 OA 
BRANCH  13  14
HETATM   14  C   UNL     1      -8.430   8.567  67.509  1.00  0.00    -0.128 A  
HETATM   15  C   UNL     1      -8.076   9.881  67.192  1.00  0.00    -0.117 A  
HETATM   16  C   UNL     1      -9.061  10.869  67.050  1.00  0.00    -0.158 A  
HETATM   17  C   UNL     1     -10.414  10.548  67.215  1.00  0.00    -0.300 A  
HETATM   18  C   UNL     1     -10.771   9.211  67.428  1.00  0.00    -0.247 A  
HETATM   19  C   UNL     1      -9.783   8.237  67.611  1.00  0.00    -0.201 A  
BRANCH  17  20
HETATM   20  C   UNL     1     -11.431  11.649  67.200  1.00  0.00    -0.271 C  
HETATM   21  O   UNL     1     -12.016  11.889  66.147  1.00  0.00    -0.537 OA 
BRANCH  20  22
HETATM   22  C   UNL     1     -11.658  12.427  68.420  1.00  0.00    -0.373 A  
HETATM   23  C   UNL     1     -12.159  11.925  69.621  1.00  0.00    -0.239 A  
HETATM   24  C   UNL     1     -11.118  16.234  68.449  1.00  0.00    -0.362 A  
HETATM   25  O   UNL     1     -12.225  12.921  70.553  1.00  0.00    -0.368 OA 
HETATM   26  C   UNL     1     -11.474  16.416  69.783  1.00  0.00    -0.095 A  
HETATM   27  C   UNL     1     -11.860  14.076  69.953  1.00  0.00    -0.329 A  
HETATM   28  C   UNL     1     -11.522  13.849  68.626  1.00  0.00    -0.333 A  
HETATM   29  C   UNL     1     -11.867  15.327  70.565  1.00  0.00    -0.363 A  
HETATM   30  C   UNL     1     -11.180  14.972  67.847  1.00  0.00    -0.330 A  
BRANCH  23  31
HETATM   31  C   UNL     1     -12.765  10.646  70.097  1.00  0.00    -0.224 C  
BRANCH  31  32
HETATM   32  C   UNL     1     -12.817  10.393  71.603  1.00  0.00    -0.579 C  
BRANCH  32  33
HETATM   33  C   UNL     1     -11.840   9.248  71.923  1.00  0.00    -0.426 C  
HETATM   34  C   UNL     1     -10.478   9.388  71.269  1.00  0.00    -0.385 C  
ENDBRANCH  32  33
ENDBRANCH  31  32
ENDBRANCH  23  31
BRANCH  24  35
HETATM   35  N   UNL     1     -10.690  17.338  67.655  1.00  0.00    -0.343 N  
HETATM   36  H   UNL     1     -11.342  18.073  67.383  1.00  0.00     0.000 HD 
BRANCH  35  37
HETATM   37  S   UNL     1      -9.070  17.393  67.179  1.00  0.00    -0.242 S  
HETATM   38  C   UNL     1      -8.758  19.146  67.211  1.00  0.00    -0.286 C  
HETATM   39  O   UNL     1      -8.241  16.739  68.164  1.00  0.00    -0.187 OA 
HETATM   40  O   UNL     1      -9.065  16.974  65.793  1.00  0.00    -0.530 OA 
ENDBRANCH  35  37
ENDBRANCH  24  35
ENDBRANCH  20  22
ENDBRANCH  17  20
ENDBRANCH  13  14
ENDBRANCH  12  13
ENDBRANCH  11  12
ENDBRANCH  10  11
ENDBRANCH   5  10
ENDBRANCH   4   5
ENDBRANCH   3   4
ENDBRANCH   2   3
TORSDOF 18
ENDMDL
MODEL       66
REMARK 921   NORMALIZED FREE ENERGY PREDICTED BY IDOCK:   -5.02 KCAL/MOL
REMARK 922        TOTAL FREE ENERGY PREDICTED BY IDOCK:  -13.02 KCAL/MOL
REMARK 923 INTER-LIGAND FREE ENERGY PREDICTED BY IDOCK:  -10.73 KCAL/MOL
REMARK 924 INTRA-LIGAND FREE ENERGY PREDICTED BY IDOCK:   -2.29 KCAL/MOL
REMARK 927      BINDING AFFINITY PREDICTED BY RF-SCORE:    0.00 PKD
ROOT
HETATM    1  C   UNL     1     -10.294  18.980  66.541  1.00  0.00    -0.512 C  
HETATM    2  C   UNL     1      -8.900  18.367  66.515  1.00  0.00    -0.289 C  
ENDROOT
BRANCH   2   3
HETATM    3  C   UNL     1      -8.983  16.872  66.207  1.00  0.00    -0.305 C  
BRANCH   3   4
HETATM    4  C   UNL     1     -10.337  16.411  65.645  1.00  0.00    -0.350 C  
BRANCH   4   5
HETATM    5  N   UNL     1     -11.212  15.577  66.508  1.00  0.00    -0.182 NA 
BRANCH   5   6
HETATM    6  C   UNL     1     -11.371  14.216  65.947  1.00  0.00    -0.323 C  
BRANCH   6   7
HETATM    7  C   UNL     1     -12.422  14.039  64.834  1.00  0.00    -0.419 C  
BRANCH   7   8
HETATM    8  C   UNL     1     -12.485  12.632  64.238  1.00  0.00    -0.494 C  
HETATM    9  C   UNL     1     -11.159  12.264  63.584  1.00  0.00    -0.537 C  
ENDBRANCH   7   8
ENDBRANCH   6   7
ENDBRANCH   5   6
BRANCH   5  10
HETATM   10  C   UNL     1     -10.637  15.517  67.876  1.00  0.00    -0.274 C  
BRANCH  10  11
HETATM   11  C   UNL     1     -11.543  16.060  68.992  1.00  0.00    -0.350 C  
BRANCH  11  12
HETATM   12  C   UNL     1     -11.779  15.007  70.069  1.00  0.00    -0.306 C  
BRANCH  12  13
HETATM   13  O   UNL     1     -12.509  13.910  69.513  1.00  0.00    -0.286 OA 
BRANCH  13  14
HETATM   14  C   UNL     1     -12.087  12.662  69.888  1.00  0.00    -0.252 A  
HETATM   15  C   UNL     1     -12.544  11.938  70.993  1.00  0.00    -0.381 A  
HETATM   16  C   UNL     1     -11.973  10.700  71.318  1.00  0.00    -0.344 A  
HETATM   17  C   UNL     1     -10.943  10.167  70.533  1.00  0.00    -0.380 A  
HETATM   18  C   UNL     1     -10.561  10.844  69.369  1.00  0.00    -0.233 A  
HETATM   19  C   UNL     1     -11.105  12.100  69.072  1.00  0.00    -0.290 A  
BRANCH  17  20
HETATM   20  C   UNL     1     -10.255   8.915  70.985  1.00  0.00    -0.254 C  
HETATM   21  O   UNL     1      -9.492   8.983  71.945  1.00  0.00    -0.313 OA 
BRANCH  20  22
HETATM   22  C   UNL     1     -10.476   7.672  70.243  1.00  0.00    -0.224 A  
HETATM   23  C   UNL     1     -11.087   6.524  70.747  1.00  0.00    -0.300 A  
HETATM   24  C   UNL     1      -9.114   7.250  66.671  1.00  0.00    -0.154 A  
HETATM   25  O   UNL     1     -11.145   5.562  69.780  1.00  0.00    -0.256 OA 
HETATM   26  C   UNL     1      -9.589   5.953  66.493  1.00  0.00    -0.180 A  
HETATM   27  C   UNL     1     -10.502   6.032  68.687  1.00  0.00    -0.241 A  
HETATM   28  C   UNL     1     -10.040   7.321  68.912  1.00  0.00    -0.180 A  
HETATM   29  C   UNL     1     -10.292   5.309  67.515  1.00  0.00    -0.221 A  
HETATM   30  C   UNL     1      -9.291   7.927  67.884  1.00  0.00    -0.150 A  
BRANCH  23  31
HETATM   31  C   UNL     1     -11.553   6.035  72.078  1.00  0.00    -0.333 C  
BRANCH  31  32
HETATM   32  C   UNL     1     -10.653   5.064  72.842  1.00  0.00    -0.280 C  
BRANCH  32  33
HETATM   33  C   UNL     1      -9.210   5.593  72.757  1.00  0.00    -0.135 C  
HETATM   34  C   UNL     1      -8.295   4.773  71.866  1.00  0.00    -0.114 C  
ENDBRANCH  32  33
ENDBRANCH  31  32
ENDBRANCH  23  31
BRANCH  24  35
HETATM   35  N   UNL     1      -8.422   7.920  65.621  1.00  0.00    -0.145 N  
HETATM   36  H   UNL     1      -7.571   7.527  65.219  1.00  0.00     0.000 HD 
BRANCH  35  37
HETATM   37  S   UNL     1      -9.052   9.383  65.061  1.00  0.00    -0.189 S  
HETATM   38  C   UNL     1      -7.865  10.542  65.707  1.00  0.00    -0.154 C  
HETATM   39  O   UNL     1      -9.021   9.417  63.617  1.00  0.00    -0.218 OA 
HETATM   40  O   UNL     1     -10.289   9.571  65.791  1.00  0.00    -0.182 OA 
ENDBRANCH  35  37
ENDBRANCH  24  35
ENDBRANCH  20  22
ENDBRANCH  17  20
ENDBRANCH  13  14
ENDBRANCH  12  13
ENDBRANCH  11  12
ENDBRANCH  10  11
ENDBRANCH   5  10
ENDBRANCH   4   5
ENDBRANCH   3   4
ENDBRANCH   2   3
TORSDOF 18
ENDMDL
MODEL       67
REMARK 921   NORMALIZED FREE ENERGY PREDICTED BY IDOCK:   -5.01 KCAL/MOL
REMARK 922        TOTAL FREE ENERGY PREDICTED BY IDOCK:  -13.00 KCAL/MOL
REMARK 923 INTER-LIGAND FREE ENERGY PREDICTED BY IDOCK:  -10.34 KCAL/MOL
REMARK 924 INTRA-LIGAND FREE ENERGY PREDICTED BY IDOCK:   -2.67 KCAL/MOL
REMARK 927      BINDING AFFINITY PREDICTED BY RF-SCORE:    0.00 PKD
ROOT
HETATM    1  C   UNL     1      -6.679  13.506  67.623  1.00  0.00    -0.176 C  
HETATM    2  C   UNL     1      -7.913  13.376  68.507  1.00  0.00    -0.107 C  
ENDROOT
BRANCH   2   3
HETATM    3  C   UNL     1      -8.880  14.529  68.241  1.00  0.00    -0.179 C  
BRANCH   3   4
HETATM    4  C   UNL     1      -9.300  14.684  66.771  1.00  0.00    -0.257 C  
BRANCH   4   5
HETATM    5  N   UNL     1     -10.504  15.496  66.463  1.00  0.00    -0.294 NA 
BRANCH   5   6
HETATM    6  C   UNL     1     -10.342  16.889  66.940  1.00  0.00    -0.304 C  
BRANCH   6   7
HETATM    7  C   UNL     1     -10.590  18.011  65.911  1.00  0.00    -0.225 C  
BRANCH   7   8
HETATM    8  C   UNL     1     -10.133  19.399  66.364  1.00  0.00    -0.532 C  
HETATM    9  C   UNL     1     -10.612  19.689  67.781  1.00  0.00    -0.530 C  
ENDBRANCH   7   8
ENDBRANCH   6   7
ENDBRANCH   5   6
BRANCH   5  10
HETATM   10  C   UNL     1     -10.752  15.468  64.999  1.00  0.00    -0.441 C  
BRANCH  10  11
HETATM   11  C   UNL     1     -12.144  14.971  64.580  1.00  0.00    -0.330 C  
BRANCH  11  12
HETATM   12  C   UNL     1     -12.770  14.106  65.669  1.00  0.00    -0.441 C  
BRANCH  12  13
HETATM   13  O   UNL     1     -12.709  12.731  65.280  1.00  0.00    -0.625 OA 
BRANCH  13  14
HETATM   14  C   UNL     1     -11.651  12.017  65.777  1.00  0.00    -0.290 A  
HETATM   15  C   UNL     1     -10.623  11.442  65.025  1.00  0.00    -0.359 A  
HETATM   16  C   UNL     1      -9.637  10.662  65.647  1.00  0.00    -0.268 A  
HETATM   17  C   UNL     1      -9.665  10.458  67.032  1.00  0.00    -0.216 A  
HETATM   18  C   UNL     1     -10.634  11.121  67.794  1.00  0.00    -0.248 A  
HETATM   19  C   UNL     1     -11.641  11.864  67.164  1.00  0.00    -0.363 A  
BRANCH  17  20
HETATM   20  C   UNL     1      -8.686   9.505  67.648  1.00  0.00    -0.122 C  
HETATM   21  O   UNL     1      -7.528   9.881  67.808  1.00  0.00    -0.089 OA 
BRANCH  20  22
HETATM   22  C   UNL     1      -9.128   8.152  67.993  1.00  0.00    -0.134 A  
HETATM   23  C   UNL     1      -8.910   7.007  67.227  1.00  0.00    -0.119 A  
HETATM   24  C   UNL     1     -11.298   7.531  71.107  1.00  0.00    -0.267 A  
HETATM   25  O   UNL     1      -9.441   5.917  67.854  1.00  0.00    -0.110 OA 
HETATM   26  C   UNL     1     -11.409   6.154  70.927  1.00  0.00    -0.355 A  
HETATM   27  C   UNL     1     -10.077   6.346  68.967  1.00  0.00    -0.165 A  
HETATM   28  C   UNL     1      -9.947   7.721  69.101  1.00  0.00    -0.182 A  
HETATM   29  C   UNL     1     -10.801   5.531  69.834  1.00  0.00    -0.298 A  
HETATM   30  C   UNL     1     -10.613   8.330  70.184  1.00  0.00    -0.233 A  
BRANCH  23  31
HETATM   31  C   UNL     1      -8.387   6.694  65.864  1.00  0.00    -0.137 C  
BRANCH  31  32
HETATM   32  C   UNL     1      -8.551   5.267  65.343  1.00  0.00    -0.149 C  
BRANCH  32  33
HETATM   33  C   UNL     1      -7.807   5.168  63.999  1.00  0.00    -0.094 C  
HETATM   34  C   UNL     1      -8.330   4.084  63.074  1.00  0.00    -0.088 C  
ENDBRANCH  32  33
ENDBRANCH  31  32
ENDBRANCH  23  31
BRANCH  24  35
HETATM   35  N   UNL     1     -11.892   8.166  72.236  1.00  0.00    -0.358 N  
HETATM   36  H   UNL     1     -11.387   8.250  73.118  1.00  0.00     0.000 HD 
BRANCH  35  37
HETATM   37  S   UNL     1     -13.459   8.774  72.072  1.00  0.00    -0.443 S  
HETATM   38  C   UNL     1     -14.275   7.417  71.256  1.00  0.00    -0.267 C  
HETATM   39  O   UNL     1     -14.051   8.978  73.374  1.00  0.00    -0.160 OA 
HETATM   40  O   UNL     1     -13.351   9.857  71.117  1.00  0.00    -0.380 OA 
ENDBRANCH  35  37
ENDBRANCH  24  35
ENDBRANCH  20  22
ENDBRANCH  17  20
ENDBRANCH  13  14
ENDBRANCH  12  13
ENDBRANCH  11  12
ENDBRANCH  10  11
ENDBRANCH   5  10
ENDBRANCH   4   5
ENDBRANCH   3   4
ENDBRANCH   2   3
TORSDOF 18
ENDMDL
MODEL       68
REMARK 921   NORMALIZED FREE ENERGY PREDICTED BY IDOCK:   -5.00 KCAL/MOL
REMARK 922        TOTAL FREE ENERGY PREDICTED BY IDOCK:  -12.98 KCAL/MOL
REMARK 923 INTER-LIGAND FREE ENERGY PREDICTED BY IDOCK:  -10.01 KCAL/MOL
REMARK 924 INTRA-LIGAND FREE ENERGY PREDICTED BY IDOCK:   -2.96 KCAL/MOL
REMARK 927      BINDING AFFINITY PREDICTED BY RF-SCORE:    0.00 PKD
ROOT
HETATM    1  C   UNL     1     -10.497  19.189  66.712  1.00  0.00    -0.524 C  
HETATM    2  C   UNL     1      -9.663  17.981  66.305  1.00  0.00    -0.276 C  
ENDROOT
BRANCH   2   3
HETATM    3  C   UNL     1     -10.573  16.830  65.875  1.00  0.00    -0.255 C  
BRANCH   3   4
HETATM    4  C   UNL     1     -10.077  15.436  66.289  1.00  0.00    -0.292 C  
BRANCH   4   5
HETATM    5  N   UNL     1     -11.063  14.471  66.838  1.00  0.00    -0.317 NA 
BRANCH   5   6
HETATM    6  C   UNL     1     -12.012  14.027  65.790  1.00  0.00    -0.404 C  
BRANCH   6   7
HETATM    7  C   UNL     1     -11.925  12.552  65.351  1.00  0.00    -0.492 C  
BRANCH   7   8
HETATM    8  C   UNL     1     -11.743  12.348  63.845  1.00  0.00    -0.529 C  
HETATM    9  C   UNL     1     -10.470  11.563  63.557  1.00  0.00    -0.486 C  
ENDBRANCH   7   8
ENDBRANCH   6   7
ENDBRANCH   5   6
BRANCH   5  10
HETATM   10  C   UNL     1     -10.342  13.309  67.418  1.00  0.00    -0.243 C  
BRANCH  10  11
HETATM   11  C   UNL     1      -8.851  13.218  67.058  1.00  0.00    -0.216 C  
BRANCH  11  12
HETATM   12  C   UNL     1      -8.284  11.847  67.408  1.00  0.00    -0.164 C  
BRANCH  12  13
HETATM   13  O   UNL     1      -8.160  11.064  66.218  1.00  0.00    -0.162 OA 
BRANCH  13  14
HETATM   14  C   UNL     1      -8.591   9.766  66.311  1.00  0.00    -0.127 A  
HETATM   15  C   UNL     1      -9.918   9.334  66.233  1.00  0.00    -0.357 A  
HETATM   16  C   UNL     1     -10.238   7.983  66.425  1.00  0.00    -0.096 A  
HETATM   17  C   UNL     1      -9.230   7.047  66.688  1.00  0.00    -0.189 A  
HETATM   18  C   UNL     1      -7.895   7.465  66.662  1.00  0.00    -0.109 A  
HETATM   19  C   UNL     1      -7.583   8.822  66.511  1.00  0.00    -0.095 A  
BRANCH  17  20
HETATM   20  C   UNL     1      -9.615   5.639  67.031  1.00  0.00    -0.136 C  
HETATM   21  O   UNL     1      -9.896   4.871  66.115  1.00  0.00    -0.169 OA 
BRANCH  20  22
HETATM   22  C   UNL     1      -9.687   5.243  68.440  1.00  0.00    -0.189 A  
HETATM   23  C   UNL     1      -9.045   4.143  69.007  1.00  0.00    -0.129 A  
HETATM   24  C   UNL     1     -11.980   7.121  70.890  1.00  0.00    -0.334 A  
HETATM   25  O   UNL     1      -9.316   4.082  70.344  1.00  0.00    -0.127 OA 
HETATM   26  C   UNL     1     -11.662   6.345  72.003  1.00  0.00    -0.376 A  
HETATM   27  C   UNL     1     -10.193   5.069  70.636  1.00  0.00    -0.235 A  
HETATM   28  C   UNL     1     -10.486   5.810  69.500  1.00  0.00    -0.364 A  
HETATM   29  C   UNL     1     -10.758   5.285  71.891  1.00  0.00    -0.252 A  
HETATM   30  C   UNL     1     -11.439   6.840  69.631  1.00  0.00    -0.286 A  
BRANCH  23  31
HETATM   31  C   UNL     1      -8.276   2.961  68.518  1.00  0.00    -0.080 C  
BRANCH  31  32
HETATM   32  C   UNL     1      -6.750   3.042  68.528  1.00  0.00    -0.040 C  
BRANCH  32  33
HETATM   33  C   UNL     1      -6.328   4.108  67.501  1.00  0.00    -0.037 C  
HETATM   34  C   UNL     1      -6.638   3.745  66.060  1.00  0.00    -0.037 C  
ENDBRANCH  32  33
ENDBRANCH  31  32
ENDBRANCH  23  31
BRANCH  24  35
HETATM   35  N   UNL     1     -12.879   8.221  71.007  1.00  0.00    -0.508 N  
HETATM   36  H   UNL     1     -13.878   8.103  70.836  1.00  0.00     0.000 HD 
BRANCH  35  37
HETATM   37  S   UNL     1     -12.243   9.726  71.435  1.00  0.00    -0.423 S  
HETATM   38  C   UNL     1     -12.155  10.529  69.848  1.00  0.00    -0.245 C  
HETATM   39  O   UNL     1     -13.173  10.434  72.282  1.00  0.00    -0.400 OA 
HETATM   40  O   UNL     1     -10.886   9.459  71.865  1.00  0.00    -0.310 OA 
ENDBRANCH  35  37
ENDBRANCH  24  35
ENDBRANCH  20  22
ENDBRANCH  17  20
ENDBRANCH  13  14
ENDBRANCH  12  13
ENDBRANCH  11  12
ENDBRANCH  10  11
ENDBRANCH   5  10
ENDBRANCH   4   5
ENDBRANCH   3   4
ENDBRANCH   2   3
TORSDOF 18
ENDMDL
MODEL       69
REMARK 921   NORMALIZED FREE ENERGY PREDICTED BY IDOCK:   -4.98 KCAL/MOL
REMARK 922        TOTAL FREE ENERGY PREDICTED BY IDOCK:  -12.94 KCAL/MOL
REMARK 923 INTER-LIGAND FREE ENERGY PREDICTED BY IDOCK:  -10.92 KCAL/MOL
REMARK 924 INTRA-LIGAND FREE ENERGY PREDICTED BY IDOCK:   -2.01 KCAL/MOL
REMARK 927      BINDING AFFINITY PREDICTED BY RF-SCORE:    0.00 PKD
ROOT
HETATM    1  C   UNL     1     -12.704   8.497  71.481  1.00  0.00    -0.340 C  
HETATM    2  C   UNL     1     -12.007   7.152  71.319  1.00  0.00    -0.374 C  
ENDROOT
BRANCH   2   3
HETATM    3  C   UNL     1     -10.556   7.357  70.884  1.00  0.00    -0.234 C  
BRANCH   3   4
HETATM    4  C   UNL     1     -10.031   6.306  69.894  1.00  0.00    -0.169 C  
BRANCH   4   5
HETATM    5  N   UNL     1      -8.588   5.957  69.933  1.00  0.00    -0.128 NA 
BRANCH   5   6
HETATM    6  C   UNL     1      -8.376   4.652  70.602  1.00  0.00    -0.091 C  
BRANCH   6   7
HETATM    7  C   UNL     1      -9.587   3.701  70.674  1.00  0.00    -0.254 C  
BRANCH   7   8
HETATM    8  C   UNL     1     -10.030   3.346  72.095  1.00  0.00    -0.230 C  
HETATM    9  C   UNL     1      -8.938   2.569  72.822  1.00  0.00    -0.098 C  
ENDBRANCH   7   8
ENDBRANCH   6   7
ENDBRANCH   5   6
BRANCH   5  10
HETATM   10  C   UNL     1      -8.052   5.930  68.549  1.00  0.00    -0.106 C  
BRANCH  10  11
HETATM   11  C   UNL     1      -9.110   5.979  67.436  1.00  0.00    -0.106 C  
BRANCH  11  12
HETATM   12  C   UNL     1      -8.873   7.161  66.502  1.00  0.00    -0.141 C  
BRANCH  12  13
HETATM   13  O   UNL     1      -8.304   8.245  67.241  1.00  0.00    -0.122 OA 
BRANCH  13  14
HETATM   14  C   UNL     1      -9.198   9.110  67.815  1.00  0.00    -0.133 A  
HETATM   15  C   UNL     1     -10.582   9.106  67.625  1.00  0.00    -0.307 A  
HETATM   16  C   UNL     1     -11.384  10.098  68.207  1.00  0.00    -0.183 A  
HETATM   17  C   UNL     1     -10.806  11.101  68.995  1.00  0.00    -0.276 A  
HETATM   18  C   UNL     1      -9.435  11.042  69.269  1.00  0.00     0.020 A  
HETATM   19  C   UNL     1      -8.633  10.074  68.652  1.00  0.00    -0.123 A  
BRANCH  17  20
HETATM   20  C   UNL     1     -11.665  12.228  69.484  1.00  0.00    -0.332 C  
HETATM   21  O   UNL     1     -12.487  11.995  70.366  1.00  0.00    -0.244 OA 
BRANCH  20  22
HETATM   22  C   UNL     1     -11.529  13.549  68.865  1.00  0.00    -0.348 A  
HETATM   23  C   UNL     1     -11.890  14.762  69.452  1.00  0.00    -0.323 A  
HETATM   24  C   UNL     1     -10.323  13.897  65.230  1.00  0.00    -0.378 A  
HETATM   25  O   UNL     1     -11.610  15.794  68.603  1.00  0.00    -0.368 OA 
HETATM   26  C   UNL     1     -10.398  15.288  65.190  1.00  0.00    -0.413 A  
HETATM   27  C   UNL     1     -11.158  15.267  67.443  1.00  0.00    -0.326 A  
HETATM   28  C   UNL     1     -11.107  13.883  67.525  1.00  0.00    -0.302 A  
HETATM   29  C   UNL     1     -10.833  16.005  66.308  1.00  0.00    -0.166 A  
HETATM   30  C   UNL     1     -10.714  13.182  66.367  1.00  0.00    -0.293 A  
BRANCH  23  31
HETATM   31  C   UNL     1     -12.619  15.202  70.678  1.00  0.00    -0.450 C  
BRANCH  31  32
HETATM   32  C   UNL     1     -11.811  15.853  71.799  1.00  0.00    -0.579 C  
BRANCH  32  33
HETATM   33  C   UNL     1     -12.768  16.127  72.973  1.00  0.00    -0.537 C  
HETATM   34  C   UNL     1     -12.536  15.247  74.187  1.00  0.00    -0.652 C  
ENDBRANCH  32  33
ENDBRANCH  31  32
ENDBRANCH  23  31
BRANCH  24  35
HETATM   35  N   UNL     1      -9.853  13.164  64.102  1.00  0.00    -0.515 N  
HETATM   36  H   UNL     1      -9.050  13.487  63.562  1.00  0.00     0.000 HD 
BRANCH  35  37
HETATM   37  S   UNL     1     -10.664  11.743  63.684  1.00  0.00    -0.466 S  
HETATM   38  C   UNL     1     -12.296  12.365  63.337  1.00  0.00    -0.499 C  
HETATM   39  O   UNL     1     -10.096  11.183  62.479  1.00  0.00    -0.050 OA 
HETATM   40  O   UNL     1     -10.741  10.972  64.908  1.00  0.00    -0.286 OA 
ENDBRANCH  35  37
ENDBRANCH  24  35
ENDBRANCH  20  22
ENDBRANCH  17  20
ENDBRANCH  13  14
ENDBRANCH  12  13
ENDBRANCH  11  12
ENDBRANCH  10  11
ENDBRANCH   5  10
ENDBRANCH   4   5
ENDBRANCH   3   4
ENDBRANCH   2   3
TORSDOF 18
ENDMDL
MODEL       70
REMARK 921   NORMALIZED FREE ENERGY PREDICTED BY IDOCK:   -4.97 KCAL/MOL
REMARK 922        TOTAL FREE ENERGY PREDICTED BY IDOCK:  -12.92 KCAL/MOL
REMARK 923 INTER-LIGAND FREE ENERGY PREDICTED BY IDOCK:  -10.24 KCAL/MOL
REMARK 924 INTRA-LIGAND FREE ENERGY PREDICTED BY IDOCK:   -2.68 KCAL/MOL
REMARK 927      BINDING AFFINITY PREDICTED BY RF-SCORE:    0.00 PKD
ROOT
HETATM    1  C   UNL     1     -10.476  19.745  66.342  1.00  0.00    -0.618 C  
HETATM    2  C   UNL     1     -10.517  18.467  67.171  1.00  0.00    -0.446 C  
ENDROOT
BRANCH   2   3
HETATM    3  C   UNL     1      -9.866  17.317  66.403  1.00  0.00    -0.310 C  
BRANCH   3   4
HETATM    4  C   UNL     1     -10.369  15.920  66.797  1.00  0.00    -0.298 C  
BRANCH   4   5
HETATM    5  N   UNL     1     -11.394  15.271  65.941  1.00  0.00    -0.240 NA 
BRANCH   5   6
HETATM    6  C   UNL     1     -10.778  14.680  64.730  1.00  0.00    -0.377 C  
BRANCH   6   7
HETATM    7  C   UNL     1     -10.377  13.193  64.807  1.00  0.00    -0.369 C  
BRANCH   7   8
HETATM    8  C   UNL     1     -10.808  12.357  63.601  1.00  0.00    -0.509 C  
HETATM    9  C   UNL     1      -9.925  11.123  63.457  1.00  0.00    -0.425 C  
ENDBRANCH   7   8
ENDBRANCH   6   7
ENDBRANCH   5   6
BRANCH   5  10
HETATM   10  C   UNL     1     -12.104  14.231  66.728  1.00  0.00    -0.417 C  
BRANCH  10  11
HETATM   11  C   UNL     1     -12.033  14.402  68.253  1.00  0.00    -0.323 C  
BRANCH  11  12
HETATM   12  C   UNL     1     -11.700  13.082  68.940  1.00  0.00    -0.328 C  
BRANCH  12  13
HETATM   13  O   UNL     1     -10.311  12.791  68.765  1.00  0.00    -0.208 OA 
BRANCH  13  14
HETATM   14  C   UNL     1     -10.024  11.641  68.078  1.00  0.00    -0.188 A  
HETATM   15  C   UNL     1     -10.951  10.813  67.440  1.00  0.00    -0.361 A  
HETATM   16  C   UNL     1     -10.540   9.615  66.837  1.00  0.00    -0.241 A  
HETATM   17  C   UNL     1      -9.191   9.239  66.860  1.00  0.00    -0.178 A  
HETATM   18  C   UNL     1      -8.252  10.120  67.408  1.00  0.00    -0.114 A  
HETATM   19  C   UNL     1      -8.673  11.294  68.045  1.00  0.00    -0.144 A  
BRANCH  17  20
HETATM   20  C   UNL     1      -8.803   7.889  66.337  1.00  0.00    -0.158 C  
HETATM   21  O   UNL     1      -8.583   7.770  65.135  1.00  0.00    -0.109 OA 
BRANCH  20  22
HETATM   22  C   UNL     1      -8.745   6.755  67.263  1.00  0.00    -0.119 A  
HETATM   23  C   UNL     1      -7.897   5.654  67.146  1.00  0.00    -0.101 A  
HETATM   24  C   UNL     1     -11.224   6.484  70.190  1.00  0.00    -0.377 A  
HETATM   25  O   UNL     1      -8.095   4.798  68.190  1.00  0.00    -0.085 OA 
HETATM   26  C   UNL     1     -10.728   5.279  70.683  1.00  0.00    -0.201 A  
HETATM   27  C   UNL     1      -9.118   5.278  68.933  1.00  0.00    -0.111 A  
HETATM   28  C   UNL     1      -9.585   6.472  68.402  1.00  0.00    -0.122 A  
HETATM   29  C   UNL     1      -9.659   4.641  70.047  1.00  0.00    -0.259 A  
HETATM   30  C   UNL     1     -10.697   7.066  69.032  1.00  0.00    -0.234 A  
BRANCH  23  31
HETATM   31  C   UNL     1      -6.954   5.112  66.123  1.00  0.00    -0.067 C  
BRANCH  31  32
HETATM   32  C   UNL     1      -7.221   3.712  65.572  1.00  0.00    -0.071 C  
BRANCH  32  33
HETATM   33  C   UNL     1      -8.494   3.779  64.709  1.00  0.00    -0.104 C  
HETATM   34  C   UNL     1      -8.429   4.789  63.577  1.00  0.00    -0.127 C  
ENDBRANCH  32  33
ENDBRANCH  31  32
ENDBRANCH  23  31
BRANCH  24  35
HETATM   35  N   UNL     1     -12.296   7.151  70.851  1.00  0.00    -0.527 N  
HETATM   36  H   UNL     1     -13.242   6.768  70.838  1.00  0.00     0.000 HD 
BRANCH  35  37
HETATM   37  S   UNL     1     -11.956   8.596  71.657  1.00  0.00    -0.350 S  
HETATM   38  C   UNL     1     -10.560   8.117  72.653  1.00  0.00    -0.344 C  
HETATM   39  O   UNL     1     -11.547   9.607  70.710  1.00  0.00    -0.280 OA 
HETATM   40  O   UNL     1     -13.077   8.810  72.549  1.00  0.00    -0.401 OA 
ENDBRANCH  35  37
ENDBRANCH  24  35
ENDBRANCH  20  22
ENDBRANCH  17  20
ENDBRANCH  13  14
ENDBRANCH  12  13
ENDBRANCH  11  12
ENDBRANCH  10  11
ENDBRANCH   5  10
ENDBRANCH   4   5
ENDBRANCH   3   4
ENDBRANCH   2   3
TORSDOF 18
ENDMDL
MODEL       71
REMARK 921   NORMALIZED FREE ENERGY PREDICTED BY IDOCK:   -4.97 KCAL/MOL
REMARK 922        TOTAL FREE ENERGY PREDICTED BY IDOCK:  -12.92 KCAL/MOL
REMARK 923 INTER-LIGAND FREE ENERGY PREDICTED BY IDOCK:  -10.30 KCAL/MOL
REMARK 924 INTRA-LIGAND FREE ENERGY PREDICTED BY IDOCK:   -2.61 KCAL/MOL
REMARK 927      BINDING AFFINITY PREDICTED BY RF-SCORE:    0.00 PKD
ROOT
HETATM    1  C   UNL     1     -10.265  19.550  68.301  1.00  0.00    -0.552 C  
HETATM    2  C   UNL     1      -9.933  18.885  66.971  1.00  0.00    -0.389 C  
ENDROOT
BRANCH   2   3
HETATM    3  C   UNL     1      -9.119  17.612  67.205  1.00  0.00    -0.247 C  
BRANCH   3   4
HETATM    4  C   UNL     1      -7.974  17.394  66.205  1.00  0.00    -0.279 C  
BRANCH   4   5
HETATM    5  N   UNL     1      -6.589  17.284  66.731  1.00  0.00    -0.190 NA 
BRANCH   5   6
HETATM    6  C   UNL     1      -5.755  18.420  66.274  1.00  0.00    -0.160 C  
BRANCH   6   7
HETATM    7  C   UNL     1      -6.446  19.483  65.397  1.00  0.00    -0.297 C  
BRANCH   7   8
HETATM    8  C   UNL     1      -6.427  20.897  65.981  1.00  0.00    -0.249 C  
HETATM    9  C   UNL     1      -6.857  20.883  67.443  1.00  0.00    -0.434 C  
ENDBRANCH   7   8
ENDBRANCH   6   7
ENDBRANCH   5   6
BRANCH   5  10
HETATM   10  C   UNL     1      -6.631  17.228  68.214  1.00  0.00    -0.171 C  
BRANCH  10  11
HETATM   11  C   UNL     1      -5.935  16.012  68.843  1.00  0.00    -0.114 C  
BRANCH  11  12
HETATM   12  C   UNL     1      -5.896  14.837  67.872  1.00  0.00    -0.133 C  
BRANCH  12  13
HETATM   13  O   UNL     1      -6.205  13.629  68.573  1.00  0.00    -0.079 OA 
BRANCH  13  14
HETATM   14  C   UNL     1      -7.507  13.209  68.492  1.00  0.00    -0.117 A  
HETATM   15  C   UNL     1      -8.634  14.034  68.436  1.00  0.00    -0.174 A  
HETATM   16  C   UNL     1      -9.922  13.480  68.438  1.00  0.00    -0.232 A  
HETATM   17  C   UNL     1     -10.095  12.092  68.487  1.00  0.00    -0.201 A  
HETATM   18  C   UNL     1      -8.965  11.266  68.438  1.00  0.00    -0.167 A  
HETATM   19  C   UNL     1      -7.682  11.825  68.478  1.00  0.00    -0.137 A  
BRANCH  17  20
HETATM   20  C   UNL     1     -11.479  11.534  68.634  1.00  0.00    -0.293 C  
HETATM   21  O   UNL     1     -12.279  11.710  67.719  1.00  0.00    -0.560 OA 
BRANCH  20  22
HETATM   22  C   UNL     1     -11.842  10.846  69.875  1.00  0.00    -0.427 A  
HETATM   23  C   UNL     1     -12.598  11.390  70.914  1.00  0.00    -0.356 A  
HETATM   24  C   UNL     1     -10.492   7.325  70.633  1.00  0.00    -0.214 A  
HETATM   25  O   UNL     1     -12.760  10.467  71.907  1.00  0.00    -0.420 OA 
HETATM   26  C   UNL     1     -11.122   7.197  71.869  1.00  0.00    -0.268 A  
HETATM   27  C   UNL     1     -12.049   9.367  71.572  1.00  0.00    -0.379 A  
HETATM   28  C   UNL     1     -11.434   9.542  70.341  1.00  0.00    -0.297 A  
HETATM   29  C   UNL     1     -11.913   8.234  72.371  1.00  0.00    -0.447 A  
HETATM   30  C   UNL     1     -10.601   8.501  69.882  1.00  0.00    -0.228 A  
BRANCH  23  31
HETATM   31  C   UNL     1     -13.139  12.732  71.277  1.00  0.00    -0.245 C  
BRANCH  31  32
HETATM   32  C   UNL     1     -12.189  13.928  71.225  1.00  0.00    -0.353 C  
BRANCH  32  33
HETATM   33  C   UNL     1     -12.752  15.019  72.153  1.00  0.00    -0.406 C  
HETATM   34  C   UNL     1     -11.937  15.250  73.412  1.00  0.00    -0.540 C  
ENDBRANCH  32  33
ENDBRANCH  31  32
ENDBRANCH  23  31
BRANCH  24  35
HETATM   35  N   UNL     1      -9.708   6.259  70.105  1.00  0.00    -0.162 N  
HETATM   36  H   UNL     1     -10.134   5.366  69.858  1.00  0.00     0.000 HD 
BRANCH  35  37
HETATM   37  S   UNL     1      -8.052   6.518  69.900  1.00  0.00    -0.123 S  
HETATM   38  C   UNL     1      -7.931   6.604  68.125  1.00  0.00    -0.110 C  
HETATM   39  O   UNL     1      -7.674   7.791  70.469  1.00  0.00    -0.084 OA 
HETATM   40  O   UNL     1      -7.417   5.287  70.322  1.00  0.00    -0.067 OA 
ENDBRANCH  35  37
ENDBRANCH  24  35
ENDBRANCH  20  22
ENDBRANCH  17  20
ENDBRANCH  13  14
ENDBRANCH  12  13
ENDBRANCH  11  12
ENDBRANCH  10  11
ENDBRANCH   5  10
ENDBRANCH   4   5
ENDBRANCH   3   4
ENDBRANCH   2   3
TORSDOF 18
ENDMDL
MODEL       72
REMARK 921   NORMALIZED FREE ENERGY PREDICTED BY IDOCK:   -4.95 KCAL/MOL
REMARK 922        TOTAL FREE ENERGY PREDICTED BY IDOCK:  -12.87 KCAL/MOL
REMARK 923 INTER-LIGAND FREE ENERGY PREDICTED BY IDOCK:  -10.27 KCAL/MOL
REMARK 924 INTRA-LIGAND FREE ENERGY PREDICTED BY IDOCK:   -2.60 KCAL/MOL
REMARK 927      BINDING AFFINITY PREDICTED BY RF-SCORE:    0.00 PKD
ROOT
HETATM    1  C   UNL     1      -9.145  19.795  67.208  1.00  0.00    -0.413 C  
HETATM    2  C   UNL     1      -9.847  19.349  68.484  1.00  0.00    -0.509 C  
ENDROOT
BRANCH   2   3
HETATM    3  C   UNL     1     -10.412  17.939  68.313  1.00  0.00    -0.362 C  
BRANCH   3   4
HETATM    4  C   UNL     1      -9.427  16.810  68.652  1.00  0.00    -0.255 C  
BRANCH   4   5
HETATM    5  N   UNL     1      -9.890  15.712  69.538  1.00  0.00    -0.277 NA 
BRANCH   5   6
HETATM    6  C   UNL     1     -11.331  15.852  69.849  1.00  0.00    -0.348 C  
BRANCH   6   7
HETATM    7  C   UNL     1     -11.705  16.084  71.326  1.00  0.00    -0.516 C  
BRANCH   7   8
HETATM    8  C   UNL     1     -12.988  15.381  71.774  1.00  0.00    -0.509 C  
HETATM    9  C   UNL     1     -13.317  15.728  73.221  1.00  0.00    -0.649 C  
ENDBRANCH   7   8
ENDBRANCH   6   7
ENDBRANCH   5   6
BRANCH   5  10
HETATM   10  C   UNL     1      -9.619  14.407  68.882  1.00  0.00    -0.123 C  
BRANCH  10  11
HETATM   11  C   UNL     1     -10.858  13.674  68.347  1.00  0.00    -0.274 C  
BRANCH  11  12
HETATM   12  C   UNL     1     -10.687  13.304  66.877  1.00  0.00    -0.271 C  
BRANCH  12  13
HETATM   13  O   UNL     1      -9.389  12.740  66.676  1.00  0.00    -0.238 OA 
BRANCH  13  14
HETATM   14  C   UNL     1      -9.282  11.393  66.904  1.00  0.00    -0.176 A  
HETATM   15  C   UNL     1      -8.329  10.771  67.715  1.00  0.00    -0.113 A  
HETATM   16  C   UNL     1      -8.273   9.372  67.803  1.00  0.00    -0.114 A  
HETATM   17  C   UNL     1      -9.180   8.582  67.085  1.00  0.00    -0.173 A  
HETATM   18  C   UNL     1     -10.198   9.210  66.358  1.00  0.00    -0.300 A  
HETATM   19  C   UNL     1     -10.223  10.605  66.240  1.00  0.00    -0.304 A  
BRANCH  17  20
HETATM   20  C   UNL     1      -9.006   7.093  67.084  1.00  0.00    -0.125 C  
HETATM   21  O   UNL     1      -8.912   6.517  66.003  1.00  0.00    -0.157 OA 
BRANCH  20  22
HETATM   22  C   UNL     1      -9.003   6.374  68.361  1.00  0.00    -0.120 A  
HETATM   23  C   UNL     1      -8.041   5.451  68.769  1.00  0.00    -0.087 A  
HETATM   24  C   UNL     1     -11.932   6.740  70.826  1.00  0.00    -0.378 A  
HETATM   25  O   UNL     1      -8.338   4.989  70.019  1.00  0.00    -0.082 OA 
HETATM   26  C   UNL     1     -11.414   5.876  71.788  1.00  0.00    -0.262 A  
HETATM   27  C   UNL     1      -9.521   5.526  70.391  1.00  0.00    -0.163 A  
HETATM   28  C   UNL     1     -10.002   6.373  69.402  1.00  0.00    -0.184 A  
HETATM   29  C   UNL     1     -10.188   5.237  71.579  1.00  0.00    -0.276 A  
HETATM   30  C   UNL     1     -11.265   6.963  69.616  1.00  0.00    -0.289 A  
BRANCH  23  31
HETATM   31  C   UNL     1      -6.879   4.746  68.152  1.00  0.00    -0.056 C  
BRANCH  31  32
HETATM   32  C   UNL     1      -5.514   5.431  68.202  1.00  0.00    -0.011 C  
BRANCH  32  33
HETATM   33  C   UNL     1      -5.395   6.337  66.963  1.00  0.00    -0.009 C  
HETATM   34  C   UNL     1      -5.170   7.804  67.281  1.00  0.00    -0.027 C  
ENDBRANCH  32  33
ENDBRANCH  31  32
ENDBRANCH  23  31
BRANCH  24  35
HETATM   35  N   UNL     1     -13.168   7.415  71.047  1.00  0.00    -0.604 N  
HETATM   36  H   UNL     1     -14.035   7.071  70.635  1.00  0.00     0.000 HD 
BRANCH  35  37
HETATM   37  S   UNL     1     -13.154   8.802  72.011  1.00  0.00    -0.420 S  
HETATM   38  C   UNL     1     -13.197  10.083  70.776  1.00  0.00    -0.208 C  
HETATM   39  O   UNL     1     -14.356   8.862  72.809  1.00  0.00    -0.600 OA 
HETATM   40  O   UNL     1     -11.842   8.829  72.624  1.00  0.00    -0.284 OA 
ENDBRANCH  35  37
ENDBRANCH  24  35
ENDBRANCH  20  22
ENDBRANCH  17  20
ENDBRANCH  13  14
ENDBRANCH  12  13
ENDBRANCH  11  12
ENDBRANCH  10  11
ENDBRANCH   5  10
ENDBRANCH   4   5
ENDBRANCH   3   4
ENDBRANCH   2   3
TORSDOF 18
ENDMDL
MODEL       73
REMARK 921   NORMALIZED FREE ENERGY PREDICTED BY IDOCK:   -4.94 KCAL/MOL
REMARK 922        TOTAL FREE ENERGY PREDICTED BY IDOCK:  -12.85 KCAL/MOL
REMARK 923 INTER-LIGAND FREE ENERGY PREDICTED BY IDOCK:  -10.17 KCAL/MOL
REMARK 924 INTRA-LIGAND FREE ENERGY PREDICTED BY IDOCK:   -2.68 KCAL/MOL
REMARK 927      BINDING AFFINITY PREDICTED BY RF-SCORE:    0.00 PKD
ROOT
HETATM    1  C   UNL     1     -11.922  12.766  63.355  1.00  0.00    -0.613 C  
HETATM    2  C   UNL     1     -12.709  12.559  64.643  1.00  0.00    -0.434 C  
ENDROOT
BRANCH   2   3
HETATM    3  C   UNL     1     -12.891  13.890  65.372  1.00  0.00    -0.466 C  
BRANCH   3   4
HETATM    4  C   UNL     1     -12.082  14.022  66.671  1.00  0.00    -0.456 C  
BRANCH   4   5
HETATM    5  N   UNL     1     -10.705  14.573  66.593  1.00  0.00    -0.300 NA 
BRANCH   5   6
HETATM    6  C   UNL     1     -10.649  15.942  67.157  1.00  0.00    -0.316 C  
BRANCH   6   7
HETATM    7  C   UNL     1     -10.443  17.098  66.158  1.00  0.00    -0.277 C  
BRANCH   7   8
HETATM    8  C   UNL     1      -9.728  18.319  66.739  1.00  0.00    -0.322 C  
HETATM    9  C   UNL     1     -10.734  19.342  67.250  1.00  0.00    -0.603 C  
ENDBRANCH   7   8
ENDBRANCH   6   7
ENDBRANCH   5   6
BRANCH   5  10
HETATM   10  C   UNL     1      -9.774  13.670  67.316  1.00  0.00    -0.243 C  
BRANCH  10  11
HETATM   11  C   UNL     1     -10.016  12.169  67.097  1.00  0.00    -0.210 C  
BRANCH  11  12
HETATM   12  C   UNL     1      -9.295  11.671  65.850  1.00  0.00    -0.218 C  
BRANCH  12  13
HETATM   13  O   UNL     1      -8.412  10.603  66.203  1.00  0.00    -0.147 OA 
BRANCH  13  14
HETATM   14  C   UNL     1      -8.970   9.583  66.927  1.00  0.00    -0.131 A  
HETATM   15  C   UNL     1     -10.037   8.776  66.520  1.00  0.00    -0.349 A  
HETATM   16  C   UNL     1     -10.573   7.814  67.389  1.00  0.00    -0.345 A  
HETATM   17  C   UNL     1     -10.038   7.643  68.672  1.00  0.00    -0.201 A  
HETATM   18  C   UNL     1      -8.904   8.379  69.036  1.00  0.00    -0.146 A  
HETATM   19  C   UNL     1      -8.399   9.367  68.182  1.00  0.00    -0.119 A  
BRANCH  17  20
HETATM   20  C   UNL     1     -10.720   6.712  69.627  1.00  0.00    -0.260 C  
HETATM   21  O   UNL     1     -11.329   5.748  69.169  1.00  0.00    -0.193 OA 
BRANCH  20  22
HETATM   22  C   UNL     1     -10.679   7.006  71.062  1.00  0.00    -0.256 A  
HETATM   23  C   UNL     1     -11.409   8.004  71.707  1.00  0.00    -0.270 A  
HETATM   24  C   UNL     1      -8.235   5.145  73.376  1.00  0.00    -0.111 A  
HETATM   25  O   UNL     1     -11.142   7.986  73.046  1.00  0.00    -0.382 OA 
HETATM   26  C   UNL     1      -8.614   5.807  74.541  1.00  0.00    -0.118 A  
HETATM   27  C   UNL     1     -10.186   7.056  73.268  1.00  0.00    -0.275 A  
HETATM   28  C   UNL     1      -9.834   6.429  72.081  1.00  0.00    -0.170 A  
HETATM   29  C   UNL     1      -9.602   6.794  74.505  1.00  0.00    -0.269 A  
HETATM   30  C   UNL     1      -8.799   5.474  72.138  1.00  0.00    -0.131 A  
BRANCH  23  31
HETATM   31  C   UNL     1     -12.273   9.151  71.304  1.00  0.00    -0.395 C  
BRANCH  31  32
HETATM   32  C   UNL     1     -11.614  10.333  70.595  1.00  0.00    -0.435 C  
BRANCH  32  33
HETATM   33  C   UNL     1     -12.562  11.541  70.709  1.00  0.00    -0.390 C  
HETATM   34  C   UNL     1     -11.982  12.841  70.185  1.00  0.00    -0.371 C  
ENDBRANCH  32  33
ENDBRANCH  31  32
ENDBRANCH  23  31
BRANCH  24  35
HETATM   35  N   UNL     1      -7.247   4.118  73.414  1.00  0.00    -0.068 N  
HETATM   36  H   UNL     1      -6.269   4.336  73.606  1.00  0.00     0.000 HD 
BRANCH  35  37
HETATM   37  S   UNL     1      -7.743   2.528  73.131  1.00  0.00    -0.047 S  
HETATM   38  C   UNL     1      -6.640   1.625  74.197  1.00  0.00    -0.017 C  
HETATM   39  O   UNL     1      -9.104   2.346  73.582  1.00  0.00    -0.078 OA 
HETATM   40  O   UNL     1      -7.360   2.245  71.763  1.00  0.00    -0.038 OA 
ENDBRANCH  35  37
ENDBRANCH  24  35
ENDBRANCH  20  22
ENDBRANCH  17  20
ENDBRANCH  13  14
ENDBRANCH  12  13
ENDBRANCH  11  12
ENDBRANCH  10  11
ENDBRANCH   5  10
ENDBRANCH   4   5
ENDBRANCH   3   4
ENDBRANCH   2   3
TORSDOF 18
ENDMDL
MODEL       74
REMARK 921   NORMALIZED FREE ENERGY PREDICTED BY IDOCK:   -4.94 KCAL/MOL
REMARK 922        TOTAL FREE ENERGY PREDICTED BY IDOCK:  -12.85 KCAL/MOL
REMARK 923 INTER-LIGAND FREE ENERGY PREDICTED BY IDOCK:   -9.84 KCAL/MOL
REMARK 924 INTRA-LIGAND FREE ENERGY PREDICTED BY IDOCK:   -3.01 KCAL/MOL
REMARK 927      BINDING AFFINITY PREDICTED BY RF-SCORE:    0.00 PKD
ROOT
HETATM    1  C   UNL     1      -5.386  14.409  69.544  1.00  0.00    -0.090 C  
HETATM    2  C   UNL     1      -6.364  15.571  69.661  1.00  0.00    -0.163 C  
ENDROOT
BRANCH   2   3
HETATM    3  C   UNL     1      -5.624  16.901  69.525  1.00  0.00    -0.177 C  
BRANCH   3   4
HETATM    4  C   UNL     1      -6.077  17.767  68.339  1.00  0.00    -0.174 C  
BRANCH   4   5
HETATM    5  N   UNL     1      -7.157  18.761  68.563  1.00  0.00    -0.264 NA 
BRANCH   5   6
HETATM    6  C   UNL     1      -6.607  20.135  68.632  1.00  0.00    -0.299 C  
BRANCH   6   7
HETATM    7  C   UNL     1      -6.781  21.019  67.381  1.00  0.00    -0.446 C  
BRANCH   7   8
HETATM    8  C   UNL     1      -5.518  21.168  66.530  1.00  0.00    -0.279 C  
HETATM    9  C   UNL     1      -5.808  20.837  65.071  1.00  0.00    -0.272 C  
ENDBRANCH   7   8
ENDBRANCH   6   7
ENDBRANCH   5   6
BRANCH   5  10
HETATM   10  C   UNL     1      -8.158  18.652  67.471  1.00  0.00    -0.249 C  
BRANCH  10  11
HETATM   11  C   UNL     1      -7.784  17.690  66.334  1.00  0.00    -0.325 C  
BRANCH  11  12
HETATM   12  C   UNL     1      -8.968  16.812  65.944  1.00  0.00    -0.068 C  
BRANCH  12  13
HETATM   13  O   UNL     1      -9.807  16.608  67.084  1.00  0.00    -0.246 OA 
BRANCH  13  14
HETATM   14  C   UNL     1     -10.111  15.305  67.376  1.00  0.00    -0.232 A  
HETATM   15  C   UNL     1      -9.247  14.369  67.951  1.00  0.00    -0.195 A  
HETATM   16  C   UNL     1      -9.653  13.038  68.125  1.00  0.00    -0.227 A  
HETATM   17  C   UNL     1     -10.935  12.633  67.733  1.00  0.00    -0.266 A  
HETATM   18  C   UNL     1     -11.833  13.595  67.255  1.00  0.00    -0.429 A  
HETATM   19  C   UNL     1     -11.408  14.912  67.044  1.00  0.00    -0.345 A  
BRANCH  17  20
HETATM   20  C   UNL     1     -11.291  11.178  67.797  1.00  0.00    -0.293 C  
HETATM   21  O   UNL     1     -12.326  10.855  68.374  1.00  0.00    -0.477 OA 
BRANCH  20  22
HETATM   22  C   UNL     1     -10.375  10.194  67.215  1.00  0.00    -0.291 A  
HETATM   23  C   UNL     1     -10.023  10.109  65.869  1.00  0.00    -0.267 A  
HETATM   24  C   UNL     1      -8.904   7.369  69.372  1.00  0.00    -0.137 A  
HETATM   25  O   UNL     1      -9.137   9.088  65.680  1.00  0.00    -0.201 OA 
HETATM   26  C   UNL     1      -8.167   6.780  68.347  1.00  0.00    -0.119 A  
HETATM   27  C   UNL     1      -8.977   8.452  66.863  1.00  0.00    -0.145 A  
HETATM   28  C   UNL     1      -9.734   9.067  67.850  1.00  0.00    -0.185 A  
HETATM   29  C   UNL     1      -8.200   7.313  67.055  1.00  0.00    -0.117 A  
HETATM   30  C   UNL     1      -9.723   8.478  69.131  1.00  0.00    -0.170 A  
BRANCH  23  31
HETATM   31  C   UNL     1     -10.464  10.737  64.588  1.00  0.00    -0.346 C  
BRANCH  31  32
HETATM   32  C   UNL     1     -10.187  12.226  64.386  1.00  0.00    -0.341 C  
BRANCH  32  33
HETATM   33  C   UNL     1     -11.340  12.811  63.551  1.00  0.00    -0.480 C  
HETATM   34  C   UNL     1     -12.652  12.060  63.685  1.00  0.00    -0.605 C  
ENDBRANCH  32  33
ENDBRANCH  31  32
ENDBRANCH  23  31
BRANCH  24  35
HETATM   35  N   UNL     1      -8.851   6.846  70.697  1.00  0.00    -0.150 N  
HETATM   36  H   UNL     1      -8.355   7.342  71.438  1.00  0.00     0.000 HD 
BRANCH  35  37
HETATM   37  S   UNL     1      -9.632   5.381  71.004  1.00  0.00    -0.179 S  
HETATM   38  C   UNL     1     -10.490   5.756  72.518  1.00  0.00    -0.207 C  
HETATM   39  O   UNL     1     -10.594   5.104  69.962  1.00  0.00    -0.285 OA 
HETATM   40  O   UNL     1      -8.575   4.443  71.320  1.00  0.00    -0.102 OA 
ENDBRANCH  35  37
ENDBRANCH  24  35
ENDBRANCH  20  22
ENDBRANCH  17  20
ENDBRANCH  13  14
ENDBRANCH  12  13
ENDBRANCH  11  12
ENDBRANCH  10  11
ENDBRANCH   5  10
ENDBRANCH   4   5
ENDBRANCH   3   4
ENDBRANCH   2   3
TORSDOF 18
ENDMDL
MODEL       75
REMARK 921   NORMALIZED FREE ENERGY PREDICTED BY IDOCK:   -4.91 KCAL/MOL
REMARK 922        TOTAL FREE ENERGY PREDICTED BY IDOCK:  -12.80 KCAL/MOL
REMARK 923 INTER-LIGAND FREE ENERGY PREDICTED BY IDOCK:   -9.75 KCAL/MOL
REMARK 924 INTRA-LIGAND FREE ENERGY PREDICTED BY IDOCK:   -3.05 KCAL/MOL
REMARK 927      BINDING AFFINITY PREDICTED BY RF-SCORE:    0.00 PKD
ROOT
HETATM    1  C   UNL     1      -9.047   2.547  73.514  1.00  0.00    -0.088 C  
HETATM    2  C   UNL     1     -10.057   3.098  72.515  1.00  0.00    -0.231 C  
ENDROOT
BRANCH   2   3
HETATM    3  C   UNL     1      -9.663   2.705  71.092  1.00  0.00    -0.181 C  
BRANCH   3   4
HETATM    4  C   UNL     1      -9.685   3.861  70.081  1.00  0.00    -0.172 C  
BRANCH   4   5
HETATM    5  N   UNL     1      -9.362   5.228  70.563  1.00  0.00    -0.152 NA 
BRANCH   5   6
HETATM    6  C   UNL     1      -8.251   5.819  69.781  1.00  0.00    -0.108 C  
BRANCH   6   7
HETATM    7  C   UNL     1      -6.994   6.242  70.566  1.00  0.00    -0.064 C  
BRANCH   7   8
HETATM    8  C   UNL     1      -7.281   6.892  71.921  1.00  0.00    -0.079 C  
HETATM    9  C   UNL     1      -6.405   6.283  73.009  1.00  0.00    -0.063 C  
ENDBRANCH   7   8
ENDBRANCH   6   7
ENDBRANCH   5   6
BRANCH   5  10
HETATM   10  C   UNL     1     -10.576   6.078  70.476  1.00  0.00    -0.266 C  
BRANCH  10  11
HETATM   11  C   UNL     1     -11.125   6.577  71.821  1.00  0.00    -0.299 C  
BRANCH  11  12
HETATM   12  C   UNL     1     -12.067   7.760  71.626  1.00  0.00    -0.304 C  
BRANCH  12  13
HETATM   13  O   UNL     1     -11.392   8.970  71.978  1.00  0.00    -0.364 OA 
BRANCH  13  14
HETATM   14  C   UNL     1     -10.756   9.619  70.952  1.00  0.00    -0.332 A  
HETATM   15  C   UNL     1      -9.422   9.447  70.574  1.00  0.00    -0.327 A  
HETATM   16  C   UNL     1      -8.864  10.233  69.555  1.00  0.00    -0.166 A  
HETATM   17  C   UNL     1      -9.642  11.194  68.897  1.00  0.00    -0.154 A  
HETATM   18  C   UNL     1     -11.004  11.290  69.206  1.00  0.00    -0.297 A  
HETATM   19  C   UNL     1     -11.545  10.533  70.253  1.00  0.00    -0.417 A  
BRANCH  17  20
HETATM   20  C   UNL     1      -8.984  12.116  67.915  1.00  0.00    -0.184 C  
HETATM   21  O   UNL     1      -7.819  12.447  68.116  1.00  0.00    -0.127 OA 
BRANCH  20  22
HETATM   22  C   UNL     1      -9.763  12.626  66.784  1.00  0.00    -0.240 A  
HETATM   23  C   UNL     1     -10.435  11.846  65.844  1.00  0.00    -0.258 A  
HETATM   24  C   UNL     1      -9.883  16.395  66.025  1.00  0.00    -0.335 A  
HETATM   25  O   UNL     1     -11.071  12.647  64.940  1.00  0.00    -0.282 OA 
HETATM   26  C   UNL     1     -10.708  16.286  64.908  1.00  0.00    -0.256 A  
HETATM   27  C   UNL     1     -10.749  13.930  65.222  1.00  0.00    -0.345 A  
HETATM   28  C   UNL     1      -9.922  13.989  66.335  1.00  0.00    -0.301 A  
HETATM   29  C   UNL     1     -11.153  15.034  64.475  1.00  0.00    -0.248 A  
HETATM   30  C   UNL     1      -9.447  15.259  66.718  1.00  0.00    -0.264 A  
BRANCH  23  31
HETATM   31  C   UNL     1     -10.519  10.397  65.494  1.00  0.00    -0.192 C  
BRANCH  31  32
HETATM   32  C   UNL     1      -9.215   9.643  65.238  1.00  0.00    -0.295 C  
BRANCH  32  33
HETATM   33  C   UNL     1      -9.180   8.427  66.180  1.00  0.00    -0.263 C  
HETATM   34  C   UNL     1     -10.459   8.212  66.969  1.00  0.00    -0.396 C  
ENDBRANCH  32  33
ENDBRANCH  31  32
ENDBRANCH  23  31
BRANCH  24  35
HETATM   35  N   UNL     1      -9.451  17.672  66.486  1.00  0.00    -0.277 N  
HETATM   36  H   UNL     1      -8.592  18.094  66.134  1.00  0.00     0.000 HD 
BRANCH  35  37
HETATM   37  S   UNL     1     -10.402  18.466  67.633  1.00  0.00    -0.418 S  
HETATM   38  C   UNL     1      -9.159  19.077  68.752  1.00  0.00    -0.333 C  
HETATM   39  O   UNL     1     -11.089  19.581  67.022  1.00  0.00    -0.424 OA 
HETATM   40  O   UNL     1     -11.130  17.418  68.318  1.00  0.00    -0.251 OA 
ENDBRANCH  35  37
ENDBRANCH  24  35
ENDBRANCH  20  22
ENDBRANCH  17  20
ENDBRANCH  13  14
ENDBRANCH  12  13
ENDBRANCH  11  12
ENDBRANCH  10  11
ENDBRANCH   5  10
ENDBRANCH   4   5
ENDBRANCH   3   4
ENDBRANCH   2   3
TORSDOF 18
ENDMDL
MODEL       76
REMARK 921   NORMALIZED FREE ENERGY PREDICTED BY IDOCK:   -4.89 KCAL/MOL
REMARK 922        TOTAL FREE ENERGY PREDICTED BY IDOCK:  -12.76 KCAL/MOL
REMARK 923 INTER-LIGAND FREE ENERGY PREDICTED BY IDOCK:   -9.30 KCAL/MOL
REMARK 924 INTRA-LIGAND FREE ENERGY PREDICTED BY IDOCK:   -3.45 KCAL/MOL
REMARK 927      BINDING AFFINITY PREDICTED BY RF-SCORE:    0.00 PKD
ROOT
HETATM    1  C   UNL     1      -8.641  18.865  67.911  1.00  0.00    -0.323 C  
HETATM    2  C   UNL     1      -8.932  18.905  66.416  1.00  0.00    -0.315 C  
ENDROOT
BRANCH   2   3
HETATM    3  C   UNL     1     -10.440  18.866  66.169  1.00  0.00    -0.521 C  
BRANCH   3   4
HETATM    4  C   UNL     1     -10.954  17.552  65.563  1.00  0.00     0.174 C  
BRANCH   4   5
HETATM    5  N   UNL     1     -10.257  16.290  65.918  1.00  0.00    -0.348 NA 
BRANCH   5   6
HETATM    6  C   UNL     1     -10.632  15.841  67.279  1.00  0.00    -0.313 C  
BRANCH   6   7
HETATM    7  C   UNL     1      -9.515  15.220  68.140  1.00  0.00    -0.203 C  
BRANCH   7   8
HETATM    8  C   UNL     1      -8.105  15.397  67.573  1.00  0.00    -0.187 C  
HETATM    9  C   UNL     1      -7.392  14.055  67.470  1.00  0.00    -0.187 C  
ENDBRANCH   7   8
ENDBRANCH   6   7
ENDBRANCH   5   6
BRANCH   5  10
HETATM   10  C   UNL     1     -10.587  15.248  64.913  1.00  0.00    -0.351 C  
BRANCH  10  11
HETATM   11  C   UNL     1     -12.051  14.783  64.908  1.00  0.00    -0.335 C  
BRANCH  11  12
HETATM   12  C   UNL     1     -12.188  13.406  64.267  1.00  0.00    -0.392 C  
BRANCH  12  13
HETATM   13  O   UNL     1     -12.457  12.433  65.280  1.00  0.00    -0.611 OA 
BRANCH  13  14
HETATM   14  C   UNL     1     -11.371  12.001  65.995  1.00  0.00    -0.343 A  
HETATM   15  C   UNL     1     -10.205  11.444  65.463  1.00  0.00    -0.312 A  
HETATM   16  C   UNL     1      -9.195  10.964  66.309  1.00  0.00    -0.197 A  
HETATM   17  C   UNL     1      -9.338  11.047  67.699  1.00  0.00    -0.162 A  
HETATM   18  C   UNL     1     -10.459  11.700  68.227  1.00  0.00    -0.223 A  
HETATM   19  C   UNL     1     -11.483  12.139  67.380  1.00  0.00    -0.415 A  
BRANCH  17  20
HETATM   20  C   UNL     1      -8.312  10.398  68.577  1.00  0.00    -0.124 C  
HETATM   21  O   UNL     1      -7.549  11.119  69.215  1.00  0.00    -0.121 OA 
BRANCH  20  22
HETATM   22  C   UNL     1      -8.222   8.936  68.609  1.00  0.00    -0.116 A  
HETATM   23  C   UNL     1      -7.147   8.179  68.144  1.00  0.00    -0.082 A  
HETATM   24  C   UNL     1     -11.195   6.814  69.812  1.00  0.00    -0.315 A  
HETATM   25  O   UNL     1      -7.390   6.850  68.345  1.00  0.00    -0.088 OA 
HETATM   26  C   UNL     1     -10.573   5.582  69.623  1.00  0.00    -0.375 A  
HETATM   27  C   UNL     1      -8.639   6.727  68.848  1.00  0.00    -0.130 A  
HETATM   28  C   UNL     1      -9.221   7.976  69.013  1.00  0.00    -0.148 A  
HETATM   29  C   UNL     1      -9.271   5.516  69.121  1.00  0.00    -0.142 A  
HETATM   30  C   UNL     1     -10.554   8.010  69.472  1.00  0.00    -0.216 A  
BRANCH  23  31
HETATM   31  C   UNL     1      -5.895   8.428  67.371  1.00  0.00    -0.043 C  
BRANCH  31  32
HETATM   32  C   UNL     1      -5.775   7.809  65.979  1.00  0.00    -0.037 C  
BRANCH  32  33
HETATM   33  C   UNL     1      -6.751   8.549  65.047  1.00  0.00    -0.064 C  
HETATM   34  C   UNL     1      -7.942   7.719  64.604  1.00  0.00    -0.136 C  
ENDBRANCH  32  33
ENDBRANCH  31  32
ENDBRANCH  23  31
BRANCH  24  35
HETATM   35  N   UNL     1     -12.513   6.886  70.351  1.00  0.00    -0.576 N  
HETATM   36  H   UNL     1     -13.272   6.329  69.958  1.00  0.00     0.000 HD 
BRANCH  35  37
HETATM   37  S   UNL     1     -12.781   7.922  71.657  1.00  0.00    -0.329 S  
HETATM   38  C   UNL     1     -11.561   7.341  72.817  1.00  0.00    -0.171 C  
HETATM   39  O   UNL     1     -12.478   9.283  71.282  1.00  0.00    -0.310 OA 
HETATM   40  O   UNL     1     -14.084   7.556  72.174  1.00  0.00    -0.215 OA 
ENDBRANCH  35  37
ENDBRANCH  24  35
ENDBRANCH  20  22
ENDBRANCH  17  20
ENDBRANCH  13  14
ENDBRANCH  12  13
ENDBRANCH  11  12
ENDBRANCH  10  11
ENDBRANCH   5  10
ENDBRANCH   4   5
ENDBRANCH   3   4
ENDBRANCH   2   3
TORSDOF 18
ENDMDL
MODEL       77
REMARK 921   NORMALIZED FREE ENERGY PREDICTED BY IDOCK:   -4.88 KCAL/MOL
REMARK 922        TOTAL FREE ENERGY PREDICTED BY IDOCK:  -12.73 KCAL/MOL
REMARK 923 INTER-LIGAND FREE ENERGY PREDICTED BY IDOCK:  -10.29 KCAL/MOL
REMARK 924 INTRA-LIGAND FREE ENERGY PREDICTED BY IDOCK:   -2.44 KCAL/MOL
REMARK 927      BINDING AFFINITY PREDICTED BY RF-SCORE:    0.00 PKD
ROOT
HETATM    1  C   UNL     1     -10.271  19.877  68.636  1.00  0.00    -0.494 C  
HETATM    2  C   UNL     1      -9.940  20.264  67.200  1.00  0.00    -0.593 C  
ENDROOT
BRANCH   2   3
HETATM    3  C   UNL     1     -10.442  19.191  66.234  1.00  0.00    -0.551 C  
BRANCH   3   4
HETATM    4  C   UNL     1     -10.131  17.749  66.663  1.00  0.00    -0.350 C  
BRANCH   4   5
HETATM    5  N   UNL     1      -9.532  16.828  65.664  1.00  0.00    -0.505 NA 
BRANCH   5   6
HETATM    6  C   UNL     1      -8.196  16.363  66.104  1.00  0.00    -0.215 C  
BRANCH   6   7
HETATM    7  C   UNL     1      -7.843  16.564  67.591  1.00  0.00    -0.175 C  
BRANCH   7   8
HETATM    8  C   UNL     1      -6.418  17.059  67.843  1.00  0.00    -0.151 C  
HETATM    9  C   UNL     1      -6.378  18.580  67.909  1.00  0.00    -0.196 C  
ENDBRANCH   7   8
ENDBRANCH   6   7
ENDBRANCH   5   6
BRANCH   5  10
HETATM   10  C   UNL     1     -10.444  15.676  65.450  1.00  0.00    -0.411 C  
BRANCH  10  11
HETATM   11  C   UNL     1     -11.283  15.269  66.670  1.00  0.00    -0.232 C  
BRANCH  11  12
HETATM   12  C   UNL     1     -12.308  14.203  66.302  1.00  0.00    -0.422 C  
BRANCH  12  13
HETATM   13  O   UNL     1     -11.636  13.057  65.773  1.00  0.00    -0.326 OA 
BRANCH  13  14
HETATM   14  C   UNL     1     -11.080  12.212  66.697  1.00  0.00    -0.306 A  
HETATM   15  C   UNL     1      -9.753  11.774  66.715  1.00  0.00    -0.213 A  
HETATM   16  C   UNL     1      -9.324  10.841  67.670  1.00  0.00    -0.156 A  
HETATM   17  C   UNL     1     -10.220  10.343  68.624  1.00  0.00    -0.196 A  
HETATM   18  C   UNL     1     -11.519  10.862  68.668  1.00  0.00    -0.380 A  
HETATM   19  C   UNL     1     -11.954  11.762  67.687  1.00  0.00    -0.106 A  
BRANCH  17  20
HETATM   20  C   UNL     1      -9.773   9.243  69.538  1.00  0.00    -0.173 C  
HETATM   21  O   UNL     1      -9.047   9.530  70.486  1.00  0.00    -0.247 OA 
BRANCH  20  22
HETATM   22  C   UNL     1     -10.175   7.865  69.246  1.00  0.00    -0.216 A  
HETATM   23  C   UNL     1     -10.889   7.029  70.103  1.00  0.00    -0.256 A  
HETATM   24  C   UNL     1      -9.057   6.144  65.994  1.00  0.00    -0.121 A  
HETATM   25  O   UNL     1     -11.107   5.821  69.504  1.00  0.00    -0.366 OA 
HETATM   26  C   UNL     1      -9.688   4.930  66.254  1.00  0.00    -0.200 A  
HETATM   27  C   UNL     1     -10.471   5.828  68.311  1.00  0.00    -0.220 A  
HETATM   28  C   UNL     1      -9.852   7.051  68.098  1.00  0.00    -0.151 A  
HETATM   29  C   UNL     1     -10.407   4.745  67.438  1.00  0.00    -0.079 A  
HETATM   30  C   UNL     1      -9.091   7.192  66.920  1.00  0.00    -0.159 A  
BRANCH  23  31
HETATM   31  C   UNL     1     -11.339   7.059  71.526  1.00  0.00    -0.290 C  
BRANCH  31  32
HETATM   32  C   UNL     1     -11.780   8.399  72.112  1.00  0.00    -0.442 C  
BRANCH  32  33
HETATM   33  C   UNL     1     -13.194   8.702  71.586  1.00  0.00    -0.381 C  
HETATM   34  C   UNL     1     -14.177   7.557  71.743  1.00  0.00    -0.548 C  
ENDBRANCH  32  33
ENDBRANCH  31  32
ENDBRANCH  23  31
BRANCH  24  35
HETATM   35  N   UNL     1      -8.346   6.345  64.775  1.00  0.00    -0.296 N  
HETATM   36  H   UNL     1      -8.689   6.997  64.069  1.00  0.00     0.000 HD 
BRANCH  35  37
HETATM   37  S   UNL     1      -6.920   5.474  64.533  1.00  0.00    -0.050 S  
HETATM   38  C   UNL     1      -7.484   4.179  63.449  1.00  0.00    -0.051 C  
HETATM   39  O   UNL     1      -5.950   6.291  63.842  1.00  0.00    -0.022 OA 
HETATM   40  O   UNL     1      -6.618   4.871  65.814  1.00  0.00    -0.042 OA 
ENDBRANCH  35  37
ENDBRANCH  24  35
ENDBRANCH  20  22
ENDBRANCH  17  20
ENDBRANCH  13  14
ENDBRANCH  12  13
ENDBRANCH  11  12
ENDBRANCH  10  11
ENDBRANCH   5  10
ENDBRANCH   4   5
ENDBRANCH   3   4
ENDBRANCH   2   3
TORSDOF 18
ENDMDL
MODEL       78
REMARK 921   NORMALIZED FREE ENERGY PREDICTED BY IDOCK:   -4.87 KCAL/MOL
REMARK 922        TOTAL FREE ENERGY PREDICTED BY IDOCK:  -12.72 KCAL/MOL
REMARK 923 INTER-LIGAND FREE ENERGY PREDICTED BY IDOCK:  -10.16 KCAL/MOL
REMARK 924 INTRA-LIGAND FREE ENERGY PREDICTED BY IDOCK:   -2.56 KCAL/MOL
REMARK 927      BINDING AFFINITY PREDICTED BY RF-SCORE:    0.00 PKD
ROOT
HETATM    1  C   UNL     1     -13.301  14.583  71.855  1.00  0.00    -0.450 C  
HETATM    2  C   UNL     1     -12.398  14.424  70.638  1.00  0.00    -0.422 C  
ENDROOT
BRANCH   2   3
HETATM    3  C   UNL     1     -11.414  15.590  70.553  1.00  0.00    -0.368 C  
BRANCH   3   4
HETATM    4  C   UNL     1     -11.269  16.204  69.153  1.00  0.00    -0.336 C  
BRANCH   4   5
HETATM    5  N   UNL     1      -9.915  16.262  68.544  1.00  0.00    -0.226 NA 
BRANCH   5   6
HETATM    6  C   UNL     1      -9.424  17.658  68.473  1.00  0.00    -0.298 C  
BRANCH   6   7
HETATM    7  C   UNL     1      -8.785  18.105  67.144  1.00  0.00    -0.249 C  
BRANCH   7   8
HETATM    8  C   UNL     1      -9.565  19.190  66.399  1.00  0.00    -0.402 C  
HETATM    9  C   UNL     1     -10.897  19.464  67.084  1.00  0.00    -0.561 C  
ENDBRANCH   7   8
ENDBRANCH   6   7
ENDBRANCH   5   6
BRANCH   5  10
HETATM   10  C   UNL     1      -8.985  15.418  69.336  1.00  0.00    -0.258 C  
BRANCH  10  11
HETATM   11  C   UNL     1      -8.133  14.437  68.517  1.00  0.00    -0.146 C  
BRANCH  11  12
HETATM   12  C   UNL     1      -8.911  13.898  67.322  1.00  0.00    -0.221 C  
BRANCH  12  13
HETATM   13  O   UNL     1      -8.664  12.496  67.184  1.00  0.00    -0.187 OA 
BRANCH  13  14
HETATM   14  C   UNL     1      -9.292  11.687  68.094  1.00  0.00    -0.188 A  
HETATM   15  C   UNL     1      -8.664  10.827  69.000  1.00  0.00    -0.136 A  
HETATM   16  C   UNL     1      -9.423   9.987  69.827  1.00  0.00    -0.239 A  
HETATM   17  C   UNL     1     -10.822  10.007  69.763  1.00  0.00    -0.308 A  
HETATM   18  C   UNL     1     -11.448  10.943  68.932  1.00  0.00    -0.369 A  
HETATM   19  C   UNL     1     -10.686  11.750  68.077  1.00  0.00    -0.244 A  
BRANCH  17  20
HETATM   20  C   UNL     1     -11.602   9.000  70.552  1.00  0.00    -0.175 C  
HETATM   21  O   UNL     1     -12.534   9.397  71.246  1.00  0.00    -0.316 OA 
BRANCH  20  22
HETATM   22  C   UNL     1     -11.199   7.592  70.508  1.00  0.00    -0.287 A  
HETATM   23  C   UNL     1     -11.143   6.729  71.602  1.00  0.00    -0.246 A  
HETATM   24  C   UNL     1      -9.917   6.021  67.240  1.00  0.00    -0.150 A  
HETATM   25  O   UNL     1     -10.744   5.487  71.197  1.00  0.00    -0.247 OA 
HETATM   26  C   UNL     1      -9.690   4.754  67.773  1.00  0.00    -0.202 A  
HETATM   27  C   UNL     1     -10.454   5.552  69.878  1.00  0.00    -0.316 A  
HETATM   28  C   UNL     1     -10.687   6.831  69.393  1.00  0.00    -0.291 A  
HETATM   29  C   UNL     1      -9.948   4.498  69.122  1.00  0.00    -0.169 A  
HETATM   30  C   UNL     1     -10.369   7.075  68.041  1.00  0.00    -0.234 A  
BRANCH  23  31
HETATM   31  C   UNL     1     -11.263   6.844  73.085  1.00  0.00    -0.156 C  
BRANCH  31  32
HETATM   32  C   UNL     1      -9.980   6.816  73.914  1.00  0.00    -0.340 C  
BRANCH  32  33
HETATM   33  C   UNL     1      -9.064   7.943  73.404  1.00  0.00    -0.347 C  
HETATM   34  C   UNL     1      -7.880   8.241  74.306  1.00  0.00    -0.290 C  
ENDBRANCH  32  33
ENDBRANCH  31  32
ENDBRANCH  23  31
BRANCH  24  35
HETATM   35  N   UNL     1      -9.682   6.279  65.858  1.00  0.00    -0.382 N  
HETATM   36  H   UNL     1     -10.453   6.309  65.190  1.00  0.00     0.000 HD 
BRANCH  35  37
HETATM   37  S   UNL     1      -8.089   6.533  65.357  1.00  0.00    -0.131 S  
HETATM   38  C   UNL     1      -8.225   8.118  64.558  1.00  0.00    -0.115 C  
HETATM   39  O   UNL     1      -7.220   6.647  66.506  1.00  0.00    -0.070 OA 
HETATM   40  O   UNL     1      -7.849   5.543  64.328  1.00  0.00    -0.095 OA 
ENDBRANCH  35  37
ENDBRANCH  24  35
ENDBRANCH  20  22
ENDBRANCH  17  20
ENDBRANCH  13  14
ENDBRANCH  12  13
ENDBRANCH  11  12
ENDBRANCH  10  11
ENDBRANCH   5  10
ENDBRANCH   4   5
ENDBRANCH   3   4
ENDBRANCH   2   3
TORSDOF 18
ENDMDL
MODEL       79
REMARK 921   NORMALIZED FREE ENERGY PREDICTED BY IDOCK:   -4.87 KCAL/MOL
REMARK 922        TOTAL FREE ENERGY PREDICTED BY IDOCK:  -12.72 KCAL/MOL
REMARK 923 INTER-LIGAND FREE ENERGY PREDICTED BY IDOCK:   -8.98 KCAL/MOL
REMARK 924 INTRA-LIGAND FREE ENERGY PREDICTED BY IDOCK:   -3.73 KCAL/MOL
REMARK 927      BINDING AFFINITY PREDICTED BY RF-SCORE:    0.00 PKD
ROOT
HETATM    1  C   UNL     1     -10.102   3.118  72.107  1.00  0.00    -0.200 C  
HETATM    2  C   UNL     1      -9.959   4.565  72.562  1.00  0.00    -0.225 C  
ENDROOT
BRANCH   2   3
HETATM    3  C   UNL     1     -11.320   5.127  72.974  1.00  0.00    -0.381 C  
BRANCH   3   4
HETATM    4  C   UNL     1     -11.937   6.109  71.967  1.00  0.00    -0.253 C  
BRANCH   4   5
HETATM    5  N   UNL     1     -11.053   6.714  70.938  1.00  0.00    -0.269 NA 
BRANCH   5   6
HETATM    6  C   UNL     1     -11.526   6.389  69.573  1.00  0.00    -0.343 C  
BRANCH   6   7
HETATM    7  C   UNL     1     -10.446   6.144  68.501  1.00  0.00    -0.284 C  
BRANCH   7   8
HETATM    8  C   UNL     1      -9.321   5.203  68.938  1.00  0.00    -0.168 C  
HETATM    9  C   UNL     1      -9.345   3.918  68.120  1.00  0.00    -0.223 C  
ENDBRANCH   7   8
ENDBRANCH   6   7
ENDBRANCH   5   6
BRANCH   5  10
HETATM   10  C   UNL     1     -11.003   8.185  71.139  1.00  0.00    -0.237 C  
BRANCH  10  11
HETATM   11  C   UNL     1      -9.902   8.678  72.090  1.00  0.00    -0.387 C  
BRANCH  11  12
HETATM   12  C   UNL     1      -8.524   8.224  71.619  1.00  0.00    -0.149 C  
BRANCH  12  13
HETATM   13  O   UNL     1      -7.701   9.368  71.378  1.00  0.00    -0.334 OA 
BRANCH  13  14
HETATM   14  C   UNL     1      -7.488   9.683  70.062  1.00  0.00    -0.141 A  
HETATM   15  C   UNL     1      -6.955  10.882  69.581  1.00  0.00    -0.128 A  
HETATM   16  C   UNL     1      -6.863  11.117  68.202  1.00  0.00    -0.067 A  
HETATM   17  C   UNL     1      -7.294  10.147  67.289  1.00  0.00    -0.090 A  
HETATM   18  C   UNL     1      -7.729   8.907  67.773  1.00  0.00    -0.101 A  
HETATM   19  C   UNL     1      -7.859   8.694  69.150  1.00  0.00    -0.099 A  
BRANCH  17  20
HETATM   20  C   UNL     1      -7.318  10.481  65.828  1.00  0.00    -0.137 C  
HETATM   21  O   UNL     1      -6.248  10.572  65.232  1.00  0.00    -0.126 OA 
BRANCH  20  22
HETATM   22  C   UNL     1      -8.605  10.733  65.174  1.00  0.00    -0.133 A  
HETATM   23  C   UNL     1      -8.971  10.286  63.905  1.00  0.00    -0.237 A  
HETATM   24  C   UNL     1     -11.235  12.998  66.829  1.00  0.00    -0.298 A  
HETATM   25  O   UNL     1     -10.245  10.686  63.618  1.00  0.00    -0.310 OA 
HETATM   26  C   UNL     1     -12.179  12.883  65.812  1.00  0.00    -0.498 A  
HETATM   27  C   UNL     1     -10.678  11.460  64.640  1.00  0.00    -0.314 A  
HETATM   28  C   UNL     1      -9.704  11.553  65.625  1.00  0.00    -0.261 A  
HETATM   29  C   UNL     1     -11.909  12.110  64.679  1.00  0.00    -0.400 A  
HETATM   30  C   UNL     1      -9.983  12.380  66.731  1.00  0.00    -0.234 A  
BRANCH  23  31
HETATM   31  C   UNL     1      -8.298   9.625  62.748  1.00  0.00    -0.162 C  
BRANCH  31  32
HETATM   32  C   UNL     1      -8.362   8.102  62.655  1.00  0.00    -0.102 C  
BRANCH  32  33
HETATM   33  C   UNL     1      -7.368   7.524  63.679  1.00  0.00    -0.094 C  
HETATM   34  C   UNL     1      -7.997   6.606  64.710  1.00  0.00    -0.118 C  
ENDBRANCH  32  33
ENDBRANCH  31  32
ENDBRANCH  23  31
BRANCH  24  35
HETATM   35  N   UNL     1     -11.518  13.763  67.998  1.00  0.00    -0.291 N  
HETATM   36  H   UNL     1     -12.062  13.368  68.766  1.00  0.00     0.000 HD 
BRANCH  35  37
HETATM   37  S   UNL     1     -10.928  15.343  68.076  1.00  0.00    -0.318 S  
HETATM   38  C   UNL     1      -9.393  15.098  68.945  1.00  0.00    -0.207 C  
HETATM   39  O   UNL     1     -10.653  15.836  66.746  1.00  0.00    -0.306 OA 
HETATM   40  O   UNL     1     -11.828  16.045  68.966  1.00  0.00    -0.362 OA 
ENDBRANCH  35  37
ENDBRANCH  24  35
ENDBRANCH  20  22
ENDBRANCH  17  20
ENDBRANCH  13  14
ENDBRANCH  12  13
ENDBRANCH  11  12
ENDBRANCH  10  11
ENDBRANCH   5  10
ENDBRANCH   4   5
ENDBRANCH   3   4
ENDBRANCH   2   3
TORSDOF 18
ENDMDL
MODEL       80
REMARK 921   NORMALIZED FREE ENERGY PREDICTED BY IDOCK:   -4.87 KCAL/MOL
REMARK 922        TOTAL FREE ENERGY PREDICTED BY IDOCK:  -12.71 KCAL/MOL
REMARK 923 INTER-LIGAND FREE ENERGY PREDICTED BY IDOCK:  -10.44 KCAL/MOL
REMARK 924 INTRA-LIGAND FREE ENERGY PREDICTED BY IDOCK:   -2.26 KCAL/MOL
REMARK 927      BINDING AFFINITY PREDICTED BY RF-SCORE:    0.00 PKD
ROOT
HETATM    1  C   UNL     1     -10.285   5.068  69.717  1.00  0.00    -0.336 C  
HETATM    2  C   UNL     1      -9.806   6.176  68.787  1.00  0.00    -0.160 C  
ENDROOT
BRANCH   2   3
HETATM    3  C   UNL     1     -10.756   6.317  67.598  1.00  0.00    -0.391 C  
BRANCH   3   4
HETATM    4  C   UNL     1     -10.372   5.478  66.370  1.00  0.00    -0.219 C  
BRANCH   4   5
HETATM    5  N   UNL     1      -9.055   4.792  66.368  1.00  0.00    -0.116 NA 
BRANCH   5   6
HETATM    6  C   UNL     1      -9.145   3.470  65.705  1.00  0.00    -0.150 C  
BRANCH   6   7
HETATM    7  C   UNL     1      -9.684   3.450  64.261  1.00  0.00    -0.166 C  
BRANCH   7   8
HETATM    8  C   UNL     1      -8.805   2.690  63.266  1.00  0.00    -0.085 C  
HETATM    9  C   UNL     1      -7.718   1.909  63.994  1.00  0.00    -0.060 C  
ENDBRANCH   7   8
ENDBRANCH   6   7
ENDBRANCH   5   6
BRANCH   5  10
HETATM   10  C   UNL     1      -8.055   5.652  65.686  1.00  0.00    -0.120 C  
BRANCH  10  11
HETATM   11  C   UNL     1      -6.994   6.278  66.605  1.00  0.00    -0.067 C  
BRANCH  11  12
HETATM   12  C   UNL     1      -7.342   7.723  66.942  1.00  0.00    -0.090 C  
BRANCH  12  13
HETATM   13  O   UNL     1      -8.117   8.288  65.880  1.00  0.00    -0.095 OA 
BRANCH  13  14
HETATM   14  C   UNL     1      -8.817   9.423  66.191  1.00  0.00    -0.151 A  
HETATM   15  C   UNL     1     -10.102   9.743  65.745  1.00  0.00    -0.308 A  
HETATM   16  C   UNL     1     -10.681  10.979  66.069  1.00  0.00    -0.242 A  
HETATM   17  C   UNL     1      -9.981  11.904  66.853  1.00  0.00    -0.219 A  
HETATM   18  C   UNL     1      -8.738  11.538  67.385  1.00  0.00    -0.147 A  
HETATM   19  C   UNL     1      -8.147  10.321  67.024  1.00  0.00    -0.121 A  
BRANCH  17  20
HETATM   20  C   UNL     1     -10.562  13.270  67.062  1.00  0.00    -0.259 C  
HETATM   21  O   UNL     1     -10.536  14.065  66.127  1.00  0.00    -0.285 OA 
BRANCH  20  22
HETATM   22  C   UNL     1     -11.095  13.623  68.380  1.00  0.00    -0.289 A  
HETATM   23  C   UNL     1     -10.951  14.860  69.009  1.00  0.00    -0.245 A  
HETATM   24  C   UNL     1     -12.860  10.987  70.555  1.00  0.00    -0.174 A  
HETATM   25  O   UNL     1     -11.587  14.847  70.217  1.00  0.00    -0.259 OA 
HETATM   26  C   UNL     1     -13.123  11.841  71.624  1.00  0.00    -0.443 A  
HETATM   27  C   UNL     1     -12.063  13.599  70.423  1.00  0.00    -0.351 A  
HETATM   28  C   UNL     1     -11.772  12.783  69.339  1.00  0.00    -0.380 A  
HETATM   29  C   UNL     1     -12.714  13.177  71.580  1.00  0.00    -0.366 A  
HETATM   30  C   UNL     1     -12.150  11.428  69.432  1.00  0.00    -0.358 A  
BRANCH  23  31
HETATM   31  C   UNL     1     -10.178  16.115  68.775  1.00  0.00    -0.238 C  
BRANCH  31  32
HETATM   32  C   UNL     1     -10.779  17.164  67.840  1.00  0.00    -0.355 C  
BRANCH  32  33
HETATM   33  C   UNL     1     -10.269  18.545  68.290  1.00  0.00    -0.412 C  
HETATM   34  C   UNL     1     -10.603  19.676  67.335  1.00  0.00    -0.589 C  
ENDBRANCH  32  33
ENDBRANCH  31  32
ENDBRANCH  23  31
BRANCH  24  35
HETATM   35  N   UNL     1     -13.300   9.632  70.583  1.00  0.00    -0.586 N  
HETATM   36  H   UNL     1     -13.702   9.192  69.755  1.00  0.00     0.000 HD 
BRANCH  35  37
HETATM   37  S   UNL     1     -13.136   8.774  72.029  1.00  0.00    -0.420 S  
HETATM   38  C   UNL     1     -13.386   7.102  71.471  1.00  0.00    -0.344 C  
HETATM   39  O   UNL     1     -11.792   8.915  72.539  1.00  0.00    -0.291 OA 
HETATM   40  O   UNL     1     -14.286   9.146  72.827  1.00  0.00    -0.552 OA 
ENDBRANCH  35  37
ENDBRANCH  24  35
ENDBRANCH  20  22
ENDBRANCH  17  20
ENDBRANCH  13  14
ENDBRANCH  12  13
ENDBRANCH  11  12
ENDBRANCH  10  11
ENDBRANCH   5  10
ENDBRANCH   4   5
ENDBRANCH   3   4
ENDBRANCH   2   3
TORSDOF 18
ENDMDL
MODEL       81
REMARK 921   NORMALIZED FREE ENERGY PREDICTED BY IDOCK:   -4.84 KCAL/MOL
REMARK 922        TOTAL FREE ENERGY PREDICTED BY IDOCK:  -12.65 KCAL/MOL
REMARK 923 INTER-LIGAND FREE ENERGY PREDICTED BY IDOCK:   -9.89 KCAL/MOL
REMARK 924 INTRA-LIGAND FREE ENERGY PREDICTED BY IDOCK:   -2.76 KCAL/MOL
REMARK 927      BINDING AFFINITY PREDICTED BY RF-SCORE:    0.00 PKD
ROOT
HETATM    1  C   UNL     1     -13.019   9.390  71.301  1.00  0.00    -0.373 C  
HETATM    2  C   UNL     1     -12.912   7.951  71.789  1.00  0.00    -0.351 C  
ENDROOT
BRANCH   2   3
HETATM    3  C   UNL     1     -12.217   7.085  70.738  1.00  0.00    -0.343 C  
BRANCH   3   4
HETATM    4  C   UNL     1     -11.274   6.017  71.313  1.00  0.00    -0.258 C  
BRANCH   4   5
HETATM    5  N   UNL     1     -11.157   5.899  72.788  1.00  0.00    -0.268 NA 
BRANCH   5   6
HETATM    6  C   UNL     1     -11.783   4.646  73.272  1.00  0.00    -0.084 C  
BRANCH   6   7
HETATM    7  C   UNL     1     -10.831   3.525  73.734  1.00  0.00    -0.317 C  
BRANCH   7   8
HETATM    8  C   UNL     1     -10.802   2.300  72.817  1.00  0.00    -0.133 C  
HETATM    9  C   UNL     1      -9.803   2.497  71.684  1.00  0.00    -0.216 C  
ENDBRANCH   7   8
ENDBRANCH   6   7
ENDBRANCH   5   6
BRANCH   5  10
HETATM   10  C   UNL     1      -9.723   5.951  73.172  1.00  0.00    -0.158 C  
BRANCH  10  11
HETATM   11  C   UNL     1      -8.745   6.206  72.016  1.00  0.00    -0.135 C  
BRANCH  11  12
HETATM   12  C   UNL     1      -8.087   7.576  72.145  1.00  0.00    -0.102 C  
BRANCH  12  13
HETATM   13  O   UNL     1      -9.044   8.595  71.843  1.00  0.00    -0.227 OA 
BRANCH  13  14
HETATM   14  C   UNL     1      -8.831   9.287  70.680  1.00  0.00    -0.237 A  
HETATM   15  C   UNL     1      -9.807   9.940  69.922  1.00  0.00    -0.285 A  
HETATM   16  C   UNL     1      -9.474  10.546  68.702  1.00  0.00    -0.172 A  
HETATM   17  C   UNL     1      -8.155  10.513  68.233  1.00  0.00    -0.115 A  
HETATM   18  C   UNL     1      -7.162   9.951  69.043  1.00  0.00    -0.077 A  
HETATM   19  C   UNL     1      -7.507   9.310  70.240  1.00  0.00    -0.113 A  
BRANCH  17  20
HETATM   20  C   UNL     1      -7.856  11.042  66.862  1.00  0.00    -0.140 C  
HETATM   21  O   UNL     1      -6.693  11.323  66.586  1.00  0.00    -0.133 OA 
BRANCH  20  22
HETATM   22  C   UNL     1      -8.960  11.248  65.921  1.00  0.00    -0.206 A  
HETATM   23  C   UNL     1      -9.341  10.366  64.911  1.00  0.00    -0.243 A  
HETATM   24  C   UNL     1     -10.937  14.547  65.911  1.00  0.00    -0.320 A  
HETATM   25  O   UNL     1     -10.418  10.865  64.236  1.00  0.00    -0.362 OA 
HETATM   26  C   UNL     1     -11.793  14.194  64.870  1.00  0.00    -0.407 A  
HETATM   27  C   UNL     1     -10.684  12.095  64.729  1.00  0.00    -0.301 A  
HETATM   28  C   UNL     1      -9.805  12.407  65.757  1.00  0.00    -0.253 A  
HETATM   29  C   UNL     1     -11.672  12.949  64.246  1.00  0.00    -0.445 A  
HETATM   30  C   UNL     1      -9.915  13.689  66.333  1.00  0.00    -0.299 A  
BRANCH  23  31
HETATM   31  C   UNL     1      -8.802   9.116  64.299  1.00  0.00    -0.139 C  
BRANCH  31  32
HETATM   32  C   UNL     1      -7.303   9.045  64.011  1.00  0.00    -0.100 C  
BRANCH  32  33
HETATM   33  C   UNL     1      -6.972  10.127  62.968  1.00  0.00    -0.133 C  
HETATM   34  C   UNL     1      -5.491  10.435  62.836  1.00  0.00    -0.142 C  
ENDBRANCH  32  33
ENDBRANCH  31  32
ENDBRANCH  23  31
BRANCH  24  35
HETATM   35  N   UNL     1     -11.075  15.804  66.569  1.00  0.00    -0.160 N  
HETATM   36  H   UNL     1     -11.616  15.890  67.430  1.00  0.00     0.000 HD 
BRANCH  35  37
HETATM   37  S   UNL     1     -10.318  17.147  65.881  1.00  0.00    -0.204 S  
HETATM   38  C   UNL     1     -10.657  18.399  67.101  1.00  0.00    -0.383 C  
HETATM   39  O   UNL     1      -8.892  16.926  65.803  1.00  0.00    -0.522 OA 
HETATM   40  O   UNL     1     -11.096  17.463  64.702  1.00  0.00    -1.029 OA 
ENDBRANCH  35  37
ENDBRANCH  24  35
ENDBRANCH  20  22
ENDBRANCH  17  20
ENDBRANCH  13  14
ENDBRANCH  12  13
ENDBRANCH  11  12
ENDBRANCH  10  11
ENDBRANCH   5  10
ENDBRANCH   4   5
ENDBRANCH   3   4
ENDBRANCH   2   3
TORSDOF 18
ENDMDL
MODEL       82
REMARK 921   NORMALIZED FREE ENERGY PREDICTED BY IDOCK:   -4.83 KCAL/MOL
REMARK 922        TOTAL FREE ENERGY PREDICTED BY IDOCK:  -12.62 KCAL/MOL
REMARK 923 INTER-LIGAND FREE ENERGY PREDICTED BY IDOCK:   -9.30 KCAL/MOL
REMARK 924 INTRA-LIGAND FREE ENERGY PREDICTED BY IDOCK:   -3.33 KCAL/MOL
REMARK 927      BINDING AFFINITY PREDICTED BY RF-SCORE:    0.00 PKD
ROOT
HETATM    1  C   UNL     1     -12.240  10.997  69.301  1.00  0.00    -0.280 C  
HETATM    2  C   UNL     1     -12.349  11.221  70.803  1.00  0.00    -0.495 C  
ENDROOT
BRANCH   2   3
HETATM    3  C   UNL     1     -12.200   9.895  71.549  1.00  0.00    -0.505 C  
BRANCH   3   4
HETATM    4  C   UNL     1     -11.098   8.975  71.003  1.00  0.00    -0.289 C  
BRANCH   4   5
HETATM    5  N   UNL     1     -11.416   7.540  70.792  1.00  0.00    -0.284 NA 
BRANCH   5   6
HETATM    6  C   UNL     1     -10.981   7.090  69.449  1.00  0.00    -0.201 C  
BRANCH   6   7
HETATM    7  C   UNL     1     -10.658   8.190  68.418  1.00  0.00    -0.148 C  
BRANCH   7   8
HETATM    8  C   UNL     1     -10.576   7.697  66.972  1.00  0.00    -0.406 C  
HETATM    9  C   UNL     1     -10.510   6.176  66.923  1.00  0.00    -0.340 C  
ENDBRANCH   7   8
ENDBRANCH   6   7
ENDBRANCH   5   6
BRANCH   5  10
HETATM   10  C   UNL     1     -10.762   6.732  71.853  1.00  0.00    -0.223 C  
BRANCH  10  11
HETATM   11  C   UNL     1      -9.512   5.957  71.409  1.00  0.00    -0.168 C  
BRANCH  11  12
HETATM   12  C   UNL     1      -8.248   6.781  71.630  1.00  0.00    -0.110 C  
BRANCH  12  13
HETATM   13  O   UNL     1      -7.427   6.716  70.461  1.00  0.00    -0.083 OA 
BRANCH  13  14
HETATM   14  C   UNL     1      -7.395   7.850  69.692  1.00  0.00    -0.090 A  
HETATM   15  C   UNL     1      -7.680   9.146  70.128  1.00  0.00    -0.105 A  
HETATM   16  C   UNL     1      -7.692  10.216  69.221  1.00  0.00    -0.126 A  
HETATM   17  C   UNL     1      -7.407   9.998  67.867  1.00  0.00    -0.088 A  
HETATM   18  C   UNL     1      -7.019   8.718  67.454  1.00  0.00    -0.075 A  
HETATM   19  C   UNL     1      -7.050   7.646  68.355  1.00  0.00    -0.081 A  
BRANCH  17  20
HETATM   20  C   UNL     1      -7.568  11.130  66.898  1.00  0.00    -0.145 C  
HETATM   21  O   UNL     1      -6.766  12.059  66.947  1.00  0.00    -0.129 OA 
BRANCH  20  22
HETATM   22  C   UNL     1      -8.695  11.114  65.962  1.00  0.00    -0.185 A  
HETATM   23  C   UNL     1      -8.753  10.384  64.775  1.00  0.00    -0.186 A  
HETATM   24  C   UNL     1     -11.742  13.393  66.521  1.00  0.00    -0.373 A  
HETATM   25  O   UNL     1      -9.955  10.588  64.160  1.00  0.00    -0.322 OA 
HETATM   26  C   UNL     1     -12.436  12.979  65.387  1.00  0.00    -0.531 A  
HETATM   27  C   UNL     1     -10.641  11.505  64.879  1.00  0.00    -0.303 A  
HETATM   28  C   UNL     1      -9.909  11.893  65.993  1.00  0.00    -0.258 A  
HETATM   29  C   UNL     1     -11.885  12.023  64.529  1.00  0.00    -0.363 A  
HETATM   30  C   UNL     1     -10.466  12.897  66.812  1.00  0.00    -0.262 A  
BRANCH  23  31
HETATM   31  C   UNL     1      -7.811   9.573  63.950  1.00  0.00    -0.133 C  
BRANCH  31  32
HETATM   32  C   UNL     1      -8.094   8.079  63.796  1.00  0.00    -0.096 C  
BRANCH  32  33
HETATM   33  C   UNL     1      -6.790   7.319  64.095  1.00  0.00    -0.048 C  
HETATM   34  C   UNL     1      -6.994   5.946  64.710  1.00  0.00    -0.052 C  
ENDBRANCH  32  33
ENDBRANCH  31  32
ENDBRANCH  23  31
BRANCH  24  35
HETATM   35  N   UNL     1     -12.312  14.347  67.413  1.00  0.00    -0.600 N  
HETATM   36  H   UNL     1     -13.303  14.587  67.362  1.00  0.00     0.000 HD 
BRANCH  35  37
HETATM   37  S   UNL     1     -11.301  15.069  68.557  1.00  0.00    -0.318 S  
HETATM   38  C   UNL     1     -10.498  16.316  67.572  1.00  0.00    -0.302 C  
HETATM   39  O   UNL     1     -12.091  15.704  69.586  1.00  0.00    -0.364 OA 
HETATM   40  O   UNL     1     -10.312  14.063  68.882  1.00  0.00    -0.231 OA 
ENDBRANCH  35  37
ENDBRANCH  24  35
ENDBRANCH  20  22
ENDBRANCH  17  20
ENDBRANCH  13  14
ENDBRANCH  12  13
ENDBRANCH  11  12
ENDBRANCH  10  11
ENDBRANCH   5  10
ENDBRANCH   4   5
ENDBRANCH   3   4
ENDBRANCH   2   3
TORSDOF 18
ENDMDL
MODEL       83
REMARK 921   NORMALIZED FREE ENERGY PREDICTED BY IDOCK:   -4.82 KCAL/MOL
REMARK 922        TOTAL FREE ENERGY PREDICTED BY IDOCK:  -12.62 KCAL/MOL
REMARK 923 INTER-LIGAND FREE ENERGY PREDICTED BY IDOCK:   -9.50 KCAL/MOL
REMARK 924 INTRA-LIGAND FREE ENERGY PREDICTED BY IDOCK:   -3.11 KCAL/MOL
REMARK 927      BINDING AFFINITY PREDICTED BY RF-SCORE:    0.00 PKD
ROOT
HETATM    1  C   UNL     1     -10.429  19.542  66.010  1.00  0.00    -0.611 C  
HETATM    2  C   UNL     1      -9.773  20.036  67.293  1.00  0.00    -0.545 C  
ENDROOT
BRANCH   2   3
HETATM    3  C   UNL     1      -9.683  18.900  68.312  1.00  0.00    -0.412 C  
BRANCH   3   4
HETATM    4  C   UNL     1     -10.712  17.777  68.110  1.00  0.00    -0.284 C  
BRANCH   4   5
HETATM    5  N   UNL     1     -10.244  16.370  68.178  1.00  0.00    -0.253 NA 
BRANCH   5   6
HETATM    6  C   UNL     1      -8.944  16.208  67.485  1.00  0.00    -0.191 C  
BRANCH   6   7
HETATM    7  C   UNL     1      -8.990  16.021  65.955  1.00  0.00    -0.345 C  
BRANCH   7   8
HETATM    8  C   UNL     1     -10.156  15.166  65.455  1.00  0.00    -0.402 C  
HETATM    9  C   UNL     1     -11.106  15.997  64.602  1.00  0.00    -0.346 C  
ENDBRANCH   7   8
ENDBRANCH   6   7
ENDBRANCH   5   6
BRANCH   5  10
HETATM   10  C   UNL     1     -10.134  15.958  69.600  1.00  0.00    -0.271 C  
BRANCH  10  11
HETATM   11  C   UNL     1     -11.469  15.826  70.349  1.00  0.00    -0.380 C  
BRANCH  11  12
HETATM   12  C   UNL     1     -11.854  14.362  70.533  1.00  0.00    -0.299 C  
BRANCH  12  13
HETATM   13  O   UNL     1     -12.393  13.854  69.309  1.00  0.00    -0.323 OA 
BRANCH  13  14
HETATM   14  C   UNL     1     -11.789  12.727  68.815  1.00  0.00    -0.307 A  
HETATM   15  C   UNL     1     -11.418  12.511  67.485  1.00  0.00    -0.397 A  
HETATM   16  C   UNL     1     -10.880  11.279  67.087  1.00  0.00    -0.321 A  
HETATM   17  C   UNL     1     -10.700  10.251  68.021  1.00  0.00    -0.299 A  
HETATM   18  C   UNL     1     -10.974  10.507  69.370  1.00  0.00    -0.297 A  
HETATM   19  C   UNL     1     -11.550  11.724  69.755  1.00  0.00    -0.372 A  
BRANCH  17  20
HETATM   20  C   UNL     1     -10.260   8.901  67.543  1.00  0.00    -0.248 C  
HETATM   21  O   UNL     1     -11.026   8.255  66.834  1.00  0.00    -0.107 OA 
BRANCH  20  22
HETATM   22  C   UNL     1      -8.960   8.380  67.974  1.00  0.00    -0.138 A  
HETATM   23  C   UNL     1      -7.780   8.428  67.231  1.00  0.00    -0.098 A  
HETATM   24  C   UNL     1      -8.614   6.469  71.293  1.00  0.00    -0.127 A  
HETATM   25  O   UNL     1      -6.757   7.868  67.942  1.00  0.00    -0.063 OA 
HETATM   26  C   UNL     1      -7.248   6.225  71.172  1.00  0.00    -0.079 A  
HETATM   27  C   UNL     1      -7.270   7.378  69.093  1.00  0.00    -0.084 A  
HETATM   28  C   UNL     1      -8.632   7.636  69.167  1.00  0.00    -0.139 A  
HETATM   29  C   UNL     1      -6.545   6.673  70.050  1.00  0.00    -0.048 A  
HETATM   30  C   UNL     1      -9.325   7.129  70.284  1.00  0.00    -0.155 A  
BRANCH  23  31
HETATM   31  C   UNL     1      -7.386   8.792  65.839  1.00  0.00    -0.085 C  
BRANCH  31  32
HETATM   32  C   UNL     1      -7.652  10.221  65.367  1.00  0.00    -0.146 C  
BRANCH  32  33
HETATM   33  C   UNL     1      -8.183  10.150  63.924  1.00  0.00    -0.164 C  
HETATM   34  C   UNL     1      -9.671  10.416  63.792  1.00  0.00    -0.351 C  
ENDBRANCH  32  33
ENDBRANCH  31  32
ENDBRANCH  23  31
BRANCH  24  35
HETATM   35  N   UNL     1      -9.328   6.039  72.449  1.00  0.00    -0.146 N  
HETATM   36  H   UNL     1      -9.533   6.686  73.211  1.00  0.00     0.000 HD 
BRANCH  35  37
HETATM   37  S   UNL     1      -9.826   4.427  72.521  1.00  0.00    -0.165 S  
HETATM   38  C   UNL     1     -11.265   4.553  73.562  1.00  0.00    -0.303 C  
HETATM   39  O   UNL     1     -10.221   3.970  71.209  1.00  0.00    -0.112 OA 
HETATM   40  O   UNL     1      -8.798   3.742  73.277  1.00  0.00    -0.089 OA 
ENDBRANCH  35  37
ENDBRANCH  24  35
ENDBRANCH  20  22
ENDBRANCH  17  20
ENDBRANCH  13  14
ENDBRANCH  12  13
ENDBRANCH  11  12
ENDBRANCH  10  11
ENDBRANCH   5  10
ENDBRANCH   4   5
ENDBRANCH   3   4
ENDBRANCH   2   3
TORSDOF 18
ENDMDL
MODEL       84
REMARK 921   NORMALIZED FREE ENERGY PREDICTED BY IDOCK:   -4.81 KCAL/MOL
REMARK 922        TOTAL FREE ENERGY PREDICTED BY IDOCK:  -12.59 KCAL/MOL
REMARK 923 INTER-LIGAND FREE ENERGY PREDICTED BY IDOCK:   -9.37 KCAL/MOL
REMARK 924 INTRA-LIGAND FREE ENERGY PREDICTED BY IDOCK:   -3.22 KCAL/MOL
REMARK 927      BINDING AFFINITY PREDICTED BY RF-SCORE:    0.00 PKD
ROOT
HETATM    1  C   UNL     1     -10.410  15.836  70.003  1.00  0.00    -0.286 C  
HETATM    2  C   UNL     1     -11.686  15.043  69.748  1.00  0.00    -0.341 C  
ENDROOT
BRANCH   2   3
HETATM    3  C   UNL     1     -11.364  13.745  69.008  1.00  0.00    -0.333 C  
BRANCH   3   4
HETATM    4  C   UNL     1     -12.221  13.491  67.759  1.00  0.00    -0.157 C  
BRANCH   4   5
HETATM    5  N   UNL     1     -11.639  13.799  66.428  1.00  0.00    -0.344 NA 
BRANCH   5   6
HETATM    6  C   UNL     1     -12.575  13.431  65.341  1.00  0.00    -0.475 C  
BRANCH   6   7
HETATM    7  C   UNL     1     -11.972  13.257  63.933  1.00  0.00    -0.541 C  
BRANCH   7   8
HETATM    8  C   UNL     1     -11.717  11.804  63.527  1.00  0.00    -0.485 C  
HETATM    9  C   UNL     1     -10.498  11.248  64.253  1.00  0.00    -0.419 C  
ENDBRANCH   7   8
ENDBRANCH   6   7
ENDBRANCH   5   6
BRANCH   5  10
HETATM   10  C   UNL     1     -11.301  15.244  66.363  1.00  0.00    -0.161 C  
BRANCH  10  11
HETATM   11  C   UNL     1      -9.909  15.566  65.801  1.00  0.00    -0.392 C  
BRANCH  11  12
HETATM   12  C   UNL     1      -8.810  15.051  66.724  1.00  0.00    -0.268 C  
BRANCH  12  13
HETATM   13  O   UNL     1      -8.457  13.717  66.348  1.00  0.00     0.184 OA 
BRANCH  13  14
HETATM   14  C   UNL     1      -8.128  12.874  67.377  1.00  0.00    -0.181 A  
HETATM   15  C   UNL     1      -7.053  13.032  68.255  1.00  0.00    -0.103 A  
HETATM   16  C   UNL     1      -6.772  12.053  69.220  1.00  0.00    -0.093 A  
HETATM   17  C   UNL     1      -7.573  10.909  69.320  1.00  0.00    -0.113 A  
HETATM   18  C   UNL     1      -8.710  10.805  68.509  1.00  0.00    -0.149 A  
HETATM   19  C   UNL     1      -8.961  11.764  67.520  1.00  0.00    -0.168 A  
BRANCH  17  20
HETATM   20  C   UNL     1      -7.166   9.815  70.260  1.00  0.00    -0.149 C  
HETATM   21  O   UNL     1      -6.307  10.059  71.102  1.00  0.00    -0.284 OA 
BRANCH  20  22
HETATM   22  C   UNL     1      -7.767   8.487  70.112  1.00  0.00    -0.086 A  
HETATM   23  C   UNL     1      -7.286   7.465  69.295  1.00  0.00    -0.080 A  
HETATM   24  C   UNL     1     -11.092   7.635  71.847  1.00  0.00    -0.249 A  
HETATM   25  O   UNL     1      -8.079   6.359  69.413  1.00  0.00    -0.114 OA 
HETATM   26  C   UNL     1     -11.170   6.330  71.367  1.00  0.00    -0.349 A  
HETATM   27  C   UNL     1      -9.116   6.676  70.221  1.00  0.00    -0.156 A  
HETATM   28  C   UNL     1      -9.001   7.984  70.668  1.00  0.00    -0.148 A  
HETATM   29  C   UNL     1     -10.175   5.825  70.526  1.00  0.00    -0.284 A  
HETATM   30  C   UNL     1     -10.045   8.485  71.473  1.00  0.00    -0.315 A  
BRANCH  23  31
HETATM   31  C   UNL     1      -6.239   7.316  68.242  1.00  0.00    -0.036 C  
BRANCH  31  32
HETATM   32  C   UNL     1      -6.695   7.038  66.810  1.00  0.00    -0.060 C  
BRANCH  32  33
HETATM   33  C   UNL     1      -7.443   8.283  66.302  1.00  0.00    -0.079 C  
HETATM   34  C   UNL     1      -8.920   8.058  66.033  1.00  0.00    -0.205 C  
ENDBRANCH  32  33
ENDBRANCH  31  32
ENDBRANCH  23  31
BRANCH  24  35
HETATM   35  N   UNL     1     -12.090   8.145  72.728  1.00  0.00    -0.602 N  
HETATM   36  H   UNL     1     -11.995   8.054  73.739  1.00  0.00     0.000 HD 
BRANCH  35  37
HETATM   37  S   UNL     1     -13.436   8.905  72.048  1.00  0.00    -0.463 S  
HETATM   38  C   UNL     1     -14.343   7.508  71.418  1.00  0.00    -0.394 C  
HETATM   39  O   UNL     1     -14.211   9.557  73.078  1.00  0.00    -0.219 OA 
HETATM   40  O   UNL     1     -12.925   9.644  70.911  1.00  0.00    -0.277 OA 
ENDBRANCH  35  37
ENDBRANCH  24  35
ENDBRANCH  20  22
ENDBRANCH  17  20
ENDBRANCH  13  14
ENDBRANCH  12  13
ENDBRANCH  11  12
ENDBRANCH  10  11
ENDBRANCH   5  10
ENDBRANCH   4   5
ENDBRANCH   3   4
ENDBRANCH   2   3
TORSDOF 18
ENDMDL
MODEL       85
REMARK 921   NORMALIZED FREE ENERGY PREDICTED BY IDOCK:   -4.80 KCAL/MOL
REMARK 922        TOTAL FREE ENERGY PREDICTED BY IDOCK:  -12.57 KCAL/MOL
REMARK 923 INTER-LIGAND FREE ENERGY PREDICTED BY IDOCK:  -10.48 KCAL/MOL
REMARK 924 INTRA-LIGAND FREE ENERGY PREDICTED BY IDOCK:   -2.09 KCAL/MOL
REMARK 927      BINDING AFFINITY PREDICTED BY RF-SCORE:    0.00 PKD
ROOT
HETATM    1  C   UNL     1      -6.998  12.795  68.377  1.00  0.00    -0.095 C  
HETATM    2  C   UNL     1      -6.213  14.007  67.891  1.00  0.00    -0.164 C  
ENDROOT
BRANCH   2   3
HETATM    3  C   UNL     1      -7.065  15.271  68.004  1.00  0.00    -0.139 C  
BRANCH   3   4
HETATM    4  C   UNL     1      -8.355  15.248  67.170  1.00  0.00    -0.216 C  
BRANCH   4   5
HETATM    5  N   UNL     1      -9.548  15.961  67.694  1.00  0.00    -0.220 NA 
BRANCH   5   6
HETATM    6  C   UNL     1     -10.626  16.011  66.679  1.00  0.00    -0.297 C  
BRANCH   6   7
HETATM    7  C   UNL     1     -10.548  14.988  65.529  1.00  0.00    -0.380 C  
BRANCH   7   8
HETATM    8  C   UNL     1     -11.332  13.697  65.774  1.00  0.00    -0.315 C  
HETATM    9  C   UNL     1     -12.812  13.900  65.473  1.00  0.00    -0.471 C  
ENDBRANCH   7   8
ENDBRANCH   6   7
ENDBRANCH   5   6
BRANCH   5  10
HETATM   10  C   UNL     1     -10.021  15.283  68.928  1.00  0.00    -0.225 C  
BRANCH  10  11
HETATM   11  C   UNL     1     -11.436  15.668  69.385  1.00  0.00    -0.354 C  
BRANCH  11  12
HETATM   12  C   UNL     1     -12.384  14.477  69.300  1.00  0.00    -0.150 C  
BRANCH  12  13
HETATM   13  O   UNL     1     -12.590  13.937  70.609  1.00  0.00    -0.335 OA 
BRANCH  13  14
HETATM   14  C   UNL     1     -12.399  12.586  70.734  1.00  0.00    -0.286 A  
HETATM   15  C   UNL     1     -11.556  11.800  69.944  1.00  0.00    -0.351 A  
HETATM   16  C   UNL     1     -11.509  10.409  70.119  1.00  0.00    -0.396 A  
HETATM   17  C   UNL     1     -12.301   9.792  71.095  1.00  0.00    -0.451 A  
HETATM   18  C   UNL     1     -13.064  10.593  71.953  1.00  0.00    -0.563 A  
HETATM   19  C   UNL     1     -13.140  11.976  71.747  1.00  0.00    -0.460 A  
BRANCH  17  20
HETATM   20  C   UNL     1     -12.339   8.295  71.163  1.00  0.00    -0.206 C  
HETATM   21  O   UNL     1     -13.415   7.749  71.394  1.00  0.00    -0.324 OA 
BRANCH  20  22
HETATM   22  C   UNL     1     -11.094   7.542  71.001  1.00  0.00    -0.274 A  
HETATM   23  C   UNL     1     -10.357   6.959  72.032  1.00  0.00    -0.199 A  
HETATM   24  C   UNL     1      -9.420   7.240  67.551  1.00  0.00    -0.129 A  
HETATM   25  O   UNL     1      -9.263   6.321  71.522  1.00  0.00    -0.146 OA 
HETATM   26  C   UNL     1      -8.340   6.475  67.986  1.00  0.00    -0.116 A  
HETATM   27  C   UNL     1      -9.228   6.555  70.190  1.00  0.00    -0.158 A  
HETATM   28  C   UNL     1     -10.315   7.326  69.804  1.00  0.00    -0.227 A  
HETATM   29  C   UNL     1      -8.219   6.124  69.333  1.00  0.00    -0.113 A  
HETATM   30  C   UNL     1     -10.385   7.709  68.449  1.00  0.00    -0.228 A  
BRANCH  23  31
HETATM   31  C   UNL     1     -10.375   6.975  73.524  1.00  0.00    -0.394 C  
BRANCH  31  32
HETATM   32  C   UNL     1     -10.365   5.634  74.256  1.00  0.00    -0.289 C  
BRANCH  32  33
HETATM   33  C   UNL     1     -11.328   4.687  73.519  1.00  0.00    -0.353 C  
HETATM   34  C   UNL     1     -10.770   3.298  73.270  1.00  0.00    -0.288 C  
ENDBRANCH  32  33
ENDBRANCH  31  32
ENDBRANCH  23  31
BRANCH  24  35
HETATM   35  N   UNL     1      -9.562   7.577  66.173  1.00  0.00    -0.420 N  
HETATM   36  H   UNL     1      -9.881   6.886  65.494  1.00  0.00     0.000 HD 
BRANCH  35  37
HETATM   37  S   UNL     1      -9.187   9.154  65.698  1.00  0.00    -0.225 S  
HETATM   38  C   UNL     1      -7.740   9.479  66.684  1.00  0.00    -0.098 C  
HETATM   39  O   UNL     1      -8.832   9.178  64.298  1.00  0.00    -0.186 OA 
HETATM   40  O   UNL     1     -10.262   9.975  66.216  1.00  0.00    -0.241 OA 
ENDBRANCH  35  37
ENDBRANCH  24  35
ENDBRANCH  20  22
ENDBRANCH  17  20
ENDBRANCH  13  14
ENDBRANCH  12  13
ENDBRANCH  11  12
ENDBRANCH  10  11
ENDBRANCH   5  10
ENDBRANCH   4   5
ENDBRANCH   3   4
ENDBRANCH   2   3
TORSDOF 18
ENDMDL
MODEL       86
REMARK 921   NORMALIZED FREE ENERGY PREDICTED BY IDOCK:   -4.80 KCAL/MOL
REMARK 922        TOTAL FREE ENERGY PREDICTED BY IDOCK:  -12.57 KCAL/MOL
REMARK 923 INTER-LIGAND FREE ENERGY PREDICTED BY IDOCK:   -9.02 KCAL/MOL
REMARK 924 INTRA-LIGAND FREE ENERGY PREDICTED BY IDOCK:   -3.55 KCAL/MOL
REMARK 927      BINDING AFFINITY PREDICTED BY RF-SCORE:    0.00 PKD
ROOT
HETATM    1  C   UNL     1      -5.795  16.366  68.150  1.00  0.00    -0.117 C  
HETATM    2  C   UNL     1      -6.845  17.077  67.307  1.00  0.00    -0.195 C  
ENDROOT
BRANCH   2   3
HETATM    3  C   UNL     1      -7.731  16.056  66.593  1.00  0.00    -0.239 C  
BRANCH   3   4
HETATM    4  C   UNL     1      -9.149  15.927  67.170  1.00  0.00    -0.209 C  
BRANCH   4   5
HETATM    5  N   UNL     1      -9.520  16.777  68.330  1.00  0.00    -0.233 NA 
BRANCH   5   6
HETATM    6  C   UNL     1     -10.660  17.662  67.998  1.00  0.00    -0.376 C  
BRANCH   6   7
HETATM    7  C   UNL     1     -10.643  18.328  66.607  1.00  0.00    -0.324 C  
BRANCH   7   8
HETATM    8  C   UNL     1      -9.657  19.490  66.472  1.00  0.00    -0.462 C  
HETATM    9  C   UNL     1      -9.695  20.376  67.711  1.00  0.00    -0.487 C  
ENDBRANCH   7   8
ENDBRANCH   6   7
ENDBRANCH   5   6
BRANCH   5  10
HETATM   10  C   UNL     1      -9.851  15.908  69.488  1.00  0.00    -0.268 C  
BRANCH  10  11
HETATM   11  C   UNL     1     -11.248  16.122  70.089  1.00  0.00    -0.374 C  
BRANCH  11  12
HETATM   12  C   UNL     1     -12.096  14.861  69.974  1.00  0.00    -0.338 C  
BRANCH  12  13
HETATM   13  O   UNL     1     -12.043  14.372  68.631  1.00  0.00    -0.311 OA 
BRANCH  13  14
HETATM   14  C   UNL     1     -11.736  13.044  68.492  1.00  0.00    -0.342 A  
HETATM   15  C   UNL     1     -11.691  12.099  69.521  1.00  0.00    -0.402 A  
HETATM   16  C   UNL     1     -11.282  10.783  69.261  1.00  0.00    -0.333 A  
HETATM   17  C   UNL     1     -10.922  10.397  67.964  1.00  0.00    -0.347 A  
HETATM   18  C   UNL     1     -11.069  11.316  66.919  1.00  0.00    -0.339 A  
HETATM   19  C   UNL     1     -11.437  12.640  67.190  1.00  0.00    -0.406 A  
BRANCH  17  20
HETATM   20  C   UNL     1     -10.352   9.028  67.743  1.00  0.00    -0.246 C  
HETATM   21  O   UNL     1     -11.025   8.209  67.122  1.00  0.00    -0.165 OA 
BRANCH  20  22
HETATM   22  C   UNL     1      -9.043   8.700  68.311  1.00  0.00    -0.141 A  
HETATM   23  C   UNL     1      -7.813   8.906  67.688  1.00  0.00    -0.101 A  
HETATM   24  C   UNL     1      -8.770   6.889  71.693  1.00  0.00    -0.124 A  
HETATM   25  O   UNL     1      -6.799   8.503  68.508  1.00  0.00    -0.062 OA 
HETATM   26  C   UNL     1      -7.378   6.839  71.713  1.00  0.00    -0.085 A  
HETATM   27  C   UNL     1      -7.352   7.957  69.615  1.00  0.00    -0.090 A  
HETATM   28  C   UNL     1      -8.736   8.021  69.548  1.00  0.00    -0.136 A  
HETATM   29  C   UNL     1      -6.635   7.370  70.655  1.00  0.00    -0.043 A  
HETATM   30  C   UNL     1      -9.461   7.432  70.604  1.00  0.00    -0.164 A  
BRANCH  23  31
HETATM   31  C   UNL     1      -7.335   9.309  66.332  1.00  0.00    -0.092 C  
BRANCH  31  32
HETATM   32  C   UNL     1      -7.495  10.771  65.919  1.00  0.00    -0.099 C  
BRANCH  32  33
HETATM   33  C   UNL     1      -6.792  11.640  66.977  1.00  0.00    -0.144 C  
HETATM   34  C   UNL     1      -7.731  12.508  67.795  1.00  0.00    -0.142 C  
ENDBRANCH  32  33
ENDBRANCH  31  32
ENDBRANCH  23  31
BRANCH  24  35
HETATM   35  N   UNL     1      -9.530   6.373  72.783  1.00  0.00    -0.144 N  
HETATM   36  H   UNL     1      -9.352   6.682  73.739  1.00  0.00     0.000 HD 
BRANCH  35  37
HETATM   37  S   UNL     1     -10.733   5.238  72.446  1.00  0.00    -0.222 S  
HETATM   38  C   UNL     1     -10.780   4.318  73.969  1.00  0.00    -0.254 C  
HETATM   39  O   UNL     1     -12.001   5.903  72.247  1.00  0.00    -0.295 OA 
HETATM   40  O   UNL     1     -10.170   4.374  71.429  1.00  0.00    -0.168 OA 
ENDBRANCH  35  37
ENDBRANCH  24  35
ENDBRANCH  20  22
ENDBRANCH  17  20
ENDBRANCH  13  14
ENDBRANCH  12  13
ENDBRANCH  11  12
ENDBRANCH  10  11
ENDBRANCH   5  10
ENDBRANCH   4   5
ENDBRANCH   3   4
ENDBRANCH   2   3
TORSDOF 18
ENDMDL
MODEL       87
REMARK 921   NORMALIZED FREE ENERGY PREDICTED BY IDOCK:   -4.79 KCAL/MOL
REMARK 922        TOTAL FREE ENERGY PREDICTED BY IDOCK:  -12.55 KCAL/MOL
REMARK 923 INTER-LIGAND FREE ENERGY PREDICTED BY IDOCK:   -9.99 KCAL/MOL
REMARK 924 INTRA-LIGAND FREE ENERGY PREDICTED BY IDOCK:   -2.56 KCAL/MOL
REMARK 927      BINDING AFFINITY PREDICTED BY RF-SCORE:    0.00 PKD
ROOT
HETATM    1  C   UNL     1     -10.612  17.449  65.801  1.00  0.00    -0.185 C  
HETATM    2  C   UNL     1      -9.999  16.059  65.911  1.00  0.00    -0.380 C  
ENDROOT
BRANCH   2   3
HETATM    3  C   UNL     1     -10.454  15.186  64.742  1.00  0.00    -0.242 C  
BRANCH   3   4
HETATM    4  C   UNL     1     -11.976  15.014  64.627  1.00  0.00    -0.358 C  
BRANCH   4   5
HETATM    5  N   UNL     1     -12.526  13.639  64.516  1.00  0.00    -0.618 NA 
BRANCH   5   6
HETATM    6  C   UNL     1     -11.969  12.938  63.336  1.00  0.00    -0.537 C  
BRANCH   6   7
HETATM    7  C   UNL     1     -11.338  11.554  63.582  1.00  0.00    -0.412 C  
BRANCH   7   8
HETATM    8  C   UNL     1      -9.809  11.554  63.634  1.00  0.00    -0.379 C  
HETATM    9  C   UNL     1      -9.287  10.228  64.176  1.00  0.00    -0.336 C  
ENDBRANCH   7   8
ENDBRANCH   6   7
ENDBRANCH   5   6
BRANCH   5  10
HETATM   10  C   UNL     1     -12.225  12.889  65.762  1.00  0.00    -0.439 C  
BRANCH  10  11
HETATM   11  C   UNL     1     -12.526  13.639  67.067  1.00  0.00    -0.131 C  
BRANCH  11  12
HETATM   12  C   UNL     1     -11.593  13.192  68.187  1.00  0.00    -0.339 C  
BRANCH  12  13
HETATM   13  O   UNL     1     -12.364  12.653  69.264  1.00  0.00    -0.102 OA 
BRANCH  13  14
HETATM   14  C   UNL     1     -11.840  11.546  69.878  1.00  0.00    -0.355 A  
HETATM   15  C   UNL     1     -12.378  10.892  70.990  1.00  0.00    -0.498 A  
HETATM   16  C   UNL     1     -11.701   9.814  71.578  1.00  0.00    -0.450 A  
HETATM   17  C   UNL     1     -10.481   9.372  71.050  1.00  0.00    -0.392 A  
HETATM   18  C   UNL     1      -9.999   9.961  69.875  1.00  0.00    -0.292 A  
HETATM   19  C   UNL     1     -10.657  11.064  69.317  1.00  0.00    -0.236 A  
BRANCH  17  20
HETATM   20  C   UNL     1      -9.711   8.315  71.782  1.00  0.00    -0.212 C  
HETATM   21  O   UNL     1      -8.994   8.658  72.718  1.00  0.00    -0.356 OA 
BRANCH  20  22
HETATM   22  C   UNL     1      -9.801   6.925  71.328  1.00  0.00    -0.182 A  
HETATM   23  C   UNL     1     -10.471   5.897  71.991  1.00  0.00    -0.214 A  
HETATM   24  C   UNL     1      -7.892   5.754  68.201  1.00  0.00    -0.104 A  
HETATM   25  O   UNL     1     -10.366   4.736  71.280  1.00  0.00    -0.187 OA 
HETATM   26  C   UNL     1      -8.320   4.430  68.264  1.00  0.00    -0.097 A  
HETATM   27  C   UNL     1      -9.565   4.971  70.216  1.00  0.00    -0.187 A  
HETATM   28  C   UNL     1      -9.158   6.297  70.198  1.00  0.00    -0.155 A  
HETATM   29  C   UNL     1      -9.167   4.007  69.293  1.00  0.00    -0.219 A  
HETATM   30  C   UNL     1      -8.263   6.683  69.180  1.00  0.00    -0.120 A  
BRANCH  23  31
HETATM   31  C   UNL     1     -11.134   5.707  73.315  1.00  0.00    -0.288 C  
BRANCH  31  32
HETATM   32  C   UNL     1     -10.504   4.722  74.299  1.00  0.00    -0.337 C  
BRANCH  32  33
HETATM   33  C   UNL     1      -9.055   5.172  74.554  1.00  0.00    -0.114 C  
HETATM   34  C   UNL     1      -8.017   4.086  74.337  1.00  0.00    -0.090 C  
ENDBRANCH  32  33
ENDBRANCH  31  32
ENDBRANCH  23  31
BRANCH  24  35
HETATM   35  N   UNL     1      -7.051   6.195  67.138  1.00  0.00    -0.069 N  
HETATM   36  H   UNL     1      -6.052   6.341  67.285  1.00  0.00     0.000 HD 
BRANCH  35  37
HETATM   37  S   UNL     1      -7.757   6.468  65.629  1.00  0.00    -0.100 S  
HETATM   38  C   UNL     1      -6.576   7.576  64.889  1.00  0.00    -0.047 C  
HETATM   39  O   UNL     1      -7.802   5.238  64.872  1.00  0.00    -0.086 OA 
HETATM   40  O   UNL     1      -8.959   7.228  65.900  1.00  0.00    -0.147 OA 
ENDBRANCH  35  37
ENDBRANCH  24  35
ENDBRANCH  20  22
ENDBRANCH  17  20
ENDBRANCH  13  14
ENDBRANCH  12  13
ENDBRANCH  11  12
ENDBRANCH  10  11
ENDBRANCH   5  10
ENDBRANCH   4   5
ENDBRANCH   3   4
ENDBRANCH   2   3
TORSDOF 18
ENDMDL
MODEL       88
REMARK 921   NORMALIZED FREE ENERGY PREDICTED BY IDOCK:   -4.78 KCAL/MOL
REMARK 922        TOTAL FREE ENERGY PREDICTED BY IDOCK:  -12.54 KCAL/MOL
REMARK 923 INTER-LIGAND FREE ENERGY PREDICTED BY IDOCK:   -9.08 KCAL/MOL
REMARK 924 INTRA-LIGAND FREE ENERGY PREDICTED BY IDOCK:   -3.46 KCAL/MOL
REMARK 927      BINDING AFFINITY PREDICTED BY RF-SCORE:    0.00 PKD
ROOT
HETATM    1  C   UNL     1      -7.559  10.107  69.426  1.00  0.00    -0.133 C  
HETATM    2  C   UNL     1      -8.725   9.638  70.287  1.00  0.00    -0.248 C  
ENDROOT
BRANCH   2   3
HETATM    3  C   UNL     1      -9.411   8.436  69.639  1.00  0.00    -0.166 C  
BRANCH   3   4
HETATM    4  C   UNL     1      -8.762   7.081  69.960  1.00  0.00    -0.142 C  
BRANCH   4   5
HETATM    5  N   UNL     1      -9.202   5.888  69.192  1.00  0.00    -0.121 NA 
BRANCH   5   6
HETATM    6  C   UNL     1     -10.318   5.196  69.879  1.00  0.00    -0.277 C  
BRANCH   6   7
HETATM    7  C   UNL     1     -10.430   5.398  71.403  1.00  0.00    -0.294 C  
BRANCH   7   8
HETATM    8  C   UNL     1     -11.673   6.171  71.850  1.00  0.00    -0.337 C  
HETATM    9  C   UNL     1     -11.283   7.369  72.707  1.00  0.00    -0.380 C  
ENDBRANCH   7   8
ENDBRANCH   6   7
ENDBRANCH   5   6
BRANCH   5  10
HETATM   10  C   UNL     1      -9.606   6.306  67.826  1.00  0.00    -0.117 C  
BRANCH  10  11
HETATM   11  C   UNL     1      -8.488   6.273  66.773  1.00  0.00    -0.111 C  
BRANCH  11  12
HETATM   12  C   UNL     1      -7.760   7.612  66.702  1.00  0.00    -0.098 C  
BRANCH  12  13
HETATM   13  O   UNL     1      -8.252   8.364  65.590  1.00  0.00    -0.116 OA 
BRANCH  13  14
HETATM   14  C   UNL     1      -8.862   9.552  65.896  1.00  0.00    -0.164 A  
HETATM   15  C   UNL     1     -10.175   9.708  66.349  1.00  0.00    -0.288 A  
HETATM   16  C   UNL     1     -10.711  10.988  66.550  1.00  0.00    -0.298 A  
HETATM   17  C   UNL     1      -9.933  12.127  66.309  1.00  0.00    -0.249 A  
HETATM   18  C   UNL     1      -8.587  11.965  65.958  1.00  0.00     0.129 A  
HETATM   19  C   UNL     1      -8.069  10.686  65.717  1.00  0.00    -0.158 A  
BRANCH  17  20
HETATM   20  C   UNL     1     -10.574  13.479  66.393  1.00  0.00    -0.283 C  
HETATM   21  O   UNL     1     -11.374  13.800  65.519  1.00  0.00    -0.303 OA 
BRANCH  20  22
HETATM   22  C   UNL     1     -10.191  14.383  67.480  1.00  0.00    -0.240 A  
HETATM   23  C   UNL     1     -10.844  14.499  68.707  1.00  0.00    -0.248 A  
HETATM   24  C   UNL     1      -7.323  16.903  67.018  1.00  0.00    -0.193 A  
HETATM   25  O   UNL     1     -10.211  15.423  69.488  1.00  0.00    -0.238 OA 
HETATM   26  C   UNL     1      -7.418  17.459  68.292  1.00  0.00    -0.227 A  
HETATM   27  C   UNL     1      -9.214  15.972  68.758  1.00  0.00    -0.224 A  
HETATM   28  C   UNL     1      -9.161  15.395  67.497  1.00  0.00    -0.201 A  
HETATM   29  C   UNL     1      -8.386  17.004  69.192  1.00  0.00    -0.026 A  
HETATM   30  C   UNL     1      -8.210  15.908  66.592  1.00  0.00    -0.317 A  
BRANCH  23  31
HETATM   31  C   UNL     1     -12.110  13.995  69.317  1.00  0.00    -0.380 C  
BRANCH  31  32
HETATM   32  C   UNL     1     -12.004  13.087  70.541  1.00  0.00    -0.294 C  
BRANCH  32  33
HETATM   33  C   UNL     1     -11.835  11.640  70.043  1.00  0.00    -0.435 C  
HETATM   34  C   UNL     1     -12.295  10.582  71.028  1.00  0.00    -0.503 C  
ENDBRANCH  32  33
ENDBRANCH  31  32
ENDBRANCH  23  31
BRANCH  24  35
HETATM   35  N   UNL     1      -6.319  17.345  66.107  1.00  0.00    -0.212 N  
HETATM   36  H   UNL     1      -5.505  16.766  65.901  1.00  0.00     0.000 HD 
BRANCH  35  37
HETATM   37  S   UNL     1      -6.518  18.855  65.379  1.00  0.00    -0.252 S  
HETATM   38  C   UNL     1      -5.401  19.854  66.341  1.00  0.00    -0.164 C  
HETATM   39  O   UNL     1      -6.062  18.809  64.009  1.00  0.00    -0.331 OA 
HETATM   40  O   UNL     1      -7.867  19.265  65.709  1.00  0.00    -0.444 OA 
ENDBRANCH  35  37
ENDBRANCH  24  35
ENDBRANCH  20  22
ENDBRANCH  17  20
ENDBRANCH  13  14
ENDBRANCH  12  13
ENDBRANCH  11  12
ENDBRANCH  10  11
ENDBRANCH   5  10
ENDBRANCH   4   5
ENDBRANCH   3   4
ENDBRANCH   2   3
TORSDOF 18
ENDMDL
MODEL       89
REMARK 921   NORMALIZED FREE ENERGY PREDICTED BY IDOCK:   -4.78 KCAL/MOL
REMARK 922        TOTAL FREE ENERGY PREDICTED BY IDOCK:  -12.53 KCAL/MOL
REMARK 923 INTER-LIGAND FREE ENERGY PREDICTED BY IDOCK:   -9.84 KCAL/MOL
REMARK 924 INTRA-LIGAND FREE ENERGY PREDICTED BY IDOCK:   -2.69 KCAL/MOL
REMARK 927      BINDING AFFINITY PREDICTED BY RF-SCORE:    0.00 PKD
ROOT
HETATM    1  C   UNL     1     -13.036  15.127  71.667  1.00  0.00    -0.471 C  
HETATM    2  C   UNL     1     -12.496  15.069  70.244  1.00  0.00    -0.385 C  
ENDROOT
BRANCH   2   3
HETATM    3  C   UNL     1     -11.367  16.084  70.065  1.00  0.00    -0.353 C  
BRANCH   3   4
HETATM    4  C   UNL     1     -11.139  16.537  68.615  1.00  0.00    -0.329 C  
BRANCH   4   5
HETATM    5  N   UNL     1      -9.937  17.354  68.310  1.00  0.00    -0.301 NA 
BRANCH   5   6
HETATM    6  C   UNL     1     -10.203  18.794  68.529  1.00  0.00    -0.344 C  
BRANCH   6   7
HETATM    7  C   UNL     1      -9.108  19.782  68.080  1.00  0.00    -0.393 C  
BRANCH   7   8
HETATM    8  C   UNL     1      -8.971  19.929  66.563  1.00  0.00    -0.442 C  
HETATM    9  C   UNL     1     -10.331  20.165  65.919  1.00  0.00    -0.448 C  
ENDBRANCH   7   8
ENDBRANCH   6   7
ENDBRANCH   5   6
BRANCH   5  10
HETATM   10  C   UNL     1      -8.806  16.895  69.157  1.00  0.00    -0.080 C  
BRANCH  10  11
HETATM   11  C   UNL     1      -7.475  16.691  68.417  1.00  0.00    -0.194 C  
BRANCH  11  12
HETATM   12  C   UNL     1      -7.709  16.307  66.960  1.00  0.00    -0.214 C  
BRANCH  12  13
HETATM   13  O   UNL     1      -7.298  14.953  66.752  1.00  0.00     0.035 OA 
BRANCH  13  14
HETATM   14  C   UNL     1      -8.162  13.991  67.205  1.00  0.00    -0.171 A  
HETATM   15  C   UNL     1      -7.842  12.944  68.074  1.00  0.00    -0.149 A  
HETATM   16  C   UNL     1      -8.799  11.972  68.401  1.00  0.00    -0.149 A  
HETATM   17  C   UNL     1     -10.091  12.045  67.867  1.00  0.00    -0.199 A  
HETATM   18  C   UNL     1     -10.438  13.152  67.082  1.00  0.00    -0.247 A  
HETATM   19  C   UNL     1      -9.468  14.096  66.725  1.00  0.00    -0.290 A  
BRANCH  17  20
HETATM   20  C   UNL     1     -11.048  10.918  68.117  1.00  0.00    -0.280 C  
HETATM   21  O   UNL     1     -12.252  11.159  68.093  1.00  0.00    -0.612 OA 
BRANCH  20  22
HETATM   22  C   UNL     1     -10.517   9.588  68.426  1.00  0.00    -0.261 A  
HETATM   23  C   UNL     1     -10.508   8.991  69.686  1.00  0.00    -0.222 A  
HETATM   24  C   UNL     1      -8.740   7.508  65.723  1.00  0.00    -0.118 A  
HETATM   25  O   UNL     1      -9.956   7.745  69.609  1.00  0.00    -0.184 OA 
HETATM   26  C   UNL     1      -8.461   6.419  66.545  1.00  0.00    -0.118 A  
HETATM   27  C   UNL     1      -9.526   7.558  68.340  1.00  0.00    -0.148 A  
HETATM   28  C   UNL     1      -9.817   8.669  67.561  1.00  0.00    -0.234 A  
HETATM   29  C   UNL     1      -8.846   6.430  67.889  1.00  0.00    -0.113 A  
HETATM   30  C   UNL     1      -9.372   8.652  66.223  1.00  0.00    -0.282 A  
BRANCH  23  31
HETATM   31  C   UNL     1     -10.804   9.407  71.089  1.00  0.00    -0.427 C  
BRANCH  31  32
HETATM   32  C   UNL     1     -10.548   8.398  72.206  1.00  0.00    -0.412 C  
BRANCH  32  33
HETATM   33  C   UNL     1     -11.874   7.676  72.504  1.00  0.00    -0.312 C  
HETATM   34  C   UNL     1     -11.911   6.226  72.057  1.00  0.00    -0.370 C  
ENDBRANCH  32  33
ENDBRANCH  31  32
ENDBRANCH  23  31
BRANCH  24  35
HETATM   35  N   UNL     1      -8.375   7.489  64.345  1.00  0.00    -0.364 N  
HETATM   36  H   UNL     1      -9.002   7.099  63.641  1.00  0.00     0.000 HD 
BRANCH  35  37
HETATM   37  S   UNL     1      -6.874   8.132  63.912  1.00  0.00    -0.076 S  
HETATM   38  C   UNL     1      -6.105   6.725  63.138  1.00  0.00    -0.039 C  
HETATM   39  O   UNL     1      -7.048   9.182  62.936  1.00  0.00    -0.093 OA 
HETATM   40  O   UNL     1      -6.186   8.374  65.163  1.00  0.00    -0.051 OA 
ENDBRANCH  35  37
ENDBRANCH  24  35
ENDBRANCH  20  22
ENDBRANCH  17  20
ENDBRANCH  13  14
ENDBRANCH  12  13
ENDBRANCH  11  12
ENDBRANCH  10  11
ENDBRANCH   5  10
ENDBRANCH   4   5
ENDBRANCH   3   4
ENDBRANCH   2   3
TORSDOF 18
ENDMDL
MODEL       90
REMARK 921   NORMALIZED FREE ENERGY PREDICTED BY IDOCK:   -4.78 KCAL/MOL
REMARK 922        TOTAL FREE ENERGY PREDICTED BY IDOCK:  -12.52 KCAL/MOL
REMARK 923 INTER-LIGAND FREE ENERGY PREDICTED BY IDOCK:   -8.73 KCAL/MOL
REMARK 924 INTRA-LIGAND FREE ENERGY PREDICTED BY IDOCK:   -3.80 KCAL/MOL
REMARK 927      BINDING AFFINITY PREDICTED BY RF-SCORE:    0.00 PKD
ROOT
HETATM    1  C   UNL     1      -9.085   4.199  68.510  1.00  0.00    -0.182 C  
HETATM    2  C   UNL     1      -9.348   3.428  67.222  1.00  0.00    -0.237 C  
ENDROOT
BRANCH   2   3
HETATM    3  C   UNL     1      -9.756   4.387  66.105  1.00  0.00    -0.220 C  
BRANCH   3   4
HETATM    4  C   UNL     1      -8.598   4.861  65.214  1.00  0.00    -0.142 C  
BRANCH   4   5
HETATM    5  N   UNL     1      -8.425   6.320  64.997  1.00  0.00    -0.095 NA 
BRANCH   5   6
HETATM    6  C   UNL     1      -8.470   7.057  66.281  1.00  0.00    -0.134 C  
BRANCH   6   7
HETATM    7  C   UNL     1      -9.765   7.832  66.594  1.00  0.00    -0.292 C  
BRANCH   7   8
HETATM    8  C   UNL     1      -9.973   8.144  68.077  1.00  0.00    -0.222 C  
HETATM    9  C   UNL     1      -8.711   7.843  68.875  1.00  0.00    -0.135 C  
ENDBRANCH   7   8
ENDBRANCH   6   7
ENDBRANCH   5   6
BRANCH   5  10
HETATM   10  C   UNL     1      -7.138   6.562  64.297  1.00  0.00    -0.060 C  
BRANCH  10  11
HETATM   11  C   UNL     1      -7.259   7.197  62.904  1.00  0.00    -0.073 C  
BRANCH  11  12
HETATM   12  C   UNL     1      -8.485   8.098  62.815  1.00  0.00    -0.007 C  
BRANCH  12  13
HETATM   13  O   UNL     1      -8.074   9.468  62.833  1.00  0.00    -0.129 OA 
BRANCH  13  14
HETATM   14  C   UNL     1      -8.121  10.089  64.053  1.00  0.00    -0.153 A  
HETATM   15  C   UNL     1      -7.073  10.170  64.974  1.00  0.00    -0.135 A  
HETATM   16  C   UNL     1      -7.272  10.765  66.228  1.00  0.00    -0.137 A  
HETATM   17  C   UNL     1      -8.522  11.296  66.568  1.00  0.00    -0.171 A  
HETATM   18  C   UNL     1      -9.538  11.308  65.605  1.00  0.00    -0.260 A  
HETATM   19  C   UNL     1      -9.347  10.675  64.371  1.00  0.00    -0.291 A  
BRANCH  17  20
HETATM   20  C   UNL     1      -8.747  11.795  67.964  1.00  0.00    -0.167 C  
HETATM   21  O   UNL     1      -8.044  11.345  68.865  1.00  0.00    -0.137 OA 
BRANCH  20  22
HETATM   22  C   UNL     1      -9.820  12.760  68.212  1.00  0.00    -0.224 A  
HETATM   23  C   UNL     1     -11.041  12.476  68.825  1.00  0.00    -0.270 A  
HETATM   24  C   UNL     1      -9.547  16.374  66.925  1.00  0.00    -0.244 A  
HETATM   25  O   UNL     1     -11.796  13.611  68.910  1.00  0.00    -0.324 OA 
HETATM   26  C   UNL     1     -10.782  16.791  67.416  1.00  0.00    -0.244 A  
HETATM   27  C   UNL     1     -11.126  14.604  68.284  1.00  0.00    -0.271 A  
HETATM   28  C   UNL     1      -9.908  14.142  67.806  1.00  0.00    -0.231 A  
HETATM   29  C   UNL     1     -11.608  15.898  68.104  1.00  0.00    -0.224 A  
HETATM   30  C   UNL     1      -9.118  15.050  67.071  1.00  0.00    -0.249 A  
BRANCH  23  31
HETATM   31  C   UNL     1     -11.777  11.256  69.269  1.00  0.00    -0.403 C  
BRANCH  31  32
HETATM   32  C   UNL     1     -12.435  11.276  70.647  1.00  0.00    -0.439 C  
BRANCH  32  33
HETATM   33  C   UNL     1     -12.453   9.834  71.183  1.00  0.00    -0.443 C  
HETATM   34  C   UNL     1     -11.085   9.286  71.547  1.00  0.00    -0.443 C  
ENDBRANCH  32  33
ENDBRANCH  31  32
ENDBRANCH  23  31
BRANCH  24  35
HETATM   35  N   UNL     1      -8.689  17.288  66.247  1.00  0.00    -0.248 N  
HETATM   36  H   UNL     1      -8.531  17.213  65.242  1.00  0.00     0.000 HD 
BRANCH  35  37
HETATM   37  S   UNL     1      -7.943  18.500  67.156  1.00  0.00    -0.246 S  
HETATM   38  C   UNL     1      -8.923  19.919  66.714  1.00  0.00    -0.360 C  
HETATM   39  O   UNL     1      -8.098  18.228  68.566  1.00  0.00    -0.304 OA 
HETATM   40  O   UNL     1      -6.633  18.671  66.562  1.00  0.00    -0.183 OA 
ENDBRANCH  35  37
ENDBRANCH  24  35
ENDBRANCH  20  22
ENDBRANCH  17  20
ENDBRANCH  13  14
ENDBRANCH  12  13
ENDBRANCH  11  12
ENDBRANCH  10  11
ENDBRANCH   5  10
ENDBRANCH   4   5
ENDBRANCH   3   4
ENDBRANCH   2   3
TORSDOF 18
ENDMDL
MODEL       91
REMARK 921   NORMALIZED FREE ENERGY PREDICTED BY IDOCK:   -4.74 KCAL/MOL
REMARK 922        TOTAL FREE ENERGY PREDICTED BY IDOCK:  -12.44 KCAL/MOL
REMARK 923 INTER-LIGAND FREE ENERGY PREDICTED BY IDOCK:   -9.15 KCAL/MOL
REMARK 924 INTRA-LIGAND FREE ENERGY PREDICTED BY IDOCK:   -3.29 KCAL/MOL
REMARK 927      BINDING AFFINITY PREDICTED BY RF-SCORE:    0.00 PKD
ROOT
HETATM    1  C   UNL     1     -13.432  14.821  72.305  1.00  0.00    -0.510 C  
HETATM    2  C   UNL     1     -12.666  15.703  71.329  1.00  0.00    -0.537 C  
ENDROOT
BRANCH   2   3
HETATM    3  C   UNL     1     -11.885  14.841  70.336  1.00  0.00    -0.352 C  
BRANCH   3   4
HETATM    4  C   UNL     1     -11.524  15.549  69.021  1.00  0.00    -0.352 C  
BRANCH   4   5
HETATM    5  N   UNL     1     -10.967  14.735  67.912  1.00  0.00    -0.269 NA 
BRANCH   5   6
HETATM    6  C   UNL     1     -12.039  14.278  66.997  1.00  0.00    -0.390 C  
BRANCH   6   7
HETATM    7  C   UNL     1     -11.907  12.852  66.426  1.00  0.00    -0.478 C  
BRANCH   7   8
HETATM    8  C   UNL     1     -11.550  11.785  67.463  1.00  0.00    -0.361 C  
HETATM    9  C   UNL     1     -10.550  10.789  66.889  1.00  0.00    -0.312 C  
ENDBRANCH   7   8
ENDBRANCH   6   7
ENDBRANCH   5   6
BRANCH   5  10
HETATM   10  C   UNL     1      -9.956  15.537  67.176  1.00  0.00    -0.242 C  
BRANCH  10  11
HETATM   11  C   UNL     1      -8.718  14.758  66.706  1.00  0.00    -0.255 C  
BRANCH  11  12
HETATM   12  C   UNL     1      -7.542  14.971  67.653  1.00  0.00    -0.178 C  
BRANCH  12  13
HETATM   13  O   UNL     1      -6.459  14.122  67.265  1.00  0.00    -0.288 OA 
BRANCH  13  14
HETATM   14  C   UNL     1      -6.561  12.811  67.650  1.00  0.00    -0.150 A  
HETATM   15  C   UNL     1      -6.602  11.706  66.796  1.00  0.00    -0.094 A  
HETATM   16  C   UNL     1      -6.791  10.415  67.311  1.00  0.00    -0.081 A  
HETATM   17  C   UNL     1      -6.932  10.218  68.690  1.00  0.00    -0.066 A  
HETATM   18  C   UNL     1      -6.785  11.313  69.550  1.00  0.00    -0.128 A  
HETATM   19  C   UNL     1      -6.638  12.604  69.028  1.00  0.00    -0.100 A  
BRANCH  17  20
HETATM   20  C   UNL     1      -7.276   8.851  69.199  1.00  0.00    -0.067 C  
HETATM   21  O   UNL     1      -6.417   8.223  69.812  1.00  0.00    -0.035 OA 
BRANCH  20  22
HETATM   22  C   UNL     1      -8.600   8.294  68.908  1.00  0.00    -0.132 A  
HETATM   23  C   UNL     1      -9.770   8.574  69.614  1.00  0.00    -0.179 A  
HETATM   24  C   UNL     1      -9.051   5.634  66.168  1.00  0.00    -0.152 A  
HETATM   25  O   UNL     1     -10.821   7.898  69.062  1.00  0.00    -0.143 OA 
HETATM   26  C   UNL     1     -10.425   5.485  66.342  1.00  0.00    -0.294 A  
HETATM   27  C   UNL     1     -10.338   7.116  68.070  1.00  0.00    -0.194 A  
HETATM   28  C   UNL     1      -8.967   7.291  67.937  1.00  0.00    -0.130 A  
HETATM   29  C   UNL     1     -11.099   6.226  67.317  1.00  0.00    -0.387 A  
HETATM   30  C   UNL     1      -8.305   6.494  66.982  1.00  0.00    -0.113 A  
BRANCH  23  31
HETATM   31  C   UNL     1     -10.137   9.288  70.872  1.00  0.00    -0.373 C  
BRANCH  31  32
HETATM   32  C   UNL     1     -11.620   9.504  71.168  1.00  0.00    -0.439 C  
BRANCH  32  33
HETATM   33  C   UNL     1     -12.051   8.457  72.210  1.00  0.00    -0.456 C  
HETATM   34  C   UNL     1     -10.899   7.718  72.866  1.00  0.00    -0.453 C  
ENDBRANCH  32  33
ENDBRANCH  31  32
ENDBRANCH  23  31
BRANCH  24  35
HETATM   35  N   UNL     1      -8.365   4.901  65.156  1.00  0.00    -0.127 N  
HETATM   36  H   UNL     1      -7.975   5.372  64.339  1.00  0.00     0.000 HD 
BRANCH  35  37
HETATM   37  S   UNL     1      -8.216   3.230  65.349  1.00  0.00    -0.095 S  
HETATM   38  C   UNL     1      -6.531   2.970  64.837  1.00  0.00    -0.034 C  
HETATM   39  O   UNL     1      -8.355   2.878  66.743  1.00  0.00    -0.088 OA 
HETATM   40  O   UNL     1      -9.075   2.650  64.338  1.00  0.00    -0.113 OA 
ENDBRANCH  35  37
ENDBRANCH  24  35
ENDBRANCH  20  22
ENDBRANCH  17  20
ENDBRANCH  13  14
ENDBRANCH  12  13
ENDBRANCH  11  12
ENDBRANCH  10  11
ENDBRANCH   5  10
ENDBRANCH   4   5
ENDBRANCH   3   4
ENDBRANCH   2   3
TORSDOF 18
ENDMDL
MODEL       92
REMARK 921   NORMALIZED FREE ENERGY PREDICTED BY IDOCK:   -4.72 KCAL/MOL
REMARK 922        TOTAL FREE ENERGY PREDICTED BY IDOCK:  -12.40 KCAL/MOL
REMARK 923 INTER-LIGAND FREE ENERGY PREDICTED BY IDOCK:  -10.37 KCAL/MOL
REMARK 924 INTRA-LIGAND FREE ENERGY PREDICTED BY IDOCK:   -2.03 KCAL/MOL
REMARK 927      BINDING AFFINITY PREDICTED BY RF-SCORE:    0.00 PKD
ROOT
HETATM    1  C   UNL     1     -13.572  15.344  72.691  1.00  0.00    -0.641 C  
HETATM    2  C   UNL     1     -13.211  15.171  71.221  1.00  0.00    -0.536 C  
ENDROOT
BRANCH   2   3
HETATM    3  C   UNL     1     -11.748  15.548  70.987  1.00  0.00    -0.423 C  
BRANCH   3   4
HETATM    4  C   UNL     1     -11.199  15.149  69.609  1.00  0.00    -0.272 C  
BRANCH   4   5
HETATM    5  N   UNL     1     -11.348  16.108  68.485  1.00  0.00    -0.373 NA 
BRANCH   5   6
HETATM    6  C   UNL     1     -10.446  17.271  68.655  1.00  0.00    -0.356 C  
BRANCH   6   7
HETATM    7  C   UNL     1     -10.655  18.460  67.696  1.00  0.00    -0.437 C  
BRANCH   7   8
HETATM    8  C   UNL     1     -10.264  19.820  68.279  1.00  0.00    -0.569 C  
HETATM    9  C   UNL     1      -9.339  20.568  67.327  1.00  0.00    -0.526 C  
ENDBRANCH   7   8
ENDBRANCH   6   7
ENDBRANCH   5   6
BRANCH   5  10
HETATM   10  C   UNL     1     -11.068  15.410  67.204  1.00  0.00    -0.291 C  
BRANCH  10  11
HETATM   11  C   UNL     1     -11.127  13.876  67.268  1.00  0.00    -0.312 C  
BRANCH  11  12
HETATM   12  C   UNL     1     -10.110  13.246  66.323  1.00  0.00    -0.294 C  
BRANCH  12  13
HETATM   13  O   UNL     1      -9.146  12.511  67.082  1.00  0.00    -0.190 OA 
BRANCH  13  14
HETATM   14  C   UNL     1      -9.045  11.177  66.785  1.00  0.00    -0.166 A  
HETATM   15  C   UNL     1     -10.041  10.388  66.202  1.00  0.00    -0.299 A  
HETATM   16  C   UNL     1      -9.844   9.011  66.023  1.00  0.00    -0.312 A  
HETATM   17  C   UNL     1      -8.641   8.411  66.418  1.00  0.00    -0.139 A  
HETATM   18  C   UNL     1      -7.608   9.222  66.904  1.00  0.00    -0.091 A  
HETATM   19  C   UNL     1      -7.825  10.588  67.120  1.00  0.00    -0.112 A  
BRANCH  17  20
HETATM   20  C   UNL     1      -8.514   6.920  66.348  1.00  0.00    -0.130 C  
HETATM   21  O   UNL     1      -8.568   6.380  65.246  1.00  0.00    -0.131 OA 
BRANCH  20  22
HETATM   22  C   UNL     1      -8.378   6.156  67.591  1.00  0.00    -0.112 A  
HETATM   23  C   UNL     1      -7.347   5.266  67.887  1.00  0.00    -0.076 A  
HETATM   24  C   UNL     1     -11.118   6.294  70.286  1.00  0.00    -0.364 A  
HETATM   25  O   UNL     1      -7.524   4.745  69.137  1.00  0.00    -0.056 OA 
HETATM   26  C   UNL     1     -10.489   5.421  71.170  1.00  0.00    -0.295 A  
HETATM   27  C   UNL     1      -8.698   5.212  69.620  1.00  0.00    -0.092 A  
HETATM   28  C   UNL     1      -9.292   6.070  68.705  1.00  0.00    -0.121 A  
HETATM   29  C   UNL     1      -9.256   4.849  70.843  1.00  0.00    -0.196 A  
HETATM   30  C   UNL     1     -10.559   6.591  69.038  1.00  0.00    -0.286 A  
BRANCH  23  31
HETATM   31  C   UNL     1      -6.207   4.639  67.156  1.00  0.00    -0.036 C  
BRANCH  31  32
HETATM   32  C   UNL     1      -6.502   3.438  66.259  1.00  0.00    -0.036 C  
BRANCH  32  33
HETATM   33  C   UNL     1      -7.539   2.556  66.977  1.00  0.00    -0.069 C  
HETATM   34  C   UNL     1      -6.940   1.538  67.930  1.00  0.00    -0.035 C  
ENDBRANCH  32  33
ENDBRANCH  31  32
ENDBRANCH  23  31
BRANCH  24  35
HETATM   35  N   UNL     1     -12.362   6.901  70.628  1.00  0.00    -0.575 N  
HETATM   36  H   UNL     1     -13.246   6.492  70.325  1.00  0.00     0.000 HD 
BRANCH  35  37
HETATM   37  S   UNL     1     -12.328   8.316  71.549  1.00  0.00    -0.307 S  
HETATM   38  C   UNL     1     -14.051   8.506  71.956  1.00  0.00    -0.444 C  
HETATM   39  O   UNL     1     -11.568   8.102  72.759  1.00  0.00    -0.411 OA 
HETATM   40  O   UNL     1     -11.980   9.370  70.619  1.00  0.00    -0.256 OA 
ENDBRANCH  35  37
ENDBRANCH  24  35
ENDBRANCH  20  22
ENDBRANCH  17  20
ENDBRANCH  13  14
ENDBRANCH  12  13
ENDBRANCH  11  12
ENDBRANCH  10  11
ENDBRANCH   5  10
ENDBRANCH   4   5
ENDBRANCH   3   4
ENDBRANCH   2   3
TORSDOF 18
ENDMDL
MODEL       93
REMARK 921   NORMALIZED FREE ENERGY PREDICTED BY IDOCK:   -4.66 KCAL/MOL
REMARK 922        TOTAL FREE ENERGY PREDICTED BY IDOCK:  -12.29 KCAL/MOL
REMARK 923 INTER-LIGAND FREE ENERGY PREDICTED BY IDOCK:   -9.42 KCAL/MOL
REMARK 924 INTRA-LIGAND FREE ENERGY PREDICTED BY IDOCK:   -2.87 KCAL/MOL
REMARK 927      BINDING AFFINITY PREDICTED BY RF-SCORE:    0.00 PKD
ROOT
HETATM    1  C   UNL     1     -10.872   2.984  73.847  1.00  0.00    -0.293 C  
HETATM    2  C   UNL     1      -9.496   3.010  73.194  1.00  0.00    -0.124 C  
ENDROOT
BRANCH   2   3
HETATM    3  C   UNL     1      -9.623   2.827  71.682  1.00  0.00    -0.222 C  
BRANCH   3   4
HETATM    4  C   UNL     1      -9.501   4.125  70.869  1.00  0.00    -0.162 C  
BRANCH   4   5
HETATM    5  N   UNL     1      -9.780   5.415  71.551  1.00  0.00    -0.155 NA 
BRANCH   5   6
HETATM    6  C   UNL     1      -8.628   6.338  71.434  1.00  0.00    -0.131 C  
BRANCH   6   7
HETATM    7  C   UNL     1      -7.880   6.687  72.736  1.00  0.00    -0.100 C  
BRANCH   7   8
HETATM    8  C   UNL     1      -8.468   7.870  73.508  1.00  0.00    -0.284 C  
HETATM    9  C   UNL     1      -7.475   8.386  74.543  1.00  0.00    -0.266 C  
ENDBRANCH   7   8
ENDBRANCH   6   7
ENDBRANCH   5   6
BRANCH   5  10
HETATM   10  C   UNL     1     -11.002   6.024  70.966  1.00  0.00    -0.286 C  
BRANCH  10  11
HETATM   11  C   UNL     1     -12.091   6.410  71.979  1.00  0.00    -0.353 C  
BRANCH  11  12
HETATM   12  C   UNL     1     -12.882   7.622  71.501  1.00  0.00    -0.344 C  
BRANCH  12  13
HETATM   13  O   UNL     1     -12.357   8.805  72.111  1.00  0.00    -0.352 OA 
BRANCH  13  14
HETATM   14  C   UNL     1     -11.913   9.773  71.250  1.00  0.00    -0.386 A  
HETATM   15  C   UNL     1     -12.638  10.890  70.825  1.00  0.00    -0.470 A  
HETATM   16  C   UNL     1     -12.100  11.769  69.875  1.00  0.00    -0.359 A  
HETATM   17  C   UNL     1     -10.823  11.543  69.346  1.00  0.00    -0.180 A  
HETATM   18  C   UNL     1     -10.059  10.484  69.850  1.00  0.00    -0.048 A  
HETATM   19  C   UNL     1     -10.617   9.586  70.768  1.00  0.00    -0.387 A  
BRANCH  17  20
HETATM   20  C   UNL     1     -10.333  12.414  68.229  1.00  0.00    -0.227 C  
HETATM   21  O   UNL     1      -9.987  13.562  68.493  1.00  0.00    -0.234 OA 
BRANCH  20  22
HETATM   22  C   UNL     1     -10.328  11.886  66.862  1.00  0.00    -0.238 A  
HETATM   23  C   UNL     1     -11.147  12.322  65.821  1.00  0.00    -0.323 A  
HETATM   24  C   UNL     1      -8.119   8.880  65.928  1.00  0.00    -0.109 A  
HETATM   25  O   UNL     1     -10.865  11.625  64.681  1.00  0.00    -0.296 OA 
HETATM   26  C   UNL     1      -8.515   8.825  64.594  1.00  0.00    -0.169 A  
HETATM   27  C   UNL     1      -9.943  10.684  64.986  1.00  0.00    -0.305 A  
HETATM   28  C   UNL     1      -9.585  10.771  66.324  1.00  0.00    -0.234 A  
HETATM   29  C   UNL     1      -9.454   9.732  64.096  1.00  0.00    -0.164 A  
HETATM   30  C   UNL     1      -8.675   9.812  66.812  1.00  0.00    -0.140 A  
BRANCH  23  31
HETATM   31  C   UNL     1     -12.322  13.230  65.669  1.00  0.00    -0.521 C  
BRANCH  31  32
HETATM   32  C   UNL     1     -12.159  14.477  64.802  1.00  0.00    -0.454 C  
BRANCH  32  33
HETATM   33  C   UNL     1     -10.761  15.061  65.074  1.00  0.00    -0.448 C  
HETATM   34  C   UNL     1     -10.729  16.135  66.145  1.00  0.00    -0.222 C  
ENDBRANCH  32  33
ENDBRANCH  31  32
ENDBRANCH  23  31
BRANCH  24  35
HETATM   35  N   UNL     1      -7.141   7.974  66.433  1.00  0.00    -0.073 N  
HETATM   36  H   UNL     1      -6.168   8.260  66.542  1.00  0.00     0.000 HD 
BRANCH  35  37
HETATM   37  S   UNL     1      -7.640   6.414  66.844  1.00  0.00    -0.096 S  
HETATM   38  C   UNL     1      -6.947   6.247  68.476  1.00  0.00    -0.080 C  
HETATM   39  O   UNL     1      -9.081   6.360  66.926  1.00  0.00    -0.126 OA 
HETATM   40  O   UNL     1      -6.902   5.532  65.964  1.00  0.00    -0.055 OA 
ENDBRANCH  35  37
ENDBRANCH  24  35
ENDBRANCH  20  22
ENDBRANCH  17  20
ENDBRANCH  13  14
ENDBRANCH  12  13
ENDBRANCH  11  12
ENDBRANCH  10  11
ENDBRANCH   5  10
ENDBRANCH   4   5
ENDBRANCH   3   4
ENDBRANCH   2   3
TORSDOF 18
ENDMDL
MODEL       94
REMARK 921   NORMALIZED FREE ENERGY PREDICTED BY IDOCK:   -4.65 KCAL/MOL
REMARK 922        TOTAL FREE ENERGY PREDICTED BY IDOCK:  -12.27 KCAL/MOL
REMARK 923 INTER-LIGAND FREE ENERGY PREDICTED BY IDOCK:   -9.49 KCAL/MOL
REMARK 924 INTRA-LIGAND FREE ENERGY PREDICTED BY IDOCK:   -2.78 KCAL/MOL
REMARK 927      BINDING AFFINITY PREDICTED BY RF-SCORE:    0.00 PKD
ROOT
HETATM    1  C   UNL     1      -9.328  17.295  67.676  1.00  0.00    -0.237 C  
HETATM    2  C   UNL     1      -9.170  16.547  66.357  1.00  0.00    -0.327 C  
ENDROOT
BRANCH   2   3
HETATM    3  C   UNL     1     -10.516  16.447  65.641  1.00  0.00    -0.364 C  
BRANCH   3   4
HETATM    4  C   UNL     1     -11.115  15.033  65.601  1.00  0.00    -0.349 C  
BRANCH   4   5
HETATM    5  N   UNL     1     -10.721  14.069  66.660  1.00  0.00    -0.280 NA 
BRANCH   5   6
HETATM    6  C   UNL     1     -11.907  13.581  67.402  1.00  0.00    -0.384 C  
BRANCH   6   7
HETATM    7  C   UNL     1     -11.911  13.796  68.928  1.00  0.00    -0.394 C  
BRANCH   7   8
HETATM    8  C   UNL     1     -11.947  15.263  69.361  1.00  0.00    -0.342 C  
HETATM    9  C   UNL     1     -12.790  15.434  70.618  1.00  0.00    -0.484 C  
ENDBRANCH   7   8
ENDBRANCH   6   7
ENDBRANCH   5   6
BRANCH   5  10
HETATM   10  C   UNL     1      -9.986  12.936  66.042  1.00  0.00    -0.272 C  
BRANCH  10  11
HETATM   11  C   UNL     1     -10.699  12.257  64.864  1.00  0.00    -0.335 C  
BRANCH  11  12
HETATM   12  C   UNL     1      -9.705  11.534  63.962  1.00  0.00    -0.223 C  
BRANCH  12  13
HETATM   13  O   UNL     1      -9.865  10.121  64.113  1.00  0.00    -0.305 OA 
BRANCH  13  14
HETATM   14  C   UNL     1      -9.266   9.566  65.214  1.00  0.00    -0.247 A  
HETATM   15  C   UNL     1      -7.894   9.543  65.477  1.00  0.00    -0.108 A  
HETATM   16  C   UNL     1      -7.397   8.870  66.603  1.00  0.00    -0.085 A  
HETATM   17  C   UNL     1      -8.272   8.222  67.483  1.00  0.00    -0.122 A  
HETATM   18  C   UNL     1      -9.651   8.337  67.273  1.00  0.00    -0.215 A  
HETATM   19  C   UNL     1     -10.140   8.973  66.126  1.00  0.00    -0.242 A  
BRANCH  17  20
HETATM   20  C   UNL     1      -7.704   7.392  68.595  1.00  0.00    -0.120 C  
HETATM   21  O   UNL     1      -6.487   7.390  68.759  1.00  0.00    -0.041 OA 
BRANCH  20  22
HETATM   22  C   UNL     1      -8.609   6.579  69.411  1.00  0.00    -0.134 A  
HETATM   23  C   UNL     1      -8.675   5.186  69.408  1.00  0.00    -0.099 A  
HETATM   24  C   UNL     1     -11.272   8.241  71.634  1.00  0.00    -0.270 A  
HETATM   25  O   UNL     1      -9.616   4.760  70.301  1.00  0.00    -0.163 OA 
HETATM   26  C   UNL     1     -11.803   7.053  72.129  1.00  0.00    -0.314 A  
HETATM   27  C   UNL     1     -10.224   5.852  70.817  1.00  0.00    -0.211 A  
HETATM   28  C   UNL     1      -9.669   7.011  70.291  1.00  0.00    -0.177 A  
HETATM   29  C   UNL     1     -11.288   5.821  71.715  1.00  0.00    -0.240 A  
HETATM   30  C   UNL     1     -10.242   8.237  70.686  1.00  0.00    -0.214 A  
BRANCH  23  31
HETATM   31  C   UNL     1      -8.101   4.072  68.597  1.00  0.00    -0.078 C  
BRANCH  31  32
HETATM   32  C   UNL     1      -9.041   3.293  67.679  1.00  0.00    -0.210 C  
BRANCH  32  33
HETATM   33  C   UNL     1      -9.228   4.111  66.390  1.00  0.00    -0.161 C  
HETATM   34  C   UNL     1     -10.552   4.849  66.304  1.00  0.00    -0.307 C  
ENDBRANCH  32  33
ENDBRANCH  31  32
ENDBRANCH  23  31
BRANCH  24  35
HETATM   35  N   UNL     1     -11.775   9.500  72.074  1.00  0.00    -0.242 N  
HETATM   36  H   UNL     1     -11.485   9.898  72.968  1.00  0.00     0.000 HD 
BRANCH  35  37
HETATM   37  S   UNL     1     -12.867  10.312  71.075  1.00  0.00    -0.406 S  
HETATM   38  C   UNL     1     -13.128  11.815  71.994  1.00  0.00    -0.331 C  
HETATM   39  O   UNL     1     -12.244  10.624  69.809  1.00  0.00    -0.305 OA 
HETATM   40  O   UNL     1     -14.092   9.542  71.139  1.00  0.00    -0.150 OA 
ENDBRANCH  35  37
ENDBRANCH  24  35
ENDBRANCH  20  22
ENDBRANCH  17  20
ENDBRANCH  13  14
ENDBRANCH  12  13
ENDBRANCH  11  12
ENDBRANCH  10  11
ENDBRANCH   5  10
ENDBRANCH   4   5
ENDBRANCH   3   4
ENDBRANCH   2   3
TORSDOF 18
ENDMDL
MODEL       95
REMARK 921   NORMALIZED FREE ENERGY PREDICTED BY IDOCK:   -4.65 KCAL/MOL
REMARK 922        TOTAL FREE ENERGY PREDICTED BY IDOCK:  -12.26 KCAL/MOL
REMARK 923 INTER-LIGAND FREE ENERGY PREDICTED BY IDOCK:   -8.78 KCAL/MOL
REMARK 924 INTRA-LIGAND FREE ENERGY PREDICTED BY IDOCK:   -3.48 KCAL/MOL
REMARK 927      BINDING AFFINITY PREDICTED BY RF-SCORE:    0.00 PKD
ROOT
HETATM    1  C   UNL     1      -8.076   9.889  69.818  1.00  0.00    -0.185 C  
HETATM    2  C   UNL     1      -9.113   8.924  70.380  1.00  0.00    -0.217 C  
ENDROOT
BRANCH   2   3
HETATM    3  C   UNL     1      -8.586   7.490  70.325  1.00  0.00    -0.144 C  
BRANCH   3   4
HETATM    4  C   UNL     1      -8.747   6.700  71.632  1.00  0.00    -0.130 C  
BRANCH   4   5
HETATM    5  N   UNL     1      -9.731   5.589  71.669  1.00  0.00    -0.158 NA 
BRANCH   5   6
HETATM    6  C   UNL     1     -10.849   5.899  72.590  1.00  0.00    -0.251 C  
BRANCH   6   7
HETATM    7  C   UNL     1     -10.981   7.362  73.057  1.00  0.00    -0.422 C  
BRANCH   7   8
HETATM    8  C   UNL     1     -12.059   8.166  72.327  1.00  0.00    -0.419 C  
HETATM    9  C   UNL     1     -13.001   7.239  71.568  1.00  0.00    -0.434 C  
ENDBRANCH   7   8
ENDBRANCH   6   7
ENDBRANCH   5   6
BRANCH   5  10
HETATM   10  C   UNL     1     -10.238   5.337  70.296  1.00  0.00    -0.275 C  
BRANCH  10  11
HETATM   11  C   UNL     1      -9.703   4.065  69.623  1.00  0.00    -0.245 C  
BRANCH  11  12
HETATM   12  C   UNL     1      -9.120   4.373  68.248  1.00  0.00    -0.127 C  
BRANCH  12  13
HETATM   13  O   UNL     1     -10.144   4.906  67.404  1.00  0.00    -0.179 OA 
BRANCH  13  14
HETATM   14  C   UNL     1     -10.037   6.239  67.106  1.00  0.00    -0.168 A  
HETATM   15  C   UNL     1     -10.883   7.253  67.564  1.00  0.00    -0.284 A  
HETATM   16  C   UNL     1     -10.718   8.573  67.120  1.00  0.00    -0.209 A  
HETATM   17  C   UNL     1      -9.695   8.893  66.218  1.00  0.00    -0.345 A  
HETATM   18  C   UNL     1      -8.787   7.896  65.843  1.00  0.00    -0.183 A  
HETATM   19  C   UNL     1      -8.982   6.572  66.256  1.00  0.00    -0.168 A  
BRANCH  17  20
HETATM   20  C   UNL     1      -9.632  10.278  65.650  1.00  0.00    -0.232 C  
HETATM   21  O   UNL     1     -10.198  10.498  64.583  1.00  0.00    -0.345 OA 
BRANCH  20  22
HETATM   22  C   UNL     1      -8.862  11.305  66.358  1.00  0.00    -0.184 A  
HETATM   23  C   UNL     1      -7.472  11.351  66.458  1.00  0.00    -0.068 A  
HETATM   24  C   UNL     1     -10.645  14.048  68.379  1.00  0.00    -0.254 A  
HETATM   25  O   UNL     1      -7.091  12.451  67.173  1.00  0.00    -0.142 OA 
HETATM   26  C   UNL     1      -9.482  14.683  68.809  1.00  0.00    -0.199 A  
HETATM   27  C   UNL     1      -8.211  13.068  67.614  1.00  0.00    -0.171 A  
HETATM   28  C   UNL     1      -9.342  12.398  67.169  1.00  0.00    -0.199 A  
HETATM   29  C   UNL     1      -8.228  14.191  68.437  1.00  0.00    -0.149 A  
HETATM   30  C   UNL     1     -10.592  12.886  67.602  1.00  0.00    -0.232 A  
BRANCH  23  31
HETATM   31  C   UNL     1      -6.327  10.456  66.120  1.00  0.00    -0.106 C  
BRANCH  31  32
HETATM   32  C   UNL     1      -5.639  10.649  64.770  1.00  0.00    -0.089 C  
BRANCH  32  33
HETATM   33  C   UNL     1      -5.889   9.386  63.927  1.00  0.00    -0.081 C  
HETATM   34  C   UNL     1      -7.015   9.521  62.919  1.00  0.00    -0.099 C  
ENDBRANCH  32  33
ENDBRANCH  31  32
ENDBRANCH  23  31
BRANCH  24  35
HETATM   35  N   UNL     1     -11.926  14.564  68.732  1.00  0.00    -0.472 N  
HETATM   36  H   UNL     1     -12.615  14.794  68.016  1.00  0.00     0.000 HD 
BRANCH  35  37
HETATM   37  S   UNL     1     -12.269  14.783  70.371  1.00  0.00    -0.360 S  
HETATM   38  C   UNL     1     -12.550  13.105  70.894  1.00  0.00    -0.295 C  
HETATM   39  O   UNL     1     -11.111  15.312  71.054  1.00  0.00    -0.330 OA 
HETATM   40  O   UNL     1     -13.543  15.472  70.407  1.00  0.00    -0.228 OA 
ENDBRANCH  35  37
ENDBRANCH  24  35
ENDBRANCH  20  22
ENDBRANCH  17  20
ENDBRANCH  13  14
ENDBRANCH  12  13
ENDBRANCH  11  12
ENDBRANCH  10  11
ENDBRANCH   5  10
ENDBRANCH   4   5
ENDBRANCH   3   4
ENDBRANCH   2   3
TORSDOF 18
ENDMDL
MODEL       96
REMARK 921   NORMALIZED FREE ENERGY PREDICTED BY IDOCK:   -4.62 KCAL/MOL
REMARK 922        TOTAL FREE ENERGY PREDICTED BY IDOCK:  -12.20 KCAL/MOL
REMARK 923 INTER-LIGAND FREE ENERGY PREDICTED BY IDOCK:   -9.57 KCAL/MOL
REMARK 924 INTRA-LIGAND FREE ENERGY PREDICTED BY IDOCK:   -2.63 KCAL/MOL
REMARK 927      BINDING AFFINITY PREDICTED BY RF-SCORE:    0.00 PKD
ROOT
HETATM    1  C   UNL     1      -8.620  19.694  66.223  1.00  0.00    -0.393 C  
HETATM    2  C   UNL     1      -9.737  20.359  67.016  1.00  0.00    -0.588 C  
ENDROOT
BRANCH   2   3
HETATM    3  C   UNL     1     -10.890  19.379  67.232  1.00  0.00    -0.561 C  
BRANCH   3   4
HETATM    4  C   UNL     1     -10.455  17.923  67.459  1.00  0.00    -0.390 C  
BRANCH   4   5
HETATM    5  N   UNL     1      -9.915  17.546  68.790  1.00  0.00    -0.332 NA 
BRANCH   5   6
HETATM    6  C   UNL     1     -10.720  16.464  69.403  1.00  0.00    -0.324 C  
BRANCH   6   7
HETATM    7  C   UNL     1     -11.760  15.772  68.500  1.00  0.00    -0.328 C  
BRANCH   7   8
HETATM    8  C   UNL     1     -11.376  14.359  68.058  1.00  0.00    -0.316 C  
HETATM    9  C   UNL     1     -12.003  14.026  66.710  1.00  0.00    -0.473 C  
ENDBRANCH   7   8
ENDBRANCH   6   7
ENDBRANCH   5   6
BRANCH   5  10
HETATM   10  C   UNL     1      -8.498  17.126  68.644  1.00  0.00    -0.258 C  
BRANCH  10  11
HETATM   11  C   UNL     1      -8.166  15.736  69.206  1.00  0.00    -0.247 C  
BRANCH  11  12
HETATM   12  C   UNL     1      -7.628  14.816  68.115  1.00  0.00    -0.119 C  
BRANCH  12  13
HETATM   13  O   UNL     1      -7.000  13.680  68.716  1.00  0.00    -0.097 OA 
BRANCH  13  14
HETATM   14  C   UNL     1      -7.469  12.457  68.314  1.00  0.00    -0.124 A  
HETATM   15  C   UNL     1      -7.195  11.231  68.926  1.00  0.00    -0.112 A  
HETATM   16  C   UNL     1      -7.670  10.035  68.369  1.00  0.00    -0.084 A  
HETATM   17  C   UNL     1      -8.435  10.057  67.196  1.00  0.00    -0.125 A  
HETATM   18  C   UNL     1      -8.796  11.292  66.645  1.00  0.00    -0.175 A  
HETATM   19  C   UNL     1      -8.284  12.480  67.181  1.00  0.00    -0.168 A  
BRANCH  17  20
HETATM   20  C   UNL     1      -8.807   8.759  66.544  1.00  0.00    -0.131 C  
HETATM   21  O   UNL     1      -9.170   8.777  65.371  1.00  0.00    -0.183 OA 
BRANCH  20  22
HETATM   22  C   UNL     1      -8.771   7.527  67.337  1.00  0.00    -0.124 A  
HETATM   23  C   UNL     1      -7.872   6.476  67.162  1.00  0.00    -0.108 A  
HETATM   24  C   UNL     1     -11.448   6.835  70.010  1.00  0.00    -0.334 A  
HETATM   25  O   UNL     1      -8.112   5.497  68.083  1.00  0.00    -0.096 OA 
HETATM   26  C   UNL     1     -10.940   5.598  70.399  1.00  0.00    -0.278 A  
HETATM   27  C   UNL     1      -9.206   5.853  68.793  1.00  0.00    -0.115 A  
HETATM   28  C   UNL     1      -9.681   7.086  68.367  1.00  0.00    -0.139 A  
HETATM   29  C   UNL     1      -9.801   5.074  69.782  1.00  0.00    -0.286 A  
HETATM   30  C   UNL     1     -10.861   7.566  68.971  1.00  0.00    -0.082 A  
BRANCH  23  31
HETATM   31  C   UNL     1      -6.834   6.087  66.162  1.00  0.00    -0.061 C  
BRANCH  31  32
HETATM   32  C   UNL     1      -7.255   5.976  64.697  1.00  0.00    -0.063 C  
BRANCH  32  33
HETATM   33  C   UNL     1      -8.427   4.982  64.617  1.00  0.00    -0.145 C  
HETATM   34  C   UNL     1      -8.057   3.550  64.957  1.00  0.00    -0.090 C  
ENDBRANCH  32  33
ENDBRANCH  31  32
ENDBRANCH  23  31
BRANCH  24  35
HETATM   35  N   UNL     1     -12.593   7.386  70.656  1.00  0.00    -0.576 N  
HETATM   36  H   UNL     1     -13.535   7.089  70.399  1.00  0.00     0.000 HD 
BRANCH  35  37
HETATM   37  S   UNL     1     -12.345   8.543  71.861  1.00  0.00    -0.377 S  
HETATM   38  C   UNL     1     -14.015   8.845  72.400  1.00  0.00    -0.448 C  
HETATM   39  O   UNL     1     -11.585   7.972  72.948  1.00  0.00    -0.397 OA 
HETATM   40  O   UNL     1     -11.889   9.728  71.165  1.00  0.00    -0.322 OA 
ENDBRANCH  35  37
ENDBRANCH  24  35
ENDBRANCH  20  22
ENDBRANCH  17  20
ENDBRANCH  13  14
ENDBRANCH  12  13
ENDBRANCH  11  12
ENDBRANCH  10  11
ENDBRANCH   5  10
ENDBRANCH   4   5
ENDBRANCH   3   4
ENDBRANCH   2   3
TORSDOF 18
ENDMDL
MODEL       97
REMARK 921   NORMALIZED FREE ENERGY PREDICTED BY IDOCK:   -4.61 KCAL/MOL
REMARK 922        TOTAL FREE ENERGY PREDICTED BY IDOCK:  -12.19 KCAL/MOL
REMARK 923 INTER-LIGAND FREE ENERGY PREDICTED BY IDOCK:   -9.28 KCAL/MOL
REMARK 924 INTRA-LIGAND FREE ENERGY PREDICTED BY IDOCK:   -2.91 KCAL/MOL
REMARK 927      BINDING AFFINITY PREDICTED BY RF-SCORE:    0.00 PKD
ROOT
HETATM    1  C   UNL     1      -6.284  16.125  69.625  1.00  0.00    -0.191 C  
HETATM    2  C   UNL     1      -7.187  15.117  68.927  1.00  0.00    -0.133 C  
ENDROOT
BRANCH   2   3
HETATM    3  C   UNL     1      -8.651  15.386  69.276  1.00  0.00    -0.252 C  
BRANCH   3   4
HETATM    4  C   UNL     1      -9.624  15.253  68.096  1.00  0.00    -0.204 C  
BRANCH   4   5
HETATM    5  N   UNL     1     -11.013  14.805  68.373  1.00  0.00    -0.244 NA 
BRANCH   5   6
HETATM    6  C   UNL     1     -11.783  15.863  69.067  1.00  0.00    -0.370 C  
BRANCH   6   7
HETATM    7  C   UNL     1     -12.526  15.452  70.354  1.00  0.00    -0.447 C  
BRANCH   7   8
HETATM    8  C   UNL     1     -11.666  15.478  71.619  1.00  0.00    -0.498 C  
HETATM    9  C   UNL     1     -12.386  16.209  72.746  1.00  0.00    -0.585 C  
ENDBRANCH   7   8
ENDBRANCH   6   7
ENDBRANCH   5   6
BRANCH   5  10
HETATM   10  C   UNL     1     -11.671  14.430  67.095  1.00  0.00    -0.400 C  
BRANCH  10  11
HETATM   11  C   UNL     1     -12.155  12.975  67.010  1.00  0.00    -0.330 C  
BRANCH  11  12
HETATM   12  C   UNL     1     -11.716  12.325  65.703  1.00  0.00    -0.382 C  
BRANCH  12  13
HETATM   13  O   UNL     1     -10.292  12.390  65.592  1.00  0.00    -0.248 OA 
BRANCH  13  14
HETATM   14  C   UNL     1      -9.591  11.509  66.373  1.00  0.00    -0.209 A  
HETATM   15  C   UNL     1      -9.690  10.116  66.330  1.00  0.00    -0.274 A  
HETATM   16  C   UNL     1      -8.978   9.323  67.241  1.00  0.00    -0.136 A  
HETATM   17  C   UNL     1      -8.150   9.919  68.200  1.00  0.00    -0.104 A  
HETATM   18  C   UNL     1      -7.972  11.308  68.173  1.00  0.00    -0.131 A  
HETATM   19  C   UNL     1      -8.718  12.097  67.289  1.00  0.00    -0.182 A  
BRANCH  17  20
HETATM   20  C   UNL     1      -7.515   9.059  69.250  1.00  0.00    -0.075 C  
HETATM   21  O   UNL     1      -6.493   9.464  69.798  1.00  0.00    -0.038 OA 
BRANCH  20  22
HETATM   22  C   UNL     1      -8.103   7.751  69.553  1.00  0.00    -0.126 A  
HETATM   23  C   UNL     1      -7.711   6.536  68.991  1.00  0.00    -0.109 A  
HETATM   24  C   UNL     1     -11.154   7.462  71.876  1.00  0.00    -0.242 A  
HETATM   25  O   UNL     1      -8.459   5.519  69.511  1.00  0.00    -0.103 OA 
HETATM   26  C   UNL     1     -11.267   6.077  71.787  1.00  0.00    -0.333 A  
HETATM   27  C   UNL     1      -9.388   6.061  70.330  1.00  0.00    -0.160 A  
HETATM   28  C   UNL     1      -9.242   7.441  70.383  1.00  0.00    -0.158 A  
HETATM   29  C   UNL     1     -10.380   5.344  70.993  1.00  0.00    -0.307 A  
HETATM   30  C   UNL     1     -10.182   8.159  71.149  1.00  0.00    -0.234 A  
BRANCH  23  31
HETATM   31  C   UNL     1      -6.808   6.087  67.891  1.00  0.00    -0.063 C  
BRANCH  31  32
HETATM   32  C   UNL     1      -7.359   6.085  66.466  1.00  0.00    -0.081 C  
BRANCH  32  33
HETATM   33  C   UNL     1      -6.267   6.643  65.536  1.00  0.00    -0.038 C  
HETATM   34  C   UNL     1      -5.900   8.091  65.803  1.00  0.00    -0.037 C  
ENDBRANCH  32  33
ENDBRANCH  31  32
ENDBRANCH  23  31
BRANCH  24  35
HETATM   35  N   UNL     1     -12.039   8.211  72.707  1.00  0.00    -0.602 N  
HETATM   36  H   UNL     1     -11.736   8.558  73.617  1.00  0.00     0.000 HD 
BRANCH  35  37
HETATM   37  S   UNL     1     -13.602   8.505  72.139  1.00  0.00    -0.349 S  
HETATM   38  C   UNL     1     -13.339   9.949  71.132  1.00  0.00    -0.301 C  
HETATM   39  O   UNL     1     -14.041   7.410  71.306  1.00  0.00    -0.396 OA 
HETATM   40  O   UNL     1     -14.360   8.915  73.303  1.00  0.00    -0.209 OA 
ENDBRANCH  35  37
ENDBRANCH  24  35
ENDBRANCH  20  22
ENDBRANCH  17  20
ENDBRANCH  13  14
ENDBRANCH  12  13
ENDBRANCH  11  12
ENDBRANCH  10  11
ENDBRANCH   5  10
ENDBRANCH   4   5
ENDBRANCH   3   4
ENDBRANCH   2   3
TORSDOF 18
ENDMDL
MODEL       98
REMARK 921   NORMALIZED FREE ENERGY PREDICTED BY IDOCK:   -4.61 KCAL/MOL
REMARK 922        TOTAL FREE ENERGY PREDICTED BY IDOCK:  -12.19 KCAL/MOL
REMARK 923 INTER-LIGAND FREE ENERGY PREDICTED BY IDOCK:  -10.10 KCAL/MOL
REMARK 924 INTRA-LIGAND FREE ENERGY PREDICTED BY IDOCK:   -2.09 KCAL/MOL
REMARK 927      BINDING AFFINITY PREDICTED BY RF-SCORE:    0.00 PKD
ROOT
HETATM    1  C   UNL     1      -6.224  18.787  66.826  1.00  0.00    -0.194 C  
HETATM    2  C   UNL     1      -6.631  17.513  66.096  1.00  0.00    -0.282 C  
ENDROOT
BRANCH   2   3
HETATM    3  C   UNL     1      -6.668  16.335  67.069  1.00  0.00    -0.217 C  
BRANCH   3   4
HETATM    4  C   UNL     1      -8.077  15.927  67.525  1.00  0.00    -0.151 C  
BRANCH   4   5
HETATM    5  N   UNL     1      -8.614  16.522  68.775  1.00  0.00    -0.253 NA 
BRANCH   5   6
HETATM    6  C   UNL     1      -9.553  17.627  68.476  1.00  0.00    -0.315 C  
BRANCH   6   7
HETATM    7  C   UNL     1     -10.274  17.580  67.114  1.00  0.00    -0.323 C  
BRANCH   7   8
HETATM    8  C   UNL     1     -10.159  18.865  66.292  1.00  0.00    -0.460 C  
HETATM    9  C   UNL     1     -10.494  20.083  67.144  1.00  0.00    -0.513 C  
ENDBRANCH   7   8
ENDBRANCH   6   7
ENDBRANCH   5   6
BRANCH   5  10
HETATM   10  C   UNL     1      -9.286  15.464  69.572  1.00  0.00    -0.240 C  
BRANCH  10  11
HETATM   11  C   UNL     1     -10.670  15.838  70.122  1.00  0.00    -0.354 C  
BRANCH  11  12
HETATM   12  C   UNL     1     -11.709  14.780  69.764  1.00  0.00    -0.310 C  
BRANCH  12  13
HETATM   13  O   UNL     1     -12.013  14.862  68.369  1.00  0.00    -0.299 OA 
BRANCH  13  14
HETATM   14  C   UNL     1     -11.660  13.773  67.617  1.00  0.00    -0.347 A  
HETATM   15  C   UNL     1     -11.654  12.443  68.048  1.00  0.00    -0.403 A  
HETATM   16  C   UNL     1     -11.192  11.423  67.204  1.00  0.00    -0.363 A  
HETATM   17  C   UNL     1     -10.740  11.724  65.913  1.00  0.00    -0.328 A  
HETATM   18  C   UNL     1     -10.846  13.040  65.448  1.00  0.00    -0.304 A  
HETATM   19  C   UNL     1     -11.268  14.061  66.309  1.00  0.00    -0.320 A  
BRANCH  17  20
HETATM   20  C   UNL     1     -10.119  10.638  65.088  1.00  0.00    -0.307 C  
HETATM   21  O   UNL     1     -10.489  10.505  63.924  1.00  0.00    -0.191 OA 
BRANCH  20  22
HETATM   22  C   UNL     1      -9.133   9.747  65.706  1.00  0.00    -0.221 A  
HETATM   23  C   UNL     1      -7.786   9.659  65.354  1.00  0.00    -0.117 A  
HETATM   24  C   UNL     1     -10.199   7.187  68.370  1.00  0.00    -0.174 A  
HETATM   25  O   UNL     1      -7.155   8.742  66.145  1.00  0.00    -0.082 OA 
HETATM   26  C   UNL     1      -8.928   6.654  68.568  1.00  0.00    -0.120 A  
HETATM   27  C   UNL     1      -8.086   8.169  66.941  1.00  0.00    -0.104 A  
HETATM   28  C   UNL     1      -9.336   8.725  66.704  1.00  0.00    -0.242 A  
HETATM   29  C   UNL     1      -7.837   7.135  67.840  1.00  0.00    -0.114 A  
HETATM   30  C   UNL     1     -10.427   8.185  67.415  1.00  0.00    -0.356 A  
BRANCH  23  31
HETATM   31  C   UNL     1      -6.909  10.188  64.268  1.00  0.00    -0.103 C  
BRANCH  31  32
HETATM   32  C   UNL     1      -5.884   9.240  63.647  1.00  0.00    -0.087 C  
BRANCH  32  33
HETATM   33  C   UNL     1      -6.496   8.664  62.358  1.00  0.00    -0.095 C  
HETATM   34  C   UNL     1      -7.908   8.134  62.519  1.00  0.00    -0.140 C  
ENDBRANCH  32  33
ENDBRANCH  31  32
ENDBRANCH  23  31
BRANCH  24  35
HETATM   35  N   UNL     1     -11.310   6.719  69.131  1.00  0.00    -0.562 N  
HETATM   36  H   UNL     1     -12.057   6.180  68.693  1.00  0.00     0.000 HD 
BRANCH  35  37
HETATM   37  S   UNL     1     -11.352   7.082  70.780  1.00  0.00    -0.314 S  
HETATM   38  C   UNL     1     -10.616   8.704  70.797  1.00  0.00    -0.210 C  
HETATM   39  O   UNL     1     -12.721   7.170  71.233  1.00  0.00    -0.371 OA 
HETATM   40  O   UNL     1     -10.413   6.169  71.397  1.00  0.00    -0.211 OA 
ENDBRANCH  35  37
ENDBRANCH  24  35
ENDBRANCH  20  22
ENDBRANCH  17  20
ENDBRANCH  13  14
ENDBRANCH  12  13
ENDBRANCH  11  12
ENDBRANCH  10  11
ENDBRANCH   5  10
ENDBRANCH   4   5
ENDBRANCH   3   4
ENDBRANCH   2   3
TORSDOF 18
ENDMDL
MODEL       99
REMARK 921   NORMALIZED FREE ENERGY PREDICTED BY IDOCK:   -4.60 KCAL/MOL
REMARK 922        TOTAL FREE ENERGY PREDICTED BY IDOCK:  -12.16 KCAL/MOL
REMARK 923 INTER-LIGAND FREE ENERGY PREDICTED BY IDOCK:   -8.85 KCAL/MOL
REMARK 924 INTRA-LIGAND FREE ENERGY PREDICTED BY IDOCK:   -3.30 KCAL/MOL
REMARK 927      BINDING AFFINITY PREDICTED BY RF-SCORE:    0.00 PKD
ROOT
HETATM    1  C   UNL     1     -12.340  10.922  70.684  1.00  0.00    -0.470 C  
HETATM    2  C   UNL     1     -12.089   9.419  70.691  1.00  0.00    -0.191 C  
ENDROOT
BRANCH   2   3
HETATM    3  C   UNL     1     -11.121   9.050  71.814  1.00  0.00    -0.444 C  
BRANCH   3   4
HETATM    4  C   UNL     1     -11.520   7.803  72.618  1.00  0.00    -0.375 C  
BRANCH   4   5
HETATM    5  N   UNL     1     -10.495   6.754  72.851  1.00  0.00    -0.217 NA 
BRANCH   5   6
HETATM    6  C   UNL     1      -9.816   6.954  74.152  1.00  0.00    -0.311 C  
BRANCH   6   7
HETATM    7  C   UNL     1      -8.472   7.708  74.128  1.00  0.00    -0.290 C  
BRANCH   7   8
HETATM    8  C   UNL     1      -7.499   7.235  73.046  1.00  0.00    -0.081 C  
HETATM    9  C   UNL     1      -7.003   8.412  72.216  1.00  0.00    -0.106 C  
ENDBRANCH   7   8
ENDBRANCH   6   7
ENDBRANCH   5   6
BRANCH   5  10
HETATM   10  C   UNL     1     -11.140   5.417  72.795  1.00  0.00    -0.294 C  
BRANCH  10  11
HETATM   11  C   UNL     1     -10.225   4.268  72.347  1.00  0.00    -0.248 C  
BRANCH  11  12
HETATM   12  C   UNL     1      -9.399   4.665  71.128  1.00  0.00    -0.146 C  
BRANCH  12  13
HETATM   13  O   UNL     1     -10.270   4.910  70.021  1.00  0.00    -0.264 OA 
BRANCH  13  14
HETATM   14  C   UNL     1     -10.047   6.075  69.334  1.00  0.00    -0.192 A  
HETATM   15  C   UNL     1      -9.008   6.980  69.567  1.00  0.00    -0.143 A  
HETATM   16  C   UNL     1      -8.936   8.181  68.846  1.00  0.00    -0.141 A  
HETATM   17  C   UNL     1      -9.900   8.483  67.877  1.00  0.00    -0.208 A  
HETATM   18  C   UNL     1     -10.878   7.528  67.573  1.00  0.00    -0.232 A  
HETATM   19  C   UNL     1     -10.970   6.350  68.324  1.00  0.00    -0.396 A  
BRANCH  17  20
HETATM   20  C   UNL     1      -9.881   9.834  67.227  1.00  0.00    -0.181 C  
HETATM   21  O   UNL     1     -10.128  10.818  67.918  1.00  0.00    -0.166 OA 
BRANCH  20  22
HETATM   22  C   UNL     1      -9.618   9.929  65.789  1.00  0.00    -0.312 A  
HETATM   23  C   UNL     1     -10.121  10.910  64.935  1.00  0.00    -0.312 A  
HETATM   24  C   UNL     1      -7.594   7.205  63.980  1.00  0.00    -0.113 A  
HETATM   25  O   UNL     1      -9.661  10.707  63.666  1.00  0.00    -0.260 OA 
HETATM   26  C   UNL     1      -7.673   7.787  62.717  1.00  0.00    -0.131 A  
HETATM   27  C   UNL     1      -8.942   9.561  63.663  1.00  0.00    -0.173 A  
HETATM   28  C   UNL     1      -8.897   9.014  64.937  1.00  0.00    -0.190 A  
HETATM   29  C   UNL     1      -8.367   8.986  62.532  1.00  0.00    -0.195 A  
HETATM   30  C   UNL     1      -8.234   7.778  65.085  1.00  0.00    -0.135 A  
BRANCH  23  31
HETATM   31  C   UNL     1     -11.123  12.013  65.017  1.00  0.00    -0.368 C  
BRANCH  31  32
HETATM   32  C   UNL     1     -10.813  13.321  64.291  1.00  0.00    -0.414 C  
BRANCH  32  33
HETATM   33  C   UNL     1     -11.888  14.348  64.688  1.00  0.00    -0.460 C  
HETATM   34  C   UNL     1     -11.484  15.794  64.463  1.00  0.00    -0.292 C  
ENDBRANCH  32  33
ENDBRANCH  31  32
ENDBRANCH  23  31
BRANCH  24  35
HETATM   35  N   UNL     1      -6.863   5.997  64.178  1.00  0.00    -0.044 N  
HETATM   36  H   UNL     1      -5.844   5.987  64.133  1.00  0.00     0.000 HD 
BRANCH  35  37
HETATM   37  S   UNL     1      -7.734   4.584  64.486  1.00  0.00    -0.083 S  
HETATM   38  C   UNL     1      -7.664   4.514  66.264  1.00  0.00    -0.094 C  
HETATM   39  O   UNL     1      -9.106   4.745  64.065  1.00  0.00    -0.134 OA 
HETATM   40  O   UNL     1      -6.911   3.508  63.974  1.00  0.00    -0.046 OA 
ENDBRANCH  35  37
ENDBRANCH  24  35
ENDBRANCH  20  22
ENDBRANCH  17  20
ENDBRANCH  13  14
ENDBRANCH  12  13
ENDBRANCH  11  12
ENDBRANCH  10  11
ENDBRANCH   5  10
ENDBRANCH   4   5
ENDBRANCH   3   4
ENDBRANCH   2   3
TORSDOF 18
ENDMDL
MODEL      100
REMARK 921   NORMALIZED FREE ENERGY PREDICTED BY IDOCK:   -4.59 KCAL/MOL
REMARK 922        TOTAL FREE ENERGY PREDICTED BY IDOCK:  -12.13 KCAL/MOL
REMARK 923 INTER-LIGAND FREE ENERGY PREDICTED BY IDOCK:   -9.32 KCAL/MOL
REMARK 924 INTRA-LIGAND FREE ENERGY PREDICTED BY IDOCK:   -2.81 KCAL/MOL
REMARK 927      BINDING AFFINITY PREDICTED BY RF-SCORE:    0.00 PKD
ROOT
HETATM    1  C   UNL     1     -13.554  15.405  71.833  1.00  0.00    -0.590 C  
HETATM    2  C   UNL     1     -12.422  14.749  71.053  1.00  0.00    -0.400 C  
ENDROOT
BRANCH   2   3
HETATM    3  C   UNL     1     -11.464  15.812  70.516  1.00  0.00    -0.401 C  
BRANCH   3   4
HETATM    4  C   UNL     1     -11.378  15.880  68.984  1.00  0.00    -0.371 C  
BRANCH   4   5
HETATM    5  N   UNL     1     -10.035  15.956  68.354  1.00  0.00    -0.219 NA 
BRANCH   5   6
HETATM    6  C   UNL     1      -9.671  17.359  68.047  1.00  0.00    -0.281 C  
BRANCH   6   7
HETATM    7  C   UNL     1      -9.739  17.788  66.569  1.00  0.00    -0.324 C  
BRANCH   7   8
HETATM    8  C   UNL     1     -10.263  19.209  66.344  1.00  0.00    -0.515 C  
HETATM    9  C   UNL     1      -9.741  20.152  67.421  1.00  0.00    -0.563 C  
ENDBRANCH   7   8
ENDBRANCH   6   7
ENDBRANCH   5   6
BRANCH   5  10
HETATM   10  C   UNL     1      -9.033  15.340  69.261  1.00  0.00    -0.241 C  
BRANCH  10  11
HETATM   11  C   UNL     1      -7.622  15.942  69.182  1.00  0.00    -0.213 C  
BRANCH  11  12
HETATM   12  C   UNL     1      -6.561  14.849  69.118  1.00  0.00    -0.117 C  
BRANCH  12  13
HETATM   13  O   UNL     1      -6.562  14.258  67.816  1.00  0.00    -0.154 OA 
BRANCH  13  14
HETATM   14  C   UNL     1      -6.495  12.890  67.781  1.00  0.00    -0.143 A  
HETATM   15  C   UNL     1      -5.658  12.130  66.961  1.00  0.00    -0.079 A  
HETATM   16  C   UNL     1      -5.741  10.730  66.960  1.00  0.00    -0.053 A  
HETATM   17  C   UNL     1      -6.660  10.076  67.790  1.00  0.00    -0.067 A  
HETATM   18  C   UNL     1      -7.423  10.835  68.685  1.00  0.00    -0.102 A  
HETATM   19  C   UNL     1      -7.366  12.234  68.652  1.00  0.00    -0.106 A  
BRANCH  17  20
HETATM   20  C   UNL     1      -6.829   8.592  67.663  1.00  0.00    -0.071 C  
HETATM   21  O   UNL     1      -5.821   7.890  67.637  1.00  0.00    -0.038 OA 
BRANCH  20  22
HETATM   22  C   UNL     1      -8.177   8.036  67.528  1.00  0.00    -0.123 A  
HETATM   23  C   UNL     1      -8.963   8.083  66.376  1.00  0.00    -0.169 A  
HETATM   24  C   UNL     1      -9.977   6.494  70.557  1.00  0.00    -0.184 A  
HETATM   25  O   UNL     1     -10.154   7.454  66.597  1.00  0.00    -0.229 OA 
HETATM   26  C   UNL     1     -11.146   6.167  69.874  1.00  0.00    -0.481 A  
HETATM   27  C   UNL     1     -10.193   7.080  67.896  1.00  0.00    -0.183 A  
HETATM   28  C   UNL     1      -9.013   7.432  68.537  1.00  0.00    -0.128 A  
HETATM   29  C   UNL     1     -11.279   6.468  68.515  1.00  0.00    -0.287 A  
HETATM   30  C   UNL     1      -8.926   7.163  69.918  1.00  0.00    -0.142 A  
BRANCH  23  31
HETATM   31  C   UNL     1      -8.899   8.753  65.044  1.00  0.00    -0.151 C  
BRANCH  31  32
HETATM   32  C   UNL     1      -9.085  10.268  64.992  1.00  0.00    -0.244 C  
BRANCH  32  33
HETATM   33  C   UNL     1     -10.452  10.598  65.619  1.00  0.00    -0.235 C  
HETATM   34  C   UNL     1     -10.516  11.953  66.299  1.00  0.00    -0.274 C  
ENDBRANCH  32  33
ENDBRANCH  31  32
ENDBRANCH  23  31
BRANCH  24  35
HETATM   35  N   UNL     1      -9.826   6.164  71.935  1.00  0.00    -0.157 N  
HETATM   36  H   UNL     1      -9.501   5.240  72.221  1.00  0.00     0.000 HD 
BRANCH  35  37
HETATM   37  S   UNL     1     -10.200   7.347  73.081  1.00  0.00    -0.347 S  
HETATM   38  C   UNL     1      -8.610   8.111  73.322  1.00  0.00    -0.242 C  
HETATM   39  O   UNL     1     -11.116   8.311  72.517  1.00  0.00    -0.353 OA 
HETATM   40  O   UNL     1     -10.523   6.619  74.290  1.00  0.00    -0.344 OA 
ENDBRANCH  35  37
ENDBRANCH  24  35
ENDBRANCH  20  22
ENDBRANCH  17  20
ENDBRANCH  13  14
ENDBRANCH  12  13
ENDBRANCH  11  12
ENDBRANCH  10  11
ENDBRANCH   5  10
ENDBRANCH   4   5
ENDBRANCH   3   4
ENDBRANCH   2   3
TORSDOF 18
ENDMDL
MODEL      101
REMARK 921   NORMALIZED FREE ENERGY PREDICTED BY IDOCK:   -4.57 KCAL/MOL
REMARK 922        TOTAL FREE ENERGY PREDICTED BY IDOCK:  -12.11 KCAL/MOL
REMARK 923 INTER-LIGAND FREE ENERGY PREDICTED BY IDOCK:   -8.95 KCAL/MOL
REMARK 924 INTRA-LIGAND FREE ENERGY PREDICTED BY IDOCK:   -3.16 KCAL/MOL
REMARK 927      BINDING AFFINITY PREDICTED BY RF-SCORE:    0.00 PKD
ROOT
HETATM    1  C   UNL     1     -13.142   9.964  71.409  1.00  0.00    -0.500 C  
HETATM    2  C   UNL     1     -11.756   9.373  71.639  1.00  0.00    -0.468 C  
ENDROOT
BRANCH   2   3
HETATM    3  C   UNL     1     -11.639   8.014  70.950  1.00  0.00    -0.284 C  
BRANCH   3   4
HETATM    4  C   UNL     1     -11.576   6.815  71.908  1.00  0.00    -0.292 C  
BRANCH   4   5
HETATM    5  N   UNL     1     -10.330   6.595  72.684  1.00  0.00    -0.190 NA 
BRANCH   5   6
HETATM    6  C   UNL     1     -10.554   5.634  73.789  1.00  0.00    -0.273 C  
BRANCH   6   7
HETATM    7  C   UNL     1     -10.305   4.145  73.478  1.00  0.00    -0.238 C  
BRANCH   7   8
HETATM    8  C   UNL     1     -11.524   3.242  73.680  1.00  0.00    -0.124 C  
HETATM    9  C   UNL     1     -11.164   1.785  73.421  1.00  0.00    -0.285 C  
ENDBRANCH   7   8
ENDBRANCH   6   7
ENDBRANCH   5   6
BRANCH   5  10
HETATM   10  C   UNL     1      -9.264   6.107  71.772  1.00  0.00    -0.144 C  
BRANCH  10  11
HETATM   11  C   UNL     1      -7.889   6.765  71.959  1.00  0.00    -0.096 C  
BRANCH  11  12
HETATM   12  C   UNL     1      -8.031   8.218  72.399  1.00  0.00    -0.140 C  
BRANCH  12  13
HETATM   13  O   UNL     1      -6.861   8.948  72.019  1.00  0.00    -0.230 OA 
BRANCH  13  14
HETATM   14  C   UNL     1      -6.929   9.601  70.817  1.00  0.00    -0.079 A  
HETATM   15  C   UNL     1      -5.842  10.062  70.070  1.00  0.00    -0.049 A  
HETATM   16  C   UNL     1      -6.047  10.792  68.890  1.00  0.00    -0.040 A  
HETATM   17  C   UNL     1      -7.346  11.059  68.441  1.00  0.00    -0.096 A  
HETATM   18  C   UNL     1      -8.429  10.506  69.134  1.00  0.00    -0.152 A  
HETATM   19  C   UNL     1      -8.221   9.815  70.334  1.00  0.00    -0.119 A  
BRANCH  17  20
HETATM   20  C   UNL     1      -7.537  11.961  67.259  1.00  0.00    -0.154 C  
HETATM   21  O   UNL     1      -6.635  12.743  66.970  1.00  0.00    -0.140 OA 
BRANCH  20  22
HETATM   22  C   UNL     1      -8.803  11.914  66.523  1.00  0.00    -0.178 A  
HETATM   23  C   UNL     1      -9.056  11.136  65.394  1.00  0.00    -0.177 A  
HETATM   24  C   UNL     1     -11.715  14.237  67.477  1.00  0.00    -0.384 A  
HETATM   25  O   UNL     1     -10.342  11.322  64.976  1.00  0.00    -0.271 OA 
HETATM   26  C   UNL     1     -12.586  13.781  66.491  1.00  0.00    -0.242 A  
HETATM   27  C   UNL     1     -10.900  12.274  65.759  1.00  0.00    -0.278 A  
HETATM   28  C   UNL     1      -9.995  12.703  66.720  1.00  0.00    -0.237 A  
HETATM   29  C   UNL     1     -12.184  12.786  65.596  1.00  0.00    -0.503 A  
HETATM   30  C   UNL     1     -10.409  13.744  67.576  1.00  0.00    -0.241 A  
BRANCH  23  31
HETATM   31  C   UNL     1      -8.262  10.283  64.460  1.00  0.00    -0.158 C  
BRANCH  31  32
HETATM   32  C   UNL     1      -8.472   8.771  64.514  1.00  0.00    -0.158 C  
BRANCH  32  33
HETATM   33  C   UNL     1      -8.461   8.345  65.993  1.00  0.00    -0.142 C  
HETATM   34  C   UNL     1      -7.102   7.906  66.506  1.00  0.00    -0.075 C  
ENDBRANCH  32  33
ENDBRANCH  31  32
ENDBRANCH  23  31
BRANCH  24  35
HETATM   35  N   UNL     1     -12.131  15.232  68.410  1.00  0.00    -0.552 N  
HETATM   36  H   UNL     1     -12.289  16.195  68.114  1.00  0.00     0.000 HD 
BRANCH  35  37
HETATM   37  S   UNL     1     -12.355  14.769  70.018  1.00  0.00    -0.291 S  
HETATM   38  C   UNL     1     -10.843  15.347  70.760  1.00  0.00    -0.252 C  
HETATM   39  O   UNL     1     -13.474  15.483  70.588  1.00  0.00    -0.433 OA 
HETATM   40  O   UNL     1     -12.312  13.321  70.009  1.00  0.00    -0.281 OA 
ENDBRANCH  35  37
ENDBRANCH  24  35
ENDBRANCH  20  22
ENDBRANCH  17  20
ENDBRANCH  13  14
ENDBRANCH  12  13
ENDBRANCH  11  12
ENDBRANCH  10  11
ENDBRANCH   5  10
ENDBRANCH   4   5
ENDBRANCH   3   4
ENDBRANCH   2   3
TORSDOF 18
ENDMDL
MODEL      102
REMARK 921   NORMALIZED FREE ENERGY PREDICTED BY IDOCK:   -4.57 KCAL/MOL
REMARK 922        TOTAL FREE ENERGY PREDICTED BY IDOCK:  -12.10 KCAL/MOL
REMARK 923 INTER-LIGAND FREE ENERGY PREDICTED BY IDOCK:   -9.36 KCAL/MOL
REMARK 924 INTRA-LIGAND FREE ENERGY PREDICTED BY IDOCK:   -2.74 KCAL/MOL
REMARK 927      BINDING AFFINITY PREDICTED BY RF-SCORE:    0.00 PKD
ROOT
HETATM    1  C   UNL     1     -13.408  11.234  71.976  1.00  0.00    -0.386 C  
HETATM    2  C   UNL     1     -12.847  10.731  70.652  1.00  0.00    -0.377 C  
ENDROOT
BRANCH   2   3
HETATM    3  C   UNL     1     -11.924  11.781  70.034  1.00  0.00    -0.421 C  
BRANCH   3   4
HETATM    4  C   UNL     1     -11.203  11.326  68.756  1.00  0.00    -0.250 C  
BRANCH   4   5
HETATM    5  N   UNL     1      -9.975  10.503  68.894  1.00  0.00    -0.194 NA 
BRANCH   5   6
HETATM    6  C   UNL     1     -10.266   9.069  68.662  1.00  0.00    -0.205 C  
BRANCH   6   7
HETATM    7  C   UNL     1     -10.299   8.155  69.903  1.00  0.00    -0.214 C  
BRANCH   7   8
HETATM    8  C   UNL     1      -9.820   8.822  71.194  1.00  0.00    -0.313 C  
HETATM    9  C   UNL     1     -10.569   8.265  72.398  1.00  0.00    -0.408 C  
ENDBRANCH   7   8
ENDBRANCH   6   7
ENDBRANCH   5   6
BRANCH   5  10
HETATM   10  C   UNL     1      -8.948  10.991  67.938  1.00  0.00    -0.144 C  
BRANCH  10  11
HETATM   11  C   UNL     1      -7.492  10.769  68.371  1.00  0.00    -0.095 C  
BRANCH  11  12
HETATM   12  C   UNL     1      -7.276  11.201  69.817  1.00  0.00     0.061 C  
BRANCH  12  13
HETATM   13  O   UNL     1      -6.229  12.173  69.873  1.00  0.00    -0.141 OA 
BRANCH  13  14
HETATM   14  C   UNL     1      -6.498  13.376  69.274  1.00  0.00    -0.111 A  
HETATM   15  C   UNL     1      -7.499  14.275  69.652  1.00  0.00     0.180 A  
HETATM   16  C   UNL     1      -7.728  15.439  68.905  1.00  0.00    -0.165 A  
HETATM   17  C   UNL     1      -6.949  15.720  67.776  1.00  0.00    -0.173 A  
HETATM   18  C   UNL     1      -5.880  14.872  67.462  1.00  0.00     0.066 A  
HETATM   19  C   UNL     1      -5.683  13.689  68.186  1.00  0.00    -0.116 A  
BRANCH  17  20
HETATM   20  C   UNL     1      -7.309  16.894  66.915  1.00  0.00    -0.216 C  
HETATM   21  O   UNL     1      -6.492  17.803  66.798  1.00  0.00    -0.156 OA 
BRANCH  20  22
HETATM   22  C   UNL     1      -8.632  16.938  66.287  1.00  0.00    -0.319 A  
HETATM   23  C   UNL     1      -9.383  18.091  66.060  1.00  0.00    -0.013 A  
HETATM   24  C   UNL     1     -10.462  13.692  65.336  1.00  0.00    -0.324 A  
HETATM   25  O   UNL     1     -10.557  17.768  65.440  1.00  0.00    -0.659 OA 
HETATM   26  C   UNL     1     -11.597  14.317  64.824  1.00  0.00    -0.404 A  
HETATM   27  C   UNL     1     -10.620  16.421  65.344  1.00  0.00    -0.320 A  
HETATM   28  C   UNL     1      -9.474  15.842  65.872  1.00  0.00    -0.372 A  
HETATM   29  C   UNL     1     -11.701  15.710  64.829  1.00  0.00    -0.134 A  
HETATM   30  C   UNL     1      -9.418  14.434  65.901  1.00  0.00    -0.189 A  
BRANCH  23  31
HETATM   31  C   UNL     1      -9.305  19.532  66.438  1.00  0.00    -0.443 C  
BRANCH  31  32
HETATM   32  C   UNL     1     -10.326  20.068  67.441  1.00  0.00    -0.533 C  
BRANCH  32  33
HETATM   33  C   UNL     1      -9.962  19.511  68.829  1.00  0.00    -0.547 C  
HETATM   34  C   UNL     1     -10.250  18.031  69.003  1.00  0.00    -0.262 C  
ENDBRANCH  32  33
ENDBRANCH  31  32
ENDBRANCH  23  31
BRANCH  24  35
HETATM   35  N   UNL     1     -10.340  12.272  65.307  1.00  0.00    -0.275 N  
HETATM   36  H   UNL     1     -10.226  11.738  66.169  1.00  0.00     0.000 HD 
BRANCH  35  37
HETATM   37  S   UNL     1     -10.389  11.501  63.806  1.00  0.00    -0.444 S  
HETATM   38  C   UNL     1      -9.445  10.029  64.140  1.00  0.00    -0.252 C  
HETATM   39  O   UNL     1     -11.748  11.137  63.480  1.00  0.00     0.029 OA 
HETATM   40  O   UNL     1      -9.601  12.335  62.922  1.00  0.00    -0.125 OA 
ENDBRANCH  35  37
ENDBRANCH  24  35
ENDBRANCH  20  22
ENDBRANCH  17  20
ENDBRANCH  13  14
ENDBRANCH  12  13
ENDBRANCH  11  12
ENDBRANCH  10  11
ENDBRANCH   5  10
ENDBRANCH   4   5
ENDBRANCH   3   4
ENDBRANCH   2   3
TORSDOF 18
ENDMDL
MODEL      103
REMARK 921   NORMALIZED FREE ENERGY PREDICTED BY IDOCK:   -4.56 KCAL/MOL
REMARK 922        TOTAL FREE ENERGY PREDICTED BY IDOCK:  -12.08 KCAL/MOL
REMARK 923 INTER-LIGAND FREE ENERGY PREDICTED BY IDOCK:  -10.59 KCAL/MOL
REMARK 924 INTRA-LIGAND FREE ENERGY PREDICTED BY IDOCK:   -1.49 KCAL/MOL
REMARK 927      BINDING AFFINITY PREDICTED BY RF-SCORE:    0.00 PKD
ROOT
HETATM    1  C   UNL     1     -12.622  11.783  63.442  1.00  0.00    -0.458 C  
HETATM    2  C   UNL     1     -12.103  13.212  63.537  1.00  0.00    -0.585 C  
ENDROOT
BRANCH   2   3
HETATM    3  C   UNL     1     -11.037  13.316  64.628  1.00  0.00    -0.375 C  
BRANCH   3   4
HETATM    4  C   UNL     1     -10.710  14.752  65.067  1.00  0.00    -0.433 C  
BRANCH   4   5
HETATM    5  N   UNL     1     -10.731  15.069  66.517  1.00  0.00    -0.306 NA 
BRANCH   5   6
HETATM    6  C   UNL     1     -10.776  16.533  66.741  1.00  0.00    -0.155 C  
BRANCH   6   7
HETATM    7  C   UNL     1      -9.423  17.259  66.876  1.00  0.00    -0.264 C  
BRANCH   7   8
HETATM    8  C   UNL     1      -9.315  18.175  68.097  1.00  0.00    -0.295 C  
HETATM    9  C   UNL     1     -10.285  19.344  67.982  1.00  0.00    -0.531 C  
ENDBRANCH   7   8
ENDBRANCH   6   7
ENDBRANCH   5   6
BRANCH   5  10
HETATM   10  C   UNL     1     -11.901  14.406  67.147  1.00  0.00    -0.410 C  
BRANCH  10  11
HETATM   11  C   UNL     1     -11.822  14.250  68.673  1.00  0.00    -0.379 C  
BRANCH  11  12
HETATM   12  C   UNL     1     -11.296  12.872  69.060  1.00  0.00    -0.290 C  
BRANCH  12  13
HETATM   13  O   UNL     1     -11.891  12.464  70.294  1.00  0.00    -0.322 OA 
BRANCH  13  14
HETATM   14  C   UNL     1     -12.058  11.114  70.458  1.00  0.00    -0.381 A  
HETATM   15  C   UNL     1     -13.231  10.476  70.871  1.00  0.00    -0.281 A  
HETATM   16  C   UNL     1     -13.252   9.090  71.081  1.00  0.00    -0.167 A  
HETATM   17  C   UNL     1     -12.098   8.326  70.869  1.00  0.00    -0.149 A  
HETATM   18  C   UNL     1     -10.956   8.952  70.355  1.00  0.00    -0.275 A  
HETATM   19  C   UNL     1     -10.928  10.342  70.188  1.00  0.00    -0.377 A  
BRANCH  17  20
HETATM   20  C   UNL     1     -12.108   6.873  71.238  1.00  0.00    -0.373 C  
HETATM   21  O   UNL     1     -12.966   6.476  72.022  1.00  0.00    -0.244 OA 
BRANCH  20  22
HETATM   22  C   UNL     1     -11.073   5.991  70.693  1.00  0.00    -0.371 A  
HETATM   23  C   UNL     1     -10.435   4.963  71.386  1.00  0.00    -0.100 A  
HETATM   24  C   UNL     1      -9.685   6.552  67.150  1.00  0.00    -0.143 A  
HETATM   25  O   UNL     1      -9.539   4.334  70.570  1.00  0.00    -0.164 OA 
HETATM   26  C   UNL     1      -8.784   5.490  67.183  1.00  0.00    -0.107 A  
HETATM   27  C   UNL     1      -9.519   4.993  69.389  1.00  0.00    -0.144 A  
HETATM   28  C   UNL     1     -10.424   6.045  69.404  1.00  0.00    -0.331 A  
HETATM   29  C   UNL     1      -8.677   4.688  68.323  1.00  0.00    -0.114 A  
HETATM   30  C   UNL     1     -10.474   6.868  68.261  1.00  0.00    -0.240 A  
BRANCH  23  31
HETATM   31  C   UNL     1     -10.374   4.477  72.796  1.00  0.00    -0.245 C  
BRANCH  31  32
HETATM   32  C   UNL     1      -9.073   4.684  73.571  1.00  0.00    -0.113 C  
BRANCH  32  33
HETATM   33  C   UNL     1      -8.688   6.170  73.458  1.00  0.00    -0.125 C  
HETATM   34  C   UNL     1      -9.609   7.113  74.209  1.00  0.00    -0.218 C  
ENDBRANCH  32  33
ENDBRANCH  31  32
ENDBRANCH  23  31
BRANCH  24  35
HETATM   35  N   UNL     1      -9.817   7.355  65.980  1.00  0.00    -0.402 N  
HETATM   36  H   UNL     1     -10.499   7.122  65.257  1.00  0.00     0.000 HD 
BRANCH  35  37
HETATM   37  S   UNL     1      -8.812   8.703  65.824  1.00  0.00    -0.191 S  
HETATM   38  C   UNL     1      -9.974  10.031  66.060  1.00  0.00    -0.267 C  
HETATM   39  O   UNL     1      -7.838   8.721  66.890  1.00  0.00    -0.099 OA 
HETATM   40  O   UNL     1      -8.406   8.719  64.434  1.00  0.00    -0.163 OA 
ENDBRANCH  35  37
ENDBRANCH  24  35
ENDBRANCH  20  22
ENDBRANCH  17  20
ENDBRANCH  13  14
ENDBRANCH  12  13
ENDBRANCH  11  12
ENDBRANCH  10  11
ENDBRANCH   5  10
ENDBRANCH   4   5
ENDBRANCH   3   4
ENDBRANCH   2   3
TORSDOF 18
ENDMDL
MODEL      104
REMARK 921   NORMALIZED FREE ENERGY PREDICTED BY IDOCK:   -4.56 KCAL/MOL
REMARK 922        TOTAL FREE ENERGY PREDICTED BY IDOCK:  -12.07 KCAL/MOL
REMARK 923 INTER-LIGAND FREE ENERGY PREDICTED BY IDOCK:   -9.34 KCAL/MOL
REMARK 924 INTRA-LIGAND FREE ENERGY PREDICTED BY IDOCK:   -2.73 KCAL/MOL
REMARK 927      BINDING AFFINITY PREDICTED BY RF-SCORE:    0.00 PKD
ROOT
HETATM    1  C   UNL     1     -10.653   3.647  63.673  1.00  0.00    -0.279 C  
HETATM    2  C   UNL     1      -9.339   3.673  62.903  1.00  0.00    -0.103 C  
ENDROOT
BRANCH   2   3
HETATM    3  C   UNL     1      -8.714   5.067  62.968  1.00  0.00    -0.094 C  
BRANCH   3   4
HETATM    4  C   UNL     1      -8.135   5.443  64.340  1.00  0.00    -0.123 C  
BRANCH   4   5
HETATM    5  N   UNL     1      -8.264   6.850  64.799  1.00  0.00    -0.095 NA 
BRANCH   5   6
HETATM    6  C   UNL     1      -8.666   6.909  66.223  1.00  0.00    -0.142 C  
BRANCH   6   7
HETATM    7  C   UNL     1     -10.145   7.231  66.518  1.00  0.00    -0.163 C  
BRANCH   7   8
HETATM    8  C   UNL     1     -10.810   6.290  67.524  1.00  0.00    -0.436 C  
HETATM    9  C   UNL     1     -10.394   4.847  67.270  1.00  0.00    -0.154 C  
ENDBRANCH   7   8
ENDBRANCH   6   7
ENDBRANCH   5   6
BRANCH   5  10
HETATM   10  C   UNL     1      -6.975   7.555  64.588  1.00  0.00    -0.052 C  
BRANCH  10  11
HETATM   11  C   UNL     1      -6.925   8.476  63.359  1.00  0.00    -0.089 C  
BRANCH  11  12
HETATM   12  C   UNL     1      -8.306   9.031  63.032  1.00  0.00    -0.197 C  
BRANCH  12  13
HETATM   13  O   UNL     1      -8.407  10.373  63.514  1.00  0.00    -0.166 OA 
BRANCH  13  14
HETATM   14  C   UNL     1      -8.784  10.510  64.824  1.00  0.00    -0.185 A  
HETATM   15  C   UNL     1      -7.923  10.578  65.923  1.00  0.00    -0.154 A  
HETATM   16  C   UNL     1      -8.437  10.636  67.226  1.00  0.00    -0.126 A  
HETATM   17  C   UNL     1      -9.820  10.637  67.442  1.00  0.00    -0.198 A  
HETATM   18  C   UNL     1     -10.678  10.675  66.336  1.00  0.00    -0.198 A  
HETATM   19  C   UNL     1     -10.161  10.575  65.039  1.00  0.00    -0.365 A  
BRANCH  17  20
HETATM   20  C   UNL     1     -10.339  10.554  68.846  1.00  0.00    -0.208 C  
HETATM   21  O   UNL     1     -10.147   9.519  69.479  1.00  0.00    -0.185 OA 
BRANCH  20  22
HETATM   22  C   UNL     1     -11.092  11.684  69.396  1.00  0.00    -0.268 A  
HETATM   23  C   UNL     1     -12.159  11.590  70.289  1.00  0.00    -0.359 A  
HETATM   24  C   UNL     1     -10.382  15.275  68.217  1.00  0.00    -0.234 A  
HETATM   25  O   UNL     1     -12.613  12.838  70.607  1.00  0.00    -0.267 OA 
HETATM   26  C   UNL     1     -11.344  15.879  69.022  1.00  0.00    -0.371 A  
HETATM   27  C   UNL     1     -11.921  13.733  69.868  1.00  0.00    -0.347 A  
HETATM   28  C   UNL     1     -10.981  13.087  69.077  1.00  0.00    -0.242 A  
HETATM   29  C   UNL     1     -12.148  15.107  69.866  1.00  0.00    -0.373 A  
HETATM   30  C   UNL     1     -10.220  13.885  68.199  1.00  0.00    -0.249 A  
BRANCH  23  31
HETATM   31  C   UNL     1     -13.006  10.502  70.861  1.00  0.00    -0.455 C  
BRANCH  31  32
HETATM   32  C   UNL     1     -12.460   9.718  72.053  1.00  0.00    -0.390 C  
BRANCH  32  33
HETATM   33  C   UNL     1     -13.607   8.863  72.621  1.00  0.00    -0.395 C  
HETATM   34  C   UNL     1     -14.366   8.065  71.577  1.00  0.00    -0.546 C  
ENDBRANCH  32  33
ENDBRANCH  31  32
ENDBRANCH  23  31
BRANCH  24  35
HETATM   35  N   UNL     1      -9.540  16.061  67.377  1.00  0.00    -0.224 N  
HETATM   36  H   UNL     1      -9.754  16.183  66.387  1.00  0.00     0.000 HD 
BRANCH  35  37
HETATM   37  S   UNL     1      -8.181  16.786  68.069  1.00  0.00    -0.198 S  
HETATM   38  C   UNL     1      -8.772  18.443  68.342  1.00  0.00    -0.317 C  
HETATM   39  O   UNL     1      -7.881  16.166  69.339  1.00  0.00    -0.233 OA 
HETATM   40  O   UNL     1      -7.196  16.842  67.008  1.00  0.00    -0.160 OA 
ENDBRANCH  35  37
ENDBRANCH  24  35
ENDBRANCH  20  22
ENDBRANCH  17  20
ENDBRANCH  13  14
ENDBRANCH  12  13
ENDBRANCH  11  12
ENDBRANCH  10  11
ENDBRANCH   5  10
ENDBRANCH   4   5
ENDBRANCH   3   4
ENDBRANCH   2   3
TORSDOF 18
ENDMDL
MODEL      105
REMARK 921   NORMALIZED FREE ENERGY PREDICTED BY IDOCK:   -4.55 KCAL/MOL
REMARK 922        TOTAL FREE ENERGY PREDICTED BY IDOCK:  -12.05 KCAL/MOL
REMARK 923 INTER-LIGAND FREE ENERGY PREDICTED BY IDOCK:   -9.26 KCAL/MOL
REMARK 924 INTRA-LIGAND FREE ENERGY PREDICTED BY IDOCK:   -2.80 KCAL/MOL
REMARK 927      BINDING AFFINITY PREDICTED BY RF-SCORE:    0.00 PKD
ROOT
HETATM    1  C   UNL     1      -8.112   4.301  70.072  1.00  0.00    -0.061 C  
HETATM    2  C   UNL     1      -7.894   5.243  68.894  1.00  0.00    -0.083 C  
ENDROOT
BRANCH   2   3
HETATM    3  C   UNL     1      -9.160   5.328  68.042  1.00  0.00    -0.118 C  
BRANCH   3   4
HETATM    4  C   UNL     1      -8.998   6.117  66.734  1.00  0.00    -0.124 C  
BRANCH   4   5
HETATM    5  N   UNL     1      -8.209   5.508  65.634  1.00  0.00    -0.121 NA 
BRANCH   5   6
HETATM    6  C   UNL     1      -9.063   4.651  64.779  1.00  0.00    -0.149 C  
BRANCH   6   7
HETATM    7  C   UNL     1      -8.735   3.144  64.755  1.00  0.00    -0.103 C  
BRANCH   7   8
HETATM    8  C   UNL     1      -7.594   2.759  63.812  1.00  0.00    -0.067 C  
HETATM    9  C   UNL     1      -7.525   3.717  62.629  1.00  0.00    -0.053 C  
ENDBRANCH   7   8
ENDBRANCH   6   7
ENDBRANCH   5   6
BRANCH   5  10
HETATM   10  C   UNL     1      -7.575   6.584  64.830  1.00  0.00    -0.097 C  
BRANCH  10  11
HETATM   11  C   UNL     1      -6.253   7.127  65.391  1.00  0.00    -0.037 C  
BRANCH  11  12
HETATM   12  C   UNL     1      -6.370   8.607  65.740  1.00  0.00    -0.056 C  
BRANCH  12  13
HETATM   13  O   UNL     1      -6.924   9.316  64.629  1.00  0.00    -0.088 OA 
BRANCH  13  14
HETATM   14  C   UNL     1      -8.098   9.981  64.871  1.00  0.00    -0.154 A  
HETATM   15  C   UNL     1      -9.267   9.886  64.111  1.00  0.00    -0.312 A  
HETATM   16  C   UNL     1     -10.380  10.683  64.416  1.00  0.00    -0.347 A  
HETATM   17  C   UNL     1     -10.336  11.578  65.492  1.00  0.00    -0.322 A  
HETATM   18  C   UNL     1      -9.203  11.594  66.313  1.00  0.00    -0.225 A  
HETATM   19  C   UNL     1      -8.079  10.828  65.980  1.00  0.00    -0.158 A  
BRANCH  17  20
HETATM   20  C   UNL     1     -11.484  12.518  65.705  1.00  0.00    -0.365 C  
HETATM   21  O   UNL     1     -12.211  12.777  64.750  1.00  0.00    -0.406 OA 
BRANCH  20  22
HETATM   22  C   UNL     1     -11.670  13.128  67.024  1.00  0.00    -0.431 A  
HETATM   23  C   UNL     1     -11.525  14.484  67.318  1.00  0.00    -0.365 A  
HETATM   24  C   UNL     1     -12.381  10.950  70.112  1.00  0.00    -0.322 A  
HETATM   25  O   UNL     1     -11.790  14.707  68.639  1.00  0.00    -0.319 OA 
HETATM   26  C   UNL     1     -12.448  12.007  71.017  1.00  0.00    -0.376 A  
HETATM   27  C   UNL     1     -12.015  13.509  69.225  1.00  0.00    -0.330 A  
HETATM   28  C   UNL     1     -11.931  12.487  68.290  1.00  0.00    -0.274 A  
HETATM   29  C   UNL     1     -12.253  13.322  70.585  1.00  0.00    -0.417 A  
HETATM   30  C   UNL     1     -12.081  11.167  68.763  1.00  0.00    -0.232 A  
BRANCH  23  31
HETATM   31  C   UNL     1     -11.027  15.702  66.614  1.00  0.00    -0.212 C  
BRANCH  31  32
HETATM   32  C   UNL     1      -9.642  15.644  65.971  1.00  0.00    -0.386 C  
BRANCH  32  33
HETATM   33  C   UNL     1      -8.653  15.120  67.028  1.00  0.00    -0.265 C  
HETATM   34  C   UNL     1      -7.400  15.963  67.182  1.00  0.00    -0.258 C  
ENDBRANCH  32  33
ENDBRANCH  31  32
ENDBRANCH  23  31
BRANCH  24  35
HETATM   35  N   UNL     1     -12.608   9.610  70.544  1.00  0.00    -0.503 N  
HETATM   36  H   UNL     1     -13.552   9.268  70.721  1.00  0.00     0.000 HD 
BRANCH  35  37
HETATM   37  S   UNL     1     -11.266   8.606  70.753  1.00  0.00    -0.261 S  
HETATM   38  C   UNL     1     -11.975   7.271  71.695  1.00  0.00    -0.308 C  
HETATM   39  O   UNL     1     -10.816   8.107  69.475  1.00  0.00    -0.213 OA 
HETATM   40  O   UNL     1     -10.375   9.336  71.632  1.00  0.00    -0.340 OA 
ENDBRANCH  35  37
ENDBRANCH  24  35
ENDBRANCH  20  22
ENDBRANCH  17  20
ENDBRANCH  13  14
ENDBRANCH  12  13
ENDBRANCH  11  12
ENDBRANCH  10  11
ENDBRANCH   5  10
ENDBRANCH   4   5
ENDBRANCH   3   4
ENDBRANCH   2   3
TORSDOF 18
ENDMDL
MODEL      106
REMARK 921   NORMALIZED FREE ENERGY PREDICTED BY IDOCK:   -4.54 KCAL/MOL
REMARK 922        TOTAL FREE ENERGY PREDICTED BY IDOCK:  -12.04 KCAL/MOL
REMARK 923 INTER-LIGAND FREE ENERGY PREDICTED BY IDOCK:   -9.05 KCAL/MOL
REMARK 924 INTRA-LIGAND FREE ENERGY PREDICTED BY IDOCK:   -2.99 KCAL/MOL
REMARK 927      BINDING AFFINITY PREDICTED BY RF-SCORE:    0.00 PKD
ROOT
HETATM    1  C   UNL     1     -12.160  10.559  71.351  1.00  0.00    -0.380 C  
HETATM    2  C   UNL     1     -11.541  10.099  70.037  1.00  0.00    -0.323 C  
ENDROOT
BRANCH   2   3
HETATM    3  C   UNL     1     -10.142   9.534  70.280  1.00  0.00    -0.314 C  
BRANCH   3   4
HETATM    4  C   UNL     1      -9.609   8.641  69.149  1.00  0.00    -0.163 C  
BRANCH   4   5
HETATM    5  N   UNL     1      -9.119   7.282  69.494  1.00  0.00    -0.143 NA 
BRANCH   5   6
HETATM    6  C   UNL     1     -10.177   6.266  69.281  1.00  0.00    -0.193 C  
BRANCH   6   7
HETATM    7  C   UNL     1     -11.171   6.043  70.438  1.00  0.00    -0.380 C  
BRANCH   7   8
HETATM    8  C   UNL     1     -10.643   6.448  71.815  1.00  0.00    -0.256 C  
HETATM    9  C   UNL     1     -11.770   6.988  72.687  1.00  0.00    -0.140 C  
ENDBRANCH   7   8
ENDBRANCH   6   7
ENDBRANCH   5   6
BRANCH   5  10
HETATM   10  C   UNL     1      -7.921   6.970  68.675  1.00  0.00    -0.120 C  
BRANCH  10  11
HETATM   11  C   UNL     1      -6.909   8.117  68.532  1.00  0.00    -0.068 C  
BRANCH  11  12
HETATM   12  C   UNL     1      -6.510   8.320  67.074  1.00  0.00    -0.057 C  
BRANCH  12  13
HETATM   13  O   UNL     1      -6.031   9.654  66.892  1.00  0.00    -0.054 OA 
BRANCH  13  14
HETATM   14  C   UNL     1      -6.942  10.652  67.119  1.00  0.00    -0.088 A  
HETATM   15  C   UNL     1      -6.791  11.714  68.015  1.00  0.00    -0.072 A  
HETATM   16  C   UNL     1      -7.834  12.629  68.216  1.00  0.00    -0.144 A  
HETATM   17  C   UNL     1      -9.038  12.495  67.514  1.00  0.00    -0.187 A  
HETATM   18  C   UNL     1      -9.147  11.493  66.542  1.00  0.00    -0.199 A  
HETATM   19  C   UNL     1      -8.119  10.557  66.375  1.00  0.00    -0.135 A  
BRANCH  17  20
HETATM   20  C   UNL     1     -10.185  13.398  67.854  1.00  0.00    -0.241 C  
HETATM   21  O   UNL     1     -10.951  13.056  68.751  1.00  0.00    -0.248 OA 
BRANCH  20  22
HETATM   22  C   UNL     1     -10.380  14.626  67.080  1.00  0.00    -0.263 A  
HETATM   23  C   UNL     1     -11.358  14.825  66.106  1.00  0.00    -0.330 A  
HETATM   24  C   UNL     1      -7.941  17.578  67.437  1.00  0.00    -0.204 A  
HETATM   25  O   UNL     1     -11.264  16.089  65.599  1.00  0.00    -0.116 OA 
HETATM   26  C   UNL     1      -8.581  18.401  66.513  1.00  0.00    -0.287 A  
HETATM   27  C   UNL     1     -10.186  16.682  66.161  1.00  0.00    -0.348 A  
HETATM   28  C   UNL     1      -9.577  15.825  67.066  1.00  0.00    -0.236 A  
HETATM   29  C   UNL     1      -9.724  17.957  65.842  1.00  0.00    -0.016 A  
HETATM   30  C   UNL     1      -8.397  16.279  67.690  1.00  0.00    -0.172 A  
BRANCH  23  31
HETATM   31  C   UNL     1     -12.365  13.987  65.390  1.00  0.00    -0.495 C  
BRANCH  31  32
HETATM   32  C   UNL     1     -12.140  12.477  65.342  1.00  0.00    -0.494 C  
BRANCH  32  33
HETATM   33  C   UNL     1     -12.105  12.051  63.864  1.00  0.00    -0.557 C  
HETATM   34  C   UNL     1     -10.716  11.740  63.336  1.00  0.00    -0.468 C  
ENDBRANCH  32  33
ENDBRANCH  31  32
ENDBRANCH  23  31
BRANCH  24  35
HETATM   35  N   UNL     1      -6.792  18.038  68.144  1.00  0.00    -0.205 N  
HETATM   36  H   UNL     1      -5.927  17.497  68.148  1.00  0.00     0.000 HD 
BRANCH  35  37
HETATM   37  S   UNL     1      -6.904  19.504  68.974  1.00  0.00    -0.358 S  
HETATM   38  C   UNL     1      -5.757  19.235  70.310  1.00  0.00    -0.244 C  
HETATM   39  O   UNL     1      -6.426  20.583  68.140  1.00  0.00    -0.279 OA 
HETATM   40  O   UNL     1      -8.237  19.523  69.538  1.00  0.00    -0.070 OA 
ENDBRANCH  35  37
ENDBRANCH  24  35
ENDBRANCH  20  22
ENDBRANCH  17  20
ENDBRANCH  13  14
ENDBRANCH  12  13
ENDBRANCH  11  12
ENDBRANCH  10  11
ENDBRANCH   5  10
ENDBRANCH   4   5
ENDBRANCH   3   4
ENDBRANCH   2   3
TORSDOF 18
ENDMDL
MODEL      107
REMARK 921   NORMALIZED FREE ENERGY PREDICTED BY IDOCK:   -4.54 KCAL/MOL
REMARK 922        TOTAL FREE ENERGY PREDICTED BY IDOCK:  -12.03 KCAL/MOL
REMARK 923 INTER-LIGAND FREE ENERGY PREDICTED BY IDOCK:   -8.84 KCAL/MOL
REMARK 924 INTRA-LIGAND FREE ENERGY PREDICTED BY IDOCK:   -3.19 KCAL/MOL
REMARK 927      BINDING AFFINITY PREDICTED BY RF-SCORE:    0.00 PKD
ROOT
HETATM    1  C   UNL     1     -10.330   4.137  65.040  1.00  0.00    -0.209 C  
HETATM    2  C   UNL     1      -8.848   4.306  65.351  1.00  0.00    -0.129 C  
ENDROOT
BRANCH   2   3
HETATM    3  C   UNL     1      -8.635   4.432  66.859  1.00  0.00    -0.104 C  
BRANCH   3   4
HETATM    4  C   UNL     1      -9.926   4.597  67.675  1.00  0.00    -0.106 C  
BRANCH   4   5
HETATM    5  N   UNL     1      -9.906   4.222  69.112  1.00  0.00    -0.151 NA 
BRANCH   5   6
HETATM    6  C   UNL     1      -8.609   3.609  69.483  1.00  0.00    -0.067 C  
BRANCH   6   7
HETATM    7  C   UNL     1      -8.644   2.147  69.971  1.00  0.00    -0.099 C  
BRANCH   7   8
HETATM    8  C   UNL     1      -9.882   1.783  70.794  1.00  0.00    -0.045 C  
HETATM    9  C   UNL     1      -9.794   2.381  72.193  1.00  0.00    -0.221 C  
ENDBRANCH   7   8
ENDBRANCH   6   7
ENDBRANCH   5   6
BRANCH   5  10
HETATM   10  C   UNL     1     -10.170   5.429  69.937  1.00  0.00    -0.281 C  
BRANCH  10  11
HETATM   11  C   UNL     1     -11.141   6.445  69.318  1.00  0.00    -0.437 C  
BRANCH  11  12
HETATM   12  C   UNL     1     -11.845   7.261  70.397  1.00  0.00    -0.135 C  
BRANCH  12  13
HETATM   13  O   UNL     1     -10.900   8.127  71.033  1.00  0.00    -0.227 OA 
BRANCH  13  14
HETATM   14  C   UNL     1     -10.395   9.134  70.253  1.00  0.00    -0.214 A  
HETATM   15  C   UNL     1     -11.144  10.087  69.557  1.00  0.00    -0.279 A  
HETATM   16  C   UNL     1     -10.509  11.021  68.724  1.00  0.00    -0.222 A  
HETATM   17  C   UNL     1      -9.116  11.014  68.588  1.00  0.00    -0.174 A  
HETATM   18  C   UNL     1      -8.363  10.127  69.366  1.00  0.00    -0.174 A  
HETATM   19  C   UNL     1      -9.003   9.170  70.163  1.00  0.00    -0.219 A  
BRANCH  17  20
HETATM   20  C   UNL     1      -8.478  11.926  67.583  1.00  0.00    -0.156 C  
HETATM   21  O   UNL     1      -7.275  12.154  67.682  1.00  0.00    -0.101 OA 
BRANCH  20  22
HETATM   22  C   UNL     1      -9.313  12.548  66.553  1.00  0.00    -0.233 A  
HETATM   23  C   UNL     1      -9.913  11.883  65.483  1.00  0.00    -0.238 A  
HETATM   24  C   UNL     1      -9.817  16.360  66.473  1.00  0.00    -0.274 A  
HETATM   25  O   UNL     1     -10.633  12.764  64.730  1.00  0.00    -0.297 OA 
HETATM   26  C   UNL     1     -10.637  16.369  65.347  1.00  0.00    -0.338 A  
HETATM   27  C   UNL     1     -10.439  14.002  65.238  1.00  0.00    -0.382 A  
HETATM   28  C   UNL     1      -9.612  13.946  66.351  1.00  0.00    -0.292 A  
HETATM   29  C   UNL     1     -10.958  15.175  64.695  1.00  0.00    -0.321 A  
HETATM   30  C   UNL     1      -9.263  15.169  66.957  1.00  0.00    -0.239 A  
BRANCH  23  31
HETATM   31  C   UNL     1      -9.854  10.518  64.881  1.00  0.00    -0.379 C  
BRANCH  31  32
HETATM   32  C   UNL     1      -8.497   9.820  64.815  1.00  0.00    -0.172 C  
BRANCH  32  33
HETATM   33  C   UNL     1      -8.717   8.330  65.128  1.00  0.00    -0.089 C  
HETATM   34  C   UNL     1      -9.414   8.066  66.451  1.00  0.00    -0.268 C  
ENDBRANCH  32  33
ENDBRANCH  31  32
ENDBRANCH  23  31
BRANCH  24  35
HETATM   35  N   UNL     1      -9.511  17.572  67.157  1.00  0.00    -0.253 N  
HETATM   36  H   UNL     1      -9.967  17.807  68.039  1.00  0.00     0.000 HD 
BRANCH  35  37
HETATM   37  S   UNL     1      -8.371  18.608  66.465  1.00  0.00    -0.281 S  
HETATM   38  C   UNL     1      -7.747  19.450  67.905  1.00  0.00    -0.284 C  
HETATM   39  O   UNL     1      -7.307  17.841  65.859  1.00  0.00    -0.438 OA 
HETATM   40  O   UNL     1      -9.139  19.565  65.697  1.00  0.00    -0.313 OA 
ENDBRANCH  35  37
ENDBRANCH  24  35
ENDBRANCH  20  22
ENDBRANCH  17  20
ENDBRANCH  13  14
ENDBRANCH  12  13
ENDBRANCH  11  12
ENDBRANCH  10  11
ENDBRANCH   5  10
ENDBRANCH   4   5
ENDBRANCH   3   4
ENDBRANCH   2   3
TORSDOF 18
ENDMDL
MODEL      108
REMARK 921   NORMALIZED FREE ENERGY PREDICTED BY IDOCK:   -4.53 KCAL/MOL
REMARK 922        TOTAL FREE ENERGY PREDICTED BY IDOCK:  -12.03 KCAL/MOL
REMARK 923 INTER-LIGAND FREE ENERGY PREDICTED BY IDOCK:   -8.45 KCAL/MOL
REMARK 924 INTRA-LIGAND FREE ENERGY PREDICTED BY IDOCK:   -3.57 KCAL/MOL
REMARK 927      BINDING AFFINITY PREDICTED BY RF-SCORE:    0.00 PKD
ROOT
HETATM    1  C   UNL     1     -10.661   3.803  63.861  1.00  0.00    -0.273 C  
HETATM    2  C   UNL     1      -9.666   2.686  64.151  1.00  0.00    -0.142 C  
ENDROOT
BRANCH   2   3
HETATM    3  C   UNL     1      -8.469   2.785  63.206  1.00  0.00    -0.086 C  
BRANCH   3   4
HETATM    4  C   UNL     1      -7.180   3.306  63.859  1.00  0.00    -0.054 C  
BRANCH   4   5
HETATM    5  N   UNL     1      -7.199   4.654  64.482  1.00  0.00    -0.061 NA 
BRANCH   5   6
HETATM    6  C   UNL     1      -6.916   4.573  65.933  1.00  0.00    -0.063 C  
BRANCH   6   7
HETATM    7  C   UNL     1      -8.070   4.934  66.889  1.00  0.00    -0.107 C  
BRANCH   7   8
HETATM    8  C   UNL     1      -8.612   6.355  66.721  1.00  0.00    -0.113 C  
HETATM    9  C   UNL     1      -8.092   7.265  67.827  1.00  0.00    -0.115 C  
ENDBRANCH   7   8
ENDBRANCH   6   7
ENDBRANCH   5   6
BRANCH   5  10
HETATM   10  C   UNL     1      -6.204   5.521  63.801  1.00  0.00    -0.022 C  
BRANCH  10  11
HETATM   11  C   UNL     1      -6.486   7.029  63.880  1.00  0.00    -0.043 C  
BRANCH  11  12
HETATM   12  C   UNL     1      -7.909   7.346  63.433  1.00  0.00    -0.113 C  
BRANCH  12  13
HETATM   13  O   UNL     1      -8.044   8.756  63.235  1.00  0.00    -0.154 OA 
BRANCH  13  14
HETATM   14  C   UNL     1      -8.216   9.504  64.369  1.00  0.00    -0.148 A  
HETATM   15  C   UNL     1      -7.237  10.276  65.000  1.00  0.00    -0.111 A  
HETATM   16  C   UNL     1      -7.517  10.934  66.206  1.00  0.00    -0.129 A  
HETATM   17  C   UNL     1      -8.786  10.833  66.789  1.00  0.00    -0.145 A  
HETATM   18  C   UNL     1      -9.794  10.146  66.102  1.00  0.00    -0.297 A  
HETATM   19  C   UNL     1      -9.497   9.456  64.920  1.00  0.00    -0.150 A  
BRANCH  17  20
HETATM   20  C   UNL     1      -9.013  11.425  68.147  1.00  0.00    -0.169 C  
HETATM   21  O   UNL     1      -8.055  11.918  68.737  1.00  0.00    -0.117 OA 
BRANCH  20  22
HETATM   22  C   UNL     1     -10.350  11.354  68.741  1.00  0.00    -0.222 A  
HETATM   23  C   UNL     1     -11.423  12.189  68.429  1.00  0.00    -0.304 A  
HETATM   24  C   UNL     1     -11.100   8.887  71.595  1.00  0.00    -0.350 A  
HETATM   25  O   UNL     1     -12.521  11.831  69.157  1.00  0.00    -0.142 OA 
HETATM   26  C   UNL     1     -12.434   9.254  71.751  1.00  0.00    -0.458 A  
HETATM   27  C   UNL     1     -12.157  10.839  70.000  1.00  0.00    -0.345 A  
HETATM   28  C   UNL     1     -10.820  10.512  69.816  1.00  0.00    -0.335 A  
HETATM   29  C   UNL     1     -12.990  10.258  70.952  1.00  0.00    -0.456 A  
HETATM   30  C   UNL     1     -10.273   9.533  70.669  1.00  0.00    -0.364 A  
BRANCH  23  31
HETATM   31  C   UNL     1     -11.636  13.433  67.633  1.00  0.00    -0.377 C  
BRANCH  31  32
HETATM   32  C   UNL     1     -11.269  13.408  66.150  1.00  0.00    -0.311 C  
BRANCH  32  33
HETATM   33  C   UNL     1     -12.290  12.514  65.425  1.00  0.00    -0.426 C  
HETATM   34  C   UNL     1     -12.042  12.362  63.936  1.00  0.00    -0.587 C  
ENDBRANCH  32  33
ENDBRANCH  31  32
ENDBRANCH  23  31
BRANCH  24  35
HETATM   35  N   UNL     1     -10.537   7.845  72.388  1.00  0.00    -0.272 N  
HETATM   36  H   UNL     1     -10.035   8.054  73.251  1.00  0.00     0.000 HD 
BRANCH  35  37
HETATM   37  S   UNL     1     -10.725   6.253  71.857  1.00  0.00    -0.239 S  
HETATM   38  C   UNL     1      -9.204   5.517  72.420  1.00  0.00    -0.144 C  
HETATM   39  O   UNL     1     -11.839   5.632  72.535  1.00  0.00    -0.282 OA 
HETATM   40  O   UNL     1     -10.669   6.322  70.412  1.00  0.00    -0.232 OA 
ENDBRANCH  35  37
ENDBRANCH  24  35
ENDBRANCH  20  22
ENDBRANCH  17  20
ENDBRANCH  13  14
ENDBRANCH  12  13
ENDBRANCH  11  12
ENDBRANCH  10  11
ENDBRANCH   5  10
ENDBRANCH   4   5
ENDBRANCH   3   4
ENDBRANCH   2   3
TORSDOF 18
ENDMDL
MODEL      109
REMARK 921   NORMALIZED FREE ENERGY PREDICTED BY IDOCK:   -4.51 KCAL/MOL
REMARK 922        TOTAL FREE ENERGY PREDICTED BY IDOCK:  -11.98 KCAL/MOL
REMARK 923 INTER-LIGAND FREE ENERGY PREDICTED BY IDOCK:  -10.01 KCAL/MOL
REMARK 924 INTRA-LIGAND FREE ENERGY PREDICTED BY IDOCK:   -1.97 KCAL/MOL
REMARK 927      BINDING AFFINITY PREDICTED BY RF-SCORE:    0.00 PKD
ROOT
HETATM    1  C   UNL     1     -13.335  10.362  71.752  1.00  0.00    -0.456 C  
HETATM    2  C   UNL     1     -12.670   9.043  72.128  1.00  0.00    -0.470 C  
ENDROOT
BRANCH   2   3
HETATM    3  C   UNL     1     -11.462   8.784  71.229  1.00  0.00    -0.355 C  
BRANCH   3   4
HETATM    4  C   UNL     1     -11.249   7.309  70.855  1.00  0.00    -0.272 C  
BRANCH   4   5
HETATM    5  N   UNL     1      -9.888   6.733  71.004  1.00  0.00    -0.182 NA 
BRANCH   5   6
HETATM    6  C   UNL     1      -9.819   5.832  72.178  1.00  0.00    -0.156 C  
BRANCH   6   7
HETATM    7  C   UNL     1     -11.160   5.389  72.797  1.00  0.00    -0.349 C  
BRANCH   7   8
HETATM    8  C   UNL     1     -11.166   3.959  73.342  1.00  0.00    -0.297 C  
HETATM    9  C   UNL     1     -10.085   3.122  72.670  1.00  0.00    -0.230 C  
ENDBRANCH   7   8
ENDBRANCH   6   7
ENDBRANCH   5   6
BRANCH   5  10
HETATM   10  C   UNL     1      -9.526   6.004  69.762  1.00  0.00    -0.149 C  
BRANCH  10  11
HETATM   11  C   UNL     1      -8.249   6.494  69.064  1.00  0.00    -0.116 C  
BRANCH  11  12
HETATM   12  C   UNL     1      -8.273   8.007  68.872  1.00  0.00    -0.125 C  
BRANCH  12  13
HETATM   13  O   UNL     1      -7.042   8.433  68.282  1.00  0.00    -0.081 OA 
BRANCH  13  14
HETATM   14  C   UNL     1      -6.845   9.787  68.225  1.00  0.00    -0.068 A  
HETATM   15  C   UNL     1      -6.935  10.676  69.299  1.00  0.00    -0.096 A  
HETATM   16  C   UNL     1      -6.791  12.056  69.095  1.00  0.00    -0.090 A  
HETATM   17  C   UNL     1      -6.546  12.560  67.812  1.00  0.00    -0.121 A  
HETATM   18  C   UNL     1      -6.353  11.660  66.757  1.00  0.00    -0.114 A  
HETATM   19  C   UNL     1      -6.540  10.287  66.958  1.00  0.00    -0.074 A  
BRANCH  17  20
HETATM   20  C   UNL     1      -6.541  14.044  67.600  1.00  0.00    -0.159 C  
HETATM   21  O   UNL     1      -5.483  14.585  67.291  1.00  0.00    -0.287 OA 
BRANCH  20  22
HETATM   22  C   UNL     1      -7.778  14.799  67.813  1.00  0.00    -0.170 A  
HETATM   23  C   UNL     1      -7.889  15.990  68.529  1.00  0.00    -0.160 A  
HETATM   24  C   UNL     1     -11.152  13.424  66.581  1.00  0.00    -0.295 A  
HETATM   25  O   UNL     1      -9.182  16.428  68.512  1.00  0.00    -0.210 OA 
HETATM   26  C   UNL     1     -11.916  14.492  67.044  1.00  0.00    -0.371 A  
HETATM   27  C   UNL     1      -9.928  15.497  67.875  1.00  0.00    -0.218 A  
HETATM   28  C   UNL     1      -9.128  14.450  67.439  1.00  0.00    -0.202 A  
HETATM   29  C   UNL     1     -11.310  15.557  67.717  1.00  0.00    -0.286 A  
HETATM   30  C   UNL     1      -9.773  13.366  66.809  1.00  0.00    -0.262 A  
BRANCH  23  31
HETATM   31  C   UNL     1      -7.010  16.814  69.411  1.00  0.00    -0.176 C  
BRANCH  31  32
HETATM   32  C   UNL     1      -6.229  17.963  68.774  1.00  0.00    -0.205 C  
BRANCH  32  33
HETATM   33  C   UNL     1      -7.025  19.259  69.004  1.00  0.00    -0.381 C  
HETATM   34  C   UNL     1      -7.317  20.045  67.738  1.00  0.00    -0.329 C  
ENDBRANCH  32  33
ENDBRANCH  31  32
ENDBRANCH  23  31
BRANCH  24  35
HETATM   35  N   UNL     1     -11.763  12.350  65.870  1.00  0.00    -0.412 N  
HETATM   36  H   UNL     1     -11.882  11.434  66.303  1.00  0.00     0.000 HD 
BRANCH  35  37
HETATM   37  S   UNL     1     -12.283  12.638  64.289  1.00  0.00    -0.460 S  
HETATM   38  C   UNL     1     -10.900  12.021  63.352  1.00  0.00    -0.405 C  
HETATM   39  O   UNL     1     -13.454  11.843  64.000  1.00  0.00    -0.600 OA 
HETATM   40  O   UNL     1     -12.299  14.080  64.149  1.00  0.00    -0.620 OA 
ENDBRANCH  35  37
ENDBRANCH  24  35
ENDBRANCH  20  22
ENDBRANCH  17  20
ENDBRANCH  13  14
ENDBRANCH  12  13
ENDBRANCH  11  12
ENDBRANCH  10  11
ENDBRANCH   5  10
ENDBRANCH   4   5
ENDBRANCH   3   4
ENDBRANCH   2   3
TORSDOF 18
ENDMDL
MODEL      110
REMARK 921   NORMALIZED FREE ENERGY PREDICTED BY IDOCK:   -4.46 KCAL/MOL
REMARK 922        TOTAL FREE ENERGY PREDICTED BY IDOCK:  -11.88 KCAL/MOL
REMARK 923 INTER-LIGAND FREE ENERGY PREDICTED BY IDOCK:   -8.57 KCAL/MOL
REMARK 924 INTRA-LIGAND FREE ENERGY PREDICTED BY IDOCK:   -3.31 KCAL/MOL
REMARK 927      BINDING AFFINITY PREDICTED BY RF-SCORE:    0.00 PKD
ROOT
HETATM    1  C   UNL     1      -7.573  17.064  66.305  1.00  0.00    -0.340 C  
HETATM    2  C   UNL     1      -8.281  15.800  66.777  1.00  0.00    -0.302 C  
ENDROOT
BRANCH   2   3
HETATM    3  C   UNL     1      -9.333  15.370  65.756  1.00  0.00    -0.265 C  
BRANCH   3   4
HETATM    4  C   UNL     1     -10.725  15.099  66.348  1.00  0.00    -0.317 C  
BRANCH   4   5
HETATM    5  N   UNL     1     -11.576  14.066  65.706  1.00  0.00    -0.330 NA 
BRANCH   5   6
HETATM    6  C   UNL     1     -10.833  13.351  64.642  1.00  0.00    -0.392 C  
BRANCH   6   7
HETATM    7  C   UNL     1     -10.735  11.818  64.771  1.00  0.00    -0.355 C  
BRANCH   7   8
HETATM    8  C   UNL     1      -9.316  11.260  64.645  1.00  0.00    -0.156 C  
HETATM    9  C   UNL     1      -9.209  10.323  63.448  1.00  0.00    -0.321 C  
ENDBRANCH   7   8
ENDBRANCH   6   7
ENDBRANCH   5   6
BRANCH   5  10
HETATM   10  C   UNL     1     -12.056  13.114  66.741  1.00  0.00    -0.327 C  
BRANCH  10  11
HETATM   11  C   UNL     1     -11.437  13.295  68.134  1.00  0.00    -0.347 C  
BRANCH  11  12
HETATM   12  C   UNL     1     -11.792  12.128  69.050  1.00  0.00    -0.306 C  
BRANCH  12  13
HETATM   13  O   UNL     1     -10.597  11.447  69.440  1.00  0.00    -0.168 OA 
BRANCH  13  14
HETATM   14  C   UNL     1     -10.167  10.463  68.589  1.00  0.00    -0.181 A  
HETATM   15  C   UNL     1     -10.980   9.665  67.778  1.00  0.00    -0.203 A  
HETATM   16  C   UNL     1     -10.423   8.633  67.009  1.00  0.00    -0.354 A  
HETATM   17  C   UNL     1      -9.043   8.395  67.037  1.00  0.00    -0.171 A  
HETATM   18  C   UNL     1      -8.221   9.262  67.767  1.00  0.00    -0.115 A  
HETATM   19  C   UNL     1      -8.786  10.264  68.566  1.00  0.00    -0.127 A  
BRANCH  17  20
HETATM   20  C   UNL     1      -8.496   7.198  66.320  1.00  0.00    -0.138 C  
HETATM   21  O   UNL     1      -7.845   7.380  65.294  1.00  0.00    -0.105 OA 
BRANCH  20  22
HETATM   22  C   UNL     1      -8.793   5.860  66.837  1.00  0.00    -0.115 A  
HETATM   23  C   UNL     1      -9.075   4.736  66.062  1.00  0.00    -0.133 A  
HETATM   24  C   UNL     1      -9.108   5.243  70.620  1.00  0.00    -0.142 A  
HETATM   25  O   UNL     1      -9.286   3.654  66.868  1.00  0.00    -0.173 OA 
HETATM   26  C   UNL     1      -9.390   3.883  70.516  1.00  0.00    -0.224 A  
HETATM   27  C   UNL     1      -9.235   4.075  68.152  1.00  0.00    -0.153 A  
HETATM   28  C   UNL     1      -8.959   5.434  68.206  1.00  0.00    -0.112 A  
HETATM   29  C   UNL     1      -9.470   3.270  69.263  1.00  0.00    -0.199 A  
HETATM   30  C   UNL     1      -8.936   6.037  69.480  1.00  0.00    -0.131 A  
BRANCH  23  31
HETATM   31  C   UNL     1      -9.344   4.446  64.623  1.00  0.00    -0.150 C  
BRANCH  31  32
HETATM   32  C   UNL     1     -10.737   3.950  64.237  1.00  0.00    -0.218 C  
BRANCH  32  33
HETATM   33  C   UNL     1     -10.569   2.648  63.435  1.00  0.00    -0.217 C  
HETATM   34  C   UNL     1      -9.360   2.630  62.518  1.00  0.00    -0.090 C  
ENDBRANCH  32  33
ENDBRANCH  31  32
ENDBRANCH  23  31
BRANCH  24  35
HETATM   35  N   UNL     1      -8.998   5.867  71.897  1.00  0.00    -0.138 N  
HETATM   36  H   UNL     1      -8.180   5.714  72.487  1.00  0.00     0.000 HD 
BRANCH  35  37
HETATM   37  S   UNL     1     -10.262   6.865  72.405  1.00  0.00    -0.191 S  
HETATM   38  C   UNL     1     -10.155   6.687  74.173  1.00  0.00    -0.364 C  
HETATM   39  O   UNL     1      -9.988   8.236  72.041  1.00  0.00    -0.208 OA 
HETATM   40  O   UNL     1     -11.473   6.200  71.971  1.00  0.00    -0.290 OA 
ENDBRANCH  35  37
ENDBRANCH  24  35
ENDBRANCH  20  22
ENDBRANCH  17  20
ENDBRANCH  13  14
ENDBRANCH  12  13
ENDBRANCH  11  12
ENDBRANCH  10  11
ENDBRANCH   5  10
ENDBRANCH   4   5
ENDBRANCH   3   4
ENDBRANCH   2   3
TORSDOF 18
ENDMDL
MODEL      111
REMARK 921   NORMALIZED FREE ENERGY PREDICTED BY IDOCK:   -4.46 KCAL/MOL
REMARK 922        TOTAL FREE ENERGY PREDICTED BY IDOCK:  -11.87 KCAL/MOL
REMARK 923 INTER-LIGAND FREE ENERGY PREDICTED BY IDOCK:   -9.47 KCAL/MOL
REMARK 924 INTRA-LIGAND FREE ENERGY PREDICTED BY IDOCK:   -2.40 KCAL/MOL
REMARK 927      BINDING AFFINITY PREDICTED BY RF-SCORE:    0.00 PKD
ROOT
HETATM    1  C   UNL     1      -5.701  16.432  70.153  1.00  0.00    -0.187 C  
HETATM    2  C   UNL     1      -6.374  15.463  69.189  1.00  0.00    -0.117 C  
ENDROOT
BRANCH   2   3
HETATM    3  C   UNL     1      -7.872  15.380  69.481  1.00  0.00    -0.204 C  
BRANCH   3   4
HETATM    4  C   UNL     1      -8.775  15.675  68.274  1.00  0.00    -0.174 C  
BRANCH   4   5
HETATM    5  N   UNL     1      -9.763  16.778  68.383  1.00  0.00    -0.238 NA 
BRANCH   5   6
HETATM    6  C   UNL     1      -9.384  17.918  67.516  1.00  0.00    -0.253 C  
BRANCH   6   7
HETATM    7  C   UNL     1     -10.331  18.247  66.345  1.00  0.00    -0.418 C  
BRANCH   7   8
HETATM    8  C   UNL     1     -10.475  19.741  66.046  1.00  0.00    -0.609 C  
HETATM    9  C   UNL     1      -9.497  20.555  66.883  1.00  0.00    -0.475 C  
ENDBRANCH   7   8
ENDBRANCH   6   7
ENDBRANCH   5   6
BRANCH   5  10
HETATM   10  C   UNL     1     -11.110  16.269  68.021  1.00  0.00    -0.299 C  
BRANCH  10  11
HETATM   11  C   UNL     1     -11.384  14.808  68.410  1.00  0.00    -0.317 C  
BRANCH  11  12
HETATM   12  C   UNL     1     -12.009  14.039  67.251  1.00  0.00    -0.413 C  
BRANCH  12  13
HETATM   13  O   UNL     1     -11.047  13.888  66.204  1.00  0.00    -0.296 OA 
BRANCH  13  14
HETATM   14  C   UNL     1     -10.434  12.665  66.128  1.00  0.00    -0.258 A  
HETATM   15  C   UNL     1     -10.926  11.540  65.460  1.00  0.00    -0.290 A  
HETATM   16  C   UNL     1     -10.242  10.318  65.525  1.00  0.00    -0.308 A  
HETATM   17  C   UNL     1      -9.050  10.212  66.253  1.00  0.00    -0.180 A  
HETATM   18  C   UNL     1      -8.507  11.365  66.833  1.00  0.00    -0.157 A  
HETATM   19  C   UNL     1      -9.215  12.572  66.801  1.00  0.00    -0.217 A  
BRANCH  17  20
HETATM   20  C   UNL     1      -8.418   8.864  66.425  1.00  0.00    -0.117 C  
HETATM   21  O   UNL     1      -7.304   8.676  65.944  1.00  0.00    -0.082 OA 
BRANCH  20  22
HETATM   22  C   UNL     1      -9.165   7.809  67.113  1.00  0.00    -0.174 A  
HETATM   23  C   UNL     1      -9.331   6.502  66.656  1.00  0.00    -0.158 A  
HETATM   24  C   UNL     1     -11.109   8.569  70.344  1.00  0.00    -0.231 A  
HETATM   25  O   UNL     1     -10.067   5.782  67.554  1.00  0.00    -0.142 OA 
HETATM   26  C   UNL     1     -11.595   7.277  70.522  1.00  0.00    -0.292 A  
HETATM   27  C   UNL     1     -10.457   6.622  68.540  1.00  0.00    -0.213 A  
HETATM   28  C   UNL     1      -9.957   7.897  68.317  1.00  0.00    -0.204 A  
HETATM   29  C   UNL     1     -11.282   6.269  69.605  1.00  0.00    -0.506 A  
HETATM   30  C   UNL     1     -10.331   8.905  69.230  1.00  0.00    -0.221 A  
BRANCH  23  31
HETATM   31  C   UNL     1      -9.045   5.743  65.403  1.00  0.00     0.012 C  
BRANCH  31  32
HETATM   32  C   UNL     1      -8.063   4.574  65.480  1.00  0.00    -0.109 C  
BRANCH  32  33
HETATM   33  C   UNL     1      -8.793   3.312  64.988  1.00  0.00    -0.128 C  
HETATM   34  C   UNL     1     -10.115   3.586  64.294  1.00  0.00    -0.196 C  
ENDBRANCH  32  33
ENDBRANCH  31  32
ENDBRANCH  23  31
BRANCH  24  35
HETATM   35  N   UNL     1     -11.403   9.592  71.292  1.00  0.00    -0.372 N  
HETATM   36  H   UNL     1     -10.660  10.040  71.829  1.00  0.00     0.000 HD 
BRANCH  35  37
HETATM   37  S   UNL     1     -13.017  10.042  71.500  1.00  0.00    -0.465 S  
HETATM   38  C   UNL     1     -12.846  11.761  71.930  1.00  0.00    -0.232 C  
HETATM   39  O   UNL     1     -13.729   9.928  70.248  1.00  0.00     0.214 OA 
HETATM   40  O   UNL     1     -13.462   9.337  72.684  1.00  0.00    -0.444 OA 
ENDBRANCH  35  37
ENDBRANCH  24  35
ENDBRANCH  20  22
ENDBRANCH  17  20
ENDBRANCH  13  14
ENDBRANCH  12  13
ENDBRANCH  11  12
ENDBRANCH  10  11
ENDBRANCH   5  10
ENDBRANCH   4   5
ENDBRANCH   3   4
ENDBRANCH   2   3
TORSDOF 18
ENDMDL
MODEL      112
REMARK 921   NORMALIZED FREE ENERGY PREDICTED BY IDOCK:   -4.45 KCAL/MOL
REMARK 922        TOTAL FREE ENERGY PREDICTED BY IDOCK:  -11.85 KCAL/MOL
REMARK 923 INTER-LIGAND FREE ENERGY PREDICTED BY IDOCK:   -9.25 KCAL/MOL
REMARK 924 INTRA-LIGAND FREE ENERGY PREDICTED BY IDOCK:   -2.61 KCAL/MOL
REMARK 927      BINDING AFFINITY PREDICTED BY RF-SCORE:    0.00 PKD
ROOT
HETATM    1  C   UNL     1     -10.807  11.956  64.781  1.00  0.00    -0.359 C  
HETATM    2  C   UNL     1     -10.308  13.022  65.748  1.00  0.00    -0.296 C  
ENDROOT
BRANCH   2   3
HETATM    3  C   UNL     1     -11.195  14.264  65.671  1.00  0.00    -0.314 C  
BRANCH   3   4
HETATM    4  C   UNL     1     -10.835  15.370  66.675  1.00  0.00    -0.302 C  
BRANCH   4   5
HETATM    5  N   UNL     1      -9.533  16.066  66.522  1.00  0.00    -0.251 NA 
BRANCH   5   6
HETATM    6  C   UNL     1      -9.727  17.524  66.346  1.00  0.00    -0.288 C  
BRANCH   6   7
HETATM    7  C   UNL     1     -10.580  18.246  67.408  1.00  0.00    -0.425 C  
BRANCH   7   8
HETATM    8  C   UNL     1     -10.065  19.632  67.801  1.00  0.00    -0.538 C  
HETATM    9  C   UNL     1      -9.164  20.201  66.711  1.00  0.00    -0.487 C  
ENDBRANCH   7   8
ENDBRANCH   6   7
ENDBRANCH   5   6
BRANCH   5  10
HETATM   10  C   UNL     1      -8.686  15.789  67.710  1.00  0.00    -0.170 C  
BRANCH  10  11
HETATM   11  C   UNL     1      -7.289  15.230  67.404  1.00  0.00    -0.241 C  
BRANCH  11  12
HETATM   12  C   UNL     1      -6.716  14.491  68.608  1.00  0.00    -0.088 C  
BRANCH  12  13
HETATM   13  O   UNL     1      -6.254  13.200  68.201  1.00  0.00    -0.082 OA 
BRANCH  13  14
HETATM   14  C   UNL     1      -6.968  12.133  68.680  1.00  0.00    -0.097 A  
HETATM   15  C   UNL     1      -8.319  11.873  68.436  1.00  0.00    -0.157 A  
HETATM   16  C   UNL     1      -8.957  10.788  69.053  1.00  0.00    -0.141 A  
HETATM   17  C   UNL     1      -8.244   9.944  69.914  1.00  0.00    -0.199 A  
HETATM   18  C   UNL     1      -6.868  10.145  70.073  1.00  0.00    -0.137 A  
HETATM   19  C   UNL     1      -6.245  11.255  69.488  1.00  0.00    -0.099 A  
BRANCH  17  20
HETATM   20  C   UNL     1      -8.983   8.881  70.670  1.00  0.00    -0.199 C  
HETATM   21  O   UNL     1      -8.874   8.852  71.893  1.00  0.00    -0.342 OA 
BRANCH  20  22
HETATM   22  C   UNL     1      -9.767   7.892  69.927  1.00  0.00    -0.176 A  
HETATM   23  C   UNL     1     -10.931   7.272  70.380  1.00  0.00    -0.252 A  
HETATM   24  C   UNL     1      -8.548   6.578  66.524  1.00  0.00    -0.123 A  
HETATM   25  O   UNL     1     -11.409   6.420  69.426  1.00  0.00    -0.394 OA 
HETATM   26  C   UNL     1      -9.620   5.714  66.315  1.00  0.00    -0.166 A  
HETATM   27  C   UNL     1     -10.528   6.408  68.400  1.00  0.00    -0.222 A  
HETATM   28  C   UNL     1      -9.475   7.276  68.654  1.00  0.00    -0.137 A  
HETATM   29  C   UNL     1     -10.637   5.605  67.268  1.00  0.00    -0.328 A  
HETATM   30  C   UNL     1      -8.438   7.327  67.701  1.00  0.00    -0.116 A  
BRANCH  23  31
HETATM   31  C   UNL     1     -11.691   7.191  71.662  1.00  0.00    -0.324 C  
BRANCH  31  32
HETATM   32  C   UNL     1     -12.122   8.498  72.325  1.00  0.00    -0.455 C  
BRANCH  32  33
HETATM   33  C   UNL     1     -12.933   9.305  71.295  1.00  0.00    -0.342 C  
HETATM   34  C   UNL     1     -12.544  10.769  71.202  1.00  0.00    -0.532 C  
ENDBRANCH  32  33
ENDBRANCH  31  32
ENDBRANCH  23  31
BRANCH  24  35
HETATM   35  N   UNL     1      -7.523   6.713  65.542  1.00  0.00    -0.076 N  
HETATM   36  H   UNL     1      -6.896   5.937  65.328  1.00  0.00     0.000 HD 
BRANCH  35  37
HETATM   37  S   UNL     1      -7.378   8.194  64.744  1.00  0.00    -0.094 S  
HETATM   38  C   UNL     1      -6.882   7.665  63.118  1.00  0.00    -0.067 C  
HETATM   39  O   UNL     1      -8.665   8.844  64.667  1.00  0.00    -0.172 OA 
HETATM   40  O   UNL     1      -6.240   8.849  65.357  1.00  0.00    -0.061 OA 
ENDBRANCH  35  37
ENDBRANCH  24  35
ENDBRANCH  20  22
ENDBRANCH  17  20
ENDBRANCH  13  14
ENDBRANCH  12  13
ENDBRANCH  11  12
ENDBRANCH  10  11
ENDBRANCH   5  10
ENDBRANCH   4   5
ENDBRANCH   3   4
ENDBRANCH   2   3
TORSDOF 18
ENDMDL
MODEL      113
REMARK 921   NORMALIZED FREE ENERGY PREDICTED BY IDOCK:   -4.43 KCAL/MOL
REMARK 922        TOTAL FREE ENERGY PREDICTED BY IDOCK:  -11.80 KCAL/MOL
REMARK 923 INTER-LIGAND FREE ENERGY PREDICTED BY IDOCK:   -8.69 KCAL/MOL
REMARK 924 INTRA-LIGAND FREE ENERGY PREDICTED BY IDOCK:   -3.11 KCAL/MOL
REMARK 927      BINDING AFFINITY PREDICTED BY RF-SCORE:    0.00 PKD
ROOT
HETATM    1  C   UNL     1      -9.672   4.693  67.924  1.00  0.00    -0.198 C  
HETATM    2  C   UNL     1      -9.569   4.288  66.459  1.00  0.00    -0.214 C  
ENDROOT
BRANCH   2   3
HETATM    3  C   UNL     1      -8.148   3.826  66.135  1.00  0.00    -0.100 C  
BRANCH   3   4
HETATM    4  C   UNL     1      -7.249   4.908  65.519  1.00  0.00    -0.072 C  
BRANCH   4   5
HETATM    5  N   UNL     1      -6.703   4.682  64.157  1.00  0.00    -0.043 NA 
BRANCH   5   6
HETATM    6  C   UNL     1      -7.265   3.449  63.558  1.00  0.00    -0.050 C  
BRANCH   6   7
HETATM    7  C   UNL     1      -8.376   3.629  62.505  1.00  0.00    -0.076 C  
BRANCH   7   8
HETATM    8  C   UNL     1      -9.550   2.658  62.649  1.00  0.00    -0.092 C  
HETATM    9  C   UNL     1     -10.817   3.400  63.056  1.00  0.00    -0.159 C  
ENDBRANCH   7   8
ENDBRANCH   6   7
ENDBRANCH   5   6
BRANCH   5  10
HETATM   10  C   UNL     1      -7.003   5.861  63.306  1.00  0.00    -0.044 C  
BRANCH  10  11
HETATM   11  C   UNL     1      -6.182   7.121  63.620  1.00  0.00    -0.044 C  
BRANCH  11  12
HETATM   12  C   UNL     1      -6.854   8.370  63.059  1.00  0.00    -0.090 C  
BRANCH  12  13
HETATM   13  O   UNL     1      -8.184   8.469  63.575  1.00  0.00    -0.168 OA 
BRANCH  13  14
HETATM   14  C   UNL     1      -8.288   8.848  64.887  1.00  0.00    -0.172 A  
HETATM   15  C   UNL     1      -8.968   8.153  65.891  1.00  0.00    -0.195 A  
HETATM   16  C   UNL     1      -9.072   8.689  67.183  1.00  0.00    -0.156 A  
HETATM   17  C   UNL     1      -8.485   9.925  67.485  1.00  0.00    -0.115 A  
HETATM   18  C   UNL     1      -7.716  10.567  66.506  1.00  0.00    -0.131 A  
HETATM   19  C   UNL     1      -7.652  10.048  65.207  1.00  0.00    -0.137 A  
BRANCH  17  20
HETATM   20  C   UNL     1      -8.733  10.540  68.829  1.00  0.00    -0.154 C  
HETATM   21  O   UNL     1      -7.766  10.797  69.541  1.00  0.00    -0.139 OA 
BRANCH  20  22
HETATM   22  C   UNL     1     -10.113  10.768  69.265  1.00  0.00    -0.200 A  
HETATM   23  C   UNL     1     -10.952  11.782  68.804  1.00  0.00    -0.234 A  
HETATM   24  C   UNL     1     -11.654   8.657  72.086  1.00  0.00    -0.370 A  
HETATM   25  O   UNL     1     -12.173  11.690  69.409  1.00  0.00    -0.271 OA 
HETATM   26  C   UNL     1     -12.894   9.290  72.073  1.00  0.00    -0.495 A  
HETATM   27  C   UNL     1     -12.111  10.691  70.319  1.00  0.00    -0.338 A  
HETATM   28  C   UNL     1     -10.858  10.095  70.302  1.00  0.00    -0.370 A  
HETATM   29  C   UNL     1     -13.144  10.340  71.185  1.00  0.00    -0.481 A  
HETATM   30  C   UNL     1     -10.617   9.075  71.244  1.00  0.00    -0.378 A  
BRANCH  23  31
HETATM   31  C   UNL     1     -10.820  12.999  67.950  1.00  0.00    -0.260 C  
BRANCH  31  32
HETATM   32  C   UNL     1     -12.028  13.427  67.118  1.00  0.00    -0.415 C  
BRANCH  32  33
HETATM   33  C   UNL     1     -11.711  13.133  65.641  1.00  0.00    -0.402 C  
HETATM   34  C   UNL     1     -11.096  11.767  65.393  1.00  0.00    -0.336 C  
ENDBRANCH  32  33
ENDBRANCH  31  32
ENDBRANCH  23  31
BRANCH  24  35
HETATM   35  N   UNL     1     -11.404   7.567  72.971  1.00  0.00    -0.578 N  
HETATM   36  H   UNL     1     -11.305   7.719  73.975  1.00  0.00     0.000 HD 
BRANCH  35  37
HETATM   37  S   UNL     1     -11.277   6.019  72.309  1.00  0.00    -0.305 S  
HETATM   38  C   UNL     1      -9.513   5.780  72.320  1.00  0.00    -0.144 C  
HETATM   39  O   UNL     1     -11.899   5.053  73.185  1.00  0.00    -0.279 OA 
HETATM   40  O   UNL     1     -11.692   6.158  70.929  1.00  0.00    -0.282 OA 
ENDBRANCH  35  37
ENDBRANCH  24  35
ENDBRANCH  20  22
ENDBRANCH  17  20
ENDBRANCH  13  14
ENDBRANCH  12  13
ENDBRANCH  11  12
ENDBRANCH  10  11
ENDBRANCH   5  10
ENDBRANCH   4   5
ENDBRANCH   3   4
ENDBRANCH   2   3
TORSDOF 18
ENDMDL
MODEL      114
REMARK 921   NORMALIZED FREE ENERGY PREDICTED BY IDOCK:   -4.42 KCAL/MOL
REMARK 922        TOTAL FREE ENERGY PREDICTED BY IDOCK:  -11.78 KCAL/MOL
REMARK 923 INTER-LIGAND FREE ENERGY PREDICTED BY IDOCK:   -9.30 KCAL/MOL
REMARK 924 INTRA-LIGAND FREE ENERGY PREDICTED BY IDOCK:   -2.49 KCAL/MOL
REMARK 927      BINDING AFFINITY PREDICTED BY RF-SCORE:    0.00 PKD
ROOT
HETATM    1  C   UNL     1      -9.467   1.935  70.723  1.00  0.00    -0.188 C  
HETATM    2  C   UNL     1      -8.648   2.849  71.625  1.00  0.00    -0.100 C  
ENDROOT
BRANCH   2   3
HETATM    3  C   UNL     1      -9.553   3.530  72.651  1.00  0.00    -0.190 C  
BRANCH   3   4
HETATM    4  C   UNL     1      -9.744   5.038  72.435  1.00  0.00    -0.151 C  
BRANCH   4   5
HETATM    5  N   UNL     1     -10.667   5.487  71.362  1.00  0.00    -0.243 NA 
BRANCH   5   6
HETATM    6  C   UNL     1     -11.760   6.320  71.915  1.00  0.00    -0.316 C  
BRANCH   6   7
HETATM    7  C   UNL     1     -11.540   7.846  71.916  1.00  0.00    -0.338 C  
BRANCH   7   8
HETATM    8  C   UNL     1     -12.751   8.661  72.372  1.00  0.00    -0.423 C  
HETATM    9  C   UNL     1     -13.044   9.788  71.389  1.00  0.00    -0.489 C  
ENDBRANCH   7   8
ENDBRANCH   6   7
ENDBRANCH   5   6
BRANCH   5  10
HETATM   10  C   UNL     1      -9.900   6.240  70.338  1.00  0.00    -0.176 C  
BRANCH  10  11
HETATM   11  C   UNL     1     -10.023   5.706  68.903  1.00  0.00    -0.222 C  
BRANCH  11  12
HETATM   12  C   UNL     1     -11.149   6.407  68.150  1.00  0.00    -0.263 C  
BRANCH  12  13
HETATM   13  O   UNL     1     -10.605   7.125  67.039  1.00  0.00    -0.297 OA 
BRANCH  13  14
HETATM   14  C   UNL     1     -10.449   8.474  67.220  1.00  0.00    -0.296 A  
HETATM   15  C   UNL     1     -10.804   9.196  68.363  1.00  0.00    -0.098 A  
HETATM   16  C   UNL     1     -10.668  10.591  68.394  1.00  0.00    -0.262 A  
HETATM   17  C   UNL     1     -10.164  11.278  67.282  1.00  0.00    -0.226 A  
HETATM   18  C   UNL     1      -9.712  10.542  66.180  1.00  0.00    -0.259 A  
HETATM   19  C   UNL     1      -9.889   9.154  66.138  1.00  0.00    -0.363 A  
BRANCH  17  20
HETATM   20  C   UNL     1     -10.165  12.777  67.290  1.00  0.00    -0.232 C  
HETATM   21  O   UNL     1     -11.099  13.362  66.748  1.00  0.00    -0.284 OA 
BRANCH  20  22
HETATM   22  C   UNL     1      -9.037  13.487  67.896  1.00  0.00    -0.204 A  
HETATM   23  C   UNL     1      -7.914  12.889  68.467  1.00  0.00    -0.095 A  
HETATM   24  C   UNL     1      -9.098  17.315  68.262  1.00  0.00    -0.262 A  
HETATM   25  O   UNL     1      -7.053  13.848  68.919  1.00  0.00    -0.106 OA 
HETATM   26  C   UNL     1      -7.851  17.417  68.875  1.00  0.00    -0.196 A  
HETATM   27  C   UNL     1      -7.638  15.053  68.734  1.00  0.00    -0.137 A  
HETATM   28  C   UNL     1      -8.878  14.903  68.130  1.00  0.00    -0.174 A  
HETATM   29  C   UNL     1      -7.094  16.271  69.134  1.00  0.00    -0.214 A  
HETATM   30  C   UNL     1      -9.642  16.070  67.927  1.00  0.00    -0.219 A  
BRANCH  23  31
HETATM   31  C   UNL     1      -7.485  11.507  68.834  1.00  0.00    -0.106 C  
BRANCH  31  32
HETATM   32  C   UNL     1      -6.346  10.874  68.037  1.00  0.00    -0.057 C  
BRANCH  32  33
HETATM   33  C   UNL     1      -6.671   9.380  67.856  1.00  0.00    -0.067 C  
HETATM   34  C   UNL     1      -7.174   8.693  69.112  1.00  0.00    -0.064 C  
ENDBRANCH  32  33
ENDBRANCH  31  32
ENDBRANCH  23  31
BRANCH  24  35
HETATM   35  N   UNL     1      -9.860  18.484  67.970  1.00  0.00    -0.325 N  
HETATM   36  H   UNL     1     -10.348  18.990  68.709  1.00  0.00     0.000 HD 
BRANCH  35  37
HETATM   37  S   UNL     1      -9.932  19.005  66.366  1.00  0.00    -0.416 S  
HETATM   38  C   UNL     1      -8.323  19.741  66.168  1.00  0.00    -0.345 C  
HETATM   39  O   UNL     1     -10.054  17.870  65.481  1.00  0.00    -0.530 OA 
HETATM   40  O   UNL     1     -10.907  20.076  66.354  1.00  0.00    -0.364 OA 
ENDBRANCH  35  37
ENDBRANCH  24  35
ENDBRANCH  20  22
ENDBRANCH  17  20
ENDBRANCH  13  14
ENDBRANCH  12  13
ENDBRANCH  11  12
ENDBRANCH  10  11
ENDBRANCH   5  10
ENDBRANCH   4   5
ENDBRANCH   3   4
ENDBRANCH   2   3
TORSDOF 18
ENDMDL
MODEL      115
REMARK 921   NORMALIZED FREE ENERGY PREDICTED BY IDOCK:   -4.39 KCAL/MOL
REMARK 922        TOTAL FREE ENERGY PREDICTED BY IDOCK:  -11.73 KCAL/MOL
REMARK 923 INTER-LIGAND FREE ENERGY PREDICTED BY IDOCK:   -8.83 KCAL/MOL
REMARK 924 INTRA-LIGAND FREE ENERGY PREDICTED BY IDOCK:   -2.91 KCAL/MOL
REMARK 927      BINDING AFFINITY PREDICTED BY RF-SCORE:    0.00 PKD
ROOT
HETATM    1  C   UNL     1     -12.875  11.840  63.704  1.00  0.00    -0.339 C  
HETATM    2  C   UNL     1     -12.122  13.111  63.332  1.00  0.00    -0.558 C  
ENDROOT
BRANCH   2   3
HETATM    3  C   UNL     1     -10.813  13.199  64.116  1.00  0.00    -0.407 C  
BRANCH   3   4
HETATM    4  C   UNL     1     -10.854  14.151  65.322  1.00  0.00    -0.349 C  
BRANCH   4   5
HETATM    5  N   UNL     1     -10.728  13.572  66.683  1.00  0.00    -0.281 NA 
BRANCH   5   6
HETATM    6  C   UNL     1      -9.311  13.299  67.016  1.00  0.00    -0.242 C  
BRANCH   6   7
HETATM    7  C   UNL     1      -8.916  11.823  67.223  1.00  0.00    -0.172 C  
BRANCH   7   8
HETATM    8  C   UNL     1      -9.154  10.926  66.007  1.00  0.00    -0.208 C  
HETATM    9  C   UNL     1      -9.807   9.614  66.424  1.00  0.00    -0.309 C  
ENDBRANCH   7   8
ENDBRANCH   6   7
ENDBRANCH   5   6
BRANCH   5  10
HETATM   10  C   UNL     1     -11.328  14.506  67.670  1.00  0.00    -0.337 C  
BRANCH  10  11
HETATM   11  C   UNL     1     -11.467  13.951  69.096  1.00  0.00    -0.345 C  
BRANCH  11  12
HETATM   12  C   UNL     1     -12.083  12.556  69.086  1.00  0.00    -0.138 C  
BRANCH  12  13
HETATM   13  O   UNL     1     -12.193  12.074  70.428  1.00  0.00    -0.334 OA 
BRANCH  13  14
HETATM   14  C   UNL     1     -12.017  10.725  70.593  1.00  0.00    -0.367 A  
HETATM   15  C   UNL     1     -12.574   9.943  71.609  1.00  0.00    -0.519 A  
HETATM   16  C   UNL     1     -12.250   8.583  71.718  1.00  0.00    -0.388 A  
HETATM   17  C   UNL     1     -11.372   7.989  70.803  1.00  0.00    -0.282 A  
HETATM   18  C   UNL     1     -10.899   8.750  69.727  1.00  0.00    -0.196 A  
HETATM   19  C   UNL     1     -11.191  10.117  69.647  1.00  0.00    -0.310 A  
BRANCH  17  20
HETATM   20  C   UNL     1     -10.932   6.574  71.028  1.00  0.00    -0.265 C  
HETATM   21  O   UNL     1     -11.658   5.836  71.689  1.00  0.00    -0.184 OA 
BRANCH  20  22
HETATM   22  C   UNL     1      -9.639   6.136  70.497  1.00  0.00    -0.192 A  
HETATM   23  C   UNL     1      -8.421   6.195  71.174  1.00  0.00    -0.125 A  
HETATM   24  C   UNL     1      -9.323   4.916  66.864  1.00  0.00    -0.132 A  
HETATM   25  O   UNL     1      -7.425   5.688  70.391  1.00  0.00    -0.076 OA 
HETATM   26  C   UNL     1      -7.955   4.661  66.920  1.00  0.00    -0.102 A  
HETATM   27  C   UNL     1      -7.958   5.384  69.186  1.00  0.00    -0.094 A  
HETATM   28  C   UNL     1      -9.318   5.660  69.173  1.00  0.00    -0.151 A  
HETATM   29  C   UNL     1      -7.237   4.904  68.095  1.00  0.00    -0.062 A  
HETATM   30  C   UNL     1     -10.006   5.455  67.960  1.00  0.00    -0.199 A  
BRANCH  23  31
HETATM   31  C   UNL     1      -7.912   6.789  72.446  1.00  0.00    -0.098 C  
BRANCH  31  32
HETATM   32  C   UNL     1      -7.871   8.312  72.562  1.00  0.00    -0.176 C  
BRANCH  32  33
HETATM   33  C   UNL     1      -6.866   8.838  71.523  1.00  0.00    -0.087 C  
HETATM   34  C   UNL     1      -7.489   9.663  70.412  1.00  0.00    -0.168 C  
ENDBRANCH  32  33
ENDBRANCH  31  32
ENDBRANCH  23  31
BRANCH  24  35
HETATM   35  N   UNL     1     -10.063   4.643  65.677  1.00  0.00    -0.278 N  
HETATM   36  H   UNL     1     -10.884   5.197  65.431  1.00  0.00     0.000 HD 
BRANCH  35  37
HETATM   37  S   UNL     1      -9.542   3.375  64.690  1.00  0.00    -0.159 S  
HETATM   38  C   UNL     1     -10.968   3.136  63.650  1.00  0.00    -0.069 C  
HETATM   39  O   UNL     1      -8.424   3.804  63.882  1.00  0.00    -0.090 OA 
HETATM   40  O   UNL     1      -9.441   2.226  65.565  1.00  0.00    -0.037 OA 
ENDBRANCH  35  37
ENDBRANCH  24  35
ENDBRANCH  20  22
ENDBRANCH  17  20
ENDBRANCH  13  14
ENDBRANCH  12  13
ENDBRANCH  11  12
ENDBRANCH  10  11
ENDBRANCH   5  10
ENDBRANCH   4   5
ENDBRANCH   3   4
ENDBRANCH   2   3
TORSDOF 18
ENDMDL
MODEL      116
REMARK 921   NORMALIZED FREE ENERGY PREDICTED BY IDOCK:   -4.39 KCAL/MOL
REMARK 922        TOTAL FREE ENERGY PREDICTED BY IDOCK:  -11.72 KCAL/MOL
REMARK 923 INTER-LIGAND FREE ENERGY PREDICTED BY IDOCK:   -9.45 KCAL/MOL
REMARK 924 INTRA-LIGAND FREE ENERGY PREDICTED BY IDOCK:   -2.27 KCAL/MOL
REMARK 927      BINDING AFFINITY PREDICTED BY RF-SCORE:    0.00 PKD
ROOT
HETATM    1  C   UNL     1     -10.283  19.792  68.337  1.00  0.00    -0.568 C  
HETATM    2  C   UNL     1     -10.042  20.300  66.921  1.00  0.00    -0.565 C  
ENDROOT
BRANCH   2   3
HETATM    3  C   UNL     1     -10.526  19.272  65.899  1.00  0.00    -0.534 C  
BRANCH   3   4
HETATM    4  C   UNL     1     -10.440  17.813  66.371  1.00  0.00    -0.297 C  
BRANCH   4   5
HETATM    5  N   UNL     1      -9.770  16.823  65.490  1.00  0.00    -0.515 NA 
BRANCH   5   6
HETATM    6  C   UNL     1      -8.495  16.360  66.084  1.00  0.00    -0.294 C  
BRANCH   6   7
HETATM    7  C   UNL     1      -7.541  17.446  66.620  1.00  0.00    -0.291 C  
BRANCH   7   8
HETATM    8  C   UNL     1      -7.387  17.459  68.143  1.00  0.00    -0.205 C  
HETATM    9  C   UNL     1      -5.983  17.902  68.538  1.00  0.00    -0.183 C  
ENDBRANCH   7   8
ENDBRANCH   6   7
ENDBRANCH   5   6
BRANCH   5  10
HETATM   10  C   UNL     1     -10.685  15.678  65.254  1.00  0.00    -0.425 C  
BRANCH  10  11
HETATM   11  C   UNL     1     -11.395  15.138  66.504  1.00  0.00    -0.234 C  
BRANCH  11  12
HETATM   12  C   UNL     1     -11.667  13.643  66.380  1.00  0.00    -0.373 C  
BRANCH  12  13
HETATM   13  O   UNL     1     -10.434  12.949  66.171  1.00  0.00    -0.262 OA 
BRANCH  13  14
HETATM   14  C   UNL     1     -10.460  11.600  66.409  1.00  0.00    -0.244 A  
HETATM   15  C   UNL     1     -10.980  10.978  67.547  1.00  0.00    -0.338 A  
HETATM   16  C   UNL     1     -10.873   9.589  67.710  1.00  0.00    -0.258 A  
HETATM   17  C   UNL     1     -10.253   8.807  66.727  1.00  0.00    -0.354 A  
HETATM   18  C   UNL     1      -9.828   9.420  65.543  1.00  0.00    -0.231 A  
HETATM   19  C   UNL     1      -9.899  10.812  65.404  1.00  0.00    -0.317 A  
BRANCH  17  20
HETATM   20  C   UNL     1     -10.025   7.350  66.992  1.00  0.00    -0.231 C  
HETATM   21  O   UNL     1     -10.914   6.556  66.694  1.00  0.00    -0.293 OA 
BRANCH  20  22
HETATM   22  C   UNL     1      -8.779   6.928  67.637  1.00  0.00    -0.120 A  
HETATM   23  C   UNL     1      -7.525   6.884  67.028  1.00  0.00    -0.087 A  
HETATM   24  C   UNL     1      -8.795   5.562  71.232  1.00  0.00    -0.135 A  
HETATM   25  O   UNL     1      -6.585   6.462  67.924  1.00  0.00    -0.056 OA 
HETATM   26  C   UNL     1      -7.423   5.330  71.300  1.00  0.00    -0.091 A  
HETATM   27  C   UNL     1      -7.220   6.146  69.075  1.00  0.00    -0.083 A  
HETATM   28  C   UNL     1      -8.582   6.385  68.960  1.00  0.00    -0.124 A  
HETATM   29  C   UNL     1      -6.603   5.612  70.204  1.00  0.00    -0.043 A  
HETATM   30  C   UNL     1      -9.392   6.043  70.062  1.00  0.00    -0.170 A  
BRANCH  23  31
HETATM   31  C   UNL     1      -6.981   7.035  65.647  1.00  0.00    -0.056 C  
BRANCH  31  32
HETATM   32  C   UNL     1      -6.270   8.340  65.293  1.00  0.00    -0.045 C  
BRANCH  32  33
HETATM   33  C   UNL     1      -6.691   8.736  63.867  1.00  0.00    -0.087 C  
HETATM   34  C   UNL     1      -7.521   7.689  63.147  1.00  0.00    -0.112 C  
ENDBRANCH  32  33
ENDBRANCH  31  32
ENDBRANCH  23  31
BRANCH  24  35
HETATM   35  N   UNL     1      -9.631   5.302  72.357  1.00  0.00    -0.150 N  
HETATM   36  H   UNL     1      -9.758   4.353  72.709  1.00  0.00     0.000 HD 
BRANCH  35  37
HETATM   37  S   UNL     1     -10.404   6.612  73.091  1.00  0.00    -0.258 S  
HETATM   38  C   UNL     1      -9.273   7.936  72.720  1.00  0.00    -0.221 C  
HETATM   39  O   UNL     1     -11.671   6.866  72.444  1.00  0.00    -0.270 OA 
HETATM   40  O   UNL     1     -10.326   6.355  74.514  1.00  0.00    -0.329 OA 
ENDBRANCH  35  37
ENDBRANCH  24  35
ENDBRANCH  20  22
ENDBRANCH  17  20
ENDBRANCH  13  14
ENDBRANCH  12  13
ENDBRANCH  11  12
ENDBRANCH  10  11
ENDBRANCH   5  10
ENDBRANCH   4   5
ENDBRANCH   3   4
ENDBRANCH   2   3
TORSDOF 18
ENDMDL
MODEL      117
REMARK 921   NORMALIZED FREE ENERGY PREDICTED BY IDOCK:   -4.38 KCAL/MOL
REMARK 922        TOTAL FREE ENERGY PREDICTED BY IDOCK:  -11.70 KCAL/MOL
REMARK 923 INTER-LIGAND FREE ENERGY PREDICTED BY IDOCK:  -10.39 KCAL/MOL
REMARK 924 INTRA-LIGAND FREE ENERGY PREDICTED BY IDOCK:   -1.31 KCAL/MOL
REMARK 927      BINDING AFFINITY PREDICTED BY RF-SCORE:    0.00 PKD
ROOT
HETATM    1  C   UNL     1     -10.212  19.876  68.632  1.00  0.00    -0.494 C  
HETATM    2  C   UNL     1     -10.069  20.294  67.174  1.00  0.00    -0.556 C  
ENDROOT
BRANCH   2   3
HETATM    3  C   UNL     1     -10.615  19.201  66.255  1.00  0.00    -0.521 C  
BRANCH   3   4
HETATM    4  C   UNL     1     -10.183  17.776  66.631  1.00  0.00    -0.361 C  
BRANCH   4   5
HETATM    5  N   UNL     1      -9.104  17.133  65.838  1.00  0.00    -0.531 NA 
BRANCH   5   6
HETATM    6  C   UNL     1      -7.801  17.228  66.538  1.00  0.00    -0.287 C  
BRANCH   6   7
HETATM    7  C   UNL     1      -6.724  18.117  65.887  1.00  0.00    -0.327 C  
BRANCH   7   8
HETATM    8  C   UNL     1      -6.736  19.574  66.353  1.00  0.00    -0.201 C  
HETATM    9  C   UNL     1      -6.542  19.658  67.862  1.00  0.00    -0.270 C  
ENDBRANCH   7   8
ENDBRANCH   6   7
ENDBRANCH   5   6
BRANCH   5  10
HETATM   10  C   UNL     1      -9.460  15.714  65.585  1.00  0.00    -0.237 C  
BRANCH  10  11
HETATM   11  C   UNL     1     -10.847  15.487  64.965  1.00  0.00    -0.468 C  
BRANCH  11  12
HETATM   12  C   UNL     1     -11.557  14.308  65.621  1.00  0.00    -0.346 C  
BRANCH  12  13
HETATM   13  O   UNL     1     -10.773  13.828  66.716  1.00  0.00    -0.275 OA 
BRANCH  13  14
HETATM   14  C   UNL     1     -10.765  12.470  66.895  1.00  0.00    -0.243 A  
HETATM   15  C   UNL     1     -11.654  11.741  67.691  1.00  0.00    -0.364 A  
HETATM   16  C   UNL     1     -11.490  10.359  67.857  1.00  0.00    -0.117 A  
HETATM   17  C   UNL     1     -10.439   9.689  67.219  1.00  0.00    -0.323 A  
HETATM   18  C   UNL     1      -9.615  10.403  66.341  1.00  0.00    -0.225 A  
HETATM   19  C   UNL     1      -9.757  11.790  66.211  1.00  0.00    -0.242 A  
BRANCH  17  20
HETATM   20  C   UNL     1     -10.203   8.241  67.529  1.00  0.00    -0.243 C  
HETATM   21  O   UNL     1     -10.788   7.397  66.856  1.00  0.00    -0.357 OA 
BRANCH  20  22
HETATM   22  C   UNL     1      -9.325   7.885  68.647  1.00  0.00    -0.145 A  
HETATM   23  C   UNL     1      -7.991   7.492  68.538  1.00  0.00    -0.123 A  
HETATM   24  C   UNL     1     -10.691   7.721  72.238  1.00  0.00    -0.269 A  
HETATM   25  O   UNL     1      -7.472   7.253  69.778  1.00  0.00    -0.088 OA 
HETATM   26  C   UNL     1      -9.487   7.347  72.829  1.00  0.00    -0.207 A  
HETATM   27  C   UNL     1      -8.468   7.396  70.681  1.00  0.00    -0.136 A  
HETATM   28  C   UNL     1      -9.649   7.760  70.048  1.00  0.00    -0.161 A  
HETATM   29  C   UNL     1      -8.341   7.165  72.048  1.00  0.00    -0.111 A  
HETATM   30  C   UNL     1     -10.799   7.886  70.852  1.00  0.00    -0.245 A  
BRANCH  23  31
HETATM   31  C   UNL     1      -7.050   7.134  67.437  1.00  0.00    -0.084 C  
BRANCH  31  32
HETATM   32  C   UNL     1      -7.582   6.284  66.284  1.00  0.00    -0.090 C  
BRANCH  32  33
HETATM   33  C   UNL     1      -6.560   6.352  65.136  1.00  0.00    -0.039 C  
HETATM   34  C   UNL     1      -7.141   6.801  63.808  1.00  0.00    -0.060 C  
ENDBRANCH  32  33
ENDBRANCH  31  32
ENDBRANCH  23  31
BRANCH  24  35
HETATM   35  N   UNL     1     -11.854   7.934  73.034  1.00  0.00    -0.572 N  
HETATM   36  H   UNL     1     -11.919   7.558  73.980  1.00  0.00     0.000 HD 
BRANCH  35  37
HETATM   37  S   UNL     1     -13.121   8.829  72.366  1.00  0.00    -0.344 S  
HETATM   38  C   UNL     1     -13.815   7.650  71.226  1.00  0.00    -0.244 C  
HETATM   39  O   UNL     1     -14.096   9.145  73.384  1.00  0.00    -0.118 OA 
HETATM   40  O   UNL     1     -12.484   9.870  71.585  1.00  0.00    -0.366 OA 
ENDBRANCH  35  37
ENDBRANCH  24  35
ENDBRANCH  20  22
ENDBRANCH  17  20
ENDBRANCH  13  14
ENDBRANCH  12  13
ENDBRANCH  11  12
ENDBRANCH  10  11
ENDBRANCH   5  10
ENDBRANCH   4   5
ENDBRANCH   3   4
ENDBRANCH   2   3
TORSDOF 18
ENDMDL
MODEL      118
REMARK 921   NORMALIZED FREE ENERGY PREDICTED BY IDOCK:   -4.37 KCAL/MOL
REMARK 922        TOTAL FREE ENERGY PREDICTED BY IDOCK:  -11.69 KCAL/MOL
REMARK 923 INTER-LIGAND FREE ENERGY PREDICTED BY IDOCK:   -9.79 KCAL/MOL
REMARK 924 INTRA-LIGAND FREE ENERGY PREDICTED BY IDOCK:   -1.90 KCAL/MOL
REMARK 927      BINDING AFFINITY PREDICTED BY RF-SCORE:    0.00 PKD
ROOT
HETATM    1  C   UNL     1     -13.506  10.464  71.884  1.00  0.00    -0.384 C  
HETATM    2  C   UNL     1     -12.823   9.128  72.145  1.00  0.00    -0.486 C  
ENDROOT
BRANCH   2   3
HETATM    3  C   UNL     1     -11.779   8.847  71.065  1.00  0.00    -0.340 C  
BRANCH   3   4
HETATM    4  C   UNL     1     -10.614   7.955  71.519  1.00  0.00    -0.222 C  
BRANCH   4   5
HETATM    5  N   UNL     1     -10.040   6.991  70.546  1.00  0.00    -0.191 NA 
BRANCH   5   6
HETATM    6  C   UNL     1     -10.387   7.371  69.156  1.00  0.00    -0.208 C  
BRANCH   6   7
HETATM    7  C   UNL     1     -11.356   6.440  68.401  1.00  0.00    -0.145 C  
BRANCH   7   8
HETATM    8  C   UNL     1     -11.013   6.230  66.925  1.00  0.00    -0.404 C  
HETATM    9  C   UNL     1      -9.947   5.153  66.767  1.00  0.00    -0.231 C  
ENDBRANCH   7   8
ENDBRANCH   6   7
ENDBRANCH   5   6
BRANCH   5  10
HETATM   10  C   UNL     1      -8.567   6.935  70.722  1.00  0.00    -0.144 C  
BRANCH  10  11
HETATM   11  C   UNL     1      -8.011   7.790  71.870  1.00  0.00    -0.116 C  
BRANCH  11  12
HETATM   12  C   UNL     1      -7.174   8.948  71.339  1.00  0.00    -0.078 C  
BRANCH  12  13
HETATM   13  O   UNL     1      -7.267   8.988  69.912  1.00  0.00    -0.052 OA 
BRANCH  13  14
HETATM   14  C   UNL     1      -7.643  10.189  69.372  1.00  0.00    -0.133 A  
HETATM   15  C   UNL     1      -8.945  10.561  69.023  1.00  0.00    -0.183 A  
HETATM   16  C   UNL     1      -9.190  11.793  68.400  1.00  0.00    -0.175 A  
HETATM   17  C   UNL     1      -8.134  12.672  68.129  1.00  0.00    -0.164 A  
HETATM   18  C   UNL     1      -6.848  12.342  68.575  1.00  0.00    -0.082 A  
HETATM   19  C   UNL     1      -6.602  11.093  69.158  1.00  0.00    -0.085 A  
BRANCH  17  20
HETATM   20  C   UNL     1      -8.404  13.914  67.335  1.00  0.00    -0.198 C  
HETATM   21  O   UNL     1      -7.582  14.825  67.379  1.00  0.00    -0.183 OA 
BRANCH  20  22
HETATM   22  C   UNL     1      -9.654  14.018  66.578  1.00  0.00    -0.307 A  
HETATM   23  C   UNL     1     -10.620  15.011  66.738  1.00  0.00    -0.301 A  
HETATM   24  C   UNL     1     -10.654  11.288  64.061  1.00  0.00    -0.386 A  
HETATM   25  O   UNL     1     -11.644  14.812  65.858  1.00  0.00    -0.348 OA 
HETATM   26  C   UNL     1     -11.856  11.880  63.682  1.00  0.00    -0.573 A  
HETATM   27  C   UNL     1     -11.404  13.660  65.193  1.00  0.00    -0.309 A  
HETATM   28  C   UNL     1     -10.203  13.102  65.607  1.00  0.00    -0.294 A  
HETATM   29  C   UNL     1     -12.263  13.088  64.257  1.00  0.00    -0.464 A  
HETATM   30  C   UNL     1      -9.843  11.859  65.048  1.00  0.00    -0.234 A  
BRANCH  23  31
HETATM   31  C   UNL     1     -10.887  16.123  67.696  1.00  0.00    -0.297 C  
BRANCH  31  32
HETATM   32  C   UNL     1     -10.171  17.454  67.471  1.00  0.00    -0.332 C  
BRANCH  32  33
HETATM   33  C   UNL     1     -10.466  17.910  66.031  1.00  0.00    -0.293 C  
HETATM   34  C   UNL     1     -10.498  19.417  65.848  1.00  0.00    -0.561 C  
ENDBRANCH  32  33
ENDBRANCH  31  32
ENDBRANCH  23  31
BRANCH  24  35
HETATM   35  N   UNL     1     -10.223  10.071  63.456  1.00  0.00    -0.293 N  
HETATM   36  H   UNL     1     -10.891   9.438  63.015  1.00  0.00     0.000 HD 
BRANCH  35  37
HETATM   37  S   UNL     1      -8.574   9.707  63.491  1.00  0.00    -0.224 S  
HETATM   38  C   UNL     1      -8.498   8.329  62.366  1.00  0.00    -0.126 C  
HETATM   39  O   UNL     1      -7.812  10.810  62.953  1.00  0.00    -0.099 OA 
HETATM   40  O   UNL     1      -8.323   9.199  64.823  1.00  0.00    -0.150 OA 
ENDBRANCH  35  37
ENDBRANCH  24  35
ENDBRANCH  20  22
ENDBRANCH  17  20
ENDBRANCH  13  14
ENDBRANCH  12  13
ENDBRANCH  11  12
ENDBRANCH  10  11
ENDBRANCH   5  10
ENDBRANCH   4   5
ENDBRANCH   3   4
ENDBRANCH   2   3
TORSDOF 18
ENDMDL
MODEL      119
REMARK 921   NORMALIZED FREE ENERGY PREDICTED BY IDOCK:   -4.35 KCAL/MOL
REMARK 922        TOTAL FREE ENERGY PREDICTED BY IDOCK:  -11.66 KCAL/MOL
REMARK 923 INTER-LIGAND FREE ENERGY PREDICTED BY IDOCK:   -8.52 KCAL/MOL
REMARK 924 INTRA-LIGAND FREE ENERGY PREDICTED BY IDOCK:   -3.13 KCAL/MOL
REMARK 927      BINDING AFFINITY PREDICTED BY RF-SCORE:    0.00 PKD
ROOT
HETATM    1  C   UNL     1     -13.111  11.679  71.856  1.00  0.00    -0.490 C  
HETATM    2  C   UNL     1     -13.650  10.320  72.284  1.00  0.00    -0.165 C  
ENDROOT
BRANCH   2   3
HETATM    3  C   UNL     1     -12.966   9.206  71.491  1.00  0.00    -0.409 C  
BRANCH   3   4
HETATM    4  C   UNL     1     -11.754   8.575  72.192  1.00  0.00    -0.378 C  
BRANCH   4   5
HETATM    5  N   UNL     1     -11.618   7.096  72.174  1.00  0.00    -0.272 NA 
BRANCH   5   6
HETATM    6  C   UNL     1     -11.954   6.548  70.840  1.00  0.00    -0.291 C  
BRANCH   6   7
HETATM    7  C   UNL     1     -11.035   6.953  69.669  1.00  0.00    -0.298 C  
BRANCH   7   8
HETATM    8  C   UNL     1     -10.632   5.798  68.751  1.00  0.00    -0.321 C  
HETATM    9  C   UNL     1     -10.667   6.231  67.291  1.00  0.00    -0.424 C  
ENDBRANCH   7   8
ENDBRANCH   6   7
ENDBRANCH   5   6
BRANCH   5  10
HETATM   10  C   UNL     1     -10.232   6.727  72.560  1.00  0.00    -0.179 C  
BRANCH  10  11
HETATM   11  C   UNL     1      -9.422   7.841  73.237  1.00  0.00    -0.344 C  
BRANCH  11  12
HETATM   12  C   UNL     1      -8.231   8.255  72.380  1.00  0.00    -0.155 C  
BRANCH  12  13
HETATM   13  O   UNL     1      -8.163   7.418  71.222  1.00  0.00    -0.104 OA 
BRANCH  13  14
HETATM   14  C   UNL     1      -7.673   8.008  70.087  1.00  0.00    -0.087 A  
HETATM   15  C   UNL     1      -7.714   9.373  69.787  1.00  0.00    -0.110 A  
HETATM   16  C   UNL     1      -7.250   9.844  68.551  1.00  0.00    -0.076 A  
HETATM   17  C   UNL     1      -6.729   8.953  67.604  1.00  0.00    -0.066 A  
HETATM   18  C   UNL     1      -6.593   7.603  67.949  1.00  0.00    -0.059 A  
HETATM   19  C   UNL     1      -7.096   7.131  69.167  1.00  0.00    -0.083 A  
BRANCH  17  20
HETATM   20  C   UNL     1      -6.375   9.464  66.241  1.00  0.00    -0.069 C  
HETATM   21  O   UNL     1      -5.223   9.836  66.038  1.00  0.00    -0.034 OA 
BRANCH  20  22
HETATM   22  C   UNL     1      -7.420   9.546  65.217  1.00  0.00    -0.107 A  
HETATM   23  C   UNL     1      -7.540   8.705  64.111  1.00  0.00    -0.121 A  
HETATM   24  C   UNL     1      -9.995  12.402  65.266  1.00  0.00    -0.215 A  
HETATM   25  O   UNL     1      -8.636   9.054  63.375  1.00  0.00    -0.194 OA 
HETATM   26  C   UNL     1     -10.680  11.992  64.124  1.00  0.00    -0.405 A  
HETATM   27  C   UNL     1      -9.176  10.161  63.932  1.00  0.00    -0.280 A  
HETATM   28  C   UNL     1      -8.458  10.536  65.060  1.00  0.00    -0.166 A  
HETATM   29  C   UNL     1     -10.270  10.855  63.422  1.00  0.00    -0.356 A  
HETATM   30  C   UNL     1      -8.862  11.715  65.718  1.00  0.00    -0.004 A  
BRANCH  23  31
HETATM   31  C   UNL     1      -6.721   7.640  63.460  1.00  0.00    -0.058 C  
BRANCH  31  32
HETATM   32  C   UNL     1      -6.047   6.603  64.358  1.00  0.00    -0.035 C  
BRANCH  32  33
HETATM   33  C   UNL     1      -7.147   5.708  64.953  1.00  0.00    -0.060 C  
HETATM   34  C   UNL     1      -7.724   4.696  63.980  1.00  0.00    -0.077 C  
ENDBRANCH  32  33
ENDBRANCH  31  32
ENDBRANCH  23  31
BRANCH  24  35
HETATM   35  N   UNL     1     -10.427  13.544  66.001  1.00  0.00    -0.293 N  
HETATM   36  H   UNL     1      -9.811  14.346  66.135  1.00  0.00     0.000 HD 
BRANCH  35  37
HETATM   37  S   UNL     1     -11.989  13.531  66.643  1.00  0.00    -0.396 S  
HETATM   38  C   UNL     1     -11.726  14.334  68.211  1.00  0.00    -0.342 C  
HETATM   39  O   UNL     1     -12.867  14.341  65.829  1.00  0.00    -0.460 OA 
HETATM   40  O   UNL     1     -12.282  12.138  66.909  1.00  0.00    -0.537 OA 
ENDBRANCH  35  37
ENDBRANCH  24  35
ENDBRANCH  20  22
ENDBRANCH  17  20
ENDBRANCH  13  14
ENDBRANCH  12  13
ENDBRANCH  11  12
ENDBRANCH  10  11
ENDBRANCH   5  10
ENDBRANCH   4   5
ENDBRANCH   3   4
ENDBRANCH   2   3
TORSDOF 18
ENDMDL
MODEL      120
REMARK 921   NORMALIZED FREE ENERGY PREDICTED BY IDOCK:   -4.33 KCAL/MOL
REMARK 922        TOTAL FREE ENERGY PREDICTED BY IDOCK:  -11.61 KCAL/MOL
REMARK 923 INTER-LIGAND FREE ENERGY PREDICTED BY IDOCK:   -7.99 KCAL/MOL
REMARK 924 INTRA-LIGAND FREE ENERGY PREDICTED BY IDOCK:   -3.62 KCAL/MOL
REMARK 927      BINDING AFFINITY PREDICTED BY RF-SCORE:    0.00 PKD
ROOT
HETATM    1  C   UNL     1     -12.608   7.085  71.545  1.00  0.00    -0.426 C  
HETATM    2  C   UNL     1     -11.671   8.026  72.292  1.00  0.00    -0.428 C  
ENDROOT
BRANCH   2   3
HETATM    3  C   UNL     1     -10.216   7.710  71.947  1.00  0.00    -0.234 C  
BRANCH   3   4
HETATM    4  C   UNL     1      -9.223   7.938  73.096  1.00  0.00    -0.267 C  
BRANCH   4   5
HETATM    5  N   UNL     1      -8.172   6.916  73.334  1.00  0.00    -0.108 NA 
BRANCH   5   6
HETATM    6  C   UNL     1      -8.378   5.731  72.470  1.00  0.00    -0.117 C  
BRANCH   6   7
HETATM    7  C   UNL     1      -9.132   4.538  73.091  1.00  0.00    -0.126 C  
BRANCH   7   8
HETATM    8  C   UNL     1     -10.081   3.818  72.131  1.00  0.00    -0.220 C  
HETATM    9  C   UNL     1      -9.857   4.286  70.699  1.00  0.00    -0.265 C  
ENDBRANCH   7   8
ENDBRANCH   6   7
ENDBRANCH   5   6
BRANCH   5  10
HETATM   10  C   UNL     1      -6.837   7.519  73.088  1.00  0.00    -0.068 C  
BRANCH  10  11
HETATM   11  C   UNL     1      -6.825   8.711  72.120  1.00  0.00    -0.069 C  
BRANCH  11  12
HETATM   12  C   UNL     1      -5.473   8.844  71.428  1.00  0.00    -0.042 C  
BRANCH  12  13
HETATM   13  O   UNL     1      -5.498   8.127  70.191  1.00  0.00    -0.023 OA 
BRANCH  13  14
HETATM   14  C   UNL     1      -6.660   8.220  69.471  1.00  0.00    -0.038 A  
HETATM   15  C   UNL     1      -7.566   7.181  69.237  1.00  0.00    -0.102 A  
HETATM   16  C   UNL     1      -8.683   7.383  68.413  1.00  0.00    -0.123 A  
HETATM   17  C   UNL     1      -8.908   8.632  67.821  1.00  0.00    -0.137 A  
HETATM   18  C   UNL     1      -8.058   9.697  68.141  1.00  0.00    -0.105 A  
HETATM   19  C   UNL     1      -6.922   9.480  68.931  1.00  0.00    -0.063 A  
BRANCH  17  20
HETATM   20  C   UNL     1     -10.025   8.779  66.832  1.00  0.00    -0.257 C  
HETATM   21  O   UNL     1     -10.930   7.948  66.846  1.00  0.00    -0.188 OA 
BRANCH  20  22
HETATM   22  C   UNL     1      -9.977   9.872  65.858  1.00  0.00    -0.347 A  
HETATM   23  C   UNL     1      -9.312   9.838  64.633  1.00  0.00    -0.256 A  
HETATM   24  C   UNL     1     -11.546  13.289  66.667  1.00  0.00    -0.365 A  
HETATM   25  O   UNL     1      -9.490  11.020  63.972  1.00  0.00    -0.226 OA 
HETATM   26  C   UNL     1     -11.204  13.889  65.457  1.00  0.00    -0.307 A  
HETATM   27  C   UNL     1     -10.181  11.851  64.785  1.00  0.00    -0.276 A  
HETATM   28  C   UNL     1     -10.492  11.215  65.978  1.00  0.00    -0.312 A  
HETATM   29  C   UNL     1     -10.497  13.174  64.486  1.00  0.00    -0.425 A  
HETATM   30  C   UNL     1     -11.160  11.976  66.959  1.00  0.00    -0.351 A  
BRANCH  23  31
HETATM   31  C   UNL     1      -8.360   8.923  63.937  1.00  0.00    -0.162 C  
BRANCH  31  32
HETATM   32  C   UNL     1      -6.864   9.180  64.107  1.00  0.00    -0.088 C  
BRANCH  32  33
HETATM   33  C   UNL     1      -6.339   8.216  65.187  1.00  0.00    -0.048 C  
HETATM   34  C   UNL     1      -6.938   6.823  65.124  1.00  0.00    -0.055 C  
ENDBRANCH  32  33
ENDBRANCH  31  32
ENDBRANCH  23  31
BRANCH  24  35
HETATM   35  N   UNL     1     -12.291  14.006  67.647  1.00  0.00    -0.513 N  
HETATM   36  H   UNL     1     -13.246  14.313  67.461  1.00  0.00     0.000 HD 
BRANCH  35  37
HETATM   37  S   UNL     1     -11.547  14.334  69.127  1.00  0.00    -0.327 S  
HETATM   38  C   UNL     1     -12.425  15.795  69.642  1.00  0.00     0.020 C  
HETATM   39  O   UNL     1     -11.807  13.263  70.061  1.00  0.00    -0.319 OA 
HETATM   40  O   UNL     1     -10.194  14.730  68.796  1.00  0.00    -0.227 OA 
ENDBRANCH  35  37
ENDBRANCH  24  35
ENDBRANCH  20  22
ENDBRANCH  17  20
ENDBRANCH  13  14
ENDBRANCH  12  13
ENDBRANCH  11  12
ENDBRANCH  10  11
ENDBRANCH   5  10
ENDBRANCH   4   5
ENDBRANCH   3   4
ENDBRANCH   2   3
TORSDOF 18
ENDMDL
MODEL      121
REMARK 921   NORMALIZED FREE ENERGY PREDICTED BY IDOCK:   -4.32 KCAL/MOL
REMARK 922        TOTAL FREE ENERGY PREDICTED BY IDOCK:  -11.58 KCAL/MOL
REMARK 923 INTER-LIGAND FREE ENERGY PREDICTED BY IDOCK:  -11.08 KCAL/MOL
REMARK 924 INTRA-LIGAND FREE ENERGY PREDICTED BY IDOCK:   -0.50 KCAL/MOL
REMARK 927      BINDING AFFINITY PREDICTED BY RF-SCORE:    0.00 PKD
ROOT
HETATM    1  C   UNL     1     -11.150   8.190  71.719  1.00  0.00    -0.329 C  
HETATM    2  C   UNL     1     -11.639   6.782  71.406  1.00  0.00    -0.350 C  
ENDROOT
BRANCH   2   3
HETATM    3  C   UNL     1     -11.403   6.455  69.932  1.00  0.00    -0.500 C  
BRANCH   3   4
HETATM    4  C   UNL     1      -9.954   6.649  69.458  1.00  0.00    -0.163 C  
BRANCH   4   5
HETATM    5  N   UNL     1      -9.610   6.270  68.064  1.00  0.00    -0.115 NA 
BRANCH   5   6
HETATM    6  C   UNL     1      -9.953   4.854  67.799  1.00  0.00    -0.131 C  
BRANCH   6   7
HETATM    7  C   UNL     1      -9.458   4.254  66.468  1.00  0.00    -0.196 C  
BRANCH   7   8
HETATM    8  C   UNL     1      -7.988   4.540  66.152  1.00  0.00    -0.099 C  
HETATM    9  C   UNL     1      -7.628   4.038  64.760  1.00  0.00    -0.077 C  
ENDBRANCH   7   8
ENDBRANCH   6   7
ENDBRANCH   5   6
BRANCH   5  10
HETATM   10  C   UNL     1     -10.324   7.168  67.121  1.00  0.00    -0.289 C  
BRANCH  10  11
HETATM   11  C   UNL     1      -9.703   8.562  66.948  1.00  0.00    -0.286 C  
BRANCH  11  12
HETATM   12  C   UNL     1     -10.756   9.586  66.537  1.00  0.00     0.039 C  
BRANCH  12  13
HETATM   13  O   UNL     1     -10.361  10.211  65.313  1.00  0.00    -0.266 OA 
BRANCH  13  14
HETATM   14  C   UNL     1     -10.319  11.581  65.329  1.00  0.00    -0.272 A  
HETATM   15  C   UNL     1      -9.434  12.366  66.073  1.00  0.00    -0.168 A  
HETATM   16  C   UNL     1      -9.546  13.764  66.067  1.00  0.00    -0.197 A  
HETATM   17  C   UNL     1     -10.541  14.391  65.306  1.00  0.00    -0.398 A  
HETATM   18  C   UNL     1     -11.357  13.607  64.482  1.00  0.00    -0.393 A  
HETATM   19  C   UNL     1     -11.269  12.210  64.524  1.00  0.00    -0.385 A  
BRANCH  17  20
HETATM   20  C   UNL     1     -10.729  15.872  65.431  1.00  0.00    -0.399 C  
HETATM   21  O   UNL     1     -11.087  16.501  64.439  1.00  0.00    -0.894 OA 
BRANCH  20  22
HETATM   22  C   UNL     1     -10.436  16.523  66.711  1.00  0.00    -0.269 A  
HETATM   23  C   UNL     1      -9.477  17.515  66.916  1.00  0.00    -0.274 A  
HETATM   24  C   UNL     1     -12.174  15.371  69.942  1.00  0.00    -0.334 A  
HETATM   25  O   UNL     1      -9.483  17.908  68.223  1.00  0.00    -0.279 OA 
HETATM   26  C   UNL     1     -11.535  16.283  70.778  1.00  0.00    -0.327 A  
HETATM   27  C   UNL     1     -10.364  17.127  68.888  1.00  0.00    -0.348 A  
HETATM   28  C   UNL     1     -10.970  16.231  68.019  1.00  0.00    -0.328 A  
HETATM   29  C   UNL     1     -10.598  17.182  70.260  1.00  0.00     0.562 A  
HETATM   30  C   UNL     1     -11.872  15.302  68.577  1.00  0.00    -0.305 A  
BRANCH  23  31
HETATM   31  C   UNL     1      -8.374  18.140  66.128  1.00  0.00    -0.155 C  
BRANCH  31  32
HETATM   32  C   UNL     1      -8.384  19.658  65.957  1.00  0.00    -0.294 C  
BRANCH  32  33
HETATM   33  C   UNL     1      -7.028  20.075  65.361  1.00  0.00    -0.332 C  
HETATM   34  C   UNL     1      -5.928  20.269  66.387  1.00  0.00    -0.201 C  
ENDBRANCH  32  33
ENDBRANCH  31  32
ENDBRANCH  23  31
BRANCH  24  35
HETATM   35  N   UNL     1     -13.151  14.472  70.461  1.00  0.00    -0.510 N  
HETATM   36  H   UNL     1     -13.598  13.778  69.861  1.00  0.00     0.000 HD 
BRANCH  35  37
HETATM   37  S   UNL     1     -13.546  14.588  72.099  1.00  0.00    -0.467 S  
HETATM   38  C   UNL     1     -11.934  14.771  72.833  1.00  0.00    -0.130 C  
HETATM   39  O   UNL     1     -14.322  15.783  72.338  1.00  0.00    -0.514 OA 
HETATM   40  O   UNL     1     -14.048  13.280  72.465  1.00  0.00    -0.709 OA 
ENDBRANCH  35  37
ENDBRANCH  24  35
ENDBRANCH  20  22
ENDBRANCH  17  20
ENDBRANCH  13  14
ENDBRANCH  12  13
ENDBRANCH  11  12
ENDBRANCH  10  11
ENDBRANCH   5  10
ENDBRANCH   4   5
ENDBRANCH   3   4
ENDBRANCH   2   3
TORSDOF 18
ENDMDL
MODEL      122
REMARK 921   NORMALIZED FREE ENERGY PREDICTED BY IDOCK:   -4.32 KCAL/MOL
REMARK 922        TOTAL FREE ENERGY PREDICTED BY IDOCK:  -11.58 KCAL/MOL
REMARK 923 INTER-LIGAND FREE ENERGY PREDICTED BY IDOCK:   -9.31 KCAL/MOL
REMARK 924 INTRA-LIGAND FREE ENERGY PREDICTED BY IDOCK:   -2.28 KCAL/MOL
REMARK 927      BINDING AFFINITY PREDICTED BY RF-SCORE:    0.00 PKD
ROOT
HETATM    1  C   UNL     1     -10.278  19.767  68.461  1.00  0.00    -0.547 C  
HETATM    2  C   UNL     1      -9.912  20.287  67.077  1.00  0.00    -0.601 C  
ENDROOT
BRANCH   2   3
HETATM    3  C   UNL     1     -10.296  19.264  66.009  1.00  0.00    -0.556 C  
BRANCH   3   4
HETATM    4  C   UNL     1     -10.363  17.813  66.508  1.00  0.00    -0.345 C  
BRANCH   4   5
HETATM    5  N   UNL     1      -9.472  16.807  65.876  1.00  0.00    -0.512 NA 
BRANCH   5   6
HETATM    6  C   UNL     1      -8.229  16.629  66.663  1.00  0.00    -0.266 C  
BRANCH   6   7
HETATM    7  C   UNL     1      -6.980  17.386  66.171  1.00  0.00    -0.298 C  
BRANCH   7   8
HETATM    8  C   UNL     1      -6.254  18.184  67.256  1.00  0.00    -0.182 C  
HETATM    9  C   UNL     1      -7.081  18.233  68.534  1.00  0.00    -0.277 C  
ENDBRANCH   7   8
ENDBRANCH   6   7
ENDBRANCH   5   6
BRANCH   5  10
HETATM   10  C   UNL     1     -10.200  15.519  65.749  1.00  0.00    -0.366 C  
BRANCH  10  11
HETATM   11  C   UNL     1     -11.376  15.333  66.719  1.00  0.00    -0.183 C  
BRANCH  11  12
HETATM   12  C   UNL     1     -11.547  13.867  67.103  1.00  0.00    -0.364 C  
BRANCH  12  13
HETATM   13  O   UNL     1     -10.404  13.125  66.670  1.00  0.00    -0.258 OA 
BRANCH  13  14
HETATM   14  C   UNL     1     -10.499  11.762  66.783  1.00  0.00    -0.225 A  
HETATM   15  C   UNL     1     -11.166  11.067  67.796  1.00  0.00    -0.374 A  
HETATM   16  C   UNL     1     -11.121   9.666  67.846  1.00  0.00    -0.102 A  
HETATM   17  C   UNL     1     -10.416   8.946  66.874  1.00  0.00    -0.304 A  
HETATM   18  C   UNL     1      -9.838   9.640  65.804  1.00  0.00    -0.373 A  
HETATM   19  C   UNL     1      -9.849  11.040  65.782  1.00  0.00    -0.282 A  
BRANCH  17  20
HETATM   20  C   UNL     1     -10.265   7.463  67.033  1.00  0.00    -0.287 C  
HETATM   21  O   UNL     1     -11.279   6.771  67.044  1.00  0.00    -0.393 OA 
BRANCH  20  22
HETATM   22  C   UNL     1      -8.926   6.898  67.215  1.00  0.00    -0.118 A  
HETATM   23  C   UNL     1      -8.268   6.061  66.314  1.00  0.00    -0.118 A  
HETATM   24  C   UNL     1      -6.994   7.450  70.495  1.00  0.00    -0.053 A  
HETATM   25  O   UNL     1      -7.031   5.738  66.793  1.00  0.00    -0.062 OA 
HETATM   26  C   UNL     1      -5.869   6.721  70.119  1.00  0.00    -0.023 A  
HETATM   27  C   UNL     1      -6.910   6.275  68.028  1.00  0.00    -0.070 A  
HETATM   28  C   UNL     1      -8.055   6.984  68.364  1.00  0.00    -0.124 A  
HETATM   29  C   UNL     1      -5.811   6.104  68.866  1.00  0.00    -0.020 A  
HETATM   30  C   UNL     1      -8.107   7.553  69.652  1.00  0.00    -0.127 A  
BRANCH  23  31
HETATM   31  C   UNL     1      -8.613   5.329  65.060  1.00  0.00    -0.150 C  
BRANCH  31  32
HETATM   32  C   UNL     1      -9.570   4.142  65.162  1.00  0.00    -0.185 C  
BRANCH  32  33
HETATM   33  C   UNL     1      -9.232   3.164  64.023  1.00  0.00    -0.110 C  
HETATM   34  C   UNL     1      -9.638   1.727  64.292  1.00  0.00    -0.119 C  
ENDBRANCH  32  33
ENDBRANCH  31  32
ENDBRANCH  23  31
BRANCH  24  35
HETATM   35  N   UNL     1      -7.045   8.105  71.760  1.00  0.00    -0.071 N  
HETATM   36  H   UNL     1      -6.268   8.681  72.085  1.00  0.00     0.000 HD 
BRANCH  35  37
HETATM   37  S   UNL     1      -8.428   7.898  72.706  1.00  0.00    -0.176 S  
HETATM   38  C   UNL     1      -7.806   8.302  74.325  1.00  0.00    -0.233 C  
HETATM   39  O   UNL     1      -9.438   8.858  72.325  1.00  0.00    -0.327 OA 
HETATM   40  O   UNL     1      -8.698   6.475  72.684  1.00  0.00    -0.125 OA 
ENDBRANCH  35  37
ENDBRANCH  24  35
ENDBRANCH  20  22
ENDBRANCH  17  20
ENDBRANCH  13  14
ENDBRANCH  12  13
ENDBRANCH  11  12
ENDBRANCH  10  11
ENDBRANCH   5  10
ENDBRANCH   4   5
ENDBRANCH   3   4
ENDBRANCH   2   3
TORSDOF 18
ENDMDL
MODEL      123
REMARK 921   NORMALIZED FREE ENERGY PREDICTED BY IDOCK:   -4.31 KCAL/MOL
REMARK 922        TOTAL FREE ENERGY PREDICTED BY IDOCK:  -11.57 KCAL/MOL
REMARK 923 INTER-LIGAND FREE ENERGY PREDICTED BY IDOCK:   -9.19 KCAL/MOL
REMARK 924 INTRA-LIGAND FREE ENERGY PREDICTED BY IDOCK:   -2.38 KCAL/MOL
REMARK 927      BINDING AFFINITY PREDICTED BY RF-SCORE:    0.00 PKD
ROOT
HETATM    1  C   UNL     1      -8.788  15.308  69.494  1.00  0.00    -0.181 C  
HETATM    2  C   UNL     1      -7.732  15.477  68.410  1.00  0.00    -0.124 C  
ENDROOT
BRANCH   2   3
HETATM    3  C   UNL     1      -8.279  15.013  67.060  1.00  0.00    -0.246 C  
BRANCH   3   4
HETATM    4  C   UNL     1      -8.825  16.139  66.170  1.00  0.00    -0.332 C  
BRANCH   4   5
HETATM    5  N   UNL     1     -10.274  16.458  66.243  1.00  0.00    -0.316 NA 
BRANCH   5   6
HETATM    6  C   UNL     1     -10.520  17.886  65.937  1.00  0.00    -0.253 C  
BRANCH   6   7
HETATM    7  C   UNL     1     -10.783  18.820  67.135  1.00  0.00    -0.469 C  
BRANCH   7   8
HETATM    8  C   UNL     1      -9.646  19.797  67.439  1.00  0.00    -0.475 C  
HETATM    9  C   UNL     1      -8.514  19.095  68.178  1.00  0.00    -0.355 C  
ENDBRANCH   7   8
ENDBRANCH   6   7
ENDBRANCH   5   6
BRANCH   5  10
HETATM   10  C   UNL     1     -11.016  15.584  65.299  1.00  0.00    -0.380 C  
BRANCH  10  11
HETATM   11  C   UNL     1     -11.963  14.567  65.953  1.00  0.00    -0.315 C  
BRANCH  11  12
HETATM   12  C   UNL     1     -11.767  13.174  65.365  1.00  0.00    -0.350 C  
BRANCH  12  13
HETATM   13  O   UNL     1     -10.369  12.877  65.299  1.00  0.00    -0.291 OA 
BRANCH  13  14
HETATM   14  C   UNL     1      -9.905  11.983  66.228  1.00  0.00    -0.231 A  
HETATM   15  C   UNL     1     -10.226  11.971  67.588  1.00  0.00    -0.210 A  
HETATM   16  C   UNL     1      -9.619  11.050  68.454  1.00  0.00    -0.181 A  
HETATM   17  C   UNL     1      -8.690  10.124  67.963  1.00  0.00    -0.122 A  
HETATM   18  C   UNL     1      -8.451  10.070  66.585  1.00  0.00    -0.126 A  
HETATM   19  C   UNL     1      -9.027  11.018  65.731  1.00  0.00    -0.208 A  
BRANCH  17  20
HETATM   20  C   UNL     1      -7.951   9.250  68.932  1.00  0.00    -0.098 C  
HETATM   21  O   UNL     1      -6.911   9.676  69.427  1.00  0.00    -0.051 OA 
BRANCH  20  22
HETATM   22  C   UNL     1      -8.465   7.908  69.217  1.00  0.00    -0.137 A  
HETATM   23  C   UNL     1      -8.082   6.737  68.564  1.00  0.00    -0.120 A  
HETATM   24  C   UNL     1     -11.291   7.392  71.773  1.00  0.00    -0.255 A  
HETATM   25  O   UNL     1      -8.746   5.667  69.094  1.00  0.00    -0.107 OA 
HETATM   26  C   UNL     1     -11.364   6.009  71.625  1.00  0.00    -0.313 A  
HETATM   27  C   UNL     1      -9.618   6.135  70.015  1.00  0.00    -0.160 A  
HETATM   28  C   UNL     1      -9.517   7.515  70.124  1.00  0.00    -0.161 A  
HETATM   29  C   UNL     1     -10.524   5.349  70.723  1.00  0.00    -0.317 A  
HETATM   30  C   UNL     1     -10.411   8.159  71.002  1.00  0.00    -0.233 A  
BRANCH  23  31
HETATM   31  C   UNL     1      -7.263   6.375  67.370  1.00  0.00    -0.082 C  
BRANCH  31  32
HETATM   32  C   UNL     1      -5.931   5.663  67.601  1.00  0.00    -0.021 C  
BRANCH  32  33
HETATM   33  C   UNL     1      -6.106   4.190  67.191  1.00  0.00    -0.028 C  
HETATM   34  C   UNL     1      -5.334   3.207  68.052  1.00  0.00    -0.013 C  
ENDBRANCH  32  33
ENDBRANCH  31  32
ENDBRANCH  23  31
BRANCH  24  35
HETATM   35  N   UNL     1     -12.126   8.065  72.712  1.00  0.00    -0.615 N  
HETATM   36  H   UNL     1     -11.838   8.179  73.684  1.00  0.00     0.000 HD 
BRANCH  35  37
HETATM   37  S   UNL     1     -13.607   8.669  72.169  1.00  0.00    -0.402 S  
HETATM   38  C   UNL     1     -13.071   9.931  71.033  1.00  0.00    -0.329 C  
HETATM   39  O   UNL     1     -14.324   7.644  71.446  1.00  0.00    -0.433 OA 
HETATM   40  O   UNL     1     -14.194   9.331  73.315  1.00  0.00    -0.150 OA 
ENDBRANCH  35  37
ENDBRANCH  24  35
ENDBRANCH  20  22
ENDBRANCH  17  20
ENDBRANCH  13  14
ENDBRANCH  12  13
ENDBRANCH  11  12
ENDBRANCH  10  11
ENDBRANCH   5  10
ENDBRANCH   4   5
ENDBRANCH   3   4
ENDBRANCH   2   3
TORSDOF 18
ENDMDL
MODEL      124
REMARK 921   NORMALIZED FREE ENERGY PREDICTED BY IDOCK:   -4.30 KCAL/MOL
REMARK 922        TOTAL FREE ENERGY PREDICTED BY IDOCK:  -11.53 KCAL/MOL
REMARK 923 INTER-LIGAND FREE ENERGY PREDICTED BY IDOCK:   -9.10 KCAL/MOL
REMARK 924 INTRA-LIGAND FREE ENERGY PREDICTED BY IDOCK:   -2.43 KCAL/MOL
REMARK 927      BINDING AFFINITY PREDICTED BY RF-SCORE:    0.00 PKD
ROOT
HETATM    1  C   UNL     1     -10.182   2.067  72.344  1.00  0.00    -0.230 C  
HETATM    2  C   UNL     1     -10.256   3.126  73.437  1.00  0.00    -0.208 C  
ENDROOT
BRANCH   2   3
HETATM    3  C   UNL     1     -11.479   4.019  73.227  1.00  0.00    -0.180 C  
BRANCH   3   4
HETATM    4  C   UNL     1     -11.160   5.428  72.707  1.00  0.00    -0.294 C  
BRANCH   4   5
HETATM    5  N   UNL     1     -10.875   5.600  71.260  1.00  0.00    -0.245 NA 
BRANCH   5   6
HETATM    6  C   UNL     1     -11.732   6.654  70.670  1.00  0.00    -0.394 C  
BRANCH   6   7
HETATM    7  C   UNL     1     -12.740   7.340  71.613  1.00  0.00    -0.410 C  
BRANCH   7   8
HETATM    8  C   UNL     1     -12.483   8.831  71.841  1.00  0.00    -0.434 C  
HETATM    9  C   UNL     1     -11.167   9.255  71.202  1.00  0.00    -0.413 C  
ENDBRANCH   7   8
ENDBRANCH   6   7
ENDBRANCH   5   6
BRANCH   5  10
HETATM   10  C   UNL     1      -9.438   5.930  71.079  1.00  0.00    -0.165 C  
BRANCH  10  11
HETATM   11  C   UNL     1      -8.627   4.906  70.271  1.00  0.00    -0.111 C  
BRANCH  11  12
HETATM   12  C   UNL     1      -8.395   5.391  68.844  1.00  0.00    -0.100 C  
BRANCH  12  13
HETATM   13  O   UNL     1      -7.188   6.156  68.790  1.00  0.00    -0.079 OA 
BRANCH  13  14
HETATM   14  C   UNL     1      -7.326   7.462  68.402  1.00  0.00    -0.103 A  
HETATM   15  C   UNL     1      -7.990   8.465  69.115  1.00  0.00    -0.110 A  
HETATM   16  C   UNL     1      -8.133   9.749  68.571  1.00  0.00    -0.104 A  
HETATM   17  C   UNL     1      -7.604  10.046  67.309  1.00  0.00    -0.095 A  
HETATM   18  C   UNL     1      -6.851   9.071  66.644  1.00  0.00    -0.080 A  
HETATM   19  C   UNL     1      -6.747   7.778  67.173  1.00  0.00    -0.068 A  
BRANCH  17  20
HETATM   20  C   UNL     1      -7.897  11.380  66.691  1.00  0.00    -0.137 C  
HETATM   21  O   UNL     1      -7.041  12.257  66.764  1.00  0.00    -0.015 OA 
BRANCH  20  22
HETATM   22  C   UNL     1      -9.203  11.606  66.067  1.00  0.00    -0.218 A  
HETATM   23  C   UNL     1      -9.702  10.923  64.959  1.00  0.00    -0.267 A  
HETATM   24  C   UNL     1     -11.495  14.442  67.289  1.00  0.00    -0.359 A  
HETATM   25  O   UNL     1     -10.955  11.375  64.656  1.00  0.00    -0.310 OA 
HETATM   26  C   UNL     1     -12.520  14.195  66.379  1.00  0.00    -0.353 A  
HETATM   27  C   UNL     1     -11.240  12.399  65.491  1.00  0.00    -0.325 A  
HETATM   28  C   UNL     1     -10.190  12.613  66.373  1.00  0.00    -0.263 A  
HETATM   29  C   UNL     1     -12.404  13.162  65.445  1.00  0.00    -0.532 A  
HETATM   30  C   UNL     1     -10.312  13.694  67.270  1.00  0.00    -0.249 A  
BRANCH  23  31
HETATM   31  C   UNL     1      -9.178   9.952  63.953  1.00  0.00    -0.295 C  
BRANCH  31  32
HETATM   32  C   UNL     1      -7.945  10.352  63.144  1.00  0.00    -0.125 C  
BRANCH  32  33
HETATM   33  C   UNL     1      -7.376   9.080  62.491  1.00  0.00    -0.098 C  
HETATM   34  C   UNL     1      -6.028   8.647  63.037  1.00  0.00    -0.086 C  
ENDBRANCH  32  33
ENDBRANCH  31  32
ENDBRANCH  23  31
BRANCH  24  35
HETATM   35  N   UNL     1     -11.622  15.476  68.261  1.00  0.00    -0.359 N  
HETATM   36  H   UNL     1     -11.713  16.453  67.980  1.00  0.00     0.000 HD 
BRANCH  35  37
HETATM   37  S   UNL     1     -11.617  15.038  69.892  1.00  0.00    -0.315 S  
HETATM   38  C   UNL     1     -11.915  13.286  69.782  1.00  0.00    -0.324 C  
HETATM   39  O   UNL     1     -10.311  15.269  70.464  1.00  0.00    -0.199 OA 
HETATM   40  O   UNL     1     -12.803  15.649  70.456  1.00  0.00    -0.445 OA 
ENDBRANCH  35  37
ENDBRANCH  24  35
ENDBRANCH  20  22
ENDBRANCH  17  20
ENDBRANCH  13  14
ENDBRANCH  12  13
ENDBRANCH  11  12
ENDBRANCH  10  11
ENDBRANCH   5  10
ENDBRANCH   4   5
ENDBRANCH   3   4
ENDBRANCH   2   3
TORSDOF 18
ENDMDL
MODEL      125
REMARK 921   NORMALIZED FREE ENERGY PREDICTED BY IDOCK:   -4.29 KCAL/MOL
REMARK 922        TOTAL FREE ENERGY PREDICTED BY IDOCK:  -11.52 KCAL/MOL
REMARK 923 INTER-LIGAND FREE ENERGY PREDICTED BY IDOCK:   -9.02 KCAL/MOL
REMARK 924 INTRA-LIGAND FREE ENERGY PREDICTED BY IDOCK:   -2.50 KCAL/MOL
REMARK 927      BINDING AFFINITY PREDICTED BY RF-SCORE:    0.00 PKD
ROOT
HETATM    1  C   UNL     1     -10.769   3.934  64.478  1.00  0.00    -0.172 C  
HETATM    2  C   UNL     1      -9.473   4.367  65.152  1.00  0.00    -0.171 C  
ENDROOT
BRANCH   2   3
HETATM    3  C   UNL     1      -9.648   4.396  66.670  1.00  0.00    -0.213 C  
BRANCH   3   4
HETATM    4  C   UNL     1      -9.333   5.750  67.323  1.00  0.00    -0.113 C  
BRANCH   4   5
HETATM    5  N   UNL     1     -10.455   6.533  67.901  1.00  0.00    -0.195 NA 
BRANCH   5   6
HETATM    6  C   UNL     1     -10.151   6.953  69.289  1.00  0.00    -0.170 C  
BRANCH   6   7
HETATM    7  C   UNL     1     -10.696   8.323  69.738  1.00  0.00    -0.221 C  
BRANCH   7   8
HETATM    8  C   UNL     1      -9.625   9.395  69.944  1.00  0.00    -0.234 C  
HETATM    9  C   UNL     1      -8.238   8.768  70.006  1.00  0.00    -0.120 C  
ENDBRANCH   7   8
ENDBRANCH   6   7
ENDBRANCH   5   6
BRANCH   5  10
HETATM   10  C   UNL     1     -10.720   7.716  67.042  1.00  0.00    -0.270 C  
BRANCH  10  11
HETATM   11  C   UNL     1      -9.493   8.285  66.314  1.00  0.00    -0.271 C  
BRANCH  11  12
HETATM   12  C   UNL     1      -9.837   9.581  65.588  1.00  0.00    -0.272 C  
BRANCH  12  13
HETATM   13  O   UNL     1      -8.683  10.424  65.547  1.00  0.00    -0.163 OA 
BRANCH  13  14
HETATM   14  C   UNL     1      -8.683  11.480  66.420  1.00  0.00    -0.179 A  
HETATM   15  C   UNL     1      -9.459  12.637  66.308  1.00  0.00    -0.207 A  
HETATM   16  C   UNL     1      -9.308  13.686  67.227  1.00  0.00    -0.233 A  
HETATM   17  C   UNL     1      -8.385  13.582  68.274  1.00  0.00    -0.165 A  
HETATM   18  C   UNL     1      -7.687  12.380  68.444  1.00  0.00    -0.144 A  
HETATM   19  C   UNL     1      -7.810  11.353  67.501  1.00  0.00    -0.126 A  
BRANCH  17  20
HETATM   20  C   UNL     1      -8.143  14.772  69.153  1.00  0.00    -0.119 C  
HETATM   21  O   UNL     1      -7.195  14.737  69.934  1.00  0.00    -0.157 OA 
BRANCH  20  22
HETATM   22  C   UNL     1      -9.064  15.908  69.085  1.00  0.00    -0.255 A  
HETATM   23  C   UNL     1     -10.423  15.871  69.400  1.00  0.00    -0.265 A  
HETATM   24  C   UNL     1      -7.893  19.305  67.716  1.00  0.00    -0.275 A  
HETATM   25  O   UNL     1     -10.973  17.111  69.242  1.00  0.00    -0.149 OA 
HETATM   26  C   UNL     1      -9.118  19.950  67.873  1.00  0.00    -0.399 A  
HETATM   27  C   UNL     1     -10.018  17.929  68.745  1.00  0.00    -0.376 A  
HETATM   28  C   UNL     1      -8.820  17.245  68.598  1.00  0.00    -0.261 A  
HETATM   29  C   UNL     1     -10.219  19.260  68.388  1.00  0.00    -0.503 A  
HETATM   30  C   UNL     1      -7.741  17.950  68.029  1.00  0.00    -0.245 A  
BRANCH  23  31
HETATM   31  C   UNL     1     -11.437  14.823  69.717  1.00  0.00    -0.330 C  
BRANCH  31  32
HETATM   32  C   UNL     1     -11.873  14.662  71.172  1.00  0.00    -0.378 C  
BRANCH  32  33
HETATM   33  C   UNL     1     -12.567  13.295  71.308  1.00  0.00    -0.398 C  
HETATM   34  C   UNL     1     -12.098  12.254  70.308  1.00  0.00    -0.376 C  
ENDBRANCH  32  33
ENDBRANCH  31  32
ENDBRANCH  23  31
BRANCH  24  35
HETATM   35  N   UNL     1      -6.760  20.013  67.217  1.00  0.00    -0.212 N  
HETATM   36  H   UNL     1      -6.170  20.565  67.840  1.00  0.00     0.000 HD 
BRANCH  35  37
HETATM   37  S   UNL     1      -6.423  19.909  65.566  1.00  0.00    -0.271 S  
HETATM   38  C   UNL     1      -5.285  21.264  65.358  1.00  0.00    -0.156 C  
HETATM   39  O   UNL     1      -5.748  18.666  65.275  1.00  0.00    -0.184 OA 
HETATM   40  O   UNL     1      -7.657  20.269  64.900  1.00  0.00    -0.073 OA 
ENDBRANCH  35  37
ENDBRANCH  24  35
ENDBRANCH  20  22
ENDBRANCH  17  20
ENDBRANCH  13  14
ENDBRANCH  12  13
ENDBRANCH  11  12
ENDBRANCH  10  11
ENDBRANCH   5  10
ENDBRANCH   4   5
ENDBRANCH   3   4
ENDBRANCH   2   3
TORSDOF 18
ENDMDL
MODEL      126
REMARK 921   NORMALIZED FREE ENERGY PREDICTED BY IDOCK:   -4.25 KCAL/MOL
REMARK 922        TOTAL FREE ENERGY PREDICTED BY IDOCK:  -11.45 KCAL/MOL
REMARK 923 INTER-LIGAND FREE ENERGY PREDICTED BY IDOCK:   -8.39 KCAL/MOL
REMARK 924 INTRA-LIGAND FREE ENERGY PREDICTED BY IDOCK:   -3.06 KCAL/MOL
REMARK 927      BINDING AFFINITY PREDICTED BY RF-SCORE:    0.00 PKD
ROOT
HETATM    1  C   UNL     1     -10.675  19.400  67.489  1.00  0.00    -0.570 C  
HETATM    2  C   UNL     1     -10.294  19.227  66.025  1.00  0.00    -0.556 C  
ENDROOT
BRANCH   2   3
HETATM    3  C   UNL     1      -9.986  17.760  65.727  1.00  0.00    -0.001 C  
BRANCH   3   4
HETATM    4  C   UNL     1     -10.329  16.791  66.869  1.00  0.00    -0.294 C  
BRANCH   4   5
HETATM    5  N   UNL     1     -11.169  15.606  66.561  1.00  0.00    -0.136 NA 
BRANCH   5   6
HETATM    6  C   UNL     1     -10.996  15.183  65.152  1.00  0.00    -0.417 C  
BRANCH   6   7
HETATM    7  C   UNL     1     -12.218  14.545  64.461  1.00  0.00    -0.483 C  
BRANCH   7   8
HETATM    8  C   UNL     1     -11.880  13.392  63.515  1.00  0.00    -0.399 C  
HETATM    9  C   UNL     1     -12.102  12.049  64.200  1.00  0.00    -0.458 C  
ENDBRANCH   7   8
ENDBRANCH   6   7
ENDBRANCH   5   6
BRANCH   5  10
HETATM   10  C   UNL     1     -10.817  14.501  67.488  1.00  0.00    -0.289 C  
BRANCH  10  11
HETATM   11  C   UNL     1     -11.882  14.164  68.542  1.00  0.00    -0.390 C  
BRANCH  11  12
HETATM   12  C   UNL     1     -11.284  13.360  69.691  1.00  0.00    -0.048 C  
BRANCH  12  13
HETATM   13  O   UNL     1     -12.044  12.164  69.882  1.00  0.00    -0.298 OA 
BRANCH  13  14
HETATM   14  C   UNL     1     -11.494  11.020  69.367  1.00  0.00    -0.294 A  
HETATM   15  C   UNL     1     -11.277  10.750  68.013  1.00  0.00    -0.372 A  
HETATM   16  C   UNL     1     -10.780   9.503  67.606  1.00  0.00    -0.314 A  
HETATM   17  C   UNL     1     -10.486   8.516  68.555  1.00  0.00    -0.205 A  
HETATM   18  C   UNL     1     -10.604   8.826  69.915  1.00  0.00    -0.230 A  
HETATM   19  C   UNL     1     -11.140  10.056  70.313  1.00  0.00    -0.381 A  
BRANCH  17  20
HETATM   20  C   UNL     1     -10.094   7.148  68.084  1.00  0.00    -0.169 C  
HETATM   21  O   UNL     1     -10.830   6.572  67.287  1.00  0.00    -0.301 OA 
BRANCH  20  22
HETATM   22  C   UNL     1      -8.881   6.528  68.622  1.00  0.00    -0.121 A  
HETATM   23  C   UNL     1      -7.573   6.911  68.324  1.00  0.00    -0.107 A  
HETATM   24  C   UNL     1      -9.100   3.417  70.872  1.00  0.00    -0.114 A  
HETATM   25  O   UNL     1      -6.689   6.132  69.014  1.00  0.00    -0.055 OA 
HETATM   26  C   UNL     1      -7.726   3.280  71.056  1.00  0.00    -0.046 A  
HETATM   27  C   UNL     1      -7.396   5.194  69.684  1.00  0.00    -0.061 A  
HETATM   28  C   UNL     1      -8.756   5.363  69.466  1.00  0.00    -0.108 A  
HETATM   29  C   UNL     1      -6.838   4.172  70.448  1.00  0.00    -0.033 A  
HETATM   30  C   UNL     1      -9.626   4.419  70.049  1.00  0.00    -0.273 A  
BRANCH  23  31
HETATM   31  C   UNL     1      -6.903   7.832  67.359  1.00  0.00    -0.069 C  
BRANCH  31  32
HETATM   32  C   UNL     1      -7.131   9.333  67.524  1.00  0.00    -0.079 C  
BRANCH  32  33
HETATM   33  C   UNL     1      -6.985   9.672  69.018  1.00  0.00    -0.058 C  
HETATM   34  C   UNL     1      -7.530  11.034  69.406  1.00  0.00    -0.074 C  
ENDBRANCH  32  33
ENDBRANCH  31  32
ENDBRANCH  23  31
BRANCH  24  35
HETATM   35  N   UNL     1     -10.010   2.526  71.513  1.00  0.00    -0.120 N  
HETATM   36  H   UNL     1     -10.551   1.850  70.974  1.00  0.00     0.000 HD 
BRANCH  35  37
HETATM   37  S   UNL     1     -10.166   2.623  73.192  1.00  0.00    -0.141 S  
HETATM   38  C   UNL     1     -11.781   1.913  73.432  1.00  0.00    -0.133 C  
HETATM   39  O   UNL     1      -9.174   1.789  73.831  1.00  0.00    -0.064 OA 
HETATM   40  O   UNL     1     -10.261   4.037  73.487  1.00  0.00    -0.129 OA 
ENDBRANCH  35  37
ENDBRANCH  24  35
ENDBRANCH  20  22
ENDBRANCH  17  20
ENDBRANCH  13  14
ENDBRANCH  12  13
ENDBRANCH  11  12
ENDBRANCH  10  11
ENDBRANCH   5  10
ENDBRANCH   4   5
ENDBRANCH   3   4
ENDBRANCH   2   3
TORSDOF 18
ENDMDL
MODEL      127
REMARK 921   NORMALIZED FREE ENERGY PREDICTED BY IDOCK:   -4.25 KCAL/MOL
REMARK 922        TOTAL FREE ENERGY PREDICTED BY IDOCK:  -11.44 KCAL/MOL
REMARK 923 INTER-LIGAND FREE ENERGY PREDICTED BY IDOCK:   -9.06 KCAL/MOL
REMARK 924 INTRA-LIGAND FREE ENERGY PREDICTED BY IDOCK:   -2.38 KCAL/MOL
REMARK 927      BINDING AFFINITY PREDICTED BY RF-SCORE:    0.00 PKD
ROOT
HETATM    1  C   UNL     1     -12.437  10.470  71.529  1.00  0.00    -0.493 C  
HETATM    2  C   UNL     1     -13.393   9.285  71.485  1.00  0.00    -0.436 C  
ENDROOT
BRANCH   2   3
HETATM    3  C   UNL     1     -12.614   7.983  71.296  1.00  0.00    -0.254 C  
BRANCH   3   4
HETATM    4  C   UNL     1     -11.090   8.126  71.429  1.00  0.00    -0.247 C  
BRANCH   4   5
HETATM    5  N   UNL     1     -10.265   6.891  71.463  1.00  0.00    -0.196 NA 
BRANCH   5   6
HETATM    6  C   UNL     1     -10.125   6.384  72.848  1.00  0.00    -0.183 C  
BRANCH   6   7
HETATM    7  C   UNL     1     -11.112   5.286  73.291  1.00  0.00    -0.376 C  
BRANCH   7   8
HETATM    8  C   UNL     1     -10.486   4.172  74.132  1.00  0.00    -0.292 C  
HETATM    9  C   UNL     1      -9.084   3.843  73.633  1.00  0.00    -0.099 C  
ENDBRANCH   7   8
ENDBRANCH   6   7
ENDBRANCH   5   6
BRANCH   5  10
HETATM   10  C   UNL     1     -10.885   5.864  70.589  1.00  0.00    -0.292 C  
BRANCH  10  11
HETATM   11  C   UNL     1     -10.305   5.776  69.169  1.00  0.00    -0.316 C  
BRANCH  11  12
HETATM   12  C   UNL     1     -11.279   6.341  68.141  1.00  0.00    -0.133 C  
BRANCH  12  13
HETATM   13  O   UNL     1     -10.549   6.852  67.023  1.00  0.00    -0.274 OA 
BRANCH  13  14
HETATM   14  C   UNL     1     -10.350   8.207  67.009  1.00  0.00    -0.333 A  
HETATM   15  C   UNL     1     -10.911   9.128  67.898  1.00  0.00    -0.147 A  
HETATM   16  C   UNL     1     -10.694  10.503  67.729  1.00  0.00    -0.319 A  
HETATM   17  C   UNL     1      -9.905  10.970  66.670  1.00  0.00    -0.235 A  
HETATM   18  C   UNL     1      -9.261  10.041  65.845  1.00  0.00    -0.211 A  
HETATM   19  C   UNL     1      -9.514   8.671  65.993  1.00  0.00    -0.278 A  
BRANCH  17  20
HETATM   20  C   UNL     1      -9.810  12.446  66.429  1.00  0.00    -0.240 C  
HETATM   21  O   UNL     1     -10.720  12.998  65.816  1.00  0.00    -0.269 OA 
BRANCH  20  22
HETATM   22  C   UNL     1      -8.620  13.168  66.885  1.00  0.00    -0.118 A  
HETATM   23  C   UNL     1      -7.519  12.597  67.523  1.00  0.00    -0.155 A  
HETATM   24  C   UNL     1      -8.427  17.000  66.619  1.00  0.00    -0.248 A  
HETATM   25  O   UNL     1      -6.585  13.556  67.793  1.00  0.00    -0.142 OA 
HETATM   26  C   UNL     1      -7.157  17.116  67.180  1.00  0.00    -0.208 A  
HETATM   27  C   UNL     1      -7.098  14.751  67.425  1.00  0.00    -0.143 A  
HETATM   28  C   UNL     1      -8.365  14.589  66.880  1.00  0.00    -0.133 A  
HETATM   29  C   UNL     1      -6.466  15.979  67.608  1.00  0.00    -0.189 A  
HETATM   30  C   UNL     1      -9.059  15.757  66.505  1.00  0.00    -0.327 A  
BRANCH  23  31
HETATM   31  C   UNL     1      -7.167  11.267  68.102  1.00  0.00    -0.081 C  
BRANCH  31  32
HETATM   32  C   UNL     1      -7.666  10.942  69.509  1.00  0.00    -0.022 C  
BRANCH  32  33
HETATM   33  C   UNL     1      -7.388   9.452  69.776  1.00  0.00    -0.083 C  
HETATM   34  C   UNL     1      -6.818   8.700  68.587  1.00  0.00    -0.063 C  
ENDBRANCH  32  33
ENDBRANCH  31  32
ENDBRANCH  23  31
BRANCH  24  35
HETATM   35  N   UNL     1      -9.124  18.154  66.156  1.00  0.00    -0.179 N  
HETATM   36  H   UNL     1      -8.942  18.541  65.229  1.00  0.00     0.000 HD 
BRANCH  35  37
HETATM   37  S   UNL     1     -10.258  18.864  67.186  1.00  0.00    -0.410 S  
HETATM   38  C   UNL     1      -9.210  19.866  68.219  1.00  0.00    -0.260 C  
HETATM   39  O   UNL     1     -11.147  19.717  66.431  1.00  0.00    -0.297 OA 
HETATM   40  O   UNL     1     -10.767  17.780  67.999  1.00  0.00    -0.382 OA 
ENDBRANCH  35  37
ENDBRANCH  24  35
ENDBRANCH  20  22
ENDBRANCH  17  20
ENDBRANCH  13  14
ENDBRANCH  12  13
ENDBRANCH  11  12
ENDBRANCH  10  11
ENDBRANCH   5  10
ENDBRANCH   4   5
ENDBRANCH   3   4
ENDBRANCH   2   3
TORSDOF 18
ENDMDL
MODEL      128
REMARK 921   NORMALIZED FREE ENERGY PREDICTED BY IDOCK:   -4.24 KCAL/MOL
REMARK 922        TOTAL FREE ENERGY PREDICTED BY IDOCK:  -11.43 KCAL/MOL
REMARK 923 INTER-LIGAND FREE ENERGY PREDICTED BY IDOCK:   -9.14 KCAL/MOL
REMARK 924 INTRA-LIGAND FREE ENERGY PREDICTED BY IDOCK:   -2.29 KCAL/MOL
REMARK 927      BINDING AFFINITY PREDICTED BY RF-SCORE:    0.00 PKD
ROOT
HETATM    1  C   UNL     1      -6.418   5.062  63.891  1.00  0.00    -0.033 C  
HETATM    2  C   UNL     1      -6.325   3.647  64.448  1.00  0.00    -0.023 C  
ENDROOT
BRANCH   2   3
HETATM    3  C   UNL     1      -7.404   3.423  65.508  1.00  0.00    -0.075 C  
BRANCH   3   4
HETATM    4  C   UNL     1      -7.046   3.951  66.905  1.00  0.00    -0.063 C  
BRANCH   4   5
HETATM    5  N   UNL     1      -8.115   4.591  67.713  1.00  0.00    -0.098 NA 
BRANCH   5   6
HETATM    6  C   UNL     1      -7.557   5.213  68.937  1.00  0.00    -0.081 C  
BRANCH   6   7
HETATM    7  C   UNL     1      -7.316   4.283  70.142  1.00  0.00    -0.046 C  
BRANCH   7   8
HETATM    8  C   UNL     1      -8.293   4.483  71.302  1.00  0.00    -0.107 C  
HETATM    9  C   UNL     1      -9.731   4.300  70.834  1.00  0.00    -0.266 C  
ENDBRANCH   7   8
ENDBRANCH   6   7
ENDBRANCH   5   6
BRANCH   5  10
HETATM   10  C   UNL     1      -8.817   5.604  66.884  1.00  0.00    -0.113 C  
BRANCH  10  11
HETATM   11  C   UNL     1      -8.052   6.919  66.670  1.00  0.00    -0.110 C  
BRANCH  11  12
HETATM   12  C   UNL     1      -8.236   7.436  65.247  1.00  0.00    -0.127 C  
BRANCH  12  13
HETATM   13  O   UNL     1      -7.655   8.738  65.135  1.00  0.00    -0.091 OA 
BRANCH  13  14
HETATM   14  C   UNL     1      -8.502   9.791  65.366  1.00  0.00    -0.145 A  
HETATM   15  C   UNL     1      -9.732  10.009  64.740  1.00  0.00    -0.363 A  
HETATM   16  C   UNL     1     -10.470  11.171  65.005  1.00  0.00    -0.357 A  
HETATM   17  C   UNL     1      -9.987  12.124  65.910  1.00  0.00    -0.267 A  
HETATM   18  C   UNL     1      -8.807  11.853  66.614  1.00  0.00    -0.191 A  
HETATM   19  C   UNL     1      -8.053  10.712  66.314  1.00  0.00    -0.151 A  
BRANCH  17  20
HETATM   20  C   UNL     1     -10.724  13.420  66.066  1.00  0.00    -0.278 C  
HETATM   21  O   UNL     1     -10.892  14.119  65.070  1.00  0.00    -0.350 OA 
BRANCH  20  22
HETATM   22  C   UNL     1     -11.173  13.830  67.399  1.00  0.00    -0.330 A  
HETATM   23  C   UNL     1     -11.176  15.136  67.888  1.00  0.00    -0.329 A  
HETATM   24  C   UNL     1     -12.238  11.207  70.002  1.00  0.00    -0.326 A  
HETATM   25  O   UNL     1     -11.676  15.157  69.159  1.00  0.00    -0.295 OA 
HETATM   26  C   UNL     1     -12.532  12.122  71.010  1.00  0.00    -0.369 A  
HETATM   27  C   UNL     1     -11.911  13.880  69.535  1.00  0.00    -0.343 A  
HETATM   28  C   UNL     1     -11.598  13.005  68.504  1.00  0.00    -0.363 A  
HETATM   29  C   UNL     1     -12.361  13.492  70.794  1.00  0.00    -0.440 A  
HETATM   30  C   UNL     1     -11.730  11.626  68.767  1.00  0.00    -0.392 A  
BRANCH  23  31
HETATM   31  C   UNL     1     -10.654  16.463  67.448  1.00  0.00    -0.306 C  
BRANCH  31  32
HETATM   32  C   UNL     1      -9.212  16.821  67.804  1.00  0.00    -0.222 C  
BRANCH  32  33
HETATM   33  C   UNL     1      -8.293  16.180  66.749  1.00  0.00    -0.299 C  
HETATM   34  C   UNL     1      -6.995  16.931  66.512  1.00  0.00    -0.262 C  
ENDBRANCH  32  33
ENDBRANCH  31  32
ENDBRANCH  23  31
BRANCH  24  35
HETATM   35  N   UNL     1     -12.438   9.811  70.208  1.00  0.00    -0.493 N  
HETATM   36  H   UNL     1     -13.377   9.420  70.284  1.00  0.00     0.000 HD 
BRANCH  35  37
HETATM   37  S   UNL     1     -11.074   8.822  70.325  1.00  0.00    -0.183 S  
HETATM   38  C   UNL     1     -11.787   7.321  70.965  1.00  0.00    -0.318 C  
HETATM   39  O   UNL     1     -10.528   8.573  69.010  1.00  0.00    -0.219 OA 
HETATM   40  O   UNL     1     -10.267   9.406  71.376  1.00  0.00    -0.316 OA 
ENDBRANCH  35  37
ENDBRANCH  24  35
ENDBRANCH  20  22
ENDBRANCH  17  20
ENDBRANCH  13  14
ENDBRANCH  12  13
ENDBRANCH  11  12
ENDBRANCH  10  11
ENDBRANCH   5  10
ENDBRANCH   4   5
ENDBRANCH   3   4
ENDBRANCH   2   3
TORSDOF 18
ENDMDL
MODEL      129
REMARK 921   NORMALIZED FREE ENERGY PREDICTED BY IDOCK:   -4.23 KCAL/MOL
REMARK 922        TOTAL FREE ENERGY PREDICTED BY IDOCK:  -11.40 KCAL/MOL
REMARK 923 INTER-LIGAND FREE ENERGY PREDICTED BY IDOCK:   -8.73 KCAL/MOL
REMARK 924 INTRA-LIGAND FREE ENERGY PREDICTED BY IDOCK:   -2.67 KCAL/MOL
REMARK 927      BINDING AFFINITY PREDICTED BY RF-SCORE:    0.00 PKD
ROOT
HETATM    1  C   UNL     1      -6.040  16.742  68.209  1.00  0.00    -0.132 C  
HETATM    2  C   UNL     1      -6.887  17.833  67.564  1.00  0.00    -0.189 C  
ENDROOT
BRANCH   2   3
HETATM    3  C   UNL     1      -7.541  17.309  66.286  1.00  0.00    -0.360 C  
BRANCH   3   4
HETATM    4  C   UNL     1      -8.840  16.519  66.511  1.00  0.00    -0.282 C  
BRANCH   4   5
HETATM    5  N   UNL     1      -9.542  16.669  67.811  1.00  0.00    -0.234 NA 
BRANCH   5   6
HETATM    6  C   UNL     1     -10.629  17.671  67.714  1.00  0.00    -0.378 C  
BRANCH   6   7
HETATM    7  C   UNL     1     -10.308  19.098  68.201  1.00  0.00    -0.465 C  
BRANCH   7   8
HETATM    8  C   UNL     1      -9.966  20.086  67.084  1.00  0.00    -0.580 C  
HETATM    9  C   UNL     1     -10.597  19.651  65.767  1.00  0.00    -0.537 C  
ENDBRANCH   7   8
ENDBRANCH   6   7
ENDBRANCH   5   6
BRANCH   5  10
HETATM   10  C   UNL     1     -10.079  15.351  68.234  1.00  0.00    -0.218 C  
BRANCH  10  11
HETATM   11  C   UNL     1     -11.607  15.215  68.167  1.00  0.00    -0.358 C  
BRANCH  11  12
HETATM   12  C   UNL     1     -12.016  13.822  67.698  1.00  0.00    -0.356 C  
BRANCH  12  13
HETATM   13  O   UNL     1     -10.885  13.162  67.125  1.00  0.00    -0.253 OA 
BRANCH  13  14
HETATM   14  C   UNL     1     -10.835  11.804  67.300  1.00  0.00    -0.253 A  
HETATM   15  C   UNL     1     -11.172  11.114  68.467  1.00  0.00    -0.318 A  
HETATM   16  C   UNL     1     -11.000   9.724  68.548  1.00  0.00    -0.195 A  
HETATM   17  C   UNL     1     -10.497   9.009  67.454  1.00  0.00    -0.338 A  
HETATM   18  C   UNL     1     -10.260   9.688  66.253  1.00  0.00    -0.286 A  
HETATM   19  C   UNL     1     -10.393  11.081  66.191  1.00  0.00    -0.306 A  
BRANCH  17  20
HETATM   20  C   UNL     1     -10.188   7.552  67.616  1.00  0.00    -0.213 C  
HETATM   21  O   UNL     1     -11.045   6.734  67.293  1.00  0.00    -0.358 OA 
BRANCH  20  22
HETATM   22  C   UNL     1      -8.902   7.155  68.194  1.00  0.00    -0.126 A  
HETATM   23  C   UNL     1      -7.662   7.259  67.564  1.00  0.00    -0.111 A  
HETATM   24  C   UNL     1      -8.742   5.436  71.630  1.00  0.00    -0.135 A  
HETATM   25  O   UNL     1      -6.675   6.815  68.397  1.00  0.00    -0.059 OA 
HETATM   26  C   UNL     1      -7.357   5.294  71.652  1.00  0.00    -0.085 A  
HETATM   27  C   UNL     1      -7.261   6.342  69.520  1.00  0.00    -0.078 A  
HETATM   28  C   UNL     1      -8.638   6.496  69.451  1.00  0.00    -0.134 A  
HETATM   29  C   UNL     1      -6.583   5.741  70.577  1.00  0.00    -0.044 A  
HETATM   30  C   UNL     1      -9.398   5.990  70.525  1.00  0.00    -0.177 A  
BRANCH  23  31
HETATM   31  C   UNL     1      -7.161   7.586  66.196  1.00  0.00    -0.074 C  
BRANCH  31  32
HETATM   32  C   UNL     1      -7.858   6.936  65.002  1.00  0.00    -0.121 C  
BRANCH  32  33
HETATM   33  C   UNL     1      -7.826   5.411  65.209  1.00  0.00    -0.097 C  
HETATM   34  C   UNL     1      -9.191   4.749  65.186  1.00  0.00    -0.148 C  
ENDBRANCH  32  33
ENDBRANCH  31  32
ENDBRANCH  23  31
BRANCH  24  35
HETATM   35  N   UNL     1      -9.533   5.007  72.736  1.00  0.00    -0.138 N  
HETATM   36  H   UNL     1      -9.797   5.657  73.477  1.00  0.00     0.000 HD 
BRANCH  35  37
HETATM   37  S   UNL     1     -10.019   3.390  72.785  1.00  0.00    -0.158 S  
HETATM   38  C   UNL     1      -8.688   2.655  73.712  1.00  0.00    -0.072 C  
HETATM   39  O   UNL     1     -11.250   3.265  73.531  1.00  0.00    -0.222 OA 
HETATM   40  O   UNL     1      -9.915   2.918  71.420  1.00  0.00    -0.143 OA 
ENDBRANCH  35  37
ENDBRANCH  24  35
ENDBRANCH  20  22
ENDBRANCH  17  20
ENDBRANCH  13  14
ENDBRANCH  12  13
ENDBRANCH  11  12
ENDBRANCH  10  11
ENDBRANCH   5  10
ENDBRANCH   4   5
ENDBRANCH   3   4
ENDBRANCH   2   3
TORSDOF 18
ENDMDL
MODEL      130
REMARK 921   NORMALIZED FREE ENERGY PREDICTED BY IDOCK:   -4.23 KCAL/MOL
REMARK 922        TOTAL FREE ENERGY PREDICTED BY IDOCK:  -11.39 KCAL/MOL
REMARK 923 INTER-LIGAND FREE ENERGY PREDICTED BY IDOCK:   -8.51 KCAL/MOL
REMARK 924 INTRA-LIGAND FREE ENERGY PREDICTED BY IDOCK:   -2.88 KCAL/MOL
REMARK 927      BINDING AFFINITY PREDICTED BY RF-SCORE:    0.00 PKD
ROOT
HETATM    1  C   UNL     1     -10.754  19.364  67.316  1.00  0.00    -0.603 C  
HETATM    2  C   UNL     1     -10.154  18.499  66.215  1.00  0.00    -0.422 C  
ENDROOT
BRANCH   2   3
HETATM    3  C   UNL     1      -9.252  17.424  66.819  1.00  0.00    -0.274 C  
BRANCH   3   4
HETATM    4  C   UNL     1      -7.835  17.372  66.227  1.00  0.00    -0.295 C  
BRANCH   4   5
HETATM    5  N   UNL     1      -6.756  16.743  67.031  1.00  0.00    -0.187 NA 
BRANCH   5   6
HETATM    6  C   UNL     1      -6.505  17.508  68.274  1.00  0.00    -0.182 C  
BRANCH   6   7
HETATM    7  C   UNL     1      -6.362  19.037  68.134  1.00  0.00    -0.234 C  
BRANCH   7   8
HETATM    8  C   UNL     1      -7.174  19.845  69.147  1.00  0.00    -0.259 C  
HETATM    9  C   UNL     1      -6.345  20.141  70.391  1.00  0.00    -0.311 C  
ENDBRANCH   7   8
ENDBRANCH   6   7
ENDBRANCH   5   6
BRANCH   5  10
HETATM   10  C   UNL     1      -7.133  15.341  67.345  1.00  0.00    -0.191 C  
BRANCH  10  11
HETATM   11  C   UNL     1      -6.236  14.637  68.374  1.00  0.00    -0.102 C  
BRANCH  11  12
HETATM   12  C   UNL     1      -5.189  13.767  67.687  1.00  0.00     0.066 C  
BRANCH  12  13
HETATM   13  O   UNL     1      -5.201  12.460  68.266  1.00  0.00    -0.053 OA 
BRANCH  13  14
HETATM   14  C   UNL     1      -6.357  11.744  68.098  1.00  0.00    -0.051 A  
HETATM   15  C   UNL     1      -6.990  11.480  66.880  1.00  0.00    -0.134 A  
HETATM   16  C   UNL     1      -8.218  10.803  66.848  1.00  0.00    -0.130 A  
HETATM   17  C   UNL     1      -8.820  10.374  68.037  1.00  0.00    -0.130 A  
HETATM   18  C   UNL     1      -8.134  10.547  69.245  1.00  0.00    -0.152 A  
HETATM   19  C   UNL     1      -6.929  11.260  69.276  1.00  0.00    -0.119 A  
BRANCH  17  20
HETATM   20  C   UNL     1     -10.197   9.783  67.984  1.00  0.00    -0.190 C  
HETATM   21  O   UNL     1     -10.655   9.467  66.890  1.00  0.00    -0.231 OA 
BRANCH  20  22
HETATM   22  C   UNL     1     -10.962   9.646  69.226  1.00  0.00    -0.194 A  
HETATM   23  C   UNL     1     -11.753  10.638  69.805  1.00  0.00    -0.310 A  
HETATM   24  C   UNL     1     -10.710   6.447  71.345  1.00  0.00    -0.245 A  
HETATM   25  O   UNL     1     -12.336  10.165  70.945  1.00  0.00    -0.314 OA 
HETATM   26  C   UNL     1     -11.587   6.869  72.341  1.00  0.00    -0.278 A  
HETATM   27  C   UNL     1     -11.867   8.916  71.165  1.00  0.00    -0.298 A  
HETATM   28  C   UNL     1     -10.993   8.541  70.154  1.00  0.00    -0.221 A  
HETATM   29  C   UNL     1     -12.181   8.132  72.272  1.00  0.00    -0.397 A  
HETATM   30  C   UNL     1     -10.369   7.283  70.276  1.00  0.00    -0.219 A  
BRANCH  23  31
HETATM   31  C   UNL     1     -12.006  12.093  69.586  1.00  0.00    -0.351 C  
BRANCH  31  32
HETATM   32  C   UNL     1     -10.948  12.901  68.835  1.00  0.00    -0.271 C  
BRANCH  32  33
HETATM   33  C   UNL     1     -11.454  13.118  67.397  1.00  0.00    -0.375 C  
HETATM   34  C   UNL     1     -10.522  13.939  66.525  1.00  0.00    -0.282 C  
ENDBRANCH  32  33
ENDBRANCH  31  32
ENDBRANCH  23  31
BRANCH  24  35
HETATM   35  N   UNL     1     -10.124   5.148  71.397  1.00  0.00    -0.192 N  
HETATM   36  H   UNL     1     -10.592   4.344  70.978  1.00  0.00     0.000 HD 
BRANCH  35  37
HETATM   37  S   UNL     1      -8.633   4.979  72.172  1.00  0.00    -0.126 S  
HETATM   38  C   UNL     1      -7.570   4.587  70.799  1.00  0.00    -0.053 C  
HETATM   39  O   UNL     1      -8.229   6.241  72.749  1.00  0.00    -0.112 OA 
HETATM   40  O   UNL     1      -8.757   3.787  72.984  1.00  0.00    -0.093 OA 
ENDBRANCH  35  37
ENDBRANCH  24  35
ENDBRANCH  20  22
ENDBRANCH  17  20
ENDBRANCH  13  14
ENDBRANCH  12  13
ENDBRANCH  11  12
ENDBRANCH  10  11
ENDBRANCH   5  10
ENDBRANCH   4   5
ENDBRANCH   3   4
ENDBRANCH   2   3
TORSDOF 18
ENDMDL
MODEL      131
REMARK 921   NORMALIZED FREE ENERGY PREDICTED BY IDOCK:   -4.19 KCAL/MOL
REMARK 922        TOTAL FREE ENERGY PREDICTED BY IDOCK:  -11.32 KCAL/MOL
REMARK 923 INTER-LIGAND FREE ENERGY PREDICTED BY IDOCK:   -7.23 KCAL/MOL
REMARK 924 INTRA-LIGAND FREE ENERGY PREDICTED BY IDOCK:   -4.09 KCAL/MOL
REMARK 927      BINDING AFFINITY PREDICTED BY RF-SCORE:    0.00 PKD
ROOT
HETATM    1  C   UNL     1     -12.206  14.643  64.458  1.00  0.00    -0.473 C  
HETATM    2  C   UNL     1     -12.708  13.938  65.711  1.00  0.00    -0.503 C  
ENDROOT
BRANCH   2   3
HETATM    3  C   UNL     1     -12.150  14.618  66.961  1.00  0.00    -0.214 C  
BRANCH   3   4
HETATM    4  C   UNL     1     -11.681  13.651  68.059  1.00  0.00    -0.352 C  
BRANCH   4   5
HETATM    5  N   UNL     1     -10.237  13.311  68.130  1.00  0.00    -0.237 NA 
BRANCH   5   6
HETATM    6  C   UNL     1      -9.976  11.978  67.540  1.00  0.00    -0.192 C  
BRANCH   6   7
HETATM    7  C   UNL     1      -9.331  11.950  66.140  1.00  0.00    -0.228 C  
BRANCH   7   8
HETATM    8  C   UNL     1      -9.192  10.553  65.533  1.00  0.00    -0.223 C  
HETATM    9  C   UNL     1     -10.106  10.397  64.323  1.00  0.00    -0.306 C  
ENDBRANCH   7   8
ENDBRANCH   6   7
ENDBRANCH   5   6
BRANCH   5  10
HETATM   10  C   UNL     1      -9.451  14.358  67.429  1.00  0.00    -0.207 C  
BRANCH  10  11
HETATM   11  C   UNL     1      -8.376  15.050  68.281  1.00  0.00    -0.145 C  
BRANCH  11  12
HETATM   12  C   UNL     1      -6.998  14.915  67.643  1.00  0.00    -0.184 C  
BRANCH  12  13
HETATM   13  O   UNL     1      -6.161  14.114  68.481  1.00  0.00    -0.080 OA 
BRANCH  13  14
HETATM   14  C   UNL     1      -6.313  12.758  68.355  1.00  0.00    -0.078 A  
HETATM   15  C   UNL     1      -6.863  11.901  69.313  1.00  0.00    -0.080 A  
HETATM   16  C   UNL     1      -6.889  10.516  69.098  1.00  0.00    -0.074 A  
HETATM   17  C   UNL     1      -6.373   9.974  67.914  1.00  0.00    -0.058 A  
HETATM   18  C   UNL     1      -5.920  10.842  66.913  1.00  0.00    -0.078 A  
HETATM   19  C   UNL     1      -5.858  12.221  67.150  1.00  0.00    -0.111 A  
BRANCH  17  20
HETATM   20  C   UNL     1      -6.282   8.485  67.773  1.00  0.00    -0.052 C  
HETATM   21  O   UNL     1      -5.224   7.934  68.066  1.00  0.00    -0.029 OA 
BRANCH  20  22
HETATM   22  C   UNL     1      -7.434   7.747  67.249  1.00  0.00    -0.093 A  
HETATM   23  C   UNL     1      -7.602   7.336  65.927  1.00  0.00    -0.090 A  
HETATM   24  C   UNL     1     -10.468   6.996  69.491  1.00  0.00    -0.220 A  
HETATM   25  O   UNL     1      -8.780   6.658  65.794  1.00  0.00    -0.153 OA 
HETATM   26  C   UNL     1     -11.202   6.328  68.514  1.00  0.00    -0.305 A  
HETATM   27  C   UNL     1      -9.421   6.700  66.984  1.00  0.00    -0.144 A  
HETATM   28  C   UNL     1      -8.658   7.381  67.922  1.00  0.00    -0.125 A  
HETATM   29  C   UNL     1     -10.688   6.176  67.223  1.00  0.00    -0.414 A  
HETATM   30  C   UNL     1      -9.222   7.565  69.201  1.00  0.00    -0.144 A  
BRANCH  23  31
HETATM   31  C   UNL     1      -6.914   7.564  64.622  1.00  0.00    -0.052 C  
BRANCH  31  32
HETATM   32  C   UNL     1      -7.767   7.579  63.354  1.00  0.00    -0.129 C  
BRANCH  32  33
HETATM   33  C   UNL     1      -7.193   6.530  62.386  1.00  0.00    -0.050 C  
HETATM   34  C   UNL     1      -6.414   5.417  63.063  1.00  0.00    -0.025 C  
ENDBRANCH  32  33
ENDBRANCH  31  32
ENDBRANCH  23  31
BRANCH  24  35
HETATM   35  N   UNL     1     -10.976   7.129  70.817  1.00  0.00    -0.245 N  
HETATM   36  H   UNL     1     -11.238   6.309  71.363  1.00  0.00     0.000 HD 
BRANCH  35  37
HETATM   37  S   UNL     1     -11.131   8.685  71.455  1.00  0.00    -0.315 S  
HETATM   38  C   UNL     1     -12.777   8.619  72.132  1.00  0.00    -0.392 C  
HETATM   39  O   UNL     1     -10.179   8.879  72.524  1.00  0.00    -0.186 OA 
HETATM   40  O   UNL     1     -11.165   9.568  70.308  1.00  0.00    -0.246 OA 
ENDBRANCH  35  37
ENDBRANCH  24  35
ENDBRANCH  20  22
ENDBRANCH  17  20
ENDBRANCH  13  14
ENDBRANCH  12  13
ENDBRANCH  11  12
ENDBRANCH  10  11
ENDBRANCH   5  10
ENDBRANCH   4   5
ENDBRANCH   3   4
ENDBRANCH   2   3
TORSDOF 18
ENDMDL
MODEL      132
REMARK 921   NORMALIZED FREE ENERGY PREDICTED BY IDOCK:   -4.19 KCAL/MOL
REMARK 922        TOTAL FREE ENERGY PREDICTED BY IDOCK:  -11.32 KCAL/MOL
REMARK 923 INTER-LIGAND FREE ENERGY PREDICTED BY IDOCK:   -9.16 KCAL/MOL
REMARK 924 INTRA-LIGAND FREE ENERGY PREDICTED BY IDOCK:   -2.16 KCAL/MOL
REMARK 927      BINDING AFFINITY PREDICTED BY RF-SCORE:    0.00 PKD
ROOT
HETATM    1  C   UNL     1      -6.897  18.339  67.494  1.00  0.00    -0.203 C  
HETATM    2  C   UNL     1      -7.733  18.067  66.250  1.00  0.00    -0.293 C  
ENDROOT
BRANCH   2   3
HETATM    3  C   UNL     1      -8.165  16.602  66.211  1.00  0.00    -0.365 C  
BRANCH   3   4
HETATM    4  C   UNL     1      -9.681  16.379  66.321  1.00  0.00    -0.308 C  
BRANCH   4   5
HETATM    5  N   UNL     1     -10.176  15.334  67.253  1.00  0.00    -0.245 NA 
BRANCH   5   6
HETATM    6  C   UNL     1     -11.149  15.899  68.217  1.00  0.00    -0.345 C  
BRANCH   6   7
HETATM    7  C   UNL     1     -11.080  15.374  69.664  1.00  0.00    -0.280 C  
BRANCH   7   8
HETATM    8  C   UNL     1     -12.251  14.476  70.070  1.00  0.00    -0.396 C  
HETATM    9  C   UNL     1     -11.871  13.006  69.948  1.00  0.00    -0.377 C  
ENDBRANCH   7   8
ENDBRANCH   6   7
ENDBRANCH   5   6
BRANCH   5  10
HETATM   10  C   UNL     1     -10.791  14.232  66.471  1.00  0.00    -0.304 C  
BRANCH  10  11
HETATM   11  C   UNL     1      -9.810  13.170  65.952  1.00  0.00    -0.241 C  
BRANCH  11  12
HETATM   12  C   UNL     1      -9.913  11.883  66.764  1.00  0.00    -0.195 C  
BRANCH  12  13
HETATM   13  O   UNL     1      -9.024  10.904  66.220  1.00  0.00    -0.164 OA 
BRANCH  13  14
HETATM   14  C   UNL     1      -9.425   9.600  66.343  1.00  0.00    -0.189 A  
HETATM   15  C   UNL     1     -10.597   9.156  66.963  1.00  0.00    -0.266 A  
HETATM   16  C   UNL     1     -10.856   7.784  67.097  1.00  0.00    -0.227 A  
HETATM   17  C   UNL     1      -9.946   6.841  66.602  1.00  0.00    -0.207 A  
HETATM   18  C   UNL     1      -8.826   7.289  65.891  1.00  0.00    -0.136 A  
HETATM   19  C   UNL     1      -8.551   8.659  65.797  1.00  0.00    -0.184 A  
BRANCH  17  20
HETATM   20  C   UNL     1     -10.177   5.388  66.887  1.00  0.00    -0.240 C  
HETATM   21  O   UNL     1     -10.719   4.703  66.023  1.00  0.00    -0.295 OA 
BRANCH  20  22
HETATM   22  C   UNL     1      -9.794   4.847  68.193  1.00  0.00    -0.198 A  
HETATM   23  C   UNL     1      -8.880   3.816  68.408  1.00  0.00    -0.112 A  
HETATM   24  C   UNL     1     -11.518   6.072  71.405  1.00  0.00    -0.199 A  
HETATM   25  O   UNL     1      -8.749   3.579  69.747  1.00  0.00    -0.066 OA 
HETATM   26  C   UNL     1     -10.799   5.252  72.271  1.00  0.00    -0.269 A  
HETATM   27  C   UNL     1      -9.627   4.375  70.398  1.00  0.00    -0.196 A  
HETATM   28  C   UNL     1     -10.325   5.167  69.497  1.00  0.00    -0.292 A  
HETATM   29  C   UNL     1      -9.836   4.369  71.775  1.00  0.00    -0.253 A  
HETATM   30  C   UNL     1     -11.326   6.009  70.020  1.00  0.00    -0.354 A  
BRANCH  23  31
HETATM   31  C   UNL     1      -8.136   2.830  67.570  1.00  0.00    -0.077 C  
BRANCH  31  32
HETATM   32  C   UNL     1      -6.953   3.336  66.746  1.00  0.00    -0.054 C  
BRANCH  32  33
HETATM   33  C   UNL     1      -7.458   3.617  65.320  1.00  0.00    -0.077 C  
HETATM   34  C   UNL     1      -6.522   4.469  64.482  1.00  0.00    -0.039 C  
ENDBRANCH  32  33
ENDBRANCH  31  32
ENDBRANCH  23  31
BRANCH  24  35
HETATM   35  N   UNL     1     -12.481   6.993  71.911  1.00  0.00    -0.433 N  
HETATM   36  H   UNL     1     -13.454   6.715  72.044  1.00  0.00     0.000 HD 
BRANCH  35  37
HETATM   37  S   UNL     1     -11.966   8.558  72.282  1.00  0.00    -0.370 S  
HETATM   38  C   UNL     1     -11.675   9.222  70.656  1.00  0.00    -0.222 C  
HETATM   39  O   UNL     1     -13.034   9.293  72.918  1.00  0.00    -0.235 OA 
HETATM   40  O   UNL     1     -10.679   8.394  72.925  1.00  0.00    -0.253 OA 
ENDBRANCH  35  37
ENDBRANCH  24  35
ENDBRANCH  20  22
ENDBRANCH  17  20
ENDBRANCH  13  14
ENDBRANCH  12  13
ENDBRANCH  11  12
ENDBRANCH  10  11
ENDBRANCH   5  10
ENDBRANCH   4   5
ENDBRANCH   3   4
ENDBRANCH   2   3
TORSDOF 18
ENDMDL
MODEL      133
REMARK 921   NORMALIZED FREE ENERGY PREDICTED BY IDOCK:   -4.16 KCAL/MOL
REMARK 922        TOTAL FREE ENERGY PREDICTED BY IDOCK:  -11.27 KCAL/MOL
REMARK 923 INTER-LIGAND FREE ENERGY PREDICTED BY IDOCK:   -9.86 KCAL/MOL
REMARK 924 INTRA-LIGAND FREE ENERGY PREDICTED BY IDOCK:   -1.40 KCAL/MOL
REMARK 927      BINDING AFFINITY PREDICTED BY RF-SCORE:    0.00 PKD
ROOT
HETATM    1  C   UNL     1     -10.027   4.802  74.418  1.00  0.00    -0.225 C  
HETATM    2  C   UNL     1     -10.869   3.950  73.477  1.00  0.00    -0.330 C  
ENDROOT
BRANCH   2   3
HETATM    3  C   UNL     1     -12.004   4.783  72.882  1.00  0.00     0.049 C  
BRANCH   3   4
HETATM    4  C   UNL     1     -11.570   6.147  72.324  1.00  0.00    -0.313 C  
BRANCH   4   5
HETATM    5  N   UNL     1     -10.666   6.174  71.147  1.00  0.00    -0.246 NA 
BRANCH   5   6
HETATM    6  C   UNL     1     -11.439   6.231  69.884  1.00  0.00    -0.389 C  
BRANCH   6   7
HETATM    7  C   UNL     1     -10.690   5.852  68.591  1.00  0.00    -0.339 C  
BRANCH   7   8
HETATM    8  C   UNL     1     -10.957   6.784  67.407  1.00  0.00    -0.407 C  
HETATM    9  C   UNL     1      -9.674   7.047  66.629  1.00  0.00    -0.226 C  
ENDBRANCH   7   8
ENDBRANCH   6   7
ENDBRANCH   5   6
BRANCH   5  10
HETATM   10  C   UNL     1      -9.753   7.340  71.256  1.00  0.00    -0.166 C  
BRANCH  10  11
HETATM   11  C   UNL     1     -10.248   8.625  70.574  1.00  0.00    -0.229 C  
BRANCH  11  12
HETATM   12  C   UNL     1      -9.102   9.606  70.352  1.00  0.00    -0.191 C  
BRANCH  12  13
HETATM   13  O   UNL     1      -8.702   9.569  68.980  1.00  0.00    -0.132 OA 
BRANCH  13  14
HETATM   14  C   UNL     1      -8.399  10.780  68.414  1.00  0.00    -0.132 A  
HETATM   15  C   UNL     1      -7.251  11.075  67.673  1.00  0.00    -0.093 A  
HETATM   16  C   UNL     1      -7.017  12.380  67.215  1.00  0.00    -0.129 A  
HETATM   17  C   UNL     1      -7.936  13.401  67.486  1.00  0.00    -0.186 A  
HETATM   18  C   UNL     1      -9.133  13.079  68.137  1.00  0.00    -0.204 A  
HETATM   19  C   UNL     1      -9.342  11.785  68.629  1.00  0.00    -0.096 A  
BRANCH  17  20
HETATM   20  C   UNL     1      -7.591  14.810  67.110  1.00  0.00    -0.079 C  
HETATM   21  O   UNL     1      -6.406  15.110  66.994  1.00  0.00    -0.214 OA 
BRANCH  20  22
HETATM   22  C   UNL     1      -8.669  15.787  66.941  1.00  0.00    -0.274 A  
HETATM   23  C   UNL     1      -9.760  15.652  66.083  1.00  0.00    -0.318 A  
HETATM   24  C   UNL     1      -8.538  19.182  68.743  1.00  0.00    -0.335 A  
HETATM   25  O   UNL     1     -10.578  16.740  66.192  1.00  0.00    -0.294 OA 
HETATM   26  C   UNL     1      -9.742  19.660  68.229  1.00  0.00    -0.500 A  
HETATM   27  C   UNL     1      -9.992  17.618  67.037  1.00  0.00    -0.320 A  
HETATM   28  C   UNL     1      -8.795  17.105  67.517  1.00  0.00    -0.218 A  
HETATM   29  C   UNL     1     -10.494  18.880  67.347  1.00  0.00    -0.520 A  
HETATM   30  C   UNL     1      -8.032  17.934  68.364  1.00  0.00    -0.300 A  
BRANCH  23  31
HETATM   31  C   UNL     1     -10.180  14.718  64.998  1.00  0.00    -0.379 C  
BRANCH  31  32
HETATM   32  C   UNL     1     -11.671  14.611  64.679  1.00  0.00    -0.431 C  
BRANCH  32  33
HETATM   33  C   UNL     1     -12.179  13.273  65.245  1.00  0.00    -0.492 C  
HETATM   34  C   UNL     1     -12.387  13.270  66.749  1.00  0.00    -0.239 C  
ENDBRANCH  32  33
ENDBRANCH  31  32
ENDBRANCH  23  31
BRANCH  24  35
HETATM   35  N   UNL     1      -7.782  19.964  69.665  1.00  0.00     0.106 N  
HETATM   36  H   UNL     1      -8.243  20.494  70.405  1.00  0.00     0.000 HD 
BRANCH  35  37
HETATM   37  S   UNL     1      -6.102  19.986  69.496  1.00  0.00    -0.351 S  
HETATM   38  C   UNL     1      -5.600  20.584  71.097  1.00  0.00    -0.179 C  
HETATM   39  O   UNL     1      -5.605  18.643  69.307  1.00  0.00    -0.200 OA 
HETATM   40  O   UNL     1      -5.828  21.032  68.533  1.00  0.00    -0.340 OA 
ENDBRANCH  35  37
ENDBRANCH  24  35
ENDBRANCH  20  22
ENDBRANCH  17  20
ENDBRANCH  13  14
ENDBRANCH  12  13
ENDBRANCH  11  12
ENDBRANCH  10  11
ENDBRANCH   5  10
ENDBRANCH   4   5
ENDBRANCH   3   4
ENDBRANCH   2   3
TORSDOF 18
ENDMDL
MODEL      134
REMARK 921   NORMALIZED FREE ENERGY PREDICTED BY IDOCK:   -4.16 KCAL/MOL
REMARK 922        TOTAL FREE ENERGY PREDICTED BY IDOCK:  -11.26 KCAL/MOL
REMARK 923 INTER-LIGAND FREE ENERGY PREDICTED BY IDOCK:   -8.66 KCAL/MOL
REMARK 924 INTRA-LIGAND FREE ENERGY PREDICTED BY IDOCK:   -2.60 KCAL/MOL
REMARK 927      BINDING AFFINITY PREDICTED BY RF-SCORE:    0.00 PKD
ROOT
HETATM    1  C   UNL     1     -13.044  15.284  72.131  1.00  0.00    -0.471 C  
HETATM    2  C   UNL     1     -13.074  14.367  70.914  1.00  0.00    -0.390 C  
ENDROOT
BRANCH   2   3
HETATM    3  C   UNL     1     -11.819  14.572  70.066  1.00  0.00    -0.372 C  
BRANCH   3   4
HETATM    4  C   UNL     1     -11.762  13.716  68.792  1.00  0.00    -0.348 C  
BRANCH   4   5
HETATM    5  N   UNL     1     -11.655  14.407  67.481  1.00  0.00    -0.355 NA 
BRANCH   5   6
HETATM    6  C   UNL     1     -10.988  15.721  67.627  1.00  0.00    -0.302 C  
BRANCH   6   7
HETATM    7  C   UNL     1      -9.854  16.041  66.632  1.00  0.00    -0.273 C  
BRANCH   7   8
HETATM    8  C   UNL     1      -8.496  16.308  67.284  1.00  0.00    -0.199 C  
HETATM    9  C   UNL     1      -8.564  16.073  68.788  1.00  0.00    -0.223 C  
ENDBRANCH   7   8
ENDBRANCH   6   7
ENDBRANCH   5   6
BRANCH   5  10
HETATM   10  C   UNL     1     -10.909  13.542  66.531  1.00  0.00    -0.282 C  
BRANCH  10  11
HETATM   11  C   UNL     1     -10.301  12.271  67.142  1.00  0.00    -0.234 C  
BRANCH  11  12
HETATM   12  C   UNL     1      -9.548  11.462  66.091  1.00  0.00    -0.218 C  
BRANCH  12  13
HETATM   13  O   UNL     1      -8.750  10.467  66.737  1.00  0.00    -0.127 OA 
BRANCH  13  14
HETATM   14  C   UNL     1      -9.192   9.176  66.613  1.00  0.00    -0.164 A  
HETATM   15  C   UNL     1     -10.399   8.670  67.105  1.00  0.00    -0.369 A  
HETATM   16  C   UNL     1     -10.700   7.306  66.985  1.00  0.00    -0.406 A  
HETATM   17  C   UNL     1      -9.800   6.435  66.360  1.00  0.00    -0.120 A  
HETATM   18  C   UNL     1      -8.642   6.962  65.777  1.00  0.00    -0.139 A  
HETATM   19  C   UNL     1      -8.325   8.317  65.937  1.00  0.00    -0.132 A  
BRANCH  17  20
HETATM   20  C   UNL     1     -10.081   4.963  66.374  1.00  0.00    -0.258 C  
HETATM   21  O   UNL     1     -10.853   4.509  65.533  1.00  0.00    -0.280 OA 
BRANCH  20  22
HETATM   22  C   UNL     1      -9.469   4.129  67.410  1.00  0.00    -0.223 A  
HETATM   23  C   UNL     1      -8.688   2.995  67.184  1.00  0.00    -0.125 A  
HETATM   24  C   UNL     1     -10.150   4.810  71.133  1.00  0.00    -0.191 A  
HETATM   25  O   UNL     1      -8.265   2.473  68.373  1.00  0.00    -0.056 OA 
HETATM   26  C   UNL     1      -9.365   3.764  71.613  1.00  0.00    -0.198 A  
HETATM   27  C   UNL     1      -8.831   3.193  69.367  1.00  0.00    -0.096 A  
HETATM   28  C   UNL     1      -9.609   4.217  68.844  1.00  0.00    -0.222 A  
HETATM   29  C   UNL     1      -8.691   2.920  70.726  1.00  0.00    -0.130 A  
HETATM   30  C   UNL     1     -10.318   5.020  69.760  1.00  0.00    -0.286 A  
BRANCH  23  31
HETATM   31  C   UNL     1      -8.324   2.142  66.015  1.00  0.00    -0.095 C  
BRANCH  31  32
HETATM   32  C   UNL     1      -6.984   2.399  65.328  1.00  0.00    -0.051 C  
BRANCH  32  33
HETATM   33  C   UNL     1      -7.057   3.779  64.651  1.00  0.00    -0.061 C  
HETATM   34  C   UNL     1      -8.024   3.852  63.484  1.00  0.00    -0.087 C  
ENDBRANCH  32  33
ENDBRANCH  31  32
ENDBRANCH  23  31
BRANCH  24  35
HETATM   35  N   UNL     1     -10.816   5.690  72.036  1.00  0.00    -0.238 N  
HETATM   36  H   UNL     1     -11.514   5.339  72.692  1.00  0.00     0.000 HD 
BRANCH  35  37
HETATM   37  S   UNL     1     -10.417   7.330  71.986  1.00  0.00    -0.204 S  
HETATM   38  C   UNL     1      -8.645   7.251  71.827  1.00  0.00    -0.116 C  
HETATM   39  O   UNL     1     -10.979   7.941  70.803  1.00  0.00    -0.242 OA 
HETATM   40  O   UNL     1     -10.716   7.837  73.309  1.00  0.00    -0.374 OA 
ENDBRANCH  35  37
ENDBRANCH  24  35
ENDBRANCH  20  22
ENDBRANCH  17  20
ENDBRANCH  13  14
ENDBRANCH  12  13
ENDBRANCH  11  12
ENDBRANCH  10  11
ENDBRANCH   5  10
ENDBRANCH   4   5
ENDBRANCH   3   4
ENDBRANCH   2   3
TORSDOF 18
ENDMDL
MODEL      135
REMARK 921   NORMALIZED FREE ENERGY PREDICTED BY IDOCK:   -4.15 KCAL/MOL
REMARK 922        TOTAL FREE ENERGY PREDICTED BY IDOCK:  -11.23 KCAL/MOL
REMARK 923 INTER-LIGAND FREE ENERGY PREDICTED BY IDOCK:   -8.74 KCAL/MOL
REMARK 924 INTRA-LIGAND FREE ENERGY PREDICTED BY IDOCK:   -2.49 KCAL/MOL
REMARK 927      BINDING AFFINITY PREDICTED BY RF-SCORE:    0.00 PKD
ROOT
HETATM    1  C   UNL     1     -10.858  19.347  67.348  1.00  0.00    -0.555 C  
HETATM    2  C   UNL     1     -10.281  18.570  66.171  1.00  0.00    -0.424 C  
ENDROOT
BRANCH   2   3
HETATM    3  C   UNL     1      -9.839  17.178  66.621  1.00  0.00    -0.295 C  
BRANCH   3   4
HETATM    4  C   UNL     1      -8.422  16.783  66.179  1.00  0.00    -0.263 C  
BRANCH   4   5
HETATM    5  N   UNL     1      -7.624  15.902  67.069  1.00  0.00    -0.219 NA 
BRANCH   5   6
HETATM    6  C   UNL     1      -7.167  16.635  68.273  1.00  0.00    -0.169 C  
BRANCH   6   7
HETATM    7  C   UNL     1      -6.382  17.940  68.037  1.00  0.00    -0.178 C  
BRANCH   7   8
HETATM    8  C   UNL     1      -7.084  19.203  68.541  1.00  0.00    -0.335 C  
HETATM    9  C   UNL     1      -7.193  20.240  67.430  1.00  0.00    -0.328 C  
ENDBRANCH   7   8
ENDBRANCH   6   7
ENDBRANCH   5   6
BRANCH   5  10
HETATM   10  C   UNL     1      -8.442  14.723  67.453  1.00  0.00    -0.201 C  
BRANCH  10  11
HETATM   11  C   UNL     1      -7.766  13.745  68.426  1.00  0.00    -0.134 C  
BRANCH  11  12
HETATM   12  C   UNL     1      -6.823  12.801  67.689  1.00  0.00    -0.147 C  
BRANCH  12  13
HETATM   13  O   UNL     1      -6.488  11.702  68.540  1.00  0.00    -0.051 OA 
BRANCH  13  14
HETATM   14  C   UNL     1      -7.405  10.686  68.593  1.00  0.00    -0.094 A  
HETATM   15  C   UNL     1      -8.110  10.159  67.507  1.00  0.00    -0.113 A  
HETATM   16  C   UNL     1      -9.086   9.172  67.704  1.00  0.00    -0.133 A  
HETATM   17  C   UNL     1      -9.360   8.694  68.991  1.00  0.00    -0.146 A  
HETATM   18  C   UNL     1      -8.580   9.147  70.061  1.00  0.00    -0.172 A  
HETATM   19  C   UNL     1      -7.636  10.163  69.866  1.00  0.00    -0.174 A  
BRANCH  17  20
HETATM   20  C   UNL     1     -10.504   7.747  69.189  1.00  0.00    -0.211 C  
HETATM   21  O   UNL     1     -11.153   7.402  68.205  1.00  0.00    -0.005 OA 
BRANCH  20  22
HETATM   22  C   UNL     1     -10.838   7.304  70.545  1.00  0.00    -0.262 A  
HETATM   23  C   UNL     1     -11.416   8.096  71.537  1.00  0.00    -0.267 A  
HETATM   24  C   UNL     1      -9.899   3.773  71.743  1.00  0.00    -0.174 A  
HETATM   25  O   UNL     1     -11.605   7.359  72.672  1.00  0.00    -0.299 OA 
HETATM   26  C   UNL     1     -10.422   3.917  73.026  1.00  0.00    -0.253 A  
HETATM   27  C   UNL     1     -11.078   6.131  72.463  1.00  0.00    -0.274 A  
HETATM   28  C   UNL     1     -10.563   6.036  71.177  1.00  0.00    -0.303 A  
HETATM   29  C   UNL     1     -11.019   5.118  73.417  1.00  0.00    -0.381 A  
HETATM   30  C   UNL     1      -9.921   4.831  70.828  1.00  0.00    -0.291 A  
BRANCH  23  31
HETATM   31  C   UNL     1     -11.739   9.541  71.725  1.00  0.00    -0.411 C  
BRANCH  31  32
HETATM   32  C   UNL     1     -12.623  10.220  70.680  1.00  0.00    -0.391 C  
BRANCH  32  33
HETATM   33  C   UNL     1     -11.832  11.399  70.087  1.00  0.00    -0.440 C  
HETATM   34  C   UNL     1     -11.852  11.464  68.571  1.00  0.00    -0.364 C  
ENDBRANCH  32  33
ENDBRANCH  31  32
ENDBRANCH  23  31
BRANCH  24  35
HETATM   35  N   UNL     1      -9.314   2.540  71.333  1.00  0.00    -0.119 N  
HETATM   36  H   UNL     1      -9.771   1.650  71.531  1.00  0.00     0.000 HD 
BRANCH  35  37
HETATM   37  S   UNL     1      -7.841   2.595  70.508  1.00  0.00    -0.042 S  
HETATM   38  C   UNL     1      -8.354   2.182  68.854  1.00  0.00    -0.056 C  
HETATM   39  O   UNL     1      -7.312   3.939  70.527  1.00  0.00    -0.041 OA 
HETATM   40  O   UNL     1      -7.074   1.478  71.020  1.00  0.00    -0.031 OA 
ENDBRANCH  35  37
ENDBRANCH  24  35
ENDBRANCH  20  22
ENDBRANCH  17  20
ENDBRANCH  13  14
ENDBRANCH  12  13
ENDBRANCH  11  12
ENDBRANCH  10  11
ENDBRANCH   5  10
ENDBRANCH   4   5
ENDBRANCH   3   4
ENDBRANCH   2   3
TORSDOF 18
ENDMDL
MODEL      136
REMARK 921   NORMALIZED FREE ENERGY PREDICTED BY IDOCK:   -4.13 KCAL/MOL
REMARK 922        TOTAL FREE ENERGY PREDICTED BY IDOCK:  -11.19 KCAL/MOL
REMARK 923 INTER-LIGAND FREE ENERGY PREDICTED BY IDOCK:   -8.63 KCAL/MOL
REMARK 924 INTRA-LIGAND FREE ENERGY PREDICTED BY IDOCK:   -2.56 KCAL/MOL
REMARK 927      BINDING AFFINITY PREDICTED BY RF-SCORE:    0.00 PKD
ROOT
HETATM    1  C   UNL     1     -11.939  14.073  64.491  1.00  0.00    -0.470 C  
HETATM    2  C   UNL     1     -10.495  13.897  64.944  1.00  0.00    -0.446 C  
ENDROOT
BRANCH   2   3
HETATM    3  C   UNL     1      -9.924  15.232  65.421  1.00  0.00    -0.364 C  
BRANCH   3   4
HETATM    4  C   UNL     1     -10.897  16.085  66.248  1.00  0.00    -0.166 C  
BRANCH   4   5
HETATM    5  N   UNL     1     -10.510  16.457  67.633  1.00  0.00    -0.296 NA 
BRANCH   5   6
HETATM    6  C   UNL     1     -10.371  17.925  67.769  1.00  0.00    -0.387 C  
BRANCH   6   7
HETATM    7  C   UNL     1     -10.411  18.753  66.469  1.00  0.00    -0.475 C  
BRANCH   7   8
HETATM    8  C   UNL     1      -9.349  19.851  66.384  1.00  0.00    -0.493 C  
HETATM    9  C   UNL     1      -7.951  19.261  66.515  1.00  0.00    -0.306 C  
ENDBRANCH   7   8
ENDBRANCH   6   7
ENDBRANCH   5   6
BRANCH   5  10
HETATM   10  C   UNL     1     -11.526  15.936  68.582  1.00  0.00    -0.391 C  
BRANCH  10  11
HETATM   11  C   UNL     1     -12.213  14.630  68.156  1.00  0.00    -0.094 C  
BRANCH  11  12
HETATM   12  C   UNL     1     -11.730  13.454  68.998  1.00  0.00    -0.323 C  
BRANCH  12  13
HETATM   13  O   UNL     1     -10.602  12.844  68.364  1.00  0.00    -0.241 OA 
BRANCH  13  14
HETATM   14  C   UNL     1     -10.635  11.478  68.273  1.00  0.00    -0.200 A  
HETATM   15  C   UNL     1     -10.862  10.590  69.329  1.00  0.00    -0.284 A  
HETATM   16  C   UNL     1     -10.790   9.205  69.122  1.00  0.00    -0.131 A  
HETATM   17  C   UNL     1     -10.499   8.694  67.851  1.00  0.00    -0.269 A  
HETATM   18  C   UNL     1     -10.377   9.582  66.776  1.00  0.00    -0.298 A  
HETATM   19  C   UNL     1     -10.408  10.965  66.996  1.00  0.00    -0.276 A  
BRANCH  17  20
HETATM   20  C   UNL     1     -10.286   7.219  67.690  1.00  0.00    -0.227 C  
HETATM   21  O   UNL     1     -11.189   6.550  67.194  1.00  0.00    -0.388 OA 
BRANCH  20  22
HETATM   22  C   UNL     1      -9.038   6.622  68.170  1.00  0.00    -0.119 A  
HETATM   23  C   UNL     1      -7.758   6.941  67.715  1.00  0.00    -0.112 A  
HETATM   24  C   UNL     1      -9.092   3.743  70.719  1.00  0.00    -0.109 A  
HETATM   25  O   UNL     1      -6.826   6.209  68.391  1.00  0.00    -0.068 OA 
HETATM   26  C   UNL     1      -7.709   3.589  70.786  1.00  0.00    -0.040 A  
HETATM   27  C   UNL     1      -7.481   5.356  69.211  1.00  0.00    -0.073 A  
HETATM   28  C   UNL     1      -8.852   5.539  69.106  1.00  0.00    -0.106 A  
HETATM   29  C   UNL     1      -6.869   4.397  70.014  1.00  0.00    -0.041 A  
HETATM   30  C   UNL     1      -9.677   4.676  69.856  1.00  0.00    -0.279 A  
BRANCH  23  31
HETATM   31  C   UNL     1      -7.168   7.750  66.608  1.00  0.00    -0.087 C  
BRANCH  31  32
HETATM   32  C   UNL     1      -6.538   7.006  65.432  1.00  0.00    -0.047 C  
BRANCH  32  33
HETATM   33  C   UNL     1      -7.661   6.650  64.442  1.00  0.00    -0.103 C  
HETATM   34  C   UNL     1      -8.119   5.205  64.509  1.00  0.00    -0.120 C  
ENDBRANCH  32  33
ENDBRANCH  31  32
ENDBRANCH  23  31
BRANCH  24  35
HETATM   35  N   UNL     1      -9.951   2.940  71.525  1.00  0.00    -0.120 N  
HETATM   36  H   UNL     1     -10.341   2.067  71.168  1.00  0.00     0.000 HD 
BRANCH  35  37
HETATM   37  S   UNL     1     -10.304   3.475  73.087  1.00  0.00    -0.171 S  
HETATM   38  C   UNL     1     -11.446   2.223  73.633  1.00  0.00    -0.194 C  
HETATM   39  O   UNL     1      -9.115   3.432  73.906  1.00  0.00    -0.089 OA 
HETATM   40  O   UNL     1     -11.051   4.703  72.911  1.00  0.00    -0.228 OA 
ENDBRANCH  35  37
ENDBRANCH  24  35
ENDBRANCH  20  22
ENDBRANCH  17  20
ENDBRANCH  13  14
ENDBRANCH  12  13
ENDBRANCH  11  12
ENDBRANCH  10  11
ENDBRANCH   5  10
ENDBRANCH   4   5
ENDBRANCH   3   4
ENDBRANCH   2   3
TORSDOF 18
ENDMDL
MODEL      137
REMARK 921   NORMALIZED FREE ENERGY PREDICTED BY IDOCK:   -4.12 KCAL/MOL
REMARK 922        TOTAL FREE ENERGY PREDICTED BY IDOCK:  -11.18 KCAL/MOL
REMARK 923 INTER-LIGAND FREE ENERGY PREDICTED BY IDOCK:   -9.38 KCAL/MOL
REMARK 924 INTRA-LIGAND FREE ENERGY PREDICTED BY IDOCK:   -1.80 KCAL/MOL
REMARK 927      BINDING AFFINITY PREDICTED BY RF-SCORE:    0.00 PKD
ROOT
HETATM    1  C   UNL     1     -10.118  19.603  68.575  1.00  0.00    -0.557 C  
HETATM    2  C   UNL     1     -10.518  19.950  67.147  1.00  0.00    -0.566 C  
ENDROOT
BRANCH   2   3
HETATM    3  C   UNL     1     -10.533  18.691  66.281  1.00  0.00    -0.468 C  
BRANCH   3   4
HETATM    4  C   UNL     1      -9.764  17.500  66.871  1.00  0.00    -0.291 C  
BRANCH   4   5
HETATM    5  N   UNL     1      -8.800  16.780  66.001  1.00  0.00    -0.502 NA 
BRANCH   5   6
HETATM    6  C   UNL     1      -7.403  17.110  66.368  1.00  0.00    -0.299 C  
BRANCH   6   7
HETATM    7  C   UNL     1      -6.670  18.129  65.473  1.00  0.00    -0.175 C  
BRANCH   7   8
HETATM    8  C   UNL     1      -7.062  19.587  65.720  1.00  0.00    -0.318 C  
HETATM    9  C   UNL     1      -6.849  19.963  67.181  1.00  0.00    -0.240 C  
ENDBRANCH   7   8
ENDBRANCH   6   7
ENDBRANCH   5   6
BRANCH   5  10
HETATM   10  C   UNL     1      -9.039  15.318  66.108  1.00  0.00    -0.279 C  
BRANCH  10  11
HETATM   11  C   UNL     1     -10.433  14.848  65.667  1.00  0.00    -0.366 C  
BRANCH  11  12
HETATM   12  C   UNL     1     -11.193  14.216  66.828  1.00  0.00    -0.323 C  
BRANCH  12  13
HETATM   13  O   UNL     1     -10.264  13.644  67.752  1.00  0.00    -0.234 OA 
BRANCH  13  14
HETATM   14  C   UNL     1     -10.043  12.298  67.620  1.00  0.00    -0.200 A  
HETATM   15  C   UNL     1     -10.898  11.383  67.001  1.00  0.00    -0.331 A  
HETATM   16  C   UNL     1     -10.597  10.013  67.003  1.00  0.00    -0.279 A  
HETATM   17  C   UNL     1      -9.428   9.547  67.618  1.00  0.00    -0.153 A  
HETATM   18  C   UNL     1      -8.523  10.477  68.144  1.00  0.00    -0.123 A  
HETATM   19  C   UNL     1      -8.849  11.838  68.177  1.00  0.00    -0.169 A  
BRANCH  17  20
HETATM   20  C   UNL     1      -9.204   8.070  67.731  1.00  0.00    -0.134 C  
HETATM   21  O   UNL     1      -9.085   7.417  66.698  1.00  0.00    -0.141 OA 
BRANCH  20  22
HETATM   22  C   UNL     1      -9.181   7.451  69.059  1.00  0.00    -0.146 A  
HETATM   23  C   UNL     1      -8.415   6.346  69.427  1.00  0.00    -0.126 A  
HETATM   24  C   UNL     1     -11.545   8.678  71.834  1.00  0.00    -0.350 A  
HETATM   25  O   UNL     1      -8.625   6.048  70.742  1.00  0.00    -0.131 OA 
HETATM   26  C   UNL     1     -11.110   7.773  72.799  1.00  0.00    -0.457 A  
HETATM   27  C   UNL     1      -9.580   6.883  71.210  1.00  0.00    -0.165 A  
HETATM   28  C   UNL     1      -9.989   7.760  70.215  1.00  0.00    -0.189 A  
HETATM   29  C   UNL     1     -10.114   6.840  72.496  1.00  0.00    -0.190 A  
HETATM   30  C   UNL     1     -11.030   8.655  70.533  1.00  0.00    -0.266 A  
BRANCH  23  31
HETATM   31  C   UNL     1      -7.556   5.340  68.735  1.00  0.00    -0.082 C  
BRANCH  31  32
HETATM   32  C   UNL     1      -7.530   3.916  69.289  1.00  0.00    -0.053 C  
BRANCH  32  33
HETATM   33  C   UNL     1      -8.952   3.339  69.174  1.00  0.00    -0.180 C  
HETATM   34  C   UNL     1      -9.006   1.901  68.693  1.00  0.00    -0.162 C  
ENDBRANCH  32  33
ENDBRANCH  31  32
ENDBRANCH  23  31
BRANCH  24  35
HETATM   35  N   UNL     1     -12.540   9.649  72.147  1.00  0.00    -0.342 N  
HETATM   36  H   UNL     1     -13.079   9.589  73.011  1.00  0.00     0.000 HD 
BRANCH  35  37
HETATM   37  S   UNL     1     -12.801  10.902  71.046  1.00  0.00    -0.345 S  
HETATM   38  C   UNL     1     -13.641  12.094  72.068  1.00  0.00    -0.164 C  
HETATM   39  O   UNL     1     -11.537  11.450  70.609  1.00  0.00    -0.222 OA 
HETATM   40  O   UNL     1     -13.764  10.384  70.097  1.00  0.00     0.333 OA 
ENDBRANCH  35  37
ENDBRANCH  24  35
ENDBRANCH  20  22
ENDBRANCH  17  20
ENDBRANCH  13  14
ENDBRANCH  12  13
ENDBRANCH  11  12
ENDBRANCH  10  11
ENDBRANCH   5  10
ENDBRANCH   4   5
ENDBRANCH   3   4
ENDBRANCH   2   3
TORSDOF 18
ENDMDL
MODEL      138
REMARK 921   NORMALIZED FREE ENERGY PREDICTED BY IDOCK:   -4.11 KCAL/MOL
REMARK 922        TOTAL FREE ENERGY PREDICTED BY IDOCK:  -11.16 KCAL/MOL
REMARK 923 INTER-LIGAND FREE ENERGY PREDICTED BY IDOCK:   -8.60 KCAL/MOL
REMARK 924 INTRA-LIGAND FREE ENERGY PREDICTED BY IDOCK:   -2.56 KCAL/MOL
REMARK 927      BINDING AFFINITY PREDICTED BY RF-SCORE:    0.00 PKD
ROOT
HETATM    1  C   UNL     1      -5.753  14.901  70.551  1.00  0.00    -0.147 C  
HETATM    2  C   UNL     1      -6.450  15.791  69.529  1.00  0.00    -0.177 C  
ENDROOT
BRANCH   2   3
HETATM    3  C   UNL     1      -7.775  15.163  69.097  1.00  0.00    -0.195 C  
BRANCH   3   4
HETATM    4  C   UNL     1      -8.603  16.021  68.128  1.00  0.00    -0.171 C  
BRANCH   4   5
HETATM    5  N   UNL     1     -10.066  15.780  68.046  1.00  0.00    -0.226 NA 
BRANCH   5   6
HETATM    6  C   UNL     1     -10.780  16.998  67.597  1.00  0.00    -0.295 C  
BRANCH   6   7
HETATM    7  C   UNL     1     -10.398  18.323  68.287  1.00  0.00    -0.379 C  
BRANCH   7   8
HETATM    8  C   UNL     1     -10.611  19.570  67.426  1.00  0.00    -0.607 C  
HETATM    9  C   UNL     1     -10.440  19.242  65.948  1.00  0.00    -0.534 C  
ENDBRANCH   7   8
ENDBRANCH   6   7
ENDBRANCH   5   6
BRANCH   5  10
HETATM   10  C   UNL     1     -10.326  14.649  67.119  1.00  0.00    -0.265 C  
BRANCH  10  11
HETATM   11  C   UNL     1     -11.275  14.963  65.952  1.00  0.00    -0.328 C  
BRANCH  11  12
HETATM   12  C   UNL     1     -12.381  13.919  65.847  1.00  0.00    -0.483 C  
BRANCH  12  13
HETATM   13  O   UNL     1     -12.270  13.232  64.598  1.00  0.00    -0.383 OA 
BRANCH  13  14
HETATM   14  C   UNL     1     -11.259  12.311  64.511  1.00  0.00    -0.326 A  
HETATM   15  C   UNL     1     -10.393  12.143  63.427  1.00  0.00    -0.438 A  
HETATM   16  C   UNL     1      -9.448  11.107  63.425  1.00  0.00    -0.321 A  
HETATM   17  C   UNL     1      -9.354  10.234  64.516  1.00  0.00    -0.328 A  
HETATM   18  C   UNL     1     -10.150  10.469  65.643  1.00  0.00    -0.333 A  
HETATM   19  C   UNL     1     -11.121  11.479  65.622  1.00  0.00    -0.261 A  
BRANCH  17  20
HETATM   20  C   UNL     1      -8.437   9.051  64.426  1.00  0.00    -0.174 C  
HETATM   21  O   UNL     1      -8.005   8.731  63.322  1.00  0.00    -0.144 OA 
BRANCH  20  22
HETATM   22  C   UNL     1      -8.127   8.295  65.641  1.00  0.00    -0.124 A  
HETATM   23  C   UNL     1      -7.343   8.749  66.701  1.00  0.00    -0.082 A  
HETATM   24  C   UNL     1      -9.273   4.644  66.026  1.00  0.00    -0.144 A  
HETATM   25  O   UNL     1      -7.277   7.795  67.676  1.00  0.00    -0.086 OA 
HETATM   26  C   UNL     1      -8.718   4.456  67.289  1.00  0.00    -0.108 A  
HETATM   27  C   UNL     1      -7.928   6.697  67.228  1.00  0.00    -0.117 A  
HETATM   28  C   UNL     1      -8.456   6.927  65.966  1.00  0.00    -0.140 A  
HETATM   29  C   UNL     1      -8.018   5.490  67.916  1.00  0.00    -0.097 A  
HETATM   30  C   UNL     1      -9.113   5.851  65.335  1.00  0.00     0.049 A  
BRANCH  23  31
HETATM   31  C   UNL     1      -6.460   9.920  66.977  1.00  0.00    -0.069 C  
BRANCH  31  32
HETATM   32  C   UNL     1      -7.122  11.252  67.325  1.00  0.00    -0.114 C  
BRANCH  32  33
HETATM   33  C   UNL     1      -7.528  11.205  68.809  1.00  0.00    -0.118 C  
HETATM   34  C   UNL     1      -6.386  11.453  69.777  1.00  0.00    -0.139 C  
ENDBRANCH  32  33
ENDBRANCH  31  32
ENDBRANCH  23  31
BRANCH  24  35
HETATM   35  N   UNL     1     -10.012   3.601  65.395  1.00  0.00    -0.384 N  
HETATM   36  H   UNL     1     -10.998   3.452  65.611  1.00  0.00     0.000 HD 
BRANCH  35  37
HETATM   37  S   UNL     1      -9.208   2.620  64.280  1.00  0.00    -0.129 S  
HETATM   38  C   UNL     1     -10.572   1.753  63.534  1.00  0.00    -0.115 C  
HETATM   39  O   UNL     1      -8.553   3.436  63.284  1.00  0.00    -0.089 OA 
HETATM   40  O   UNL     1      -8.465   1.665  65.076  1.00  0.00    -0.083 OA 
ENDBRANCH  35  37
ENDBRANCH  24  35
ENDBRANCH  20  22
ENDBRANCH  17  20
ENDBRANCH  13  14
ENDBRANCH  12  13
ENDBRANCH  11  12
ENDBRANCH  10  11
ENDBRANCH   5  10
ENDBRANCH   4   5
ENDBRANCH   3   4
ENDBRANCH   2   3
TORSDOF 18
ENDMDL
MODEL      139
REMARK 921   NORMALIZED FREE ENERGY PREDICTED BY IDOCK:   -4.10 KCAL/MOL
REMARK 922        TOTAL FREE ENERGY PREDICTED BY IDOCK:  -11.14 KCAL/MOL
REMARK 923 INTER-LIGAND FREE ENERGY PREDICTED BY IDOCK:   -9.10 KCAL/MOL
REMARK 924 INTRA-LIGAND FREE ENERGY PREDICTED BY IDOCK:   -2.05 KCAL/MOL
REMARK 927      BINDING AFFINITY PREDICTED BY RF-SCORE:    0.00 PKD
ROOT
HETATM    1  C   UNL     1     -13.397  15.522  72.218  1.00  0.00    -0.567 C  
HETATM    2  C   UNL     1     -12.463  14.851  71.219  1.00  0.00    -0.396 C  
ENDROOT
BRANCH   2   3
HETATM    3  C   UNL     1     -11.453  15.862  70.677  1.00  0.00    -0.426 C  
BRANCH   3   4
HETATM    4  C   UNL     1     -11.636  16.216  69.193  1.00  0.00    -0.285 C  
BRANCH   4   5
HETATM    5  N   UNL     1     -10.424  16.445  68.367  1.00  0.00    -0.281 NA 
BRANCH   5   6
HETATM    6  C   UNL     1      -9.839  17.778  68.640  1.00  0.00    -0.359 C  
BRANCH   6   7
HETATM    7  C   UNL     1     -10.379  18.959  67.809  1.00  0.00    -0.490 C  
BRANCH   7   8
HETATM    8  C   UNL     1      -9.381  20.101  67.608  1.00  0.00    -0.487 C  
HETATM    9  C   UNL     1      -7.994  19.697  68.091  1.00  0.00    -0.353 C  
ENDBRANCH   7   8
ENDBRANCH   6   7
ENDBRANCH   5   6
BRANCH   5  10
HETATM   10  C   UNL     1      -9.434  15.372  68.640  1.00  0.00    -0.205 C  
BRANCH  10  11
HETATM   11  C   UNL     1      -8.041  15.859  69.066  1.00  0.00    -0.229 C  
BRANCH  11  12
HETATM   12  C   UNL     1      -7.228  14.727  69.685  1.00  0.00    -0.136 C  
BRANCH  12  13
HETATM   13  O   UNL     1      -6.420  14.114  68.677  1.00  0.00    -0.080 OA 
BRANCH  13  14
HETATM   14  C   UNL     1      -6.673  12.790  68.433  1.00  0.00    -0.087 A  
HETATM   15  C   UNL     1      -5.757  11.855  67.944  1.00  0.00    -0.054 A  
HETATM   16  C   UNL     1      -6.162  10.544  67.657  1.00  0.00    -0.056 A  
HETATM   17  C   UNL     1      -7.490  10.152  67.867  1.00  0.00    -0.088 A  
HETATM   18  C   UNL     1      -8.379  11.060  68.454  1.00  0.00    -0.139 A  
HETATM   19  C   UNL     1      -7.980  12.380  68.699  1.00  0.00    -0.041 A  
BRANCH  17  20
HETATM   20  C   UNL     1      -7.928   8.791  67.417  1.00  0.00    -0.098 C  
HETATM   21  O   UNL     1      -8.121   7.929  68.270  1.00  0.00    -0.120 OA 
BRANCH  20  22
HETATM   22  C   UNL     1      -8.064   8.523  65.984  1.00  0.00    -0.110 A  
HETATM   23  C   UNL     1      -7.599   7.386  65.323  1.00  0.00    -0.098 A  
HETATM   24  C   UNL     1      -9.582  11.159  63.631  1.00  0.00    -0.288 A  
HETATM   25  O   UNL     1      -7.912   7.456  63.996  1.00  0.00    -0.136 OA 
HETATM   26  C   UNL     1      -9.452  10.402  62.469  1.00  0.00    -0.292 A  
HETATM   27  C   UNL     1      -8.490   8.657  63.767  1.00  0.00    -0.055 A  
HETATM   28  C   UNL     1      -8.592   9.379  64.948  1.00  0.00    -0.198 A  
HETATM   29  C   UNL     1      -8.887   9.124  62.517  1.00  0.00    -0.190 A  
HETATM   30  C   UNL     1      -9.119  10.684  64.863  1.00  0.00    -0.231 A  
BRANCH  23  31
HETATM   31  C   UNL     1      -6.743   6.209  65.655  1.00  0.00    -0.048 C  
BRANCH  31  32
HETATM   32  C   UNL     1      -7.211   4.829  65.197  1.00  0.00    -0.064 C  
BRANCH  32  33
HETATM   33  C   UNL     1      -7.337   3.936  66.444  1.00  0.00    -0.076 C  
HETATM   34  C   UNL     1      -8.550   4.235  67.306  1.00  0.00    -0.105 C  
ENDBRANCH  32  33
ENDBRANCH  31  32
ENDBRANCH  23  31
BRANCH  24  35
HETATM   35  N   UNL     1     -10.184  12.451  63.591  1.00  0.00    -0.478 N  
HETATM   36  H   UNL     1      -9.664  13.262  63.256  1.00  0.00     0.000 HD 
BRANCH  35  37
HETATM   37  S   UNL     1     -11.783  12.598  64.114  1.00  0.00    -0.439 S  
HETATM   38  C   UNL     1     -12.038  14.354  63.960  1.00  0.00    -0.280 C  
HETATM   39  O   UNL     1     -12.667  11.902  63.209  1.00  0.00    -0.654 OA 
HETATM   40  O   UNL     1     -11.753  12.283  65.528  1.00  0.00    -0.376 OA 
ENDBRANCH  35  37
ENDBRANCH  24  35
ENDBRANCH  20  22
ENDBRANCH  17  20
ENDBRANCH  13  14
ENDBRANCH  12  13
ENDBRANCH  11  12
ENDBRANCH  10  11
ENDBRANCH   5  10
ENDBRANCH   4   5
ENDBRANCH   3   4
ENDBRANCH   2   3
TORSDOF 18
ENDMDL
MODEL      140
REMARK 921   NORMALIZED FREE ENERGY PREDICTED BY IDOCK:   -4.09 KCAL/MOL
REMARK 922        TOTAL FREE ENERGY PREDICTED BY IDOCK:  -11.11 KCAL/MOL
REMARK 923 INTER-LIGAND FREE ENERGY PREDICTED BY IDOCK:   -8.98 KCAL/MOL
REMARK 924 INTRA-LIGAND FREE ENERGY PREDICTED BY IDOCK:   -2.13 KCAL/MOL
REMARK 927      BINDING AFFINITY PREDICTED BY RF-SCORE:    0.00 PKD
ROOT
HETATM    1  C   UNL     1      -9.865   9.200  66.226  1.00  0.00    -0.359 C  
HETATM    2  C   UNL     1      -8.724   9.973  65.578  1.00  0.00    -0.171 C  
ENDROOT
BRANCH   2   3
HETATM    3  C   UNL     1      -8.528  11.316  66.280  1.00  0.00    -0.156 C  
BRANCH   3   4
HETATM    4  C   UNL     1      -9.831  12.050  66.629  1.00  0.00    -0.204 C  
BRANCH   4   5
HETATM    5  N   UNL     1      -9.773  13.514  66.872  1.00  0.00    -0.253 NA 
BRANCH   5   6
HETATM    6  C   UNL     1     -10.846  14.218  66.131  1.00  0.00    -0.310 C  
BRANCH   6   7
HETATM    7  C   UNL     1     -11.907  13.340  65.440  1.00  0.00    -0.392 C  
BRANCH   7   8
HETATM    8  C   UNL     1     -11.840  13.349  63.911  1.00  0.00    -0.492 C  
HETATM    9  C   UNL     1     -12.332  12.025  63.341  1.00  0.00    -0.635 C  
ENDBRANCH   7   8
ENDBRANCH   6   7
ENDBRANCH   5   6
BRANCH   5  10
HETATM   10  C   UNL     1      -9.885  13.774  68.330  1.00  0.00    -0.232 C  
BRANCH  10  11
HETATM   11  C   UNL     1     -11.203  14.423  68.780  1.00  0.00    -0.282 C  
BRANCH  11  12
HETATM   12  C   UNL     1     -12.274  13.369  69.040  1.00  0.00    -0.148 C  
BRANCH  12  13
HETATM   13  O   UNL     1     -12.172  12.908  70.390  1.00  0.00    -0.354 OA 
BRANCH  13  14
HETATM   14  C   UNL     1     -12.066  11.551  70.550  1.00  0.00    -0.378 A  
HETATM   15  C   UNL     1     -12.634  10.800  71.582  1.00  0.00    -0.456 A  
HETATM   16  C   UNL     1     -12.383   9.424  71.681  1.00  0.00    -0.465 A  
HETATM   17  C   UNL     1     -11.568   8.783  70.740  1.00  0.00    -0.288 A  
HETATM   18  C   UNL     1     -11.087   9.518  69.649  1.00  0.00    -0.196 A  
HETATM   19  C   UNL     1     -11.305  10.899  69.578  1.00  0.00    -0.351 A  
BRANCH  17  20
HETATM   20  C   UNL     1     -11.201   7.345  70.952  1.00  0.00    -0.270 C  
HETATM   21  O   UNL     1     -12.003   6.482  70.607  1.00  0.00    -0.386 OA 
BRANCH  20  22
HETATM   22  C   UNL     1      -9.928   7.022  71.601  1.00  0.00    -0.187 A  
HETATM   23  C   UNL     1      -9.782   6.292  72.780  1.00  0.00    -0.158 A  
HETATM   24  C   UNL     1      -6.617   8.418  70.231  1.00  0.00    -0.035 A  
HETATM   25  O   UNL     1      -8.458   6.165  73.089  1.00  0.00    -0.118 OA 
HETATM   26  C   UNL     1      -5.806   7.825  71.196  1.00  0.00    -0.034 A  
HETATM   27  C   UNL     1      -7.749   6.874  72.183  1.00  0.00    -0.093 A  
HETATM   28  C   UNL     1      -8.597   7.453  71.248  1.00  0.00    -0.118 A  
HETATM   29  C   UNL     1      -6.366   7.041  72.208  1.00  0.00    -0.048 A  
HETATM   30  C   UNL     1      -8.009   8.280  70.270  1.00  0.00    -0.102 A  
BRANCH  23  31
HETATM   31  C   UNL     1     -10.679   5.752  73.844  1.00  0.00    -0.197 C  
BRANCH  31  32
HETATM   32  C   UNL     1     -10.994   4.257  73.826  1.00  0.00    -0.344 C  
BRANCH  32  33
HETATM   33  C   UNL     1     -10.399   3.664  72.537  1.00  0.00    -0.199 C  
HETATM   34  C   UNL     1     -10.092   2.180  72.616  1.00  0.00    -0.210 C  
ENDBRANCH  32  33
ENDBRANCH  31  32
ENDBRANCH  23  31
BRANCH  24  35
HETATM   35  N   UNL     1      -6.046   9.195  69.181  1.00  0.00    -0.042 N  
HETATM   36  H   UNL     1      -5.581   8.748  68.391  1.00  0.00     0.000 HD 
BRANCH  35  37
HETATM   37  S   UNL     1      -6.162  10.876  69.285  1.00  0.00    -0.063 S  
HETATM   38  C   UNL     1      -5.496  11.171  70.909  1.00  0.00    -0.104 C  
HETATM   39  O   UNL     1      -5.309  11.494  68.296  1.00  0.00    -0.043 OA 
HETATM   40  O   UNL     1      -7.581  11.160  69.335  1.00  0.00    -0.107 OA 
ENDBRANCH  35  37
ENDBRANCH  24  35
ENDBRANCH  20  22
ENDBRANCH  17  20
ENDBRANCH  13  14
ENDBRANCH  12  13
ENDBRANCH  11  12
ENDBRANCH  10  11
ENDBRANCH   5  10
ENDBRANCH   4   5
ENDBRANCH   3   4
ENDBRANCH   2   3
TORSDOF 18
ENDMDL
MODEL      141
REMARK 921   NORMALIZED FREE ENERGY PREDICTED BY IDOCK:   -4.09 KCAL/MOL
REMARK 922        TOTAL FREE ENERGY PREDICTED BY IDOCK:  -11.11 KCAL/MOL
REMARK 923 INTER-LIGAND FREE ENERGY PREDICTED BY IDOCK:   -6.02 KCAL/MOL
REMARK 924 INTRA-LIGAND FREE ENERGY PREDICTED BY IDOCK:   -5.08 KCAL/MOL
REMARK 927      BINDING AFFINITY PREDICTED BY RF-SCORE:    0.00 PKD
ROOT
HETATM    1  C   UNL     1     -11.590  10.484  69.836  1.00  0.00    -0.384 C  
HETATM    2  C   UNL     1     -11.496   9.789  71.188  1.00  0.00    -0.472 C  
ENDROOT
BRANCH   2   3
HETATM    3  C   UNL     1     -10.114   9.162  71.367  1.00  0.00    -0.392 C  
BRANCH   3   4
HETATM    4  C   UNL     1      -9.194   9.285  70.143  1.00  0.00    -0.225 C  
BRANCH   4   5
HETATM    5  N   UNL     1      -7.776   9.669  70.360  1.00  0.00    -0.162 NA 
BRANCH   5   6
HETATM    6  C   UNL     1      -6.860   8.591  69.920  1.00  0.00    -0.042 C  
BRANCH   6   7
HETATM    7  C   UNL     1      -7.490   7.413  69.151  1.00  0.00    -0.099 C  
BRANCH   7   8
HETATM    8  C   UNL     1      -6.507   6.301  68.778  1.00  0.00    -0.046 C  
HETATM    9  C   UNL     1      -5.968   5.616  70.028  1.00  0.00    -0.025 C  
ENDBRANCH   7   8
ENDBRANCH   6   7
ENDBRANCH   5   6
BRANCH   5  10
HETATM   10  C   UNL     1      -7.492  10.930  69.629  1.00  0.00    -0.022 C  
BRANCH  10  11
HETATM   11  C   UNL     1      -7.079  10.756  68.160  1.00  0.00    -0.078 C  
BRANCH  11  12
HETATM   12  C   UNL     1      -8.212  11.153  67.220  1.00  0.00    -0.136 C  
BRANCH  12  13
HETATM   13  O   UNL     1      -8.108  10.405  66.006  1.00  0.00    -0.131 OA 
BRANCH  13  14
HETATM   14  C   UNL     1      -8.642   9.143  66.035  1.00  0.00    -0.146 A  
HETATM   15  C   UNL     1      -9.849   8.777  66.635  1.00  0.00    -0.335 A  
HETATM   16  C   UNL     1     -10.249   7.433  66.668  1.00  0.00    -0.247 A  
HETATM   17  C   UNL     1      -9.445   6.442  66.091  1.00  0.00    -0.079 A  
HETATM   18  C   UNL     1      -8.290   6.825  65.399  1.00  0.00    -0.123 A  
HETATM   19  C   UNL     1      -7.874   8.162  65.406  1.00  0.00    -0.115 A  
BRANCH  17  20
HETATM   20  C   UNL     1      -9.824   5.003  66.267  1.00  0.00    -0.200 C  
HETATM   21  O   UNL     1     -10.910   4.628  65.833  1.00  0.00    -0.274 OA 
BRANCH  20  22
HETATM   22  C   UNL     1      -8.914   4.109  66.987  1.00  0.00    -0.137 A  
HETATM   23  C   UNL     1      -7.897   3.349  66.409  1.00  0.00    -0.084 A  
HETATM   24  C   UNL     1      -9.359   3.475  70.754  1.00  0.00    -0.157 A  
HETATM   25  O   UNL     1      -7.234   2.646  67.373  1.00  0.00    -0.052 OA 
HETATM   26  C   UNL     1      -8.287   2.595  70.875  1.00  0.00    -0.081 A  
HETATM   27  C   UNL     1      -7.859   2.864  68.552  1.00  0.00    -0.054 A  
HETATM   28  C   UNL     1      -8.924   3.739  68.382  1.00  0.00    -0.170 A  
HETATM   29  C   UNL     1      -7.514   2.262  69.759  1.00  0.00    -0.043 A  
HETATM   30  C   UNL     1      -9.717   4.017  69.514  1.00  0.00    -0.227 A  
BRANCH  23  31
HETATM   31  C   UNL     1      -7.449   3.003  65.028  1.00  0.00    -0.075 C  
BRANCH  31  32
HETATM   32  C   UNL     1      -6.440   3.927  64.347  1.00  0.00    -0.041 C  
BRANCH  32  33
HETATM   33  C   UNL     1      -7.016   4.325  62.977  1.00  0.00    -0.039 C  
HETATM   34  C   UNL     1      -8.520   4.162  62.859  1.00  0.00    -0.092 C  
ENDBRANCH  32  33
ENDBRANCH  31  32
ENDBRANCH  23  31
BRANCH  24  35
HETATM   35  N   UNL     1     -10.132   3.839  71.895  1.00  0.00    -0.161 N  
HETATM   36  H   UNL     1     -10.653   3.138  72.422  1.00  0.00     0.000 HD 
BRANCH  35  37
HETATM   37  S   UNL     1     -10.160   5.465  72.349  1.00  0.00    -0.188 S  
HETATM   38  C   UNL     1     -10.378   5.330  74.111  1.00  0.00    -0.277 C  
HETATM   39  O   UNL     1      -8.884   6.081  72.068  1.00  0.00    -0.136 OA 
HETATM   40  O   UNL     1     -11.389   5.996  71.796  1.00  0.00    -0.276 OA 
ENDBRANCH  35  37
ENDBRANCH  24  35
ENDBRANCH  20  22
ENDBRANCH  17  20
ENDBRANCH  13  14
ENDBRANCH  12  13
ENDBRANCH  11  12
ENDBRANCH  10  11
ENDBRANCH   5  10
ENDBRANCH   4   5
ENDBRANCH   3   4
ENDBRANCH   2   3
TORSDOF 18
ENDMDL
MODEL      142
REMARK 921   NORMALIZED FREE ENERGY PREDICTED BY IDOCK:   -4.08 KCAL/MOL
REMARK 922        TOTAL FREE ENERGY PREDICTED BY IDOCK:  -11.10 KCAL/MOL
REMARK 923 INTER-LIGAND FREE ENERGY PREDICTED BY IDOCK:   -8.60 KCAL/MOL
REMARK 924 INTRA-LIGAND FREE ENERGY PREDICTED BY IDOCK:   -2.50 KCAL/MOL
REMARK 927      BINDING AFFINITY PREDICTED BY RF-SCORE:    0.00 PKD
ROOT
HETATM    1  C   UNL     1     -10.477   5.811  74.052  1.00  0.00    -0.286 C  
HETATM    2  C   UNL     1     -11.136   4.851  73.070  1.00  0.00    -0.368 C  
ENDROOT
BRANCH   2   3
HETATM    3  C   UNL     1     -10.649   3.423  73.317  1.00  0.00    -0.278 C  
BRANCH   3   4
HETATM    4  C   UNL     1      -9.430   3.009  72.479  1.00  0.00    -0.110 C  
BRANCH   4   5
HETATM    5  N   UNL     1      -8.718   4.056  71.702  1.00  0.00    -0.104 NA 
BRANCH   5   6
HETATM    6  C   UNL     1      -7.413   4.383  72.322  1.00  0.00    -0.073 C  
BRANCH   6   7
HETATM    7  C   UNL     1      -7.232   5.820  72.849  1.00  0.00    -0.090 C  
BRANCH   7   8
HETATM    8  C   UNL     1      -6.621   6.793  71.838  1.00  0.00    -0.054 C  
HETATM    9  C   UNL     1      -5.566   6.096  70.989  1.00  0.00    -0.018 C  
ENDBRANCH   7   8
ENDBRANCH   6   7
ENDBRANCH   5   6
BRANCH   5  10
HETATM   10  C   UNL     1      -8.533   3.589  70.305  1.00  0.00    -0.056 C  
BRANCH  10  11
HETATM   11  C   UNL     1      -9.746   3.784  69.383  1.00  0.00    -0.131 C  
BRANCH  11  12
HETATM   12  C   UNL     1     -10.071   5.263  69.207  1.00  0.00    -0.230 C  
BRANCH  12  13
HETATM   13  O   UNL     1      -8.880   6.037  69.373  1.00  0.00    -0.120 OA 
BRANCH  13  14
HETATM   14  C   UNL     1      -8.697   7.051  68.471  1.00  0.00    -0.122 A  
HETATM   15  C   UNL     1      -7.468   7.510  67.990  1.00  0.00    -0.105 A  
HETATM   16  C   UNL     1      -7.408   8.614  67.127  1.00  0.00    -0.088 A  
HETATM   17  C   UNL     1      -8.582   9.265  66.730  1.00  0.00    -0.134 A  
HETATM   18  C   UNL     1      -9.817   8.739  67.129  1.00  0.00    -0.268 A  
HETATM   19  C   UNL     1      -9.869   7.663  68.024  1.00  0.00    -0.188 A  
BRANCH  17  20
HETATM   20  C   UNL     1      -8.480  10.526  65.926  1.00  0.00    -0.162 C  
HETATM   21  O   UNL     1      -7.403  11.117  65.902  1.00  0.00    -0.036 OA 
BRANCH  20  22
HETATM   22  C   UNL     1      -9.671  11.034  65.241  1.00  0.00    -0.286 A  
HETATM   23  C   UNL     1     -10.047  10.729  63.934  1.00  0.00    -0.333 A  
HETATM   24  C   UNL     1     -11.949  13.630  66.933  1.00  0.00    -0.410 A  
HETATM   25  O   UNL     1     -11.217  11.360  63.624  1.00  0.00    -0.402 OA 
HETATM   26  C   UNL     1     -12.849  13.737  65.875  1.00  0.00    -0.369 A  
HETATM   27  C   UNL     1     -11.559  12.140  64.675  1.00  0.00    -0.328 A  
HETATM   28  C   UNL     1     -10.633  12.007  65.700  1.00  0.00    -0.303 A  
HETATM   29  C   UNL     1     -12.661  12.992  64.708  1.00  0.00    -0.460 A  
HETATM   30  C   UNL     1     -10.819  12.809  66.844  1.00  0.00    -0.278 A  
BRANCH  23  31
HETATM   31  C   UNL     1      -9.442  10.025  62.764  1.00  0.00    -0.228 C  
BRANCH  31  32
HETATM   32  C   UNL     1      -8.024  10.413  62.347  1.00  0.00    -0.189 C  
BRANCH  32  33
HETATM   33  C   UNL     1      -7.129   9.171  62.506  1.00  0.00    -0.097 C  
HETATM   34  C   UNL     1      -7.741   8.063  63.343  1.00  0.00    -0.140 C  
ENDBRANCH  32  33
ENDBRANCH  31  32
ENDBRANCH  23  31
BRANCH  24  35
HETATM   35  N   UNL     1     -12.153  14.367  68.136  1.00  0.00    -0.567 N  
HETATM   36  H   UNL     1     -13.021  14.279  68.665  1.00  0.00     0.000 HD 
BRANCH  35  37
HETATM   37  S   UNL     1     -10.916  15.390  68.660  1.00  0.00    -0.290 S  
HETATM   38  C   UNL     1     -11.554  15.930  70.232  1.00  0.00    -0.354 C  
HETATM   39  O   UNL     1      -9.702  14.635  68.866  1.00  0.00    -0.216 OA 
HETATM   40  O   UNL     1     -10.952  16.525  67.760  1.00  0.00    -0.327 OA 
ENDBRANCH  35  37
ENDBRANCH  24  35
ENDBRANCH  20  22
ENDBRANCH  17  20
ENDBRANCH  13  14
ENDBRANCH  12  13
ENDBRANCH  11  12
ENDBRANCH  10  11
ENDBRANCH   5  10
ENDBRANCH   4   5
ENDBRANCH   3   4
ENDBRANCH   2   3
TORSDOF 18
ENDMDL
MODEL      143
REMARK 921   NORMALIZED FREE ENERGY PREDICTED BY IDOCK:   -4.08 KCAL/MOL
REMARK 922        TOTAL FREE ENERGY PREDICTED BY IDOCK:  -11.10 KCAL/MOL
REMARK 923 INTER-LIGAND FREE ENERGY PREDICTED BY IDOCK:   -7.98 KCAL/MOL
REMARK 924 INTRA-LIGAND FREE ENERGY PREDICTED BY IDOCK:   -3.12 KCAL/MOL
REMARK 927      BINDING AFFINITY PREDICTED BY RF-SCORE:    0.00 PKD
ROOT
HETATM    1  C   UNL     1     -10.495   4.574  74.455  1.00  0.00    -0.318 C  
HETATM    2  C   UNL     1      -9.727   3.312  74.082  1.00  0.00    -0.139 C  
ENDROOT
BRANCH   2   3
HETATM    3  C   UNL     1     -10.158   2.819  72.701  1.00  0.00    -0.232 C  
BRANCH   3   4
HETATM    4  C   UNL     1      -9.241   3.260  71.550  1.00  0.00    -0.121 C  
BRANCH   4   5
HETATM    5  N   UNL     1      -9.064   4.714  71.306  1.00  0.00    -0.130 NA 
BRANCH   5   6
HETATM    6  C   UNL     1      -7.891   4.969  70.438  1.00  0.00    -0.073 C  
BRANCH   6   7
HETATM    7  C   UNL     1      -8.178   5.442  69.000  1.00  0.00    -0.094 C  
BRANCH   7   8
HETATM    8  C   UNL     1      -8.015   6.948  68.783  1.00  0.00    -0.120 C  
HETATM    9  C   UNL     1      -6.773   7.241  67.950  1.00  0.00    -0.061 C  
ENDBRANCH   7   8
ENDBRANCH   6   7
ENDBRANCH   5   6
BRANCH   5  10
HETATM   10  C   UNL     1     -10.300   5.262  70.691  1.00  0.00    -0.254 C  
BRANCH  10  11
HETATM   11  C   UNL     1     -10.861   6.524  71.362  1.00  0.00    -0.289 C  
BRANCH  11  12
HETATM   12  C   UNL     1     -11.458   7.476  70.332  1.00  0.00    -0.198 C  
BRANCH  12  13
HETATM   13  O   UNL     1     -11.383   8.818  70.822  1.00  0.00    -0.265 OA 
BRANCH  13  14
HETATM   14  C   UNL     1     -10.955   9.758  69.922  1.00  0.00    -0.264 A  
HETATM   15  C   UNL     1     -11.770  10.640  69.206  1.00  0.00    -0.336 A  
HETATM   16  C   UNL     1     -11.217  11.504  68.250  1.00  0.00    -0.322 A  
HETATM   17  C   UNL     1      -9.837  11.501  68.009  1.00  0.00    -0.192 A  
HETATM   18  C   UNL     1      -9.013  10.693  68.801  1.00  0.00    -0.172 A  
HETATM   19  C   UNL     1      -9.575   9.802  69.724  1.00  0.00    -0.256 A  
BRANCH  17  20
HETATM   20  C   UNL     1      -9.292  12.328  66.884  1.00  0.00    -0.210 C  
HETATM   21  O   UNL     1      -8.649  13.338  67.161  1.00  0.00    -0.201 OA 
BRANCH  20  22
HETATM   22  C   UNL     1      -9.584  11.935  65.504  1.00  0.00    -0.200 A  
HETATM   23  C   UNL     1     -10.440  12.608  64.632  1.00  0.00    -0.337 A  
HETATM   24  C   UNL     1      -8.159   8.672  64.051  1.00  0.00    -0.163 A  
HETATM   25  O   UNL     1     -10.463  11.977  63.421  1.00  0.00    -0.427 OA 
HETATM   26  C   UNL     1      -8.742   8.812  62.794  1.00  0.00    -0.065 A  
HETATM   27  C   UNL     1      -9.709  10.859  63.519  1.00  0.00    -0.342 A  
HETATM   28  C   UNL     1      -9.157  10.757  64.788  1.00  0.00    -0.222 A  
HETATM   29  C   UNL     1      -9.546   9.918  62.506  1.00  0.00    -0.024 A  
HETATM   30  C   UNL     1      -8.392   9.606  65.067  1.00  0.00    -0.146 A  
BRANCH  23  31
HETATM   31  C   UNL     1     -11.425  13.726  64.722  1.00  0.00    -0.366 C  
BRANCH  31  32
HETATM   32  C   UNL     1     -12.199  13.898  66.028  1.00  0.00    -0.495 C  
BRANCH  32  33
HETATM   33  C   UNL     1     -11.646  15.143  66.744  1.00  0.00    -0.136 C  
HETATM   34  C   UNL     1     -11.760  15.095  68.256  1.00  0.00    -0.336 C  
ENDBRANCH  32  33
ENDBRANCH  31  32
ENDBRANCH  23  31
BRANCH  24  35
HETATM   35  N   UNL     1      -7.316   7.560  64.340  1.00  0.00    -0.082 N  
HETATM   36  H   UNL     1      -6.305   7.674  64.419  1.00  0.00     0.000 HD 
BRANCH  35  37
HETATM   37  S   UNL     1      -8.038   6.047  64.547  1.00  0.00    -0.100 S  
HETATM   38  C   UNL     1      -6.646   5.065  65.064  1.00  0.00    -0.040 C  
HETATM   39  O   UNL     1      -9.010   6.104  65.614  1.00  0.00    -0.134 OA 
HETATM   40  O   UNL     1      -8.408   5.614  63.215  1.00  0.00    -0.119 OA 
ENDBRANCH  35  37
ENDBRANCH  24  35
ENDBRANCH  20  22
ENDBRANCH  17  20
ENDBRANCH  13  14
ENDBRANCH  12  13
ENDBRANCH  11  12
ENDBRANCH  10  11
ENDBRANCH   5  10
ENDBRANCH   4   5
ENDBRANCH   3   4
ENDBRANCH   2   3
TORSDOF 18
ENDMDL
MODEL      144
REMARK 921   NORMALIZED FREE ENERGY PREDICTED BY IDOCK:   -4.08 KCAL/MOL
REMARK 922        TOTAL FREE ENERGY PREDICTED BY IDOCK:  -11.10 KCAL/MOL
REMARK 923 INTER-LIGAND FREE ENERGY PREDICTED BY IDOCK:   -8.49 KCAL/MOL
REMARK 924 INTRA-LIGAND FREE ENERGY PREDICTED BY IDOCK:   -2.61 KCAL/MOL
REMARK 927      BINDING AFFINITY PREDICTED BY RF-SCORE:    0.00 PKD
ROOT
HETATM    1  C   UNL     1     -10.484  16.545  67.006  1.00  0.00    -0.289 C  
HETATM    2  C   UNL     1      -9.864  15.576  66.007  1.00  0.00    -0.364 C  
ENDROOT
BRANCH   2   3
HETATM    3  C   UNL     1     -10.897  15.164  64.958  1.00  0.00    -0.457 C  
BRANCH   3   4
HETATM    4  C   UNL     1     -12.025  14.266  65.490  1.00  0.00    -0.385 C  
BRANCH   4   5
HETATM    5  N   UNL     1     -11.865  12.794  65.383  1.00  0.00    -0.390 NA 
BRANCH   5   6
HETATM    6  C   UNL     1     -10.574  12.444  64.747  1.00  0.00    -0.300 C  
BRANCH   6   7
HETATM    7  C   UNL     1     -10.057  11.008  64.962  1.00  0.00    -0.354 C  
BRANCH   7   8
HETATM    8  C   UNL     1      -8.607  10.921  65.442  1.00  0.00    -0.123 C  
HETATM    9  C   UNL     1      -7.821   9.920  64.605  1.00  0.00    -0.142 C  
ENDBRANCH   7   8
ENDBRANCH   6   7
ENDBRANCH   5   6
BRANCH   5  10
HETATM   10  C   UNL     1     -11.963  12.191  66.737  1.00  0.00    -0.093 C  
BRANCH  10  11
HETATM   11  C   UNL     1     -12.006  13.194  67.899  1.00  0.00    -0.347 C  
BRANCH  11  12
HETATM   12  C   UNL     1     -11.117  12.739  69.052  1.00  0.00    -0.233 C  
BRANCH  12  13
HETATM   13  O   UNL     1     -11.804  11.747  69.820  1.00  0.00    -0.308 OA 
BRANCH  13  14
HETATM   14  C   UNL     1     -11.138  10.562  69.995  1.00  0.00    -0.308 A  
HETATM   15  C   UNL     1     -11.466   9.565  70.919  1.00  0.00    -0.405 A  
HETATM   16  C   UNL     1     -10.655   8.430  71.058  1.00  0.00    -0.258 A  
HETATM   17  C   UNL     1      -9.511   8.277  70.266  1.00  0.00    -0.164 A  
HETATM   18  C   UNL     1      -9.244   9.225  69.271  1.00  0.00    -0.152 A  
HETATM   19  C   UNL     1     -10.033  10.377  69.164  1.00  0.00    -0.237 A  
BRANCH  17  20
HETATM   20  C   UNL     1      -8.586   7.128  70.536  1.00  0.00    -0.144 C  
HETATM   21  O   UNL     1      -7.580   7.335  71.209  1.00  0.00    -0.081 OA 
BRANCH  20  22
HETATM   22  C   UNL     1      -8.887   5.818  69.953  1.00  0.00    -0.130 A  
HETATM   23  C   UNL     1      -9.093   4.639  70.668  1.00  0.00    -0.128 A  
HETATM   24  C   UNL     1      -8.913   5.329  66.138  1.00  0.00    -0.139 A  
HETATM   25  O   UNL     1      -9.368   3.613  69.810  1.00  0.00    -0.142 OA 
HETATM   26  C   UNL     1      -9.227   3.972  66.173  1.00  0.00    -0.155 A  
HETATM   27  C   UNL     1      -9.255   4.085  68.548  1.00  0.00    -0.150 A  
HETATM   28  C   UNL     1      -8.934   5.435  68.562  1.00  0.00    -0.114 A  
HETATM   29  C   UNL     1      -9.396   3.316  67.396  1.00  0.00    -0.242 A  
HETATM   30  C   UNL     1      -8.719   6.059  67.316  1.00  0.00    -0.105 A  
BRANCH  23  31
HETATM   31  C   UNL     1      -8.951   4.188  72.084  1.00  0.00    -0.143 C  
BRANCH  31  32
HETATM   32  C   UNL     1      -9.698   2.926  72.513  1.00  0.00    -0.204 C  
BRANCH  32  33
HETATM   33  C   UNL     1     -10.694   3.319  73.619  1.00  0.00    -0.301 C  
HETATM   34  C   UNL     1     -11.259   4.721  73.480  1.00  0.00    -0.392 C  
ENDBRANCH  32  33
ENDBRANCH  31  32
ENDBRANCH  23  31
BRANCH  24  35
HETATM   35  N   UNL     1      -8.768   6.008  64.893  1.00  0.00    -0.353 N  
HETATM   36  H   UNL     1      -9.459   6.691  64.584  1.00  0.00     0.000 HD 
BRANCH  35  37
HETATM   37  S   UNL     1      -7.418   5.648  63.945  1.00  0.00    -0.073 S  
HETATM   38  C   UNL     1      -7.633   6.783  62.590  1.00  0.00    -0.095 C  
HETATM   39  O   UNL     1      -6.207   5.977  64.661  1.00  0.00    -0.028 OA 
HETATM   40  O   UNL     1      -7.651   4.312  63.438  1.00  0.00    -0.057 OA 
ENDBRANCH  35  37
ENDBRANCH  24  35
ENDBRANCH  20  22
ENDBRANCH  17  20
ENDBRANCH  13  14
ENDBRANCH  12  13
ENDBRANCH  11  12
ENDBRANCH  10  11
ENDBRANCH   5  10
ENDBRANCH   4   5
ENDBRANCH   3   4
ENDBRANCH   2   3
TORSDOF 18
ENDMDL
MODEL      145
REMARK 921   NORMALIZED FREE ENERGY PREDICTED BY IDOCK:   -4.05 KCAL/MOL
REMARK 922        TOTAL FREE ENERGY PREDICTED BY IDOCK:  -11.04 KCAL/MOL
REMARK 923 INTER-LIGAND FREE ENERGY PREDICTED BY IDOCK:   -8.70 KCAL/MOL
REMARK 924 INTRA-LIGAND FREE ENERGY PREDICTED BY IDOCK:   -2.33 KCAL/MOL
REMARK 927      BINDING AFFINITY PREDICTED BY RF-SCORE:    0.00 PKD
ROOT
HETATM    1  C   UNL     1     -12.997   7.187  71.702  1.00  0.00    -0.415 C  
HETATM    2  C   UNL     1     -12.030   6.067  72.064  1.00  0.00    -0.237 C  
ENDROOT
BRANCH   2   3
HETATM    3  C   UNL     1     -10.720   6.229  71.293  1.00  0.00    -0.299 C  
BRANCH   3   4
HETATM    4  C   UNL     1      -9.782   5.015  71.366  1.00  0.00    -0.171 C  
BRANCH   4   5
HETATM    5  N   UNL     1      -8.424   5.206  71.936  1.00  0.00    -0.124 NA 
BRANCH   5   6
HETATM    6  C   UNL     1      -8.210   4.323  73.106  1.00  0.00    -0.091 C  
BRANCH   6   7
HETATM    7  C   UNL     1      -7.715   2.892  72.818  1.00  0.00    -0.054 C  
BRANCH   7   8
HETATM    8  C   UNL     1      -8.828   1.852  72.680  1.00  0.00    -0.075 C  
HETATM    9  C   UNL     1      -9.707   1.835  73.925  1.00  0.00    -0.102 C  
ENDBRANCH   7   8
ENDBRANCH   6   7
ENDBRANCH   5   6
BRANCH   5  10
HETATM   10  C   UNL     1      -7.409   4.939  70.885  1.00  0.00    -0.064 C  
BRANCH  10  11
HETATM   11  C   UNL     1      -7.970   4.740  69.469  1.00  0.00    -0.066 C  
BRANCH  11  12
HETATM   12  C   UNL     1      -7.510   5.854  68.534  1.00  0.00    -0.086 C  
BRANCH  12  13
HETATM   13  O   UNL     1      -7.394   7.075  69.269  1.00  0.00    -0.086 OA 
BRANCH  13  14
HETATM   14  C   UNL     1      -8.442   7.949  69.143  1.00  0.00    -0.137 A  
HETATM   15  C   UNL     1      -9.714   7.640  68.653  1.00  0.00    -0.157 A  
HETATM   16  C   UNL     1     -10.679   8.645  68.496  1.00  0.00    -0.091 A  
HETATM   17  C   UNL     1     -10.383   9.970  68.839  1.00  0.00    -0.217 A  
HETATM   18  C   UNL     1      -9.145  10.257  69.427  1.00  0.00    -0.203 A  
HETATM   19  C   UNL     1      -8.170   9.258  69.542  1.00  0.00    -0.121 A  
BRANCH  17  20
HETATM   20  C   UNL     1     -11.381  11.044  68.527  1.00  0.00    -0.287 C  
HETATM   21  O   UNL     1     -12.390  11.123  69.223  1.00  0.00    -0.381 OA 
BRANCH  20  22
HETATM   22  C   UNL     1     -11.145  11.926  67.382  1.00  0.00    -0.336 A  
HETATM   23  C   UNL     1     -11.436  13.289  67.333  1.00  0.00    -0.332 A  
HETATM   24  C   UNL     1      -9.848  10.510  64.050  1.00  0.00    -0.324 A  
HETATM   25  O   UNL     1     -11.072  13.803  66.122  1.00  0.00    -0.294 OA 
HETATM   26  C   UNL     1      -9.829  11.729  63.377  1.00  0.00    -0.407 A  
HETATM   27  C   UNL     1     -10.633  12.781  65.352  1.00  0.00    -0.287 A  
HETATM   28  C   UNL     1     -10.676  11.587  66.059  1.00  0.00    -0.332 A  
HETATM   29  C   UNL     1     -10.237  12.900  64.022  1.00  0.00    -0.256 A  
HETATM   30  C   UNL     1     -10.308  10.415  65.368  1.00  0.00    -0.270 A  
BRANCH  23  31
HETATM   31  C   UNL     1     -12.158  14.278  68.188  1.00  0.00    -0.275 C  
BRANCH  31  32
HETATM   32  C   UNL     1     -11.413  14.877  69.379  1.00  0.00    -0.324 C  
BRANCH  32  33
HETATM   33  C   UNL     1     -12.444  15.159  70.487  1.00  0.00    -0.429 C  
HETATM   34  C   UNL     1     -12.810  13.946  71.323  1.00  0.00    -0.435 C  
ENDBRANCH  32  33
ENDBRANCH  31  32
ENDBRANCH  23  31
BRANCH  24  35
HETATM   35  N   UNL     1      -9.406   9.318  63.404  1.00  0.00    -0.413 N  
HETATM   36  H   UNL     1      -9.936   8.911  62.633  1.00  0.00     0.000 HD 
BRANCH  35  37
HETATM   37  S   UNL     1      -7.979   8.600  63.952  1.00  0.00    -0.163 S  
HETATM   38  C   UNL     1      -7.707   7.367  62.698  1.00  0.00    -0.121 C  
HETATM   39  O   UNL     1      -6.899   9.560  63.926  1.00  0.00    -0.097 OA 
HETATM   40  O   UNL     1      -8.342   7.910  65.173  1.00  0.00    -0.146 OA 
ENDBRANCH  35  37
ENDBRANCH  24  35
ENDBRANCH  20  22
ENDBRANCH  17  20
ENDBRANCH  13  14
ENDBRANCH  12  13
ENDBRANCH  11  12
ENDBRANCH  10  11
ENDBRANCH   5  10
ENDBRANCH   4   5
ENDBRANCH   3   4
ENDBRANCH   2   3
TORSDOF 18
ENDMDL
MODEL      146
REMARK 921   NORMALIZED FREE ENERGY PREDICTED BY IDOCK:   -4.05 KCAL/MOL
REMARK 922        TOTAL FREE ENERGY PREDICTED BY IDOCK:  -11.02 KCAL/MOL
REMARK 923 INTER-LIGAND FREE ENERGY PREDICTED BY IDOCK:   -8.99 KCAL/MOL
REMARK 924 INTRA-LIGAND FREE ENERGY PREDICTED BY IDOCK:   -2.03 KCAL/MOL
REMARK 927      BINDING AFFINITY PREDICTED BY RF-SCORE:    0.00 PKD
ROOT
HETATM    1  C   UNL     1      -8.771   4.828  67.443  1.00  0.00    -0.103 C  
HETATM    2  C   UNL     1     -10.235   4.844  67.022  1.00  0.00    -0.233 C  
ENDROOT
BRANCH   2   3
HETATM    3  C   UNL     1     -10.920   6.111  67.535  1.00  0.00    -0.404 C  
BRANCH   3   4
HETATM    4  C   UNL     1     -11.043   6.196  69.064  1.00  0.00    -0.367 C  
BRANCH   4   5
HETATM    5  N   UNL     1     -10.329   7.291  69.769  1.00  0.00    -0.214 NA 
BRANCH   5   6
HETATM    6  C   UNL     1      -9.074   6.798  70.383  1.00  0.00    -0.153 C  
BRANCH   6   7
HETATM    7  C   UNL     1      -9.101   6.525  71.900  1.00  0.00    -0.148 C  
BRANCH   7   8
HETATM    8  C   UNL     1      -7.873   7.036  72.658  1.00  0.00    -0.096 C  
HETATM    9  C   UNL     1      -8.222   7.333  74.111  1.00  0.00    -0.188 C  
ENDBRANCH   7   8
ENDBRANCH   6   7
ENDBRANCH   5   6
BRANCH   5  10
HETATM   10  C   UNL     1     -10.048   8.390  68.811  1.00  0.00    -0.196 C  
BRANCH  10  11
HETATM   11  C   UNL     1      -8.565   8.597  68.469  1.00  0.00    -0.135 C  
BRANCH  11  12
HETATM   12  C   UNL     1      -8.331   8.514  66.965  1.00  0.00    -0.110 C  
BRANCH  12  13
HETATM   13  O   UNL     1      -7.657   9.695  66.521  1.00  0.00    -0.096 OA 
BRANCH  13  14
HETATM   14  C   UNL     1      -8.432  10.819  66.412  1.00  0.00    -0.158 A  
HETATM   15  C   UNL     1      -9.687  10.894  65.803  1.00  0.00    -0.270 A  
HETATM   16  C   UNL     1     -10.347  12.126  65.683  1.00  0.00    -0.289 A  
HETATM   17  C   UNL     1      -9.759  13.295  66.182  1.00  0.00    -0.258 A  
HETATM   18  C   UNL     1      -8.551  13.199  66.883  1.00  0.00    -0.118 A  
HETATM   19  C   UNL     1      -7.877  11.975  66.963  1.00  0.00    -0.138 A  
BRANCH  17  20
HETATM   20  C   UNL     1     -10.418  14.614  65.913  1.00  0.00    -0.314 C  
HETATM   21  O   UNL     1     -10.881  14.818  64.793  1.00  0.00    -0.399 OA 
BRANCH  20  22
HETATM   22  C   UNL     1     -10.446  15.627  66.971  1.00  0.00    -0.303 A  
HETATM   23  C   UNL     1      -9.992  16.940  66.849  1.00  0.00    -0.279 A  
HETATM   24  C   UNL     1     -11.601  14.719  70.525  1.00  0.00    -0.279 A  
HETATM   25  O   UNL     1     -10.185  17.611  68.023  1.00  0.00    -0.323 OA 
HETATM   26  C   UNL     1     -11.415  15.991  71.061  1.00  0.00    -0.460 A  
HETATM   27  C   UNL     1     -10.671  16.734  68.929  1.00  0.00    -0.333 A  
HETATM   28  C   UNL     1     -10.832  15.481  68.354  1.00  0.00    -0.273 A  
HETATM   29  C   UNL     1     -10.931  17.031  70.265  1.00  0.00     0.431 A  
HETATM   30  C   UNL     1     -11.273  14.438  69.193  1.00  0.00    -0.300 A  
BRANCH  23  31
HETATM   31  C   UNL     1      -9.237  17.741  65.841  1.00  0.00     0.097 C  
BRANCH  31  32
HETATM   32  C   UNL     1      -7.718  17.825  65.983  1.00  0.00    -0.223 C  
BRANCH  32  33
HETATM   33  C   UNL     1      -7.373  19.219  66.538  1.00  0.00    -0.248 C  
HETATM   34  C   UNL     1      -5.962  19.341  67.085  1.00  0.00    -0.178 C  
ENDBRANCH  32  33
ENDBRANCH  31  32
ENDBRANCH  23  31
BRANCH  24  35
HETATM   35  N   UNL     1     -12.122  13.662  71.327  1.00  0.00    -0.392 N  
HETATM   36  H   UNL     1     -11.637  12.767  71.396  1.00  0.00     0.000 HD 
BRANCH  35  37
HETATM   37  S   UNL     1     -13.566  13.934  72.159  1.00  0.00    -0.552 S  
HETATM   38  C   UNL     1     -12.970  14.725  73.639  1.00  0.00    -0.153 C  
HETATM   39  O   UNL     1     -14.397  14.856  71.421  1.00  0.00    -0.464 OA 
HETATM   40  O   UNL     1     -14.047  12.619  72.530  1.00  0.00    -0.370 OA 
ENDBRANCH  35  37
ENDBRANCH  24  35
ENDBRANCH  20  22
ENDBRANCH  17  20
ENDBRANCH  13  14
ENDBRANCH  12  13
ENDBRANCH  11  12
ENDBRANCH  10  11
ENDBRANCH   5  10
ENDBRANCH   4   5
ENDBRANCH   3   4
ENDBRANCH   2   3
TORSDOF 18
ENDMDL
MODEL      147
REMARK 921   NORMALIZED FREE ENERGY PREDICTED BY IDOCK:   -4.04 KCAL/MOL
REMARK 922        TOTAL FREE ENERGY PREDICTED BY IDOCK:  -11.01 KCAL/MOL
REMARK 923 INTER-LIGAND FREE ENERGY PREDICTED BY IDOCK:   -9.14 KCAL/MOL
REMARK 924 INTRA-LIGAND FREE ENERGY PREDICTED BY IDOCK:   -1.87 KCAL/MOL
REMARK 927      BINDING AFFINITY PREDICTED BY RF-SCORE:    0.00 PKD
ROOT
HETATM    1  C   UNL     1      -5.932  17.954  69.181  1.00  0.00    -0.224 C  
HETATM    2  C   UNL     1      -6.384  17.204  67.935  1.00  0.00    -0.154 C  
ENDROOT
BRANCH   2   3
HETATM    3  C   UNL     1      -7.405  16.128  68.305  1.00  0.00    -0.140 C  
BRANCH   3   4
HETATM    4  C   UNL     1      -8.852  16.457  67.908  1.00  0.00    -0.184 C  
BRANCH   4   5
HETATM    5  N   UNL     1      -9.640  17.355  68.789  1.00  0.00    -0.280 NA 
BRANCH   5   6
HETATM    6  C   UNL     1     -10.329  18.403  68.001  1.00  0.00    -0.384 C  
BRANCH   6   7
HETATM    7  C   UNL     1      -9.630  19.773  67.901  1.00  0.00    -0.482 C  
BRANCH   7   8
HETATM    8  C   UNL     1      -8.760  19.951  66.655  1.00  0.00    -0.410 C  
HETATM    9  C   UNL     1      -7.484  20.712  66.993  1.00  0.00    -0.350 C  
ENDBRANCH   7   8
ENDBRANCH   6   7
ENDBRANCH   5   6
BRANCH   5  10
HETATM   10  C   UNL     1     -10.620  16.549  69.561  1.00  0.00    -0.321 C  
BRANCH  10  11
HETATM   11  C   UNL     1     -10.610  15.043  69.259  1.00  0.00    -0.249 C  
BRANCH  11  12
HETATM   12  C   UNL     1     -11.862  14.627  68.494  1.00  0.00    -0.311 C  
BRANCH  12  13
HETATM   13  O   UNL     1     -11.591  14.647  67.090  1.00  0.00    -0.363 OA 
BRANCH  13  14
HETATM   14  C   UNL     1     -11.134  13.472  66.554  1.00  0.00    -0.300 A  
HETATM   15  C   UNL     1     -11.908  12.516  65.892  1.00  0.00    -0.489 A  
HETATM   16  C   UNL     1     -11.334  11.312  65.458  1.00  0.00     0.026 A  
HETATM   17  C   UNL     1      -9.975  11.057  65.676  1.00  0.00    -0.299 A  
HETATM   18  C   UNL     1      -9.181  12.061  66.245  1.00  0.00    -0.208 A  
HETATM   19  C   UNL     1      -9.767  13.243  66.714  1.00  0.00    -0.258 A  
BRANCH  17  20
HETATM   20  C   UNL     1      -9.422   9.707  65.333  1.00  0.00    -0.278 C  
HETATM   21  O   UNL     1      -9.163   9.464  64.158  1.00  0.00    -0.176 OA 
BRANCH  20  22
HETATM   22  C   UNL     1      -9.256   8.714  66.397  1.00  0.00    -0.245 A  
HETATM   23  C   UNL     1      -8.777   7.415  66.227  1.00  0.00    -0.149 A  
HETATM   24  C   UNL     1     -10.407   9.472  69.987  1.00  0.00    -0.247 A  
HETATM   25  O   UNL     1      -8.735   6.770  67.430  1.00  0.00    -0.119 OA 
HETATM   26  C   UNL     1     -10.030   8.240  70.518  1.00  0.00    -0.198 A  
HETATM   27  C   UNL     1      -9.263   7.596  68.362  1.00  0.00    -0.140 A  
HETATM   28  C   UNL     1      -9.630   8.805  67.788  1.00  0.00    -0.177 A  
HETATM   29  C   UNL     1      -9.454   7.264  69.701  1.00  0.00    -0.155 A  
HETATM   30  C   UNL     1     -10.256   9.751  68.624  1.00  0.00    -0.210 A  
BRANCH  23  31
HETATM   31  C   UNL     1      -8.444   6.521  65.079  1.00  0.00    -0.017 C  
BRANCH  31  32
HETATM   32  C   UNL     1      -6.973   6.195  64.826  1.00  0.00    -0.055 C  
BRANCH  32  33
HETATM   33  C   UNL     1      -6.183   7.515  64.867  1.00  0.00    -0.038 C  
HETATM   34  C   UNL     1      -5.132   7.581  65.961  1.00  0.00    -0.024 C  
ENDBRANCH  32  33
ENDBRANCH  31  32
ENDBRANCH  23  31
BRANCH  24  35
HETATM   35  N   UNL     1     -10.969  10.481  70.823  1.00  0.00    -0.338 N  
HETATM   36  H   UNL     1     -10.374  11.079  71.396  1.00  0.00     0.000 HD 
BRANCH  35  37
HETATM   37  S   UNL     1     -12.648  10.655  70.837  1.00  0.00    -0.432 S  
HETATM   38  C   UNL     1     -13.141   9.207  71.748  1.00  0.00    -0.392 C  
HETATM   39  O   UNL     1     -13.018  11.839  71.578  1.00  0.00    -0.419 OA 
HETATM   40  O   UNL     1     -13.064  10.469  69.462  1.00  0.00     0.043 OA 
ENDBRANCH  35  37
ENDBRANCH  24  35
ENDBRANCH  20  22
ENDBRANCH  17  20
ENDBRANCH  13  14
ENDBRANCH  12  13
ENDBRANCH  11  12
ENDBRANCH  10  11
ENDBRANCH   5  10
ENDBRANCH   4   5
ENDBRANCH   3   4
ENDBRANCH   2   3
TORSDOF 18
ENDMDL
MODEL      148
REMARK 921   NORMALIZED FREE ENERGY PREDICTED BY IDOCK:   -4.02 KCAL/MOL
REMARK 922        TOTAL FREE ENERGY PREDICTED BY IDOCK:  -10.96 KCAL/MOL
REMARK 923 INTER-LIGAND FREE ENERGY PREDICTED BY IDOCK:   -8.74 KCAL/MOL
REMARK 924 INTRA-LIGAND FREE ENERGY PREDICTED BY IDOCK:   -2.22 KCAL/MOL
REMARK 927      BINDING AFFINITY PREDICTED BY RF-SCORE:    0.00 PKD
ROOT
HETATM    1  C   UNL     1     -11.536  15.952  68.845  1.00  0.00    -0.392 C  
HETATM    2  C   UNL     1     -10.213  16.559  68.397  1.00  0.00    -0.266 C  
ENDROOT
BRANCH   2   3
HETATM    3  C   UNL     1      -9.054  15.631  68.762  1.00  0.00    -0.208 C  
BRANCH   3   4
HETATM    4  C   UNL     1      -7.733  16.351  69.073  1.00  0.00    -0.235 C  
BRANCH   4   5
HETATM    5  N   UNL     1      -6.534  16.004  68.268  1.00  0.00    -0.114 NA 
BRANCH   5   6
HETATM    6  C   UNL     1      -5.395  15.639  69.141  1.00  0.00    -0.100 C  
BRANCH   6   7
HETATM    7  C   UNL     1      -5.668  15.589  70.658  1.00  0.00    -0.050 C  
BRANCH   7   8
HETATM    8  C   UNL     1      -5.900  14.182  71.214  1.00  0.00    -0.206 C  
HETATM    9  C   UNL     1      -5.199  14.011  72.556  1.00  0.00    -0.230 C  
ENDBRANCH   7   8
ENDBRANCH   6   7
ENDBRANCH   5   6
BRANCH   5  10
HETATM   10  C   UNL     1      -6.868  14.888  67.347  1.00  0.00    -0.090 C  
BRANCH  10  11
HETATM   11  C   UNL     1      -6.565  13.482  67.885  1.00  0.00    -0.154 C  
BRANCH  11  12
HETATM   12  C   UNL     1      -5.160  13.035  67.495  1.00  0.00    -0.002 C  
BRANCH  12  13
HETATM   13  O   UNL     1      -5.159  11.626  67.249  1.00  0.00    -0.057 OA 
BRANCH  13  14
HETATM   14  C   UNL     1      -6.387  11.018  67.259  1.00  0.00    -0.069 A  
HETATM   15  C   UNL     1      -7.225  10.842  66.154  1.00  0.00    -0.126 A  
HETATM   16  C   UNL     1      -8.498  10.274  66.310  1.00  0.00    -0.138 A  
HETATM   17  C   UNL     1      -8.941   9.868  67.575  1.00  0.00    -0.141 A  
HETATM   18  C   UNL     1      -8.060   9.949  68.659  1.00  0.00    -0.099 A  
HETATM   19  C   UNL     1      -6.807  10.555  68.507  1.00  0.00    -0.064 A  
BRANCH  17  20
HETATM   20  C   UNL     1     -10.356   9.400  67.735  1.00  0.00    -0.238 C  
HETATM   21  O   UNL     1     -10.793   8.579  66.933  1.00  0.00    -0.190 OA 
BRANCH  20  22
HETATM   22  C   UNL     1     -11.178   9.968  68.806  1.00  0.00    -0.173 A  
HETATM   23  C   UNL     1     -11.614  11.291  68.879  1.00  0.00    -0.319 A  
HETATM   24  C   UNL     1     -12.113   7.866  71.887  1.00  0.00    -0.312 A  
HETATM   25  O   UNL     1     -12.374  11.471  69.999  1.00  0.00    -0.269 OA 
HETATM   26  C   UNL     1     -12.842   8.867  72.524  1.00  0.00    -0.401 A  
HETATM   27  C   UNL     1     -12.363  10.315  70.700  1.00  0.00    -0.325 A  
HETATM   28  C   UNL     1     -11.621   9.350  70.033  1.00  0.00    -0.046 A  
HETATM   29  C   UNL     1     -12.972  10.130  71.938  1.00  0.00    -0.549 A  
HETATM   30  C   UNL     1     -11.463   8.103  70.671  1.00  0.00    -0.237 A  
BRANCH  23  31
HETATM   31  C   UNL     1     -11.353  12.564  68.145  1.00  0.00    -0.343 C  
BRANCH  31  32
HETATM   32  C   UNL     1     -11.511  12.563  66.625  1.00  0.00    -0.417 C  
BRANCH  32  33
HETATM   33  C   UNL     1     -10.273  13.249  66.022  1.00  0.00    -0.291 C  
HETATM   34  C   UNL     1     -10.297  13.360  64.508  1.00  0.00    -0.394 C  
ENDBRANCH  32  33
ENDBRANCH  31  32
ENDBRANCH  23  31
BRANCH  24  35
HETATM   35  N   UNL     1     -12.001   6.569  72.468  1.00  0.00    -0.514 N  
HETATM   36  H   UNL     1     -12.768   5.899  72.409  1.00  0.00     0.000 HD 
BRANCH  35  37
HETATM   37  S   UNL     1     -10.562   6.174  73.258  1.00  0.00    -0.267 S  
HETATM   38  C   UNL     1      -9.642   5.406  71.941  1.00  0.00    -0.154 C  
HETATM   39  O   UNL     1      -9.883   7.377  73.682  1.00  0.00    -0.280 OA 
HETATM   40  O   UNL     1     -10.918   5.138  74.206  1.00  0.00    -0.283 OA 
ENDBRANCH  35  37
ENDBRANCH  24  35
ENDBRANCH  20  22
ENDBRANCH  17  20
ENDBRANCH  13  14
ENDBRANCH  12  13
ENDBRANCH  11  12
ENDBRANCH  10  11
ENDBRANCH   5  10
ENDBRANCH   4   5
ENDBRANCH   3   4
ENDBRANCH   2   3
TORSDOF 18
ENDMDL
MODEL      149
REMARK 921   NORMALIZED FREE ENERGY PREDICTED BY IDOCK:   -4.01 KCAL/MOL
REMARK 922        TOTAL FREE ENERGY PREDICTED BY IDOCK:  -10.95 KCAL/MOL
REMARK 923 INTER-LIGAND FREE ENERGY PREDICTED BY IDOCK:   -8.13 KCAL/MOL
REMARK 924 INTRA-LIGAND FREE ENERGY PREDICTED BY IDOCK:   -2.82 KCAL/MOL
REMARK 927      BINDING AFFINITY PREDICTED BY RF-SCORE:    0.00 PKD
ROOT
HETATM    1  C   UNL     1      -9.308   2.739  65.122  1.00  0.00    -0.111 C  
HETATM    2  C   UNL     1      -8.364   2.268  66.221  1.00  0.00    -0.095 C  
ENDROOT
BRANCH   2   3
HETATM    3  C   UNL     1      -9.105   2.180  67.554  1.00  0.00    -0.192 C  
BRANCH   3   4
HETATM    4  C   UNL     1      -8.782   3.314  68.540  1.00  0.00    -0.103 C  
BRANCH   4   5
HETATM    5  N   UNL     1      -9.903   3.944  69.282  1.00  0.00    -0.073 NA 
BRANCH   5   6
HETATM    6  C   UNL     1      -9.723   3.793  70.745  1.00  0.00    -0.165 C  
BRANCH   6   7
HETATM    7  C   UNL     1      -8.834   4.837  71.449  1.00  0.00    -0.152 C  
BRANCH   7   8
HETATM    8  C   UNL     1      -9.540   5.636  72.546  1.00  0.00    -0.167 C  
HETATM    9  C   UNL     1     -11.046   5.414  72.490  1.00  0.00    -0.310 C  
ENDBRANCH   7   8
ENDBRANCH   6   7
ENDBRANCH   5   6
BRANCH   5  10
HETATM   10  C   UNL     1      -9.991   5.379  68.911  1.00  0.00    -0.180 C  
BRANCH  10  11
HETATM   11  C   UNL     1      -9.058   5.820  67.773  1.00  0.00    -0.106 C  
BRANCH  11  12
HETATM   12  C   UNL     1      -9.849   6.399  66.605  1.00  0.00    -0.152 C  
BRANCH  12  13
HETATM   13  O   UNL     1     -10.832   7.312  67.101  1.00  0.00    -0.337 OA 
BRANCH  13  14
HETATM   14  C   UNL     1     -10.471   8.633  67.105  1.00  0.00    -0.289 A  
HETATM   15  C   UNL     1     -10.892   9.596  68.026  1.00  0.00    -0.250 A  
HETATM   16  C   UNL     1     -10.516  10.939  67.875  1.00  0.00    -0.227 A  
HETATM   17  C   UNL     1      -9.704  11.329  66.803  1.00  0.00    -0.218 A  
HETATM   18  C   UNL     1      -9.198  10.346  65.943  1.00  0.00    -0.205 A  
HETATM   19  C   UNL     1      -9.611   9.014  66.074  1.00  0.00    -0.342 A  
BRANCH  17  20
HETATM   20  C   UNL     1      -9.437  12.787  66.584  1.00  0.00    -0.249 C  
HETATM   21  O   UNL     1     -10.059  13.368  65.699  1.00  0.00    -0.289 OA 
BRANCH  20  22
HETATM   22  C   UNL     1      -8.415  13.455  67.395  1.00  0.00    -0.197 A  
HETATM   23  C   UNL     1      -7.331  12.829  68.009  1.00  0.00    -0.117 A  
HETATM   24  C   UNL     1      -8.704  17.200  68.220  1.00  0.00    -0.241 A  
HETATM   25  O   UNL     1      -6.571  13.752  68.669  1.00  0.00    -0.083 OA 
HETATM   26  C   UNL     1      -7.535  17.267  68.975  1.00  0.00    -0.196 A  
HETATM   27  C   UNL     1      -7.192  14.950  68.569  1.00  0.00    -0.113 A  
HETATM   28  C   UNL     1      -8.352  14.834  67.817  1.00  0.00    -0.166 A  
HETATM   29  C   UNL     1      -6.754  16.125  69.174  1.00  0.00    -0.190 A  
HETATM   30  C   UNL     1      -9.147  15.989  67.675  1.00  0.00    -0.200 A  
BRANCH  23  31
HETATM   31  C   UNL     1      -6.876  11.428  68.248  1.00  0.00    -0.069 C  
BRANCH  31  32
HETATM   32  C   UNL     1      -7.084  10.833  69.640  1.00  0.00    -0.136 C  
BRANCH  32  33
HETATM   33  C   UNL     1      -7.584   9.388  69.466  1.00  0.00    -0.086 C  
HETATM   34  C   UNL     1      -8.450   8.885  70.606  1.00  0.00    -0.211 C  
ENDBRANCH  32  33
ENDBRANCH  31  32
ENDBRANCH  23  31
BRANCH  24  35
HETATM   35  N   UNL     1      -9.488  18.368  67.991  1.00  0.00    -0.281 N  
HETATM   36  H   UNL     1     -10.316  18.563  68.554  1.00  0.00     0.000 HD 
BRANCH  35  37
HETATM   37  S   UNL     1      -9.006  19.420  66.761  1.00  0.00    -0.348 S  
HETATM   38  C   UNL     1     -10.546  19.686  65.908  1.00  0.00    -0.466 C  
HETATM   39  O   UNL     1      -8.548  20.668  67.328  1.00  0.00    -0.334 OA 
HETATM   40  O   UNL     1      -8.155  18.631  65.894  1.00  0.00    -0.483 OA 
ENDBRANCH  35  37
ENDBRANCH  24  35
ENDBRANCH  20  22
ENDBRANCH  17  20
ENDBRANCH  13  14
ENDBRANCH  12  13
ENDBRANCH  11  12
ENDBRANCH  10  11
ENDBRANCH   5  10
ENDBRANCH   4   5
ENDBRANCH   3   4
ENDBRANCH   2   3
TORSDOF 18
ENDMDL
MODEL      150
REMARK 921   NORMALIZED FREE ENERGY PREDICTED BY IDOCK:   -4.01 KCAL/MOL
REMARK 922        TOTAL FREE ENERGY PREDICTED BY IDOCK:  -10.95 KCAL/MOL
REMARK 923 INTER-LIGAND FREE ENERGY PREDICTED BY IDOCK:   -8.84 KCAL/MOL
REMARK 924 INTRA-LIGAND FREE ENERGY PREDICTED BY IDOCK:   -2.11 KCAL/MOL
REMARK 927      BINDING AFFINITY PREDICTED BY RF-SCORE:    0.00 PKD
ROOT
HETATM    1  C   UNL     1     -10.621  18.219  67.334  1.00  0.00    -0.425 C  
HETATM    2  C   UNL     1      -9.820  16.922  67.326  1.00  0.00    -0.265 C  
ENDROOT
BRANCH   2   3
HETATM    3  C   UNL     1     -10.298  16.013  66.194  1.00  0.00    -0.340 C  
BRANCH   3   4
HETATM    4  C   UNL     1     -11.083  14.776  66.657  1.00  0.00    -0.333 C  
BRANCH   4   5
HETATM    5  N   UNL     1     -10.856  14.270  68.034  1.00  0.00    -0.236 NA 
BRANCH   5   6
HETATM    6  C   UNL     1     -12.141  14.074  68.746  1.00  0.00    -0.303 C  
BRANCH   6   7
HETATM    7  C   UNL     1     -12.387  14.946  69.993  1.00  0.00    -0.358 C  
BRANCH   7   8
HETATM    8  C   UNL     1     -12.574  14.159  71.291  1.00  0.00    -0.438 C  
HETATM    9  C   UNL     1     -13.891  14.529  71.961  1.00  0.00    -0.561 C  
ENDBRANCH   7   8
ENDBRANCH   6   7
ENDBRANCH   5   6
BRANCH   5  10
HETATM   10  C   UNL     1     -10.093  12.998  67.970  1.00  0.00    -0.235 C  
BRANCH  10  11
HETATM   11  C   UNL     1      -9.579  12.612  66.575  1.00  0.00    -0.248 C  
BRANCH  11  12
HETATM   12  C   UNL     1      -8.616  11.432  66.651  1.00  0.00    -0.170 C  
BRANCH  12  13
HETATM   13  O   UNL     1      -9.359  10.211  66.683  1.00  0.00    -0.156 OA 
BRANCH  13  14
HETATM   14  C   UNL     1      -8.888   9.248  67.536  1.00  0.00    -0.118 A  
HETATM   15  C   UNL     1      -8.177   9.475  68.718  1.00  0.00    -0.112 A  
HETATM   16  C   UNL     1      -7.677   8.399  69.466  1.00  0.00    -0.096 A  
HETATM   17  C   UNL     1      -7.893   7.082  69.041  1.00  0.00    -0.115 A  
HETATM   18  C   UNL     1      -8.694   6.856  67.916  1.00  0.00    -0.121 A  
HETATM   19  C   UNL     1      -9.155   7.934  67.150  1.00  0.00    -0.158 A  
BRANCH  17  20
HETATM   20  C   UNL     1      -7.226   5.961  69.779  1.00  0.00    -0.070 C  
HETATM   21  O   UNL     1      -6.013   5.819  69.652  1.00  0.00    -0.022 OA 
BRANCH  20  22
HETATM   22  C   UNL     1      -8.044   5.049  70.582  1.00  0.00    -0.094 A  
HETATM   23  C   UNL     1      -7.975   3.657  70.552  1.00  0.00    -0.053 A  
HETATM   24  C   UNL     1     -10.844   6.404  72.844  1.00  0.00    -0.256 A  
HETATM   25  O   UNL     1      -8.866   3.125  71.440  1.00  0.00    -0.078 OA 
HETATM   26  C   UNL     1     -11.256   5.160  73.317  1.00  0.00    -0.389 A  
HETATM   27  C   UNL     1      -9.574   4.144  71.979  1.00  0.00    -0.152 A  
HETATM   28  C   UNL     1      -9.136   5.360  71.473  1.00  0.00    -0.158 A  
HETATM   29  C   UNL     1     -10.626   3.992  72.879  1.00  0.00    -0.237 A  
HETATM   30  C   UNL     1      -9.823   6.517  71.893  1.00  0.00    -0.168 A  
BRANCH  23  31
HETATM   31  C   UNL     1      -7.299   2.619  69.719  1.00  0.00    -0.044 C  
BRANCH  31  32
HETATM   32  C   UNL     1      -7.753   2.455  68.269  1.00  0.00    -0.054 C  
BRANCH  32  33
HETATM   33  C   UNL     1      -9.246   2.824  68.197  1.00  0.00    -0.254 C  
HETATM   34  C   UNL     1      -9.634   3.619  66.964  1.00  0.00    -0.187 C  
ENDBRANCH  32  33
ENDBRANCH  31  32
ENDBRANCH  23  31
BRANCH  24  35
HETATM   35  N   UNL     1     -11.465   7.600  73.310  1.00  0.00    -0.540 N  
HETATM   36  H   UNL     1     -11.363   7.901  74.279  1.00  0.00     0.000 HD 
BRANCH  35  37
HETATM   37  S   UNL     1     -12.376   8.502  72.211  1.00  0.00    -0.364 S  
HETATM   38  C   UNL     1     -12.787   7.263  71.000  1.00  0.00    -0.208 C  
HETATM   39  O   UNL     1     -13.585   8.978  72.842  1.00  0.00    -0.356 OA 
HETATM   40  O   UNL     1     -11.437   9.418  71.597  1.00  0.00    -0.369 OA 
ENDBRANCH  35  37
ENDBRANCH  24  35
ENDBRANCH  20  22
ENDBRANCH  17  20
ENDBRANCH  13  14
ENDBRANCH  12  13
ENDBRANCH  11  12
ENDBRANCH  10  11
ENDBRANCH   5  10
ENDBRANCH   4   5
ENDBRANCH   3   4
ENDBRANCH   2   3
TORSDOF 18
ENDMDL
MODEL      151
REMARK 921   NORMALIZED FREE ENERGY PREDICTED BY IDOCK:   -4.00 KCAL/MOL
REMARK 922        TOTAL FREE ENERGY PREDICTED BY IDOCK:  -10.93 KCAL/MOL
REMARK 923 INTER-LIGAND FREE ENERGY PREDICTED BY IDOCK:   -8.59 KCAL/MOL
REMARK 924 INTRA-LIGAND FREE ENERGY PREDICTED BY IDOCK:   -2.34 KCAL/MOL
REMARK 927      BINDING AFFINITY PREDICTED BY RF-SCORE:    0.00 PKD
ROOT
HETATM    1  C   UNL     1      -9.872  15.324  69.219  1.00  0.00    -0.255 C  
HETATM    2  C   UNL     1      -8.455  15.428  68.670  1.00  0.00    -0.170 C  
ENDROOT
BRANCH   2   3
HETATM    3  C   UNL     1      -8.380  14.807  67.276  1.00  0.00    -0.234 C  
BRANCH   3   4
HETATM    4  C   UNL     1      -8.943  15.690  66.152  1.00  0.00    -0.327 C  
BRANCH   4   5
HETATM    5  N   UNL     1     -10.373  15.537  65.783  1.00  0.00    -0.336 NA 
BRANCH   5   6
HETATM    6  C   UNL     1     -10.951  16.830  65.349  1.00  0.00    -0.058 C  
BRANCH   6   7
HETATM    7  C   UNL     1     -10.341  18.106  65.962  1.00  0.00    -0.360 C  
BRANCH   7   8
HETATM    8  C   UNL     1     -11.030  18.587  67.241  1.00  0.00    -0.184 C  
HETATM    9  C   UNL     1     -10.060  19.377  68.112  1.00  0.00    -0.526 C  
ENDBRANCH   7   8
ENDBRANCH   6   7
ENDBRANCH   5   6
BRANCH   5  10
HETATM   10  C   UNL     1     -10.495  14.521  64.706  1.00  0.00    -0.337 C  
BRANCH  10  11
HETATM   11  C   UNL     1     -10.716  13.079  65.189  1.00  0.00    -0.324 C  
BRANCH  11  12
HETATM   12  C   UNL     1     -10.736  12.104  64.017  1.00  0.00    -0.384 C  
BRANCH  12  13
HETATM   13  O   UNL     1      -9.430  11.553  63.832  1.00  0.00    -0.199 OA 
BRANCH  13  14
HETATM   14  C   UNL     1      -9.002  10.693  64.809  1.00  0.00    -0.199 A  
HETATM   15  C   UNL     1      -7.768  10.742  65.463  1.00  0.00    -0.020 A  
HETATM   16  C   UNL     1      -7.414   9.751  66.391  1.00  0.00    -0.099 A  
HETATM   17  C   UNL     1      -8.299   8.705  66.681  1.00  0.00    -0.108 A  
HETATM   18  C   UNL     1      -9.574   8.717  66.103  1.00  0.00    -0.323 A  
HETATM   19  C   UNL     1      -9.906   9.684  65.146  1.00  0.00    -0.209 A  
BRANCH  17  20
HETATM   20  C   UNL     1      -7.838   7.585  67.564  1.00  0.00    -0.116 C  
HETATM   21  O   UNL     1      -6.634   7.352  67.631  1.00  0.00    -0.056 OA 
BRANCH  20  22
HETATM   22  C   UNL     1      -8.836   6.782  68.276  1.00  0.00    -0.125 A  
HETATM   23  C   UNL     1      -9.159   5.455  67.995  1.00  0.00    -0.109 A  
HETATM   24  C   UNL     1     -11.025   8.354  71.019  1.00  0.00    -0.246 A  
HETATM   25  O   UNL     1     -10.116   5.014  68.863  1.00  0.00    -0.178 OA 
HETATM   26  C   UNL     1     -11.742   7.195  71.307  1.00  0.00    -0.342 A  
HETATM   27  C   UNL     1     -10.483   6.056  69.643  1.00  0.00    -0.261 A  
HETATM   28  C   UNL     1      -9.750   7.188  69.316  1.00  0.00    -0.159 A  
HETATM   29  C   UNL     1     -11.487   6.013  70.607  1.00  0.00    -0.228 A  
HETATM   30  C   UNL     1     -10.064   8.379  70.002  1.00  0.00    -0.192 A  
BRANCH  23  31
HETATM   31  C   UNL     1      -8.845   4.462  66.926  1.00  0.00    -0.114 C  
BRANCH  31  32
HETATM   32  C   UNL     1      -9.533   4.622  65.571  1.00  0.00    -0.178 C  
BRANCH  32  33
HETATM   33  C   UNL     1      -8.439   4.686  64.491  1.00  0.00    -0.136 C  
HETATM   34  C   UNL     1      -8.043   6.093  64.085  1.00  0.00    -0.081 C  
ENDBRANCH  32  33
ENDBRANCH  31  32
ENDBRANCH  23  31
BRANCH  24  35
HETATM   35  N   UNL     1     -11.263   9.555  71.750  1.00  0.00    -0.310 N  
HETATM   36  H   UNL     1     -10.580   9.904  72.422  1.00  0.00     0.000 HD 
BRANCH  35  37
HETATM   37  S   UNL     1     -12.709  10.382  71.470  1.00  0.00    -0.478 S  
HETATM   38  C   UNL     1     -13.894   9.059  71.590  1.00  0.00    -0.368 C  
HETATM   39  O   UNL     1     -12.945  11.337  72.528  1.00  0.00     0.069 OA 
HETATM   40  O   UNL     1     -12.652  10.794  70.083  1.00  0.00    -0.327 OA 
ENDBRANCH  35  37
ENDBRANCH  24  35
ENDBRANCH  20  22
ENDBRANCH  17  20
ENDBRANCH  13  14
ENDBRANCH  12  13
ENDBRANCH  11  12
ENDBRANCH  10  11
ENDBRANCH   5  10
ENDBRANCH   4   5
ENDBRANCH   3   4
ENDBRANCH   2   3
TORSDOF 18
ENDMDL
MODEL      152
REMARK 921   NORMALIZED FREE ENERGY PREDICTED BY IDOCK:   -4.00 KCAL/MOL
REMARK 922        TOTAL FREE ENERGY PREDICTED BY IDOCK:  -10.92 KCAL/MOL
REMARK 923 INTER-LIGAND FREE ENERGY PREDICTED BY IDOCK:   -9.17 KCAL/MOL
REMARK 924 INTRA-LIGAND FREE ENERGY PREDICTED BY IDOCK:   -1.75 KCAL/MOL
REMARK 927      BINDING AFFINITY PREDICTED BY RF-SCORE:    0.00 PKD
ROOT
HETATM    1  C   UNL     1     -12.811   8.129  72.390  1.00  0.00    -0.199 C  
HETATM    2  C   UNL     1     -12.402   6.926  71.549  1.00  0.00    -0.420 C  
ENDROOT
BRANCH   2   3
HETATM    3  C   UNL     1     -11.326   7.328  70.540  1.00  0.00    -0.308 C  
BRANCH   3   4
HETATM    4  C   UNL     1     -11.159   6.354  69.363  1.00  0.00    -0.387 C  
BRANCH   4   5
HETATM    5  N   UNL     1      -9.784   6.016  68.916  1.00  0.00    -0.129 NA 
BRANCH   5   6
HETATM    6  C   UNL     1      -9.534   4.560  69.021  1.00  0.00    -0.162 C  
BRANCH   6   7
HETATM    7  C   UNL     1      -8.207   4.037  68.437  1.00  0.00    -0.088 C  
BRANCH   7   8
HETATM    8  C   UNL     1      -8.287   2.631  67.840  1.00  0.00    -0.091 C  
HETATM    9  C   UNL     1      -9.310   1.785  68.587  1.00  0.00    -0.233 C  
ENDBRANCH   7   8
ENDBRANCH   6   7
ENDBRANCH   5   6
BRANCH   5  10
HETATM   10  C   UNL     1      -9.595   6.482  67.518  1.00  0.00    -0.124 C  
BRANCH  10  11
HETATM   11  C   UNL     1     -10.492   7.652  67.091  1.00  0.00    -0.412 C  
BRANCH  11  12
HETATM   12  C   UNL     1      -9.706   8.686  66.292  1.00  0.00    -0.251 C  
BRANCH  12  13
HETATM   13  O   UNL     1      -8.554   9.089  67.038  1.00  0.00    -0.115 OA 
BRANCH  13  14
HETATM   14  C   UNL     1      -8.561  10.381  67.494  1.00  0.00    -0.125 A  
HETATM   15  C   UNL     1      -9.590  10.991  68.217  1.00  0.00    -0.172 A  
HETATM   16  C   UNL     1      -9.512  12.350  68.556  1.00  0.00    -0.101 A  
HETATM   17  C   UNL     1      -8.396  13.109  68.184  1.00  0.00    -0.161 A  
HETATM   18  C   UNL     1      -7.322  12.470  67.553  1.00  0.00    -0.151 A  
HETATM   19  C   UNL     1      -7.423  11.125  67.178  1.00  0.00    -0.121 A  
BRANCH  17  20
HETATM   20  C   UNL     1      -8.405  14.587  68.433  1.00  0.00    -0.153 C  
HETATM   21  O   UNL     1      -8.087  14.993  69.547  1.00  0.00    -0.195 OA 
BRANCH  20  22
HETATM   22  C   UNL     1      -8.836  15.489  67.361  1.00  0.00    -0.203 A  
HETATM   23  C   UNL     1      -8.305  16.752  67.102  1.00  0.00    -0.183 A  
HETATM   24  C   UNL     1     -11.828  14.585  65.122  1.00  0.00    -0.374 A  
HETATM   25  O   UNL     1      -8.928  17.307  66.021  1.00  0.00    -0.486 OA 
HETATM   26  C   UNL     1     -11.779  15.742  64.348  1.00  0.00    -0.201 A  
HETATM   27  C   UNL     1      -9.913  16.467  65.631  1.00  0.00    -0.238 A  
HETATM   28  C   UNL     1      -9.930  15.334  66.433  1.00  0.00    -0.291 A  
HETATM   29  C   UNL     1     -10.813  16.721  64.600  1.00  0.00     0.181 A  
HETATM   30  C   UNL     1     -10.946  14.388  66.190  1.00  0.00    -0.320 A  
BRANCH  23  31
HETATM   31  C   UNL     1      -7.358  17.692  67.770  1.00  0.00    -0.193 C  
BRANCH  31  32
HETATM   32  C   UNL     1      -7.889  19.055  68.210  1.00  0.00    -0.350 C  
BRANCH  32  33
HETATM   33  C   UNL     1      -9.301  18.849  68.785  1.00  0.00    -0.381 C  
HETATM   34  C   UNL     1     -10.350  19.788  68.219  1.00  0.00    -0.536 C  
ENDBRANCH  32  33
ENDBRANCH  31  32
ENDBRANCH  23  31
BRANCH  24  35
HETATM   35  N   UNL     1     -12.793  13.571  64.850  1.00  0.00    -0.718 N  
HETATM   36  H   UNL     1     -13.788  13.741  64.997  1.00  0.00     0.000 HD 
BRANCH  35  37
HETATM   37  S   UNL     1     -12.241  12.081  64.278  1.00  0.00    -0.267 S  
HETATM   38  C   UNL     1     -10.714  12.555  63.495  1.00  0.00    -0.376 C  
HETATM   39  O   UNL     1     -11.960  11.199  65.387  1.00  0.00     0.355 OA 
HETATM   40  O   UNL     1     -13.170  11.704  63.234  1.00  0.00    -0.487 OA 
ENDBRANCH  35  37
ENDBRANCH  24  35
ENDBRANCH  20  22
ENDBRANCH  17  20
ENDBRANCH  13  14
ENDBRANCH  12  13
ENDBRANCH  11  12
ENDBRANCH  10  11
ENDBRANCH   5  10
ENDBRANCH   4   5
ENDBRANCH   3   4
ENDBRANCH   2   3
TORSDOF 18
ENDMDL
MODEL      153
REMARK 921   NORMALIZED FREE ENERGY PREDICTED BY IDOCK:   -3.99 KCAL/MOL
REMARK 922        TOTAL FREE ENERGY PREDICTED BY IDOCK:  -10.91 KCAL/MOL
REMARK 923 INTER-LIGAND FREE ENERGY PREDICTED BY IDOCK:   -8.52 KCAL/MOL
REMARK 924 INTRA-LIGAND FREE ENERGY PREDICTED BY IDOCK:   -2.39 KCAL/MOL
REMARK 927      BINDING AFFINITY PREDICTED BY RF-SCORE:    0.00 PKD
ROOT
HETATM    1  C   UNL     1      -5.459  15.742  69.519  1.00  0.00    -0.113 C  
HETATM    2  C   UNL     1      -6.475  16.877  69.466  1.00  0.00    -0.223 C  
ENDROOT
BRANCH   2   3
HETATM    3  C   UNL     1      -7.095  16.967  68.072  1.00  0.00    -0.168 C  
BRANCH   3   4
HETATM    4  C   UNL     1      -8.376  16.139  67.888  1.00  0.00    -0.161 C  
BRANCH   4   5
HETATM    5  N   UNL     1      -9.539  16.433  68.763  1.00  0.00    -0.239 NA 
BRANCH   5   6
HETATM    6  C   UNL     1     -10.344  17.550  68.218  1.00  0.00    -0.379 C  
BRANCH   6   7
HETATM    7  C   UNL     1     -10.227  18.909  68.937  1.00  0.00    -0.267 C  
BRANCH   7   8
HETATM    8  C   UNL     1      -9.828  20.074  68.030  1.00  0.00    -0.522 C  
HETATM    9  C   UNL     1     -10.172  19.769  66.577  1.00  0.00    -0.606 C  
ENDBRANCH   7   8
ENDBRANCH   6   7
ENDBRANCH   5   6
BRANCH   5  10
HETATM   10  C   UNL     1     -10.368  15.209  68.903  1.00  0.00    -0.243 C  
BRANCH  10  11
HETATM   11  C   UNL     1     -11.757  15.280  68.251  1.00  0.00    -0.320 C  
BRANCH  11  12
HETATM   12  C   UNL     1     -12.000  14.080  67.342  1.00  0.00    -0.404 C  
BRANCH  12  13
HETATM   13  O   UNL     1     -10.750  13.470  67.012  1.00  0.00    -0.273 OA 
BRANCH  13  14
HETATM   14  C   UNL     1     -10.721  12.101  67.064  1.00  0.00    -0.238 A  
HETATM   15  C   UNL     1     -11.103  11.313  68.154  1.00  0.00    -0.319 A  
HETATM   16  C   UNL     1     -10.949   9.920  68.112  1.00  0.00    -0.261 A  
HETATM   17  C   UNL     1     -10.420   9.300  66.973  1.00  0.00    -0.303 A  
HETATM   18  C   UNL     1     -10.138  10.082  65.847  1.00  0.00    -0.319 A  
HETATM   19  C   UNL     1     -10.253  11.476  65.908  1.00  0.00    -0.286 A  
BRANCH  17  20
HETATM   20  C   UNL     1     -10.134   7.829  67.011  1.00  0.00    -0.273 C  
HETATM   21  O   UNL     1     -11.049   7.050  66.759  1.00  0.00    -0.289 OA 
BRANCH  20  22
HETATM   22  C   UNL     1      -8.795   7.373  67.391  1.00  0.00    -0.123 A  
HETATM   23  C   UNL     1      -7.713   7.220  66.524  1.00  0.00    -0.093 A  
HETATM   24  C   UNL     1      -8.062   6.221  70.986  1.00  0.00    -0.121 A  
HETATM   25  O   UNL     1      -6.615   6.795  67.216  1.00  0.00    -0.050 OA 
HETATM   26  C   UNL     1      -6.722   5.912  70.764  1.00  0.00    -0.053 A  
HETATM   27  C   UNL     1      -6.989   6.584  68.499  1.00  0.00    -0.080 A  
HETATM   28  C   UNL     1      -8.330   6.897  68.672  1.00  0.00    -0.121 A  
HETATM   29  C   UNL     1      -6.157   6.081  69.497  1.00  0.00    -0.029 A  
HETATM   30  C   UNL     1      -8.886   6.668  69.947  1.00  0.00    -0.144 A  
BRANCH  23  31
HETATM   31  C   UNL     1      -7.488   7.258  65.049  1.00  0.00    -0.089 C  
BRANCH  31  32
HETATM   32  C   UNL     1      -6.293   8.053  64.525  1.00  0.00    -0.056 C  
BRANCH  32  33
HETATM   33  C   UNL     1      -6.742   9.514  64.342  1.00  0.00    -0.100 C  
HETATM   34  C   UNL     1      -6.300  10.144  63.034  1.00  0.00    -0.137 C  
ENDBRANCH  32  33
ENDBRANCH  31  32
ENDBRANCH  23  31
BRANCH  24  35
HETATM   35  N   UNL     1      -8.634   6.077  72.284  1.00  0.00    -0.124 N  
HETATM   36  H   UNL     1      -8.904   5.159  72.640  1.00  0.00     0.000 HD 
BRANCH  35  37
HETATM   37  S   UNL     1      -8.852   7.468  73.215  1.00  0.00    -0.196 S  
HETATM   38  C   UNL     1     -10.626   7.616  73.209  1.00  0.00    -0.352 C  
HETATM   39  O   UNL     1      -8.393   7.239  74.565  1.00  0.00    -0.173 OA 
HETATM   40  O   UNL     1      -8.320   8.552  72.414  1.00  0.00    -0.268 OA 
ENDBRANCH  35  37
ENDBRANCH  24  35
ENDBRANCH  20  22
ENDBRANCH  17  20
ENDBRANCH  13  14
ENDBRANCH  12  13
ENDBRANCH  11  12
ENDBRANCH  10  11
ENDBRANCH   5  10
ENDBRANCH   4   5
ENDBRANCH   3   4
ENDBRANCH   2   3
TORSDOF 18
ENDMDL
MODEL      154
REMARK 921   NORMALIZED FREE ENERGY PREDICTED BY IDOCK:   -3.99 KCAL/MOL
REMARK 922        TOTAL FREE ENERGY PREDICTED BY IDOCK:  -10.91 KCAL/MOL
REMARK 923 INTER-LIGAND FREE ENERGY PREDICTED BY IDOCK:   -9.10 KCAL/MOL
REMARK 924 INTRA-LIGAND FREE ENERGY PREDICTED BY IDOCK:   -1.81 KCAL/MOL
REMARK 927      BINDING AFFINITY PREDICTED BY RF-SCORE:    0.00 PKD
ROOT
HETATM    1  C   UNL     1     -11.149   7.556  72.863  1.00  0.00    -0.426 C  
HETATM    2  C   UNL     1      -9.848   6.980  72.321  1.00  0.00    -0.170 C  
ENDROOT
BRANCH   2   3
HETATM    3  C   UNL     1      -9.297   7.870  71.207  1.00  0.00    -0.172 C  
BRANCH   3   4
HETATM    4  C   UNL     1     -10.103   7.831  69.900  1.00  0.00    -0.203 C  
BRANCH   4   5
HETATM    5  N   UNL     1      -9.367   7.925  68.614  1.00  0.00    -0.146 NA 
BRANCH   5   6
HETATM    6  C   UNL     1     -10.299   7.878  67.463  1.00  0.00    -0.259 C  
BRANCH   6   7
HETATM    7  C   UNL     1     -10.357   6.560  66.667  1.00  0.00    -0.217 C  
BRANCH   7   8
HETATM    8  C   UNL     1      -9.853   5.334  67.432  1.00  0.00    -0.183 C  
HETATM    9  C   UNL     1      -9.777   4.120  66.515  1.00  0.00    -0.228 C  
ENDBRANCH   7   8
ENDBRANCH   6   7
ENDBRANCH   5   6
BRANCH   5  10
HETATM   10  C   UNL     1      -8.573   9.180  68.594  1.00  0.00    -0.128 C  
BRANCH  10  11
HETATM   11  C   UNL     1      -7.120   9.028  68.120  1.00  0.00    -0.078 C  
BRANCH  11  12
HETATM   12  C   UNL     1      -6.139   9.431  69.215  1.00  0.00    -0.037 C  
BRANCH  12  13
HETATM   13  O   UNL     1      -5.199  10.373  68.692  1.00  0.00    -0.039 OA 
BRANCH  13  14
HETATM   14  C   UNL     1      -5.480  11.692  68.933  1.00  0.00    -0.049 A  
HETATM   15  C   UNL     1      -5.652  12.278  70.190  1.00  0.00    -0.141 A  
HETATM   16  C   UNL     1      -6.019  13.627  70.302  1.00  0.00    -0.147 A  
HETATM   17  C   UNL     1      -6.208  14.407  69.154  1.00  0.00    -0.098 A  
HETATM   18  C   UNL     1      -5.933  13.845  67.901  1.00  0.00    -0.143 A  
HETATM   19  C   UNL     1      -5.608  12.487  67.793  1.00  0.00    -0.113 A  
BRANCH  17  20
HETATM   20  C   UNL     1      -6.738  15.801  69.299  1.00  0.00    -0.174 C  
HETATM   21  O   UNL     1      -6.105  16.598  69.986  1.00  0.00    -0.221 OA 
BRANCH  20  22
HETATM   22  C   UNL     1      -8.009  16.150  68.660  1.00  0.00    -0.201 A  
HETATM   23  C   UNL     1      -8.165  17.028  67.588  1.00  0.00    -0.185 A  
HETATM   24  C   UNL     1     -11.338  14.833  70.066  1.00  0.00    -0.265 A  
HETATM   25  O   UNL     1      -9.481  17.107  67.235  1.00  0.00    -0.239 OA 
HETATM   26  C   UNL     1     -12.147  15.460  69.121  1.00  0.00    -0.270 A  
HETATM   27  C   UNL     1     -10.193  16.368  68.115  1.00  0.00    -0.262 A  
HETATM   28  C   UNL     1      -9.349  15.769  69.040  1.00  0.00    -0.244 A  
HETATM   29  C   UNL     1     -11.581  16.258  68.123  1.00  0.00    -0.072 A  
HETATM   30  C   UNL     1      -9.950  15.012  70.067  1.00  0.00     0.033 A  
BRANCH  23  31
HETATM   31  C   UNL     1      -7.306  17.992  66.838  1.00  0.00    -0.230 C  
BRANCH  31  32
HETATM   32  C   UNL     1      -7.964  19.246  66.266  1.00  0.00    -0.319 C  
BRANCH  32  33
HETATM   33  C   UNL     1      -8.386  20.138  67.447  1.00  0.00    -0.390 C  
HETATM   34  C   UNL     1      -9.885  20.349  67.566  1.00  0.00    -0.564 C  
ENDBRANCH  32  33
ENDBRANCH  31  32
ENDBRANCH  23  31
BRANCH  24  35
HETATM   35  N   UNL     1     -11.909  13.996  71.069  1.00  0.00    -0.499 N  
HETATM   36  H   UNL     1     -11.651  13.012  71.141  1.00  0.00     0.000 HD 
BRANCH  35  37
HETATM   37  S   UNL     1     -13.025  14.682  72.135  1.00  0.00    -0.367 S  
HETATM   38  C   UNL     1     -11.944  15.396  73.357  1.00  0.00    -0.442 C  
HETATM   39  O   UNL     1     -13.762  15.733  71.472  1.00  0.00    -0.496 OA 
HETATM   40  O   UNL     1     -13.703  13.561  72.751  1.00  0.00    -0.710 OA 
ENDBRANCH  35  37
ENDBRANCH  24  35
ENDBRANCH  20  22
ENDBRANCH  17  20
ENDBRANCH  13  14
ENDBRANCH  12  13
ENDBRANCH  11  12
ENDBRANCH  10  11
ENDBRANCH   5  10
ENDBRANCH   4   5
ENDBRANCH   3   4
ENDBRANCH   2   3
TORSDOF 18
ENDMDL
MODEL      155
REMARK 921   NORMALIZED FREE ENERGY PREDICTED BY IDOCK:   -3.99 KCAL/MOL
REMARK 922        TOTAL FREE ENERGY PREDICTED BY IDOCK:  -10.90 KCAL/MOL
REMARK 923 INTER-LIGAND FREE ENERGY PREDICTED BY IDOCK:   -9.00 KCAL/MOL
REMARK 924 INTRA-LIGAND FREE ENERGY PREDICTED BY IDOCK:   -1.90 KCAL/MOL
REMARK 927      BINDING AFFINITY PREDICTED BY RF-SCORE:    0.00 PKD
ROOT
HETATM    1  C   UNL     1      -8.593  18.588  66.912  1.00  0.00    -0.281 C  
HETATM    2  C   UNL     1     -10.068  18.340  67.202  1.00  0.00    -0.367 C  
ENDROOT
BRANCH   2   3
HETATM    3  C   UNL     1     -10.226  17.529  68.488  1.00  0.00    -0.378 C  
BRANCH   3   4
HETATM    4  C   UNL     1     -10.991  16.207  68.320  1.00  0.00    -0.340 C  
BRANCH   4   5
HETATM    5  N   UNL     1     -10.626  15.064  69.195  1.00  0.00    -0.243 NA 
BRANCH   5   6
HETATM    6  C   UNL     1     -11.823  14.273  69.563  1.00  0.00    -0.329 C  
BRANCH   6   7
HETATM    7  C   UNL     1     -12.262  14.320  71.040  1.00  0.00    -0.428 C  
BRANCH   7   8
HETATM    8  C   UNL     1     -12.998  15.599  71.444  1.00  0.00    -0.555 C  
HETATM    9  C   UNL     1     -12.910  15.820  72.948  1.00  0.00    -0.583 C  
ENDBRANCH   7   8
ENDBRANCH   6   7
ENDBRANCH   5   6
BRANCH   5  10
HETATM   10  C   UNL     1      -9.628  14.212  68.499  1.00  0.00    -0.214 C  
BRANCH  10  11
HETATM   11  C   UNL     1      -9.680  14.264  66.965  1.00  0.00    -0.253 C  
BRANCH  11  12
HETATM   12  C   UNL     1     -10.499  13.106  66.403  1.00  0.00    -0.282 C  
BRANCH  12  13
HETATM   13  O   UNL     1      -9.757  12.455  65.368  1.00  0.00    -0.217 OA 
BRANCH  13  14
HETATM   14  C   UNL     1      -9.366  11.169  65.633  1.00  0.00    -0.219 A  
HETATM   15  C   UNL     1     -10.137  10.020  65.435  1.00  0.00    -0.317 A  
HETATM   16  C   UNL     1      -9.652   8.763  65.823  1.00  0.00    -0.190 A  
HETATM   17  C   UNL     1      -8.385   8.642  66.406  1.00  0.00    -0.114 A  
HETATM   18  C   UNL     1      -7.575   9.780  66.507  1.00  0.00    -0.098 A  
HETATM   19  C   UNL     1      -8.079  11.039  66.157  1.00  0.00    -0.141 A  
BRANCH  17  20
HETATM   20  C   UNL     1      -7.952   7.311  66.942  1.00  0.00    -0.112 C  
HETATM   21  O   UNL     1      -6.845   6.886  66.625  1.00  0.00    -0.060 OA 
BRANCH  20  22
HETATM   22  C   UNL     1      -8.878   6.545  67.781  1.00  0.00    -0.113 A  
HETATM   23  C   UNL     1      -9.647   5.461  67.360  1.00  0.00    -0.129 A  
HETATM   24  C   UNL     1      -9.570   7.607  71.412  1.00  0.00    -0.158 A  
HETATM   25  O   UNL     1     -10.382   4.976  68.404  1.00  0.00    -0.119 OA 
HETATM   26  C   UNL     1     -10.474   6.584  71.687  1.00  0.00    -0.241 A  
HETATM   27  C   UNL     1     -10.172   5.780  69.470  1.00  0.00    -0.239 A  
HETATM   28  C   UNL     1      -9.273   6.788  69.148  1.00  0.00    -0.137 A  
HETATM   29  C   UNL     1     -10.803   5.646  70.704  1.00  0.00    -0.304 A  
HETATM   30  C   UNL     1      -8.999   7.749  70.142  1.00  0.00    -0.146 A  
BRANCH  23  31
HETATM   31  C   UNL     1      -9.978   4.801  66.063  1.00  0.00    -0.255 C  
BRANCH  31  32
HETATM   32  C   UNL     1      -8.825   4.433  65.130  1.00  0.00    -0.138 C  
BRANCH  32  33
HETATM   33  C   UNL     1      -8.117   3.200  65.718  1.00  0.00    -0.086 C  
HETATM   34  C   UNL     1      -7.873   2.083  64.720  1.00  0.00    -0.069 C  
ENDBRANCH  32  33
ENDBRANCH  31  32
ENDBRANCH  23  31
BRANCH  24  35
HETATM   35  N   UNL     1      -9.210   8.548  72.421  1.00  0.00    -0.269 N  
HETATM   36  H   UNL     1      -9.441   9.537  72.322  1.00  0.00     0.000 HD 
BRANCH  35  37
HETATM   37  S   UNL     1      -8.392   7.978  73.783  1.00  0.00    -0.254 S  
HETATM   38  C   UNL     1      -7.097   7.014  73.032  1.00  0.00    -0.073 C  
HETATM   39  O   UNL     1      -7.810   9.083  74.510  1.00  0.00    -0.322 OA 
HETATM   40  O   UNL     1      -9.308   7.057  74.423  1.00  0.00    -0.225 OA 
ENDBRANCH  35  37
ENDBRANCH  24  35
ENDBRANCH  20  22
ENDBRANCH  17  20
ENDBRANCH  13  14
ENDBRANCH  12  13
ENDBRANCH  11  12
ENDBRANCH  10  11
ENDBRANCH   5  10
ENDBRANCH   4   5
ENDBRANCH   3   4
ENDBRANCH   2   3
TORSDOF 18
ENDMDL
MODEL      156
REMARK 921   NORMALIZED FREE ENERGY PREDICTED BY IDOCK:   -3.95 KCAL/MOL
REMARK 922        TOTAL FREE ENERGY PREDICTED BY IDOCK:  -10.83 KCAL/MOL
REMARK 923 INTER-LIGAND FREE ENERGY PREDICTED BY IDOCK:   -9.49 KCAL/MOL
REMARK 924 INTRA-LIGAND FREE ENERGY PREDICTED BY IDOCK:   -1.34 KCAL/MOL
REMARK 927      BINDING AFFINITY PREDICTED BY RF-SCORE:    0.00 PKD
ROOT
HETATM    1  C   UNL     1     -10.079   5.068  74.354  1.00  0.00    -0.268 C  
HETATM    2  C   UNL     1     -11.072   4.279  73.510  1.00  0.00    -0.377 C  
ENDROOT
BRANCH   2   3
HETATM    3  C   UNL     1     -12.026   5.230  72.787  1.00  0.00    -0.062 C  
BRANCH   3   4
HETATM    4  C   UNL     1     -11.343   6.433  72.118  1.00  0.00    -0.290 C  
BRANCH   4   5
HETATM    5  N   UNL     1     -10.414   6.179  70.989  1.00  0.00    -0.220 NA 
BRANCH   5   6
HETATM    6  C   UNL     1     -11.159   5.879  69.744  1.00  0.00    -0.352 C  
BRANCH   6   7
HETATM    7  C   UNL     1     -10.336   5.373  68.543  1.00  0.00    -0.219 C  
BRANCH   7   8
HETATM    8  C   UNL     1     -10.827   5.871  67.182  1.00  0.00    -0.373 C  
HETATM    9  C   UNL     1      -9.651   6.187  66.267  1.00  0.00    -0.123 C  
ENDBRANCH   7   8
ENDBRANCH   6   7
ENDBRANCH   5   6
BRANCH   5  10
HETATM   10  C   UNL     1      -9.535   7.361  70.802  1.00  0.00    -0.167 C  
BRANCH  10  11
HETATM   11  C   UNL     1     -10.163   8.528  70.025  1.00  0.00    -0.201 C  
BRANCH  11  12
HETATM   12  C   UNL     1      -9.241   9.743  70.017  1.00  0.00    -0.229 C  
BRANCH  12  13
HETATM   13  O   UNL     1      -8.427   9.716  68.842  1.00  0.00    -0.117 OA 
BRANCH  13  14
HETATM   14  C   UNL     1      -8.001  10.935  68.383  1.00  0.00    -0.127 A  
HETATM   15  C   UNL     1      -6.808  11.183  67.699  1.00  0.00    -0.076 A  
HETATM   16  C   UNL     1      -6.445  12.493  67.353  1.00  0.00    -0.153 A  
HETATM   17  C   UNL     1      -7.281  13.568  67.681  1.00  0.00    -0.175 A  
HETATM   18  C   UNL     1      -8.522  13.305  68.272  1.00  0.00    -0.160 A  
HETATM   19  C   UNL     1      -8.860  12.001  68.653  1.00  0.00    -0.024 A  
BRANCH  17  20
HETATM   20  C   UNL     1      -6.802  14.966  67.428  1.00  0.00    -0.090 C  
HETATM   21  O   UNL     1      -5.598  15.193  67.502  1.00  0.00    -0.318 OA 
BRANCH  20  22
HETATM   22  C   UNL     1      -7.785  16.016  67.150  1.00  0.00    -0.242 A  
HETATM   23  C   UNL     1      -7.791  17.291  67.716  1.00  0.00    -0.188 A  
HETATM   24  C   UNL     1     -10.815  15.320  64.887  1.00  0.00    -0.425 A  
HETATM   25  O   UNL     1      -8.836  18.017  67.221  1.00  0.00    -0.242 OA 
HETATM   26  C   UNL     1     -11.364  16.596  64.993  1.00  0.00     0.102 A  
HETATM   27  C   UNL     1      -9.559  17.208  66.414  1.00  0.00    -0.278 A  
HETATM   28  C   UNL     1      -8.981  15.948  66.345  1.00  0.00    -0.361 A  
HETATM   29  C   UNL     1     -10.743  17.572  65.777  1.00  0.00    -0.106 A  
HETATM   30  C   UNL     1      -9.656  14.969  65.589  1.00  0.00    -0.279 A  
BRANCH  23  31
HETATM   31  C   UNL     1      -7.057  18.002  68.804  1.00  0.00    -0.279 C  
BRANCH  31  32
HETATM   32  C   UNL     1      -7.255  19.511  68.938  1.00  0.00    -0.397 C  
BRANCH  32  33
HETATM   33  C   UNL     1      -5.927  20.196  68.570  1.00  0.00    -0.303 C  
HETATM   34  C   UNL     1      -5.643  20.249  67.080  1.00  0.00    -0.189 C  
ENDBRANCH  32  33
ENDBRANCH  31  32
ENDBRANCH  23  31
BRANCH  24  35
HETATM   35  N   UNL     1     -11.431  14.331  64.066  1.00  0.00    -0.607 N  
HETATM   36  H   UNL     1     -11.834  14.576  63.162  1.00  0.00     0.000 HD 
BRANCH  35  37
HETATM   37  S   UNL     1     -11.472  12.741  64.634  1.00  0.00    -0.344 S  
HETATM   38  C   UNL     1     -12.515  11.965  63.417  1.00  0.00    -0.463 C  
HETATM   39  O   UNL     1     -10.151  12.160  64.576  1.00  0.00    -0.279 OA 
HETATM   40  O   UNL     1     -12.215  12.797  65.875  1.00  0.00    -0.493 OA 
ENDBRANCH  35  37
ENDBRANCH  24  35
ENDBRANCH  20  22
ENDBRANCH  17  20
ENDBRANCH  13  14
ENDBRANCH  12  13
ENDBRANCH  11  12
ENDBRANCH  10  11
ENDBRANCH   5  10
ENDBRANCH   4   5
ENDBRANCH   3   4
ENDBRANCH   2   3
TORSDOF 18
ENDMDL
MODEL      157
REMARK 921   NORMALIZED FREE ENERGY PREDICTED BY IDOCK:   -3.95 KCAL/MOL
REMARK 922        TOTAL FREE ENERGY PREDICTED BY IDOCK:  -10.83 KCAL/MOL
REMARK 923 INTER-LIGAND FREE ENERGY PREDICTED BY IDOCK:   -8.96 KCAL/MOL
REMARK 924 INTRA-LIGAND FREE ENERGY PREDICTED BY IDOCK:   -1.87 KCAL/MOL
REMARK 927      BINDING AFFINITY PREDICTED BY RF-SCORE:    0.00 PKD
ROOT
HETATM    1  C   UNL     1     -10.410   5.527  74.543  1.00  0.00    -0.263 C  
HETATM    2  C   UNL     1     -10.244   4.015  74.462  1.00  0.00    -0.256 C  
ENDROOT
BRANCH   2   3
HETATM    3  C   UNL     1     -10.862   3.484  73.169  1.00  0.00    -0.248 C  
BRANCH   3   4
HETATM    4  C   UNL     1      -9.952   3.589  71.936  1.00  0.00    -0.142 C  
BRANCH   4   5
HETATM    5  N   UNL     1      -9.257   4.876  71.678  1.00  0.00    -0.139 NA 
BRANCH   5   6
HETATM    6  C   UNL     1      -7.882   4.647  71.179  1.00  0.00    -0.082 C  
BRANCH   6   7
HETATM    7  C   UNL     1      -6.785   4.422  72.239  1.00  0.00    -0.048 C  
BRANCH   7   8
HETATM    8  C   UNL     1      -6.055   5.694  72.676  1.00  0.00    -0.040 C  
HETATM    9  C   UNL     1      -7.014   6.655  73.368  1.00  0.00    -0.076 C  
ENDBRANCH   7   8
ENDBRANCH   6   7
ENDBRANCH   5   6
BRANCH   5  10
HETATM   10  C   UNL     1     -10.044   5.670  70.701  1.00  0.00    -0.211 C  
BRANCH  10  11
HETATM   11  C   UNL     1     -10.865   6.821  71.302  1.00  0.00    -0.266 C  
BRANCH  11  12
HETATM   12  C   UNL     1     -11.521   7.658  70.209  1.00  0.00    -0.127 C  
BRANCH  12  13
HETATM   13  O   UNL     1     -11.982   8.892  70.766  1.00  0.00    -0.253 OA 
BRANCH  13  14
HETATM   14  C   UNL     1     -11.476  10.030  70.195  1.00  0.00    -0.277 A  
HETATM   15  C   UNL     1     -12.169  11.228  69.998  1.00  0.00    -0.389 A  
HETATM   16  C   UNL     1     -11.562  12.299  69.326  1.00  0.00    -0.383 A  
HETATM   17  C   UNL     1     -10.250  12.183  68.850  1.00  0.00    -0.057 A  
HETATM   18  C   UNL     1      -9.524  11.022  69.141  1.00  0.00    -0.064 A  
HETATM   19  C   UNL     1     -10.148   9.941  69.776  1.00  0.00    -0.274 A  
BRANCH  17  20
HETATM   20  C   UNL     1      -9.680  13.287  68.011  1.00  0.00    -0.223 C  
HETATM   21  O   UNL     1      -9.009  14.154  68.565  1.00  0.00    -0.189 OA 
BRANCH  20  22
HETATM   22  C   UNL     1      -9.978  13.319  66.577  1.00  0.00    -0.280 A  
HETATM   23  C   UNL     1     -10.479  14.417  65.878  1.00  0.00    -0.308 A  
HETATM   24  C   UNL     1      -9.656  10.143  64.433  1.00  0.00    -0.302 A  
HETATM   25  O   UNL     1     -10.622  14.104  64.557  1.00  0.00    -0.406 OA 
HETATM   26  C   UNL     1     -10.054  10.740  63.239  1.00  0.00    -0.314 A  
HETATM   27  C   UNL     1     -10.310  12.797  64.403  1.00  0.00    -0.364 A  
HETATM   28  C   UNL     1      -9.929  12.243  65.617  1.00  0.00    -0.271 A  
HETATM   29  C   UNL     1     -10.402  12.093  63.205  1.00  0.00    -0.352 A  
HETATM   30  C   UNL     1      -9.632  10.865  65.632  1.00  0.00    -0.268 A  
BRANCH  23  31
HETATM   31  C   UNL     1     -11.021  15.766  66.215  1.00  0.00    -0.163 C  
BRANCH  31  32
HETATM   32  C   UNL     1     -10.206  16.991  65.805  1.00  0.00    -0.262 C  
BRANCH  32  33
HETATM   33  C   UNL     1     -10.251  17.999  66.967  1.00  0.00    -0.367 C  
HETATM   34  C   UNL     1     -10.447  19.441  66.536  1.00  0.00    -0.572 C  
ENDBRANCH  32  33
ENDBRANCH  31  32
ENDBRANCH  23  31
BRANCH  24  35
HETATM   35  N   UNL     1      -9.273   8.770  64.466  1.00  0.00    -0.317 N  
HETATM   36  H   UNL     1      -9.960   8.038  64.648  1.00  0.00     0.000 HD 
BRANCH  35  37
HETATM   37  S   UNL     1      -7.650   8.392  64.197  1.00  0.00    -0.133 S  
HETATM   38  C   UNL     1      -7.512   6.831  65.041  1.00  0.00    -0.092 C  
HETATM   39  O   UNL     1      -7.414   8.198  62.785  1.00  0.00    -0.100 OA 
HETATM   40  O   UNL     1      -6.898   9.369  64.957  1.00  0.00    -0.083 OA 
ENDBRANCH  35  37
ENDBRANCH  24  35
ENDBRANCH  20  22
ENDBRANCH  17  20
ENDBRANCH  13  14
ENDBRANCH  12  13
ENDBRANCH  11  12
ENDBRANCH  10  11
ENDBRANCH   5  10
ENDBRANCH   4   5
ENDBRANCH   3   4
ENDBRANCH   2   3
TORSDOF 18
ENDMDL
MODEL      158
REMARK 921   NORMALIZED FREE ENERGY PREDICTED BY IDOCK:   -3.94 KCAL/MOL
REMARK 922        TOTAL FREE ENERGY PREDICTED BY IDOCK:  -10.81 KCAL/MOL
REMARK 923 INTER-LIGAND FREE ENERGY PREDICTED BY IDOCK:   -7.98 KCAL/MOL
REMARK 924 INTRA-LIGAND FREE ENERGY PREDICTED BY IDOCK:   -2.83 KCAL/MOL
REMARK 927      BINDING AFFINITY PREDICTED BY RF-SCORE:    0.00 PKD
ROOT
HETATM    1  C   UNL     1      -8.856   8.631  71.775  1.00  0.00    -0.281 C  
HETATM    2  C   UNL     1      -9.739   7.416  71.522  1.00  0.00    -0.170 C  
ENDROOT
BRANCH   2   3
HETATM    3  C   UNL     1      -8.956   6.129  71.780  1.00  0.00    -0.141 C  
BRANCH   3   4
HETATM    4  C   UNL     1      -8.383   5.465  70.519  1.00  0.00    -0.111 C  
BRANCH   4   5
HETATM    5  N   UNL     1      -8.860   4.106  70.157  1.00  0.00    -0.077 NA 
BRANCH   5   6
HETATM    6  C   UNL     1      -9.814   3.592  71.167  1.00  0.00    -0.115 C  
BRANCH   6   7
HETATM    7  C   UNL     1      -9.729   2.090  71.503  1.00  0.00    -0.219 C  
BRANCH   7   8
HETATM    8  C   UNL     1     -10.619   1.650  72.668  1.00  0.00    -0.232 C  
HETATM    9  C   UNL     1     -10.963   2.835  73.561  1.00  0.00    -0.316 C  
ENDBRANCH   7   8
ENDBRANCH   6   7
ENDBRANCH   5   6
BRANCH   5  10
HETATM   10  C   UNL     1      -9.492   4.150  68.813  1.00  0.00    -0.163 C  
BRANCH  10  11
HETATM   11  C   UNL     1      -9.416   5.507  68.098  1.00  0.00    -0.133 C  
BRANCH  11  12
HETATM   12  C   UNL     1     -10.808   6.031  67.762  1.00  0.00    -0.290 C  
BRANCH  12  13
HETATM   13  O   UNL     1     -10.708   7.036  66.749  1.00  0.00    -0.303 OA 
BRANCH  13  14
HETATM   14  C   UNL     1     -10.476   8.310  67.194  1.00  0.00    -0.316 A  
HETATM   15  C   UNL     1     -10.755   8.796  68.475  1.00  0.00    -0.108 A  
HETATM   16  C   UNL     1     -10.546  10.148  68.784  1.00  0.00    -0.236 A  
HETATM   17  C   UNL     1     -10.045  11.026  67.815  1.00  0.00    -0.201 A  
HETATM   18  C   UNL     1      -9.668  10.514  66.567  1.00  0.00    -0.237 A  
HETATM   19  C   UNL     1      -9.918   9.173  66.250  1.00  0.00    -0.352 A  
BRANCH  17  20
HETATM   20  C   UNL     1      -9.968  12.490  68.128  1.00  0.00    -0.224 C  
HETATM   21  O   UNL     1     -11.017  13.115  68.258  1.00  0.00    -0.234 OA 
BRANCH  20  22
HETATM   22  C   UNL     1      -8.654  13.131  68.220  1.00  0.00    -0.166 A  
HETATM   23  C   UNL     1      -7.446  12.476  68.454  1.00  0.00    -0.127 A  
HETATM   24  C   UNL     1      -8.326  16.960  68.075  1.00  0.00    -0.204 A  
HETATM   25  O   UNL     1      -6.419  13.376  68.460  1.00  0.00    -0.073 OA 
HETATM   26  C   UNL     1      -6.941  16.987  68.214  1.00  0.00    -0.180 A  
HETATM   27  C   UNL     1      -6.949  14.612  68.324  1.00  0.00    -0.113 A  
HETATM   28  C   UNL     1      -8.329  14.538  68.197  1.00  0.00    -0.147 A  
HETATM   29  C   UNL     1      -6.220  15.798  68.354  1.00  0.00    -0.101 A  
HETATM   30  C   UNL     1      -9.036  15.754  68.110  1.00  0.00    -0.180 A  
BRANCH  23  31
HETATM   31  C   UNL     1      -7.011  11.099  68.835  1.00  0.00    -0.095 C  
BRANCH  31  32
HETATM   32  C   UNL     1      -5.994  10.394  67.940  1.00  0.00    -0.044 C  
BRANCH  32  33
HETATM   33  C   UNL     1      -6.526   8.981  67.643  1.00  0.00    -0.060 C  
HETATM   34  C   UNL     1      -6.594   8.071  68.856  1.00  0.00    -0.049 C  
ENDBRANCH  32  33
ENDBRANCH  31  32
ENDBRANCH  23  31
BRANCH  24  35
HETATM   35  N   UNL     1      -9.062  18.169  67.905  1.00  0.00    -0.261 N  
HETATM   36  H   UNL     1      -9.441  18.671  68.708  1.00  0.00     0.000 HD 
BRANCH  35  37
HETATM   37  S   UNL     1      -9.288  18.747  66.334  1.00  0.00    -0.279 S  
HETATM   38  C   UNL     1     -10.111  20.294  66.648  1.00  0.00    -0.405 C  
HETATM   39  O   UNL     1      -8.010  19.000  65.711  1.00  0.00    -0.465 OA 
HETATM   40  O   UNL     1     -10.254  17.851  65.732  1.00  0.00    -0.577 OA 
ENDBRANCH  35  37
ENDBRANCH  24  35
ENDBRANCH  20  22
ENDBRANCH  17  20
ENDBRANCH  13  14
ENDBRANCH  12  13
ENDBRANCH  11  12
ENDBRANCH  10  11
ENDBRANCH   5  10
ENDBRANCH   4   5
ENDBRANCH   3   4
ENDBRANCH   2   3
TORSDOF 18
ENDMDL
MODEL      159
REMARK 921   NORMALIZED FREE ENERGY PREDICTED BY IDOCK:   -3.94 KCAL/MOL
REMARK 922        TOTAL FREE ENERGY PREDICTED BY IDOCK:  -10.81 KCAL/MOL
REMARK 923 INTER-LIGAND FREE ENERGY PREDICTED BY IDOCK:   -8.52 KCAL/MOL
REMARK 924 INTRA-LIGAND FREE ENERGY PREDICTED BY IDOCK:   -2.29 KCAL/MOL
REMARK 927      BINDING AFFINITY PREDICTED BY RF-SCORE:    0.00 PKD
ROOT
HETATM    1  C   UNL     1     -10.641  17.843  67.614  1.00  0.00    -0.398 C  
HETATM    2  C   UNL     1     -10.290  17.434  66.190  1.00  0.00    -0.329 C  
ENDROOT
BRANCH   2   3
HETATM    3  C   UNL     1     -10.673  15.974  65.949  1.00  0.00    -0.287 C  
BRANCH   3   4
HETATM    4  C   UNL     1     -11.270  15.260  67.171  1.00  0.00    -0.291 C  
BRANCH   4   5
HETATM    5  N   UNL     1     -12.039  14.008  66.952  1.00  0.00    -0.439 NA 
BRANCH   5   6
HETATM    6  C   UNL     1     -12.423  13.862  65.529  1.00  0.00    -0.511 C  
BRANCH   6   7
HETATM    7  C   UNL     1     -12.003  12.557  64.824  1.00  0.00    -0.469 C  
BRANCH   7   8
HETATM    8  C   UNL     1     -10.757  12.684  63.944  1.00  0.00    -0.465 C  
HETATM    9  C   UNL     1     -10.278  11.311  63.488  1.00  0.00    -0.456 C  
ENDBRANCH   7   8
ENDBRANCH   6   7
ENDBRANCH   5   6
BRANCH   5  10
HETATM   10  C   UNL     1     -11.224  12.849  67.397  1.00  0.00    -0.291 C  
BRANCH  10  11
HETATM   11  C   UNL     1     -11.585  12.287  68.780  1.00  0.00    -0.380 C  
BRANCH  11  12
HETATM   12  C   UNL     1     -10.504  11.339  69.288  1.00  0.00    -0.111 C  
BRANCH  12  13
HETATM   13  O   UNL     1     -11.102  10.100  69.677  1.00  0.00    -0.236 OA 
BRANCH  13  14
HETATM   14  C   UNL     1     -10.762   9.009  68.920  1.00  0.00    -0.123 A  
HETATM   15  C   UNL     1     -10.445   9.021  67.559  1.00  0.00    -0.338 A  
HETATM   16  C   UNL     1     -10.193   7.823  66.877  1.00  0.00    -0.373 A  
HETATM   17  C   UNL     1     -10.247   6.598  67.554  1.00  0.00    -0.229 A  
HETATM   18  C   UNL     1     -10.461   6.598  68.937  1.00  0.00    -0.239 A  
HETATM   19  C   UNL     1     -10.754   7.794  69.606  1.00  0.00    -0.223 A  
BRANCH  17  20
HETATM   20  C   UNL     1     -10.116   5.326  66.771  1.00  0.00    -0.224 C  
HETATM   21  O   UNL     1     -10.995   5.047  65.960  1.00  0.00    -0.243 OA 
BRANCH  20  22
HETATM   22  C   UNL     1      -8.978   4.442  67.032  1.00  0.00    -0.125 A  
HETATM   23  C   UNL     1      -7.877   4.267  66.194  1.00  0.00    -0.095 A  
HETATM   24  C   UNL     1      -8.948   2.141  70.114  1.00  0.00    -0.087 A  
HETATM   25  O   UNL     1      -6.999   3.385  66.754  1.00  0.00    -0.052 OA 
HETATM   26  C   UNL     1      -7.706   1.568  69.848  1.00  0.00    -0.043 A  
HETATM   27  C   UNL     1      -7.551   2.916  67.896  1.00  0.00    -0.057 A  
HETATM   28  C   UNL     1      -8.787   3.508  68.116  1.00  0.00    -0.153 A  
HETATM   29  C   UNL     1      -6.981   1.943  68.713  1.00  0.00    -0.036 A  
HETATM   30  C   UNL     1      -9.519   3.073  69.239  1.00  0.00    -0.167 A  
BRANCH  23  31
HETATM   31  C   UNL     1      -7.489   4.673  64.811  1.00  0.00    -0.072 C  
BRANCH  31  32
HETATM   32  C   UNL     1      -8.477   4.401  63.678  1.00  0.00    -0.110 C  
BRANCH  32  33
HETATM   33  C   UNL     1      -8.883   2.918  63.752  1.00  0.00    -0.092 C  
HETATM   34  C   UNL     1     -10.342   2.654  63.428  1.00  0.00    -0.183 C  
ENDBRANCH  32  33
ENDBRANCH  31  32
ENDBRANCH  23  31
BRANCH  24  35
HETATM   35  N   UNL     1      -9.677   1.782  71.284  1.00  0.00    -0.140 N  
HETATM   36  H   UNL     1     -10.412   1.075  71.249  1.00  0.00     0.000 HD 
BRANCH  35  37
HETATM   37  S   UNL     1      -9.289   2.561  72.732  1.00  0.00    -0.093 S  
HETATM   38  C   UNL     1     -10.897   2.725  73.479  1.00  0.00    -0.201 C  
HETATM   39  O   UNL     1      -8.464   1.703  73.551  1.00  0.00    -0.052 OA 
HETATM   40  O   UNL     1      -8.848   3.885  72.347  1.00  0.00    -0.102 OA 
ENDBRANCH  35  37
ENDBRANCH  24  35
ENDBRANCH  20  22
ENDBRANCH  17  20
ENDBRANCH  13  14
ENDBRANCH  12  13
ENDBRANCH  11  12
ENDBRANCH  10  11
ENDBRANCH   5  10
ENDBRANCH   4   5
ENDBRANCH   3   4
ENDBRANCH   2   3
TORSDOF 18
ENDMDL
MODEL      160
REMARK 921   NORMALIZED FREE ENERGY PREDICTED BY IDOCK:   -3.93 KCAL/MOL
REMARK 922        TOTAL FREE ENERGY PREDICTED BY IDOCK:  -10.79 KCAL/MOL
REMARK 923 INTER-LIGAND FREE ENERGY PREDICTED BY IDOCK:   -8.94 KCAL/MOL
REMARK 924 INTRA-LIGAND FREE ENERGY PREDICTED BY IDOCK:   -1.85 KCAL/MOL
REMARK 927      BINDING AFFINITY PREDICTED BY RF-SCORE:    0.00 PKD
ROOT
HETATM    1  C   UNL     1      -6.575  17.723  68.042  1.00  0.00    -0.192 C  
HETATM    2  C   UNL     1      -6.323  16.421  67.292  1.00  0.00    -0.215 C  
ENDROOT
BRANCH   2   3
HETATM    3  C   UNL     1      -7.347  15.365  67.706  1.00  0.00    -0.180 C  
BRANCH   3   4
HETATM    4  C   UNL     1      -8.509  15.179  66.719  1.00  0.00    -0.237 C  
BRANCH   4   5
HETATM    5  N   UNL     1      -9.895  15.175  67.251  1.00  0.00    -0.227 NA 
BRANCH   5   6
HETATM    6  C   UNL     1     -10.653  16.353  66.767  1.00  0.00    -0.238 C  
BRANCH   6   7
HETATM    7  C   UNL     1      -9.827  17.557  66.271  1.00  0.00    -0.295 C  
BRANCH   7   8
HETATM    8  C   UNL     1     -10.487  18.917  66.505  1.00  0.00    -0.500 C  
HETATM    9  C   UNL     1     -10.282  19.377  67.943  1.00  0.00    -0.530 C  
ENDBRANCH   7   8
ENDBRANCH   6   7
ENDBRANCH   5   6
BRANCH   5  10
HETATM   10  C   UNL     1     -10.571  13.916  66.850  1.00  0.00    -0.280 C  
BRANCH  10  11
HETATM   11  C   UNL     1      -9.688  12.909  66.098  1.00  0.00    -0.250 C  
BRANCH  11  12
HETATM   12  C   UNL     1      -9.727  11.538  66.764  1.00  0.00    -0.199 C  
BRANCH  12  13
HETATM   13  O   UNL     1      -8.850  10.646  66.071  1.00  0.00    -0.162 OA 
BRANCH  13  14
HETATM   14  C   UNL     1      -9.143   9.312  66.186  1.00  0.00    -0.179 A  
HETATM   15  C   UNL     1     -10.341   8.773  66.663  1.00  0.00    -0.298 A  
HETATM   16  C   UNL     1     -10.488   7.386  66.809  1.00  0.00    -0.316 A  
HETATM   17  C   UNL     1      -9.439   6.523  66.470  1.00  0.00    -0.190 A  
HETATM   18  C   UNL     1      -8.280   7.060  65.895  1.00  0.00    -0.133 A  
HETATM   19  C   UNL     1      -8.122   8.447  65.790  1.00  0.00    -0.117 A  
BRANCH  17  20
HETATM   20  C   UNL     1      -9.571   5.061  66.771  1.00  0.00    -0.155 C  
HETATM   21  O   UNL     1      -9.840   4.297  65.848  1.00  0.00    -0.192 OA 
BRANCH  20  22
HETATM   22  C   UNL     1      -9.423   4.602  68.154  1.00  0.00    -0.195 A  
HETATM   23  C   UNL     1      -8.650   3.518  68.571  1.00  0.00    -0.092 A  
HETATM   24  C   UNL     1     -11.444   6.234  70.990  1.00  0.00    -0.306 A  
HETATM   25  O   UNL     1      -8.726   3.385  69.928  1.00  0.00    -0.066 OA 
HETATM   26  C   UNL     1     -10.931   5.432  72.007  1.00  0.00    -0.244 A  
HETATM   27  C   UNL     1      -9.604   4.304  70.388  1.00  0.00    -0.195 A  
HETATM   28  C   UNL     1     -10.093   5.074  69.342  1.00  0.00    -0.288 A  
HETATM   29  C   UNL     1      -9.998   4.433  71.718  1.00  0.00    -0.257 A  
HETATM   30  C   UNL     1     -11.072   6.039  69.655  1.00  0.00    -0.474 A  
BRANCH  23  31
HETATM   31  C   UNL     1      -7.896   2.406  67.921  1.00  0.00    -0.059 C  
BRANCH  31  32
HETATM   32  C   UNL     1      -6.570   1.975  68.547  1.00  0.00    -0.029 C  
BRANCH  32  33
HETATM   33  C   UNL     1      -5.439   2.401  67.594  1.00  0.00    -0.017 C  
HETATM   34  C   UNL     1      -5.918   2.990  66.280  1.00  0.00    -0.024 C  
ENDBRANCH  32  33
ENDBRANCH  31  32
ENDBRANCH  23  31
BRANCH  24  35
HETATM   35  N   UNL     1     -12.374   7.273  71.285  1.00  0.00    -0.353 N  
HETATM   36  H   UNL     1     -13.358   7.063  71.457  1.00  0.00     0.000 HD 
BRANCH  35  37
HETATM   37  S   UNL     1     -11.801   8.860  71.342  1.00  0.00    -0.337 S  
HETATM   38  C   UNL     1     -13.223   9.720  71.982  1.00  0.00    -0.460 C  
HETATM   39  O   UNL     1     -10.713   8.961  72.287  1.00  0.00    -0.320 OA 
HETATM   40  O   UNL     1     -11.636   9.257  69.960  1.00  0.00    -0.134 OA 
ENDBRANCH  35  37
ENDBRANCH  24  35
ENDBRANCH  20  22
ENDBRANCH  17  20
ENDBRANCH  13  14
ENDBRANCH  12  13
ENDBRANCH  11  12
ENDBRANCH  10  11
ENDBRANCH   5  10
ENDBRANCH   4   5
ENDBRANCH   3   4
ENDBRANCH   2   3
TORSDOF 18
ENDMDL
MODEL      161
REMARK 921   NORMALIZED FREE ENERGY PREDICTED BY IDOCK:   -3.93 KCAL/MOL
REMARK 922        TOTAL FREE ENERGY PREDICTED BY IDOCK:  -10.78 KCAL/MOL
REMARK 923 INTER-LIGAND FREE ENERGY PREDICTED BY IDOCK:   -7.89 KCAL/MOL
REMARK 924 INTRA-LIGAND FREE ENERGY PREDICTED BY IDOCK:   -2.89 KCAL/MOL
REMARK 927      BINDING AFFINITY PREDICTED BY RF-SCORE:    0.00 PKD
ROOT
HETATM    1  C   UNL     1      -6.311  12.183  68.086  1.00  0.00    -0.055 C  
HETATM    2  C   UNL     1      -7.531  13.025  68.437  1.00  0.00    -0.128 C  
ENDROOT
BRANCH   2   3
HETATM    3  C   UNL     1      -8.661  12.759  67.443  1.00  0.00    -0.196 C  
BRANCH   3   4
HETATM    4  C   UNL     1      -9.976  13.486  67.761  1.00  0.00    -0.232 C  
BRANCH   4   5
HETATM    5  N   UNL     1     -10.451  14.531  66.819  1.00  0.00    -0.268 NA 
BRANCH   5   6
HETATM    6  C   UNL     1      -9.746  15.813  67.048  1.00  0.00    -0.228 C  
BRANCH   6   7
HETATM    7  C   UNL     1      -8.452  16.050  66.246  1.00  0.00    -0.337 C  
BRANCH   7   8
HETATM    8  C   UNL     1      -7.288  16.605  67.068  1.00  0.00    -0.241 C  
HETATM    9  C   UNL     1      -6.463  17.585  66.243  1.00  0.00    -0.284 C  
ENDBRANCH   7   8
ENDBRANCH   6   7
ENDBRANCH   5   6
BRANCH   5  10
HETATM   10  C   UNL     1     -10.248  14.063  65.424  1.00  0.00    -0.347 C  
BRANCH  10  11
HETATM   11  C   UNL     1     -11.530  13.895  64.596  1.00  0.00    -0.386 C  
BRANCH  11  12
HETATM   12  C   UNL     1     -12.033  12.456  64.646  1.00  0.00    -0.394 C  
BRANCH  12  13
HETATM   13  O   UNL     1     -11.211  11.634  63.813  1.00  0.00    -0.388 OA 
BRANCH  13  14
HETATM   14  C   UNL     1     -10.403  10.742  64.467  1.00  0.00    -0.331 A  
HETATM   15  C   UNL     1     -10.479  10.403  65.821  1.00  0.00    -0.187 A  
HETATM   16  C   UNL     1      -9.539   9.534  66.391  1.00  0.00    -0.273 A  
HETATM   17  C   UNL     1      -8.516   8.986  65.608  1.00  0.00    -0.163 A  
HETATM   18  C   UNL     1      -8.505   9.244  64.232  1.00  0.00    -0.202 A  
HETATM   19  C   UNL     1      -9.420  10.145  63.675  1.00  0.00    -0.320 A  
BRANCH  17  20
HETATM   20  C   UNL     1      -7.443   8.177  66.272  1.00  0.00    -0.082 C  
HETATM   21  O   UNL     1      -6.331   8.681  66.406  1.00  0.00    -0.059 OA 
BRANCH  20  22
HETATM   22  C   UNL     1      -7.740   6.806  66.693  1.00  0.00    -0.105 A  
HETATM   23  C   UNL     1      -7.249   5.648  66.091  1.00  0.00    -0.077 A  
HETATM   24  C   UNL     1     -10.258   6.124  69.519  1.00  0.00    -0.198 A  
HETATM   25  O   UNL     1      -7.714   4.546  66.750  1.00  0.00    -0.089 OA 
HETATM   26  C   UNL     1     -10.148   4.737  69.473  1.00  0.00    -0.260 A  
HETATM   27  C   UNL     1      -8.569   4.965  67.710  1.00  0.00    -0.103 A  
HETATM   28  C   UNL     1      -8.653   6.350  67.714  1.00  0.00    -0.116 A  
HETATM   29  C   UNL     1      -9.298   4.124  68.548  1.00  0.00    -0.216 A  
HETATM   30  C   UNL     1      -9.557   6.938  68.622  1.00  0.00    -0.133 A  
BRANCH  23  31
HETATM   31  C   UNL     1      -6.483   5.305  64.857  1.00  0.00    -0.039 C  
BRANCH  31  32
HETATM   32  C   UNL     1      -7.062   5.734  63.510  1.00  0.00    -0.047 C  
BRANCH  32  33
HETATM   33  C   UNL     1      -8.548   5.334  63.485  1.00  0.00    -0.048 C  
HETATM   34  C   UNL     1      -8.797   3.881  63.126  1.00  0.00    -0.104 C  
ENDBRANCH  32  33
ENDBRANCH  31  32
ENDBRANCH  23  31
BRANCH  24  35
HETATM   35  N   UNL     1     -11.103   6.753  70.479  1.00  0.00    -0.278 N  
HETATM   36  H   UNL     1     -12.116   6.771  70.357  1.00  0.00     0.000 HD 
BRANCH  35  37
HETATM   37  S   UNL     1     -10.379   7.469  71.826  1.00  0.00    -0.194 S  
HETATM   38  C   UNL     1     -10.387   9.186  71.353  1.00  0.00    -0.338 C  
HETATM   39  O   UNL     1     -11.212   7.288  72.992  1.00  0.00    -0.311 OA 
HETATM   40  O   UNL     1      -9.003   7.017  71.807  1.00  0.00    -0.134 OA 
ENDBRANCH  35  37
ENDBRANCH  24  35
ENDBRANCH  20  22
ENDBRANCH  17  20
ENDBRANCH  13  14
ENDBRANCH  12  13
ENDBRANCH  11  12
ENDBRANCH  10  11
ENDBRANCH   5  10
ENDBRANCH   4   5
ENDBRANCH   3   4
ENDBRANCH   2   3
TORSDOF 18
ENDMDL
MODEL      162
REMARK 921   NORMALIZED FREE ENERGY PREDICTED BY IDOCK:   -3.92 KCAL/MOL
REMARK 922        TOTAL FREE ENERGY PREDICTED BY IDOCK:  -10.77 KCAL/MOL
REMARK 923 INTER-LIGAND FREE ENERGY PREDICTED BY IDOCK:   -7.95 KCAL/MOL
REMARK 924 INTRA-LIGAND FREE ENERGY PREDICTED BY IDOCK:   -2.82 KCAL/MOL
REMARK 927      BINDING AFFINITY PREDICTED BY RF-SCORE:    0.00 PKD
ROOT
HETATM    1  C   UNL     1      -6.048  15.403  68.525  1.00  0.00    -0.093 C  
HETATM    2  C   UNL     1      -5.611  16.763  69.055  1.00  0.00    -0.137 C  
ENDROOT
BRANCH   2   3
HETATM    3  C   UNL     1      -6.826  17.669  69.252  1.00  0.00    -0.194 C  
BRANCH   3   4
HETATM    4  C   UNL     1      -7.887  17.565  68.146  1.00  0.00    -0.244 C  
BRANCH   4   5
HETATM    5  N   UNL     1      -9.227  17.033  68.500  1.00  0.00    -0.259 NA 
BRANCH   5   6
HETATM    6  C   UNL     1     -10.249  18.106  68.475  1.00  0.00    -0.384 C  
BRANCH   6   7
HETATM    7  C   UNL     1      -9.737  19.551  68.318  1.00  0.00    -0.495 C  
BRANCH   7   8
HETATM    8  C   UNL     1     -10.126  20.222  66.999  1.00  0.00    -0.567 C  
HETATM    9  C   UNL     1     -10.615  19.188  65.992  1.00  0.00    -0.524 C  
ENDBRANCH   7   8
ENDBRANCH   6   7
ENDBRANCH   5   6
BRANCH   5  10
HETATM   10  C   UNL     1      -9.588  15.944  67.557  1.00  0.00    -0.221 C  
BRANCH  10  11
HETATM   11  C   UNL     1     -11.066  15.529  67.570  1.00  0.00    -0.305 C  
BRANCH  11  12
HETATM   12  C   UNL     1     -11.213  14.013  67.495  1.00  0.00    -0.309 C  
BRANCH  12  13
HETATM   13  O   UNL     1     -10.259  13.398  68.365  1.00  0.00    -0.243 OA 
BRANCH  13  14
HETATM   14  C   UNL     1      -9.570  12.336  67.840  1.00  0.00    -0.203 A  
HETATM   15  C   UNL     1      -9.970  10.997  67.881  1.00  0.00    -0.192 A  
HETATM   16  C   UNL     1      -9.135   9.989  67.378  1.00  0.00    -0.146 A  
HETATM   17  C   UNL     1      -7.893  10.313  66.818  1.00  0.00    -0.114 A  
HETATM   18  C   UNL     1      -7.542  11.662  66.684  1.00  0.00    -0.050 A  
HETATM   19  C   UNL     1      -8.360  12.661  67.226  1.00  0.00    -0.189 A  
BRANCH  17  20
HETATM   20  C   UNL     1      -6.962   9.208  66.421  1.00  0.00    -0.080 C  
HETATM   21  O   UNL     1      -5.896   9.099  67.021  1.00  0.00    -0.045 OA 
BRANCH  20  22
HETATM   22  C   UNL     1      -7.330   8.331  65.308  1.00  0.00    -0.081 A  
HETATM   23  C   UNL     1      -7.640   8.748  64.014  1.00  0.00    -0.123 A  
HETATM   24  C   UNL     1      -7.776   4.550  65.854  1.00  0.00    -0.094 A  
HETATM   25  O   UNL     1      -7.920   7.667  63.228  1.00  0.00    -0.138 OA 
HETATM   26  C   UNL     1      -8.114   4.257  64.534  1.00  0.00    -0.095 A  
HETATM   27  C   UNL     1      -7.885   6.565  64.010  1.00  0.00    -0.108 A  
HETATM   28  C   UNL     1      -7.553   6.904  65.314  1.00  0.00    -0.099 A  
HETATM   29  C   UNL     1      -8.186   5.275  63.579  1.00  0.00    -0.122 A  
HETATM   30  C   UNL     1      -7.539   5.866  66.267  1.00  0.00    -0.094 A  
BRANCH  23  31
HETATM   31  C   UNL     1      -7.881  10.047  63.319  1.00  0.00    -0.150 C  
BRANCH  31  32
HETATM   32  C   UNL     1      -9.294  10.343  62.819  1.00  0.00    -0.341 C  
BRANCH  32  33
HETATM   33  C   UNL     1     -10.089  10.954  63.986  1.00  0.00    -0.419 C  
HETATM   34  C   UNL     1     -10.754  12.280  63.663  1.00  0.00    -0.513 C  
ENDBRANCH  32  33
ENDBRANCH  31  32
ENDBRANCH  23  31
BRANCH  24  35
HETATM   35  N   UNL     1      -7.675   3.511  66.824  1.00  0.00    -0.080 N  
HETATM   36  H   UNL     1      -6.847   2.917  66.873  1.00  0.00     0.000 HD 
BRANCH  35  37
HETATM   37  S   UNL     1      -8.966   3.292  67.891  1.00  0.00    -0.166 S  
HETATM   38  C   UNL     1      -8.182   3.619  69.456  1.00  0.00    -0.052 C  
HETATM   39  O   UNL     1      -9.985   4.286  67.646  1.00  0.00    -0.132 OA 
HETATM   40  O   UNL     1      -9.268   1.877  67.840  1.00  0.00    -0.149 OA 
ENDBRANCH  35  37
ENDBRANCH  24  35
ENDBRANCH  20  22
ENDBRANCH  17  20
ENDBRANCH  13  14
ENDBRANCH  12  13
ENDBRANCH  11  12
ENDBRANCH  10  11
ENDBRANCH   5  10
ENDBRANCH   4   5
ENDBRANCH   3   4
ENDBRANCH   2   3
TORSDOF 18
ENDMDL
MODEL      163
REMARK 921   NORMALIZED FREE ENERGY PREDICTED BY IDOCK:   -3.91 KCAL/MOL
REMARK 922        TOTAL FREE ENERGY PREDICTED BY IDOCK:  -10.74 KCAL/MOL
REMARK 923 INTER-LIGAND FREE ENERGY PREDICTED BY IDOCK:   -9.68 KCAL/MOL
REMARK 924 INTRA-LIGAND FREE ENERGY PREDICTED BY IDOCK:   -1.06 KCAL/MOL
REMARK 927      BINDING AFFINITY PREDICTED BY RF-SCORE:    0.00 PKD
ROOT
HETATM    1  C   UNL     1      -7.310   2.283  71.301  1.00  0.00    -0.033 C  
HETATM    2  C   UNL     1      -7.797   3.364  70.344  1.00  0.00    -0.044 C  
ENDROOT
BRANCH   2   3
HETATM    3  C   UNL     1      -8.747   2.765  69.307  1.00  0.00    -0.134 C  
BRANCH   3   4
HETATM    4  C   UNL     1      -9.347   3.784  68.326  1.00  0.00    -0.167 C  
BRANCH   4   5
HETATM    5  N   UNL     1      -8.616   4.064  67.064  1.00  0.00    -0.103 NA 
BRANCH   5   6
HETATM    6  C   UNL     1      -9.247   3.368  65.919  1.00  0.00    -0.156 C  
BRANCH   6   7
HETATM    7  C   UNL     1      -8.310   2.584  64.978  1.00  0.00    -0.090 C  
BRANCH   7   8
HETATM    8  C   UNL     1      -7.657   3.431  63.884  1.00  0.00    -0.071 C  
HETATM    9  C   UNL     1      -8.684   4.342  63.222  1.00  0.00    -0.117 C  
ENDBRANCH   7   8
ENDBRANCH   6   7
ENDBRANCH   5   6
BRANCH   5  10
HETATM   10  C   UNL     1      -8.582   5.531  66.832  1.00  0.00    -0.110 C  
BRANCH  10  11
HETATM   11  C   UNL     1      -7.984   6.361  67.977  1.00  0.00    -0.109 C  
BRANCH  11  12
HETATM   12  C   UNL     1      -9.055   7.201  68.665  1.00  0.00    -0.133 C  
BRANCH  12  13
HETATM   13  O   UNL     1      -9.932   7.755  67.681  1.00  0.00    -0.157 OA 
BRANCH  13  14
HETATM   14  C   UNL     1     -10.077   9.117  67.710  1.00  0.00    -0.203 A  
HETATM   15  C   UNL     1     -10.998   9.861  66.968  1.00  0.00    -0.098 A  
HETATM   16  C   UNL     1     -10.992  11.262  67.025  1.00  0.00    -0.352 A  
HETATM   17  C   UNL     1     -10.068  11.933  67.835  1.00  0.00    -0.199 A  
HETATM   18  C   UNL     1      -9.217  11.184  68.656  1.00  0.00    -0.173 A  
HETATM   19  C   UNL     1      -9.199   9.787  68.564  1.00  0.00    -0.134 A  
BRANCH  17  20
HETATM   20  C   UNL     1      -9.989  13.429  67.765  1.00  0.00    -0.233 C  
HETATM   21  O   UNL     1      -9.090  13.936  67.100  1.00  0.00    -0.219 OA 
BRANCH  20  22
HETATM   22  C   UNL     1     -10.951  14.229  68.527  1.00  0.00    -0.267 A  
HETATM   23  C   UNL     1     -11.176  15.596  68.366  1.00  0.00    -0.352 A  
HETATM   24  C   UNL     1     -12.944  12.670  71.423  1.00  0.00    -0.258 A  
HETATM   25  O   UNL     1     -12.151  16.014  69.226  1.00  0.00    -0.290 OA 
HETATM   26  C   UNL     1     -13.640  13.831  71.754  1.00  0.00    -0.450 A  
HETATM   27  C   UNL     1     -12.499  14.963  70.002  1.00  0.00    -0.275 A  
HETATM   28  C   UNL     1     -11.777  13.833  69.642  1.00  0.00    -0.379 A  
HETATM   29  C   UNL     1     -13.418  15.016  71.047  1.00  0.00    -0.461 A  
HETATM   30  C   UNL     1     -11.983  12.667  70.406  1.00  0.00    -0.331 A  
BRANCH  23  31
HETATM   31  C   UNL     1     -10.541  16.722  67.620  1.00  0.00    -0.325 C  
BRANCH  31  32
HETATM   32  C   UNL     1     -10.256  18.017  68.379  1.00  0.00    -0.399 C  
BRANCH  32  33
HETATM   33  C   UNL     1     -10.777  19.188  67.527  1.00  0.00    -0.555 C  
HETATM   34  C   UNL     1      -9.771  20.306  67.321  1.00  0.00    -0.590 C  
ENDBRANCH  32  33
ENDBRANCH  31  32
ENDBRANCH  23  31
BRANCH  24  35
HETATM   35  N   UNL     1     -13.188  11.453  72.123  1.00  0.00    -0.556 N  
HETATM   36  H   UNL     1     -13.379  11.453  73.125  1.00  0.00     0.000 HD 
BRANCH  35  37
HETATM   37  S   UNL     1     -13.151  10.011  71.246  1.00  0.00    -0.392 S  
HETATM   38  C   UNL     1     -11.500   9.438  71.588  1.00  0.00    -0.393 C  
HETATM   39  O   UNL     1     -14.107   9.075  71.791  1.00  0.00    -0.374 OA 
HETATM   40  O   UNL     1     -13.197  10.408  69.854  1.00  0.00     0.001 OA 
ENDBRANCH  35  37
ENDBRANCH  24  35
ENDBRANCH  20  22
ENDBRANCH  17  20
ENDBRANCH  13  14
ENDBRANCH  12  13
ENDBRANCH  11  12
ENDBRANCH  10  11
ENDBRANCH   5  10
ENDBRANCH   4   5
ENDBRANCH   3   4
ENDBRANCH   2   3
TORSDOF 18
ENDMDL
MODEL      164
REMARK 921   NORMALIZED FREE ENERGY PREDICTED BY IDOCK:   -3.90 KCAL/MOL
REMARK 922        TOTAL FREE ENERGY PREDICTED BY IDOCK:  -10.71 KCAL/MOL
REMARK 923 INTER-LIGAND FREE ENERGY PREDICTED BY IDOCK:   -8.64 KCAL/MOL
REMARK 924 INTRA-LIGAND FREE ENERGY PREDICTED BY IDOCK:   -2.07 KCAL/MOL
REMARK 927      BINDING AFFINITY PREDICTED BY RF-SCORE:    0.00 PKD
ROOT
HETATM    1  C   UNL     1      -9.728   3.019  74.542  1.00  0.00    -0.144 C  
HETATM    2  C   UNL     1     -10.346   3.666  73.309  1.00  0.00    -0.241 C  
ENDROOT
BRANCH   2   3
HETATM    3  C   UNL     1     -11.029   4.980  73.686  1.00  0.00    -0.379 C  
BRANCH   3   4
HETATM    4  C   UNL     1     -11.548   5.796  72.492  1.00  0.00    -0.267 C  
BRANCH   4   5
HETATM    5  N   UNL     1     -10.852   7.061  72.146  1.00  0.00    -0.219 NA 
BRANCH   5   6
HETATM    6  C   UNL     1     -11.817   8.176  72.001  1.00  0.00    -0.338 C  
BRANCH   6   7
HETATM    7  C   UNL     1     -11.250   9.532  71.536  1.00  0.00    -0.437 C  
BRANCH   7   8
HETATM    8  C   UNL     1     -12.063  10.215  70.435  1.00  0.00    -0.332 C  
HETATM    9  C   UNL     1     -13.527  10.334  70.841  1.00  0.00    -0.100 C  
ENDBRANCH   7   8
ENDBRANCH   6   7
ENDBRANCH   5   6
BRANCH   5  10
HETATM   10  C   UNL     1      -9.846   7.371  73.194  1.00  0.00    -0.254 C  
BRANCH  10  11
HETATM   11  C   UNL     1      -8.381   7.206  72.764  1.00  0.00    -0.123 C  
BRANCH  11  12
HETATM   12  C   UNL     1      -7.595   8.493  72.985  1.00  0.00     0.018 C  
BRANCH  12  13
HETATM   13  O   UNL     1      -6.965   8.883  71.761  1.00  0.00    -0.190 OA 
BRANCH  13  14
HETATM   14  C   UNL     1      -7.626   8.535  70.613  1.00  0.00    -0.076 A  
HETATM   15  C   UNL     1      -7.692   7.253  70.060  1.00  0.00    -0.096 A  
HETATM   16  C   UNL     1      -8.334   7.039  68.832  1.00  0.00    -0.125 A  
HETATM   17  C   UNL     1      -8.926   8.108  68.148  1.00  0.00    -0.135 A  
HETATM   18  C   UNL     1      -8.950   9.370  68.755  1.00  0.00    -0.132 A  
HETATM   19  C   UNL     1      -8.271   9.586  69.960  1.00  0.00    -0.181 A  
BRANCH  17  20
HETATM   20  C   UNL     1      -9.478   7.878  66.774  1.00  0.00    -0.201 C  
HETATM   21  O   UNL     1     -10.455   7.144  66.652  1.00  0.00    -0.235 OA 
BRANCH  20  22
HETATM   22  C   UNL     1      -8.809   8.493  65.625  1.00  0.00    -0.214 A  
HETATM   23  C   UNL     1      -7.527   8.183  65.170  1.00  0.00    -0.081 A  
HETATM   24  C   UNL     1     -10.458  11.398  63.719  1.00  0.00    -0.399 A  
HETATM   25  O   UNL     1      -7.228   8.933  64.069  1.00  0.00    -0.093 OA 
HETATM   26  C   UNL     1      -9.425  11.568  62.801  1.00  0.00    -0.226 A  
HETATM   27  C   UNL     1      -8.254   9.787  63.856  1.00  0.00    -0.159 A  
HETATM   28  C   UNL     1      -9.255   9.588  64.797  1.00  0.00    -0.267 A  
HETATM   29  C   UNL     1      -8.285  10.761  62.861  1.00  0.00    -0.097 A  
HETATM   30  C   UNL     1     -10.369  10.450  64.745  1.00  0.00    -0.221 A  
BRANCH  23  31
HETATM   31  C   UNL     1      -6.371   7.370  65.649  1.00  0.00    -0.041 C  
BRANCH  31  32
HETATM   32  C   UNL     1      -6.600   5.883  65.914  1.00  0.00    -0.047 C  
BRANCH  32  33
HETATM   33  C   UNL     1      -6.776   5.182  64.555  1.00  0.00    -0.047 C  
HETATM   34  C   UNL     1      -8.100   4.460  64.391  1.00  0.00    -0.097 C  
ENDBRANCH  32  33
ENDBRANCH  31  32
ENDBRANCH  23  31
BRANCH  24  35
HETATM   35  N   UNL     1     -11.634  12.200  63.644  1.00  0.00    -0.471 N  
HETATM   36  H   UNL     1     -12.448  11.889  63.114  1.00  0.00     0.000 HD 
BRANCH  35  37
HETATM   37  S   UNL     1     -11.640  13.679  64.458  1.00  0.00    -0.403 S  
HETATM   38  C   UNL     1     -12.236  13.191  66.063  1.00  0.00    -0.414 C  
HETATM   39  O   UNL     1     -10.292  14.184  64.579  1.00  0.00    -0.390 OA 
HETATM   40  O   UNL     1     -12.682  14.461  63.824  1.00  0.00    -0.785 OA 
ENDBRANCH  35  37
ENDBRANCH  24  35
ENDBRANCH  20  22
ENDBRANCH  17  20
ENDBRANCH  13  14
ENDBRANCH  12  13
ENDBRANCH  11  12
ENDBRANCH  10  11
ENDBRANCH   5  10
ENDBRANCH   4   5
ENDBRANCH   3   4
ENDBRANCH   2   3
TORSDOF 18
ENDMDL
MODEL      165
REMARK 921   NORMALIZED FREE ENERGY PREDICTED BY IDOCK:   -3.89 KCAL/MOL
REMARK 922        TOTAL FREE ENERGY PREDICTED BY IDOCK:  -10.70 KCAL/MOL
REMARK 923 INTER-LIGAND FREE ENERGY PREDICTED BY IDOCK:   -7.88 KCAL/MOL
REMARK 924 INTRA-LIGAND FREE ENERGY PREDICTED BY IDOCK:   -2.82 KCAL/MOL
REMARK 927      BINDING AFFINITY PREDICTED BY RF-SCORE:    0.00 PKD
ROOT
HETATM    1  C   UNL     1     -10.829  17.223  67.929  1.00  0.00    -0.283 C  
HETATM    2  C   UNL     1     -10.282  16.591  69.203  1.00  0.00    -0.298 C  
ENDROOT
BRANCH   2   3
HETATM    3  C   UNL     1      -8.908  15.976  68.941  1.00  0.00    -0.233 C  
BRANCH   3   4
HETATM    4  C   UNL     1      -8.825  15.116  67.671  1.00  0.00    -0.173 C  
BRANCH   4   5
HETATM    5  N   UNL     1      -9.422  13.756  67.698  1.00  0.00    -0.210 NA 
BRANCH   5   6
HETATM    6  C   UNL     1     -10.010  13.408  66.384  1.00  0.00    -0.293 C  
BRANCH   6   7
HETATM    7  C   UNL     1     -10.227  14.566  65.389  1.00  0.00    -0.415 C  
BRANCH   7   8
HETATM    8  C   UNL     1     -11.668  14.716  64.896  1.00  0.00    -0.403 C  
HETATM    9  C   UNL     1     -12.620  13.889  65.750  1.00  0.00    -0.533 C  
ENDBRANCH   7   8
ENDBRANCH   6   7
ENDBRANCH   5   6
BRANCH   5  10
HETATM   10  C   UNL     1      -8.381  12.771  68.084  1.00  0.00    -0.172 C  
BRANCH  10  11
HETATM   11  C   UNL     1      -7.397  12.387  66.970  1.00  0.00    -0.016 C  
BRANCH  11  12
HETATM   12  C   UNL     1      -7.375  10.878  66.749  1.00  0.00    -0.134 C  
BRANCH  12  13
HETATM   13  O   UNL     1      -8.448  10.275  67.478  1.00  0.00    -0.118 OA 
BRANCH  13  14
HETATM   14  C   UNL     1      -8.116   9.176  68.226  1.00  0.00    -0.104 A  
HETATM   15  C   UNL     1      -7.302   9.170  69.361  1.00  0.00    -0.076 A  
HETATM   16  C   UNL     1      -6.970   7.963  69.993  1.00  0.00    -0.049 A  
HETATM   17  C   UNL     1      -7.459   6.748  69.499  1.00  0.00    -0.093 A  
HETATM   18  C   UNL     1      -8.359   6.767  68.426  1.00  0.00    -0.123 A  
HETATM   19  C   UNL     1      -8.653   7.970  67.773  1.00  0.00    -0.128 A  
BRANCH  17  20
HETATM   20  C   UNL     1      -6.974   5.466  70.105  1.00  0.00    -0.057 C  
HETATM   21  O   UNL     1      -5.818   5.116  69.881  1.00  0.00    -0.015 OA 
BRANCH  20  22
HETATM   22  C   UNL     1      -7.901   4.657  70.900  1.00  0.00    -0.077 A  
HETATM   23  C   UNL     1      -7.923   3.263  70.950  1.00  0.00    -0.053 A  
HETATM   24  C   UNL     1     -10.744   6.315  72.889  1.00  0.00    -0.247 A  
HETATM   25  O   UNL     1      -8.902   2.841  71.803  1.00  0.00    -0.072 OA 
HETATM   26  C   UNL     1     -11.266   5.129  73.401  1.00  0.00    -0.358 A  
HETATM   27  C   UNL     1      -9.574   3.932  72.236  1.00  0.00    -0.142 A  
HETATM   28  C   UNL     1      -9.025   5.087  71.696  1.00  0.00    -0.152 A  
HETATM   29  C   UNL     1     -10.689   3.900  73.070  1.00  0.00    -0.241 A  
HETATM   30  C   UNL     1      -9.659   6.307  72.005  1.00  0.00    -0.161 A  
BRANCH  23  31
HETATM   31  C   UNL     1      -7.266   2.138  70.222  1.00  0.00    -0.033 C  
BRANCH  31  32
HETATM   32  C   UNL     1      -7.343   2.128  68.696  1.00  0.00    -0.044 C  
BRANCH  32  33
HETATM   33  C   UNL     1      -8.829   2.099  68.298  1.00  0.00    -0.150 C  
HETATM   34  C   UNL     1      -9.292   3.319  67.523  1.00  0.00    -0.250 C  
ENDBRANCH  32  33
ENDBRANCH  31  32
ENDBRANCH  23  31
BRANCH  24  35
HETATM   35  N   UNL     1     -11.312   7.572  73.247  1.00  0.00    -0.591 N  
HETATM   36  H   UNL     1     -11.049   8.040  74.114  1.00  0.00     0.000 HD 
BRANCH  35  37
HETATM   37  S   UNL     1     -12.435   8.264  72.192  1.00  0.00    -0.344 S  
HETATM   38  C   UNL     1     -11.410   9.416  71.302  1.00  0.00    -0.366 C  
HETATM   39  O   UNL     1     -12.940   7.265  71.280  1.00  0.00    -0.369 OA 
HETATM   40  O   UNL     1     -13.328   9.033  73.035  1.00  0.00    -0.300 OA 
ENDBRANCH  35  37
ENDBRANCH  24  35
ENDBRANCH  20  22
ENDBRANCH  17  20
ENDBRANCH  13  14
ENDBRANCH  12  13
ENDBRANCH  11  12
ENDBRANCH  10  11
ENDBRANCH   5  10
ENDBRANCH   4   5
ENDBRANCH   3   4
ENDBRANCH   2   3
TORSDOF 18
ENDMDL
MODEL      166
REMARK 921   NORMALIZED FREE ENERGY PREDICTED BY IDOCK:   -3.88 KCAL/MOL
REMARK 922        TOTAL FREE ENERGY PREDICTED BY IDOCK:  -10.69 KCAL/MOL
REMARK 923 INTER-LIGAND FREE ENERGY PREDICTED BY IDOCK:   -8.56 KCAL/MOL
REMARK 924 INTRA-LIGAND FREE ENERGY PREDICTED BY IDOCK:   -2.12 KCAL/MOL
REMARK 927      BINDING AFFINITY PREDICTED BY RF-SCORE:    0.00 PKD
ROOT
HETATM    1  C   UNL     1     -11.070   3.687  73.656  1.00  0.00    -0.317 C  
HETATM    2  C   UNL     1     -10.905   5.202  73.629  1.00  0.00    -0.363 C  
ENDROOT
BRANCH   2   3
HETATM    3  C   UNL     1     -11.142   5.735  72.217  1.00  0.00    -0.330 C  
BRANCH   3   4
HETATM    4  C   UNL     1     -10.382   4.983  71.114  1.00  0.00    -0.184 C  
BRANCH   4   5
HETATM    5  N   UNL     1      -8.936   5.268  70.933  1.00  0.00    -0.135 NA 
BRANCH   5   6
HETATM    6  C   UNL     1      -8.176   4.021  70.682  1.00  0.00    -0.065 C  
BRANCH   6   7
HETATM    7  C   UNL     1      -7.135   3.613  71.743  1.00  0.00    -0.038 C  
BRANCH   7   8
HETATM    8  C   UNL     1      -7.151   4.472  73.009  1.00  0.00    -0.077 C  
HETATM    9  C   UNL     1      -7.394   3.610  74.242  1.00  0.00    -0.054 C  
ENDBRANCH   7   8
ENDBRANCH   6   7
ENDBRANCH   5   6
BRANCH   5  10
HETATM   10  C   UNL     1      -8.760   6.224  69.811  1.00  0.00    -0.137 C  
BRANCH  10  11
HETATM   11  C   UNL     1      -9.849   6.171  68.729  1.00  0.00    -0.160 C  
BRANCH  11  12
HETATM   12  C   UNL     1     -10.509   7.534  68.546  1.00  0.00    -0.180 C  
BRANCH  12  13
HETATM   13  O   UNL     1     -10.676   7.799  67.151  1.00  0.00    -0.333 OA 
BRANCH  13  14
HETATM   14  C   UNL     1     -10.502   9.102  66.766  1.00  0.00    -0.196 A  
HETATM   15  C   UNL     1      -9.847   9.536  65.610  1.00  0.00    -0.343 A  
HETATM   16  C   UNL     1      -9.662  10.905  65.369  1.00  0.00    -0.287 A  
HETATM   17  C   UNL     1     -10.141  11.855  66.280  1.00  0.00    -0.249 A  
HETATM   18  C   UNL     1     -10.887  11.420  67.382  1.00  0.00    -0.301 A  
HETATM   19  C   UNL     1     -11.032  10.052  67.640  1.00  0.00    -0.297 A  
BRANCH  17  20
HETATM   20  C   UNL     1      -9.804  13.300  66.070  1.00  0.00    -0.263 C  
HETATM   21  O   UNL     1     -10.438  13.931  65.229  1.00  0.00    -0.329 OA 
BRANCH  20  22
HETATM   22  C   UNL     1      -8.705  13.895  66.835  1.00  0.00    -0.177 A  
HETATM   23  C   UNL     1      -7.544  13.234  67.235  1.00  0.00    -0.067 A  
HETATM   24  C   UNL     1      -8.962  17.496  68.160  1.00  0.00    -0.266 A  
HETATM   25  O   UNL     1      -6.728  14.092  67.914  1.00  0.00    -0.134 OA 
HETATM   26  C   UNL     1      -7.713  17.507  68.777  1.00  0.00    -0.252 A  
HETATM   27  C   UNL     1      -7.378  15.271  68.041  1.00  0.00    -0.124 A  
HETATM   28  C   UNL     1      -8.618  15.212  67.420  1.00  0.00    -0.201 A  
HETATM   29  C   UNL     1      -6.893  16.376  68.737  1.00  0.00    -0.163 A  
HETATM   30  C   UNL     1      -9.445  16.349  67.521  1.00  0.00    -0.224 A  
BRANCH  23  31
HETATM   31  C   UNL     1      -7.038  11.830  67.238  1.00  0.00    -0.140 C  
BRANCH  31  32
HETATM   32  C   UNL     1      -7.430  10.928  68.408  1.00  0.00    -0.098 C  
BRANCH  32  33
HETATM   33  C   UNL     1      -6.312  11.013  69.463  1.00  0.00    -0.095 C  
HETATM   34  C   UNL     1      -6.303   9.865  70.456  1.00  0.00    -0.109 C  
ENDBRANCH  32  33
ENDBRANCH  31  32
ENDBRANCH  23  31
BRANCH  24  35
HETATM   35  N   UNL     1      -9.789  18.657  68.175  1.00  0.00    -0.335 N  
HETATM   36  H   UNL     1     -10.322  18.911  69.007  1.00  0.00     0.000 HD 
BRANCH  35  37
HETATM   37  S   UNL     1      -9.861  19.599  66.776  1.00  0.00    -0.430 S  
HETATM   38  C   UNL     1      -8.175  19.508  66.209  1.00  0.00    -0.343 C  
HETATM   39  O   UNL     1     -10.729  18.977  65.803  1.00  0.00    -0.466 OA 
HETATM   40  O   UNL     1     -10.095  20.952  67.236  1.00  0.00    -0.301 OA 
ENDBRANCH  35  37
ENDBRANCH  24  35
ENDBRANCH  20  22
ENDBRANCH  17  20
ENDBRANCH  13  14
ENDBRANCH  12  13
ENDBRANCH  11  12
ENDBRANCH  10  11
ENDBRANCH   5  10
ENDBRANCH   4   5
ENDBRANCH   3   4
ENDBRANCH   2   3
TORSDOF 18
ENDMDL
MODEL      167
REMARK 921   NORMALIZED FREE ENERGY PREDICTED BY IDOCK:   -3.85 KCAL/MOL
REMARK 922        TOTAL FREE ENERGY PREDICTED BY IDOCK:  -10.61 KCAL/MOL
REMARK 923 INTER-LIGAND FREE ENERGY PREDICTED BY IDOCK:   -8.87 KCAL/MOL
REMARK 924 INTRA-LIGAND FREE ENERGY PREDICTED BY IDOCK:   -1.74 KCAL/MOL
REMARK 927      BINDING AFFINITY PREDICTED BY RF-SCORE:    0.00 PKD
ROOT
HETATM    1  C   UNL     1     -10.461  19.624  66.044  1.00  0.00    -0.622 C  
HETATM    2  C   UNL     1      -9.983  19.943  67.455  1.00  0.00    -0.552 C  
ENDROOT
BRANCH   2   3
HETATM    3  C   UNL     1      -9.942  18.671  68.301  1.00  0.00    -0.424 C  
BRANCH   3   4
HETATM    4  C   UNL     1     -10.321  17.389  67.546  1.00  0.00    -0.351 C  
BRANCH   4   5
HETATM    5  N   UNL     1      -9.337  16.277  67.502  1.00  0.00    -0.217 NA 
BRANCH   5   6
HETATM    6  C   UNL     1      -9.963  15.033  66.999  1.00  0.00    -0.242 C  
BRANCH   6   7
HETATM    7  C   UNL     1     -11.358  14.682  67.552  1.00  0.00    -0.361 C  
BRANCH   7   8
HETATM    8  C   UNL     1     -11.867  13.294  67.157  1.00  0.00    -0.424 C  
HETATM    9  C   UNL     1     -12.756  13.376  65.923  1.00  0.00    -0.317 C  
ENDBRANCH   7   8
ENDBRANCH   6   7
ENDBRANCH   5   6
BRANCH   5  10
HETATM   10  C   UNL     1      -8.190  16.671  66.645  1.00  0.00    -0.266 C  
BRANCH  10  11
HETATM   11  C   UNL     1      -6.833  16.748  67.360  1.00  0.00    -0.186 C  
BRANCH  11  12
HETATM   12  C   UNL     1      -6.560  15.479  68.159  1.00  0.00    -0.130 C  
BRANCH  12  13
HETATM   13  O   UNL     1      -6.583  14.349  67.283  1.00  0.00    -0.283 OA 
BRANCH  13  14
HETATM   14  C   UNL     1      -6.862  13.143  67.871  1.00  0.00    -0.135 A  
HETATM   15  C   UNL     1      -7.575  12.092  67.289  1.00  0.00    -0.157 A  
HETATM   16  C   UNL     1      -7.865  10.935  68.027  1.00  0.00    -0.107 A  
HETATM   17  C   UNL     1      -7.435  10.815  69.354  1.00  0.00    -0.124 A  
HETATM   18  C   UNL     1      -6.631  11.825  69.898  1.00  0.00    -0.000 A  
HETATM   19  C   UNL     1      -6.380  12.995  69.172  1.00  0.00    -0.105 A  
BRANCH  17  20
HETATM   20  C   UNL     1      -7.881   9.635  70.162  1.00  0.00    -0.174 C  
HETATM   21  O   UNL     1      -7.204   9.300  71.130  1.00  0.00    -0.210 OA 
BRANCH  20  22
HETATM   22  C   UNL     1      -9.076   8.896  69.745  1.00  0.00    -0.151 A  
HETATM   23  C   UNL     1     -10.373   9.127  70.201  1.00  0.00    -0.213 A  
HETATM   24  C   UNL     1      -8.788   5.870  67.388  1.00  0.00    -0.106 A  
HETATM   25  O   UNL     1     -11.243   8.269  69.591  1.00  0.00    -0.085 OA 
HETATM   26  C   UNL     1     -10.151   5.587  67.357  1.00  0.00    -0.215 A  
HETATM   27  C   UNL     1     -10.522   7.427  68.817  1.00  0.00    -0.199 A  
HETATM   28  C   UNL     1      -9.172   7.740  68.885  1.00  0.00    -0.140 A  
HETATM   29  C   UNL     1     -11.053   6.365  68.089  1.00  0.00    -0.358 A  
HETATM   30  C   UNL     1      -8.280   6.908  68.178  1.00  0.00    -0.119 A  
BRANCH  23  31
HETATM   31  C   UNL     1     -11.022   9.950  71.263  1.00  0.00    -0.225 C  
BRANCH  31  32
HETATM   32  C   UNL     1     -12.546   9.921  71.365  1.00  0.00    -0.497 C  
BRANCH  32  33
HETATM   33  C   UNL     1     -12.971   8.475  71.673  1.00  0.00    -0.369 C  
HETATM   34  C   UNL     1     -14.406   8.332  72.146  1.00  0.00    -0.498 C  
ENDBRANCH  32  33
ENDBRANCH  31  32
ENDBRANCH  23  31
BRANCH  24  35
HETATM   35  N   UNL     1      -7.868   5.097  66.621  1.00  0.00    -0.099 N  
HETATM   36  H   UNL     1      -7.660   5.338  65.652  1.00  0.00     0.000 HD 
BRANCH  35  37
HETATM   37  S   UNL     1      -7.134   3.770  67.363  1.00  0.00    -0.060 S  
HETATM   38  C   UNL     1      -7.115   2.592  66.028  1.00  0.00    -0.064 C  
HETATM   39  O   UNL     1      -5.776   4.098  67.734  1.00  0.00    -0.020 OA 
HETATM   40  O   UNL     1      -8.089   3.303  68.346  1.00  0.00    -0.068 OA 
ENDBRANCH  35  37
ENDBRANCH  24  35
ENDBRANCH  20  22
ENDBRANCH  17  20
ENDBRANCH  13  14
ENDBRANCH  12  13
ENDBRANCH  11  12
ENDBRANCH  10  11
ENDBRANCH   5  10
ENDBRANCH   4   5
ENDBRANCH   3   4
ENDBRANCH   2   3
TORSDOF 18
ENDMDL
MODEL      168
REMARK 921   NORMALIZED FREE ENERGY PREDICTED BY IDOCK:   -3.83 KCAL/MOL
REMARK 922        TOTAL FREE ENERGY PREDICTED BY IDOCK:  -10.58 KCAL/MOL
REMARK 923 INTER-LIGAND FREE ENERGY PREDICTED BY IDOCK:   -8.24 KCAL/MOL
REMARK 924 INTRA-LIGAND FREE ENERGY PREDICTED BY IDOCK:   -2.34 KCAL/MOL
REMARK 927      BINDING AFFINITY PREDICTED BY RF-SCORE:    0.00 PKD
ROOT
HETATM    1  C   UNL     1      -9.923  15.425  69.718  1.00  0.00    -0.251 C  
HETATM    2  C   UNL     1     -11.294  14.782  69.882  1.00  0.00    -0.310 C  
ENDROOT
BRANCH   2   3
HETATM    3  C   UNL     1     -11.497  13.690  68.832  1.00  0.00    -0.344 C  
BRANCH   3   4
HETATM    4  C   UNL     1     -12.314  14.126  67.607  1.00  0.00    -0.038 C  
BRANCH   4   5
HETATM    5  N   UNL     1     -11.633  14.184  66.288  1.00  0.00    -0.356 NA 
BRANCH   5   6
HETATM    6  C   UNL     1     -12.613  14.103  65.180  1.00  0.00    -0.408 C  
BRANCH   6   7
HETATM    7  C   UNL     1     -12.141  13.420  63.881  1.00  0.00    -0.514 C  
BRANCH   7   8
HETATM    8  C   UNL     1     -11.504  12.044  64.084  1.00  0.00    -0.460 C  
HETATM    9  C   UNL     1     -10.239  11.906  63.246  1.00  0.00    -0.428 C  
ENDBRANCH   7   8
ENDBRANCH   6   7
ENDBRANCH   5   6
BRANCH   5  10
HETATM   10  C   UNL     1     -10.844  15.440  66.199  1.00  0.00    -0.313 C  
BRANCH  10  11
HETATM   11  C   UNL     1      -9.355  15.255  65.873  1.00  0.00    -0.308 C  
BRANCH  11  12
HETATM   12  C   UNL     1      -8.717  14.211  66.783  1.00  0.00    -0.123 C  
BRANCH  12  13
HETATM   13  O   UNL     1      -9.034  12.902  66.302  1.00  0.00    -0.084 OA 
BRANCH  13  14
HETATM   14  C   UNL     1      -8.667  11.863  67.115  1.00  0.00    -0.176 A  
HETATM   15  C   UNL     1      -8.173  11.974  68.418  1.00  0.00    -0.151 A  
HETATM   16  C   UNL     1      -7.754  10.835  69.121  1.00  0.00    -0.138 A  
HETATM   17  C   UNL     1      -7.833   9.569  68.527  1.00  0.00    -0.085 A  
HETATM   18  C   UNL     1      -8.425   9.450  67.264  1.00  0.00    -0.125 A  
HETATM   19  C   UNL     1      -8.803  10.594  66.551  1.00  0.00    -0.160 A  
BRANCH  17  20
HETATM   20  C   UNL     1      -7.245   8.391  69.243  1.00  0.00    -0.063 C  
HETATM   21  O   UNL     1      -6.025   8.335  69.372  1.00  0.00    -0.036 OA 
BRANCH  20  22
HETATM   22  C   UNL     1      -8.135   7.330  69.721  1.00  0.00    -0.128 A  
HETATM   23  C   UNL     1      -8.026   5.976  69.405  1.00  0.00    -0.103 A  
HETATM   24  C   UNL     1     -11.238   8.173  71.830  1.00  0.00    -0.290 A  
HETATM   25  O   UNL     1      -9.009   5.268  70.035  1.00  0.00    -0.122 OA 
HETATM   26  C   UNL     1     -11.674   6.858  71.971  1.00  0.00    -0.336 A  
HETATM   27  C   UNL     1      -9.807   6.149  70.680  1.00  0.00    -0.179 A  
HETATM   28  C   UNL     1      -9.341   7.444  70.506  1.00  0.00    -0.157 A  
HETATM   29  C   UNL     1     -10.962   5.810  71.381  1.00  0.00    -0.304 A  
HETATM   30  C   UNL     1     -10.107   8.486  71.068  1.00  0.00    -0.257 A  
BRANCH  23  31
HETATM   31  C   UNL     1      -7.221   5.140  68.466  1.00  0.00    -0.062 C  
BRANCH  31  32
HETATM   32  C   UNL     1      -7.284   3.621  68.624  1.00  0.00    -0.051 C  
BRANCH  32  33
HETATM   33  C   UNL     1      -5.941   3.152  69.212  1.00  0.00    -0.024 C  
HETATM   34  C   UNL     1      -6.045   2.551  70.602  1.00  0.00    -0.019 C  
ENDBRANCH  32  33
ENDBRANCH  31  32
ENDBRANCH  23  31
BRANCH  24  35
HETATM   35  N   UNL     1     -11.946   9.242  72.454  1.00  0.00    -0.135 N  
HETATM   36  H   UNL     1     -11.730   9.528  73.409  1.00  0.00     0.000 HD 
BRANCH  35  37
HETATM   37  S   UNL     1     -13.152  10.021  71.565  1.00  0.00    -0.444 S  
HETATM   38  C   UNL     1     -12.273  10.434  70.073  1.00  0.00    -0.189 C  
HETATM   39  O   UNL     1     -14.216   9.094  71.256  1.00  0.00    -0.230 OA 
HETATM   40  O   UNL     1     -13.414  11.256  72.275  1.00  0.00    -0.341 OA 
ENDBRANCH  35  37
ENDBRANCH  24  35
ENDBRANCH  20  22
ENDBRANCH  17  20
ENDBRANCH  13  14
ENDBRANCH  12  13
ENDBRANCH  11  12
ENDBRANCH  10  11
ENDBRANCH   5  10
ENDBRANCH   4   5
ENDBRANCH   3   4
ENDBRANCH   2   3
TORSDOF 18
ENDMDL
MODEL      169
REMARK 921   NORMALIZED FREE ENERGY PREDICTED BY IDOCK:   -3.83 KCAL/MOL
REMARK 922        TOTAL FREE ENERGY PREDICTED BY IDOCK:  -10.57 KCAL/MOL
REMARK 923 INTER-LIGAND FREE ENERGY PREDICTED BY IDOCK:   -7.30 KCAL/MOL
REMARK 924 INTRA-LIGAND FREE ENERGY PREDICTED BY IDOCK:   -3.27 KCAL/MOL
REMARK 927      BINDING AFFINITY PREDICTED BY RF-SCORE:    0.00 PKD
ROOT
HETATM    1  C   UNL     1     -12.270  14.750  64.665  1.00  0.00    -0.405 C  
HETATM    2  C   UNL     1     -12.595  13.548  65.542  1.00  0.00    -0.531 C  
ENDROOT
BRANCH   2   3
HETATM    3  C   UNL     1     -12.140  13.802  66.979  1.00  0.00    -0.436 C  
BRANCH   3   4
HETATM    4  C   UNL     1     -11.287  12.679  67.587  1.00  0.00    -0.310 C  
BRANCH   4   5
HETATM    5  N   UNL     1      -9.814  12.736  67.409  1.00  0.00    -0.207 NA 
BRANCH   5   6
HETATM    6  C   UNL     1      -9.411  12.134  66.117  1.00  0.00    -0.224 C  
BRANCH   6   7
HETATM    7  C   UNL     1     -10.055  10.783  65.747  1.00  0.00    -0.320 C  
BRANCH   7   8
HETATM    8  C   UNL     1     -10.453  10.652  64.275  1.00  0.00    -0.221 C  
HETATM    9  C   UNL     1      -9.872  11.798  63.456  1.00  0.00    -0.386 C  
ENDBRANCH   7   8
ENDBRANCH   6   7
ENDBRANCH   5   6
BRANCH   5  10
HETATM   10  C   UNL     1      -9.364  14.149  67.492  1.00  0.00    -0.204 C  
BRANCH  10  11
HETATM   11  C   UNL     1      -8.139  14.395  68.384  1.00  0.00    -0.143 C  
BRANCH  11  12
HETATM   12  C   UNL     1      -6.843  14.164  67.614  1.00  0.00    -0.179 C  
BRANCH  12  13
HETATM   13  O   UNL     1      -5.984  13.309  68.373  1.00  0.00    -0.076 OA 
BRANCH  13  14
HETATM   14  C   UNL     1      -6.445  12.037  68.587  1.00  0.00    -0.063 A  
HETATM   15  C   UNL     1      -6.909  11.526  69.802  1.00  0.00     0.010 A  
HETATM   16  C   UNL     1      -7.280  10.178  69.912  1.00  0.00    -0.155 A  
HETATM   17  C   UNL     1      -7.199   9.329  68.801  1.00  0.00    -0.074 A  
HETATM   18  C   UNL     1      -6.835   9.869  67.562  1.00  0.00    -0.081 A  
HETATM   19  C   UNL     1      -6.425  11.205  67.467  1.00  0.00    -0.069 A  
BRANCH  17  20
HETATM   20  C   UNL     1      -7.463   7.865  68.982  1.00  0.00    -0.097 C  
HETATM   21  O   UNL     1      -6.619   7.187  69.562  1.00  0.00    -0.042 OA 
BRANCH  20  22
HETATM   22  C   UNL     1      -8.688   7.287  68.424  1.00  0.00    -0.122 A  
HETATM   23  C   UNL     1      -9.984   7.547  68.869  1.00  0.00    -0.168 A  
HETATM   24  C   UNL     1      -8.515   4.621  65.657  1.00  0.00    -0.118 A  
HETATM   25  O   UNL     1     -10.886   6.854  68.112  1.00  0.00    -0.223 OA 
HETATM   26  C   UNL     1      -9.893   4.450  65.542  1.00  0.00    -0.225 A  
HETATM   27  C   UNL     1     -10.194   6.081  67.245  1.00  0.00    -0.195 A  
HETATM   28  C   UNL     1      -8.829   6.279  67.400  1.00  0.00    -0.107 A  
HETATM   29  C   UNL     1     -10.767   5.179  66.352  1.00  0.00    -0.275 A  
HETATM   30  C   UNL     1      -7.970   5.493  66.606  1.00  0.00    -0.101 A  
BRANCH  23  31
HETATM   31  C   UNL     1     -10.617   8.254  70.020  1.00  0.00    -0.235 C  
BRANCH  31  32
HETATM   32  C   UNL     1     -10.176   7.867  71.431  1.00  0.00    -0.226 C  
BRANCH  32  33
HETATM   33  C   UNL     1     -11.440   7.718  72.296  1.00  0.00    -0.384 C  
HETATM   34  C   UNL     1     -12.544   8.705  71.965  1.00  0.00    -0.434 C  
ENDBRANCH  32  33
ENDBRANCH  31  32
ENDBRANCH  23  31
BRANCH  24  35
HETATM   35  N   UNL     1      -7.621   3.900  64.813  1.00  0.00    -0.076 N  
HETATM   36  H   UNL     1      -7.263   2.986  65.087  1.00  0.00     0.000 HD 
BRANCH  35  37
HETATM   37  S   UNL     1      -7.173   4.605  63.345  1.00  0.00    -0.049 S  
HETATM   38  C   UNL     1      -6.884   3.162  62.342  1.00  0.00    -0.030 C  
HETATM   39  O   UNL     1      -8.278   5.357  62.798  1.00  0.00    -0.103 OA 
HETATM   40  O   UNL     1      -5.890   5.228  63.595  1.00  0.00    -0.017 OA 
ENDBRANCH  35  37
ENDBRANCH  24  35
ENDBRANCH  20  22
ENDBRANCH  17  20
ENDBRANCH  13  14
ENDBRANCH  12  13
ENDBRANCH  11  12
ENDBRANCH  10  11
ENDBRANCH   5  10
ENDBRANCH   4   5
ENDBRANCH   3   4
ENDBRANCH   2   3
TORSDOF 18
ENDMDL
MODEL      170
REMARK 921   NORMALIZED FREE ENERGY PREDICTED BY IDOCK:   -3.80 KCAL/MOL
REMARK 922        TOTAL FREE ENERGY PREDICTED BY IDOCK:  -10.52 KCAL/MOL
REMARK 923 INTER-LIGAND FREE ENERGY PREDICTED BY IDOCK:   -6.25 KCAL/MOL
REMARK 924 INTRA-LIGAND FREE ENERGY PREDICTED BY IDOCK:   -4.28 KCAL/MOL
REMARK 927      BINDING AFFINITY PREDICTED BY RF-SCORE:    0.00 PKD
ROOT
HETATM    1  C   UNL     1      -9.331   9.211  70.863  1.00  0.00    -0.335 C  
HETATM    2  C   UNL     1      -7.813   9.082  70.889  1.00  0.00    -0.172 C  
ENDROOT
BRANCH   2   3
HETATM    3  C   UNL     1      -7.239   9.309  69.491  1.00  0.00    -0.061 C  
BRANCH   3   4
HETATM    4  C   UNL     1      -7.613  10.658  68.858  1.00  0.00    -0.113 C  
BRANCH   4   5
HETATM    5  N   UNL     1      -6.728  11.824  69.106  1.00  0.00    -0.103 NA 
BRANCH   5   6
HETATM    6  C   UNL     1      -5.399  11.625  68.482  1.00  0.00    -0.042 C  
BRANCH   6   7
HETATM    7  C   UNL     1      -5.293  10.529  67.404  1.00  0.00    -0.040 C  
BRANCH   7   8
HETATM    8  C   UNL     1      -5.271  11.054  65.967  1.00  0.00    -0.139 C  
HETATM    9  C   UNL     1      -6.247  10.276  65.094  1.00  0.00    -0.127 C  
ENDBRANCH   7   8
ENDBRANCH   6   7
ENDBRANCH   5   6
BRANCH   5  10
HETATM   10  C   UNL     1      -7.376  13.052  68.579  1.00  0.00    -0.115 C  
BRANCH  10  11
HETATM   11  C   UNL     1      -8.185  12.863  67.288  1.00  0.00    -0.176 C  
BRANCH  11  12
HETATM   12  C   UNL     1      -9.579  13.468  67.418  1.00  0.00    -0.227 C  
BRANCH  12  13
HETATM   13  O   UNL     1     -10.484  12.772  66.556  1.00  0.00    -0.257 OA 
BRANCH  13  14
HETATM   14  C   UNL     1     -10.545  11.414  66.728  1.00  0.00    -0.255 A  
HETATM   15  C   UNL     1     -11.085  10.750  67.833  1.00  0.00    -0.369 A  
HETATM   16  C   UNL     1     -11.015   9.353  67.928  1.00  0.00    -0.122 A  
HETATM   17  C   UNL     1     -10.410   8.604  66.910  1.00  0.00    -0.355 A  
HETATM   18  C   UNL     1      -9.964   9.264  65.758  1.00  0.00    -0.215 A  
HETATM   19  C   UNL     1      -9.999  10.662  65.687  1.00  0.00    -0.327 A  
BRANCH  17  20
HETATM   20  C   UNL     1     -10.220   7.130  67.104  1.00  0.00    -0.257 C  
HETATM   21  O   UNL     1     -11.152   6.380  66.828  1.00  0.00    -0.358 OA 
BRANCH  20  22
HETATM   22  C   UNL     1      -8.955   6.641  67.658  1.00  0.00    -0.111 A  
HETATM   23  C   UNL     1      -7.732   6.614  66.988  1.00  0.00    -0.103 A  
HETATM   24  C   UNL     1      -8.834   5.032  71.149  1.00  0.00    -0.129 A  
HETATM   25  O   UNL     1      -6.761   6.113  67.807  1.00  0.00    -0.056 OA 
HETATM   26  C   UNL     1      -7.467   4.768  71.135  1.00  0.00    -0.072 A  
HETATM   27  C   UNL     1      -7.349   5.731  68.964  1.00  0.00    -0.083 A  
HETATM   28  C   UNL     1      -8.709   6.004  68.930  1.00  0.00    -0.122 A  
HETATM   29  C   UNL     1      -6.692   5.109  70.022  1.00  0.00    -0.044 A  
HETATM   30  C   UNL     1      -9.475   5.604  70.044  1.00  0.00    -0.199 A  
BRANCH  23  31
HETATM   31  C   UNL     1      -7.250   6.849  65.595  1.00  0.00    -0.073 C  
BRANCH  31  32
HETATM   32  C   UNL     1      -7.986   6.150  64.453  1.00  0.00    -0.121 C  
BRANCH  32  33
HETATM   33  C   UNL     1      -8.259   4.699  64.886  1.00  0.00    -0.113 C  
HETATM   34  C   UNL     1      -9.591   4.146  64.411  1.00  0.00    -0.162 C  
ENDBRANCH  32  33
ENDBRANCH  31  32
ENDBRANCH  23  31
BRANCH  24  35
HETATM   35  N   UNL     1      -9.622   4.712  72.293  1.00  0.00    -0.147 N  
HETATM   36  H   UNL     1     -10.094   5.442  72.826  1.00  0.00     0.000 HD 
BRANCH  35  37
HETATM   37  S   UNL     1      -9.752   3.089  72.739  1.00  0.00    -0.130 S  
HETATM   38  C   UNL     1     -11.277   3.102  73.659  1.00  0.00    -0.191 C  
HETATM   39  O   UNL     1      -9.907   2.262  71.564  1.00  0.00    -0.152 OA 
HETATM   40  O   UNL     1      -8.675   2.863  73.680  1.00  0.00    -0.072 OA 
ENDBRANCH  35  37
ENDBRANCH  24  35
ENDBRANCH  20  22
ENDBRANCH  17  20
ENDBRANCH  13  14
ENDBRANCH  12  13
ENDBRANCH  11  12
ENDBRANCH  10  11
ENDBRANCH   5  10
ENDBRANCH   4   5
ENDBRANCH   3   4
ENDBRANCH   2   3
TORSDOF 18
ENDMDL
MODEL      171
REMARK 921   NORMALIZED FREE ENERGY PREDICTED BY IDOCK:   -3.80 KCAL/MOL
REMARK 922        TOTAL FREE ENERGY PREDICTED BY IDOCK:  -10.52 KCAL/MOL
REMARK 923 INTER-LIGAND FREE ENERGY PREDICTED BY IDOCK:   -8.29 KCAL/MOL
REMARK 924 INTRA-LIGAND FREE ENERGY PREDICTED BY IDOCK:   -2.22 KCAL/MOL
REMARK 927      BINDING AFFINITY PREDICTED BY RF-SCORE:    0.00 PKD
ROOT
HETATM    1  C   UNL     1     -11.358  12.179  63.750  1.00  0.00    -0.529 C  
HETATM    2  C   UNL     1     -12.416  12.951  64.530  1.00  0.00    -0.468 C  
ENDROOT
BRANCH   2   3
HETATM    3  C   UNL     1     -11.856  14.295  64.994  1.00  0.00    -0.396 C  
BRANCH   3   4
HETATM    4  C   UNL     1     -11.822  14.481  66.519  1.00  0.00    -0.352 C  
BRANCH   4   5
HETATM    5  N   UNL     1     -10.582  15.014  67.138  1.00  0.00    -0.289 NA 
BRANCH   5   6
HETATM    6  C   UNL     1     -10.723  16.454  67.455  1.00  0.00    -0.278 C  
BRANCH   6   7
HETATM    7  C   UNL     1     -10.678  17.437  66.267  1.00  0.00    -0.082 C  
BRANCH   7   8
HETATM    8  C   UNL     1      -9.304  18.060  66.012  1.00  0.00    -0.033 C  
HETATM    9  C   UNL     1      -9.246  19.480  66.561  1.00  0.00    -0.424 C  
ENDBRANCH   7   8
ENDBRANCH   6   7
ENDBRANCH   5   6
BRANCH   5  10
HETATM   10  C   UNL     1     -10.272  14.235  68.364  1.00  0.00    -0.245 C  
BRANCH  10  11
HETATM   11  C   UNL     1      -9.964  12.748  68.134  1.00  0.00    -0.229 C  
BRANCH  11  12
HETATM   12  C   UNL     1      -9.035  12.556  66.941  1.00  0.00    -0.212 C  
BRANCH  12  13
HETATM   13  O   UNL     1      -8.163  11.451  67.188  1.00  0.00    -0.143 OA 
BRANCH  13  14
HETATM   14  C   UNL     1      -8.757  10.216  67.212  1.00  0.00    -0.129 A  
HETATM   15  C   UNL     1      -9.835   9.809  66.422  1.00  0.00    -0.298 A  
HETATM   16  C   UNL     1     -10.407   8.541  66.598  1.00  0.00    -0.303 A  
HETATM   17  C   UNL     1      -9.899   7.663  67.563  1.00  0.00    -0.214 A  
HETATM   18  C   UNL     1      -8.754   8.034  68.279  1.00  0.00    -0.130 A  
HETATM   19  C   UNL     1      -8.212   9.316  68.129  1.00  0.00    -0.119 A  
BRANCH  17  20
HETATM   20  C   UNL     1     -10.618   6.375  67.829  1.00  0.00    -0.266 C  
HETATM   21  O   UNL     1     -11.126   5.784  66.880  1.00  0.00    -0.222 OA 
BRANCH  20  22
HETATM   22  C   UNL     1     -10.732   5.893  69.207  1.00  0.00    -0.401 A  
HETATM   23  C   UNL     1     -11.492   6.487  70.215  1.00  0.00    -0.411 A  
HETATM   24  C   UNL     1      -8.648   2.895  70.415  1.00  0.00    -0.063 A  
HETATM   25  O   UNL     1     -11.383   5.766  71.369  1.00  0.00    -0.225 OA 
HETATM   26  C   UNL     1      -9.134   2.904  71.721  1.00  0.00    -0.157 A  
HETATM   27  C   UNL     1     -10.497   4.768  71.154  1.00  0.00    -0.051 A  
HETATM   28  C   UNL     1     -10.034   4.803  69.846  1.00  0.00    -0.306 A  
HETATM   29  C   UNL     1     -10.072   3.860  72.121  1.00  0.00    -0.225 A  
HETATM   30  C   UNL     1      -9.051   3.859  69.485  1.00  0.00    -0.196 A  
BRANCH  23  31
HETATM   31  C   UNL     1     -12.258   7.755  70.394  1.00  0.00     0.266 C  
BRANCH  31  32
HETATM   32  C   UNL     1     -11.489   9.074  70.337  1.00  0.00    -0.202 C  
BRANCH  32  33
HETATM   33  C   UNL     1     -12.394  10.174  70.918  1.00  0.00    -0.461 C  
HETATM   34  C   UNL     1     -13.584   9.654  71.703  1.00  0.00    -0.402 C  
ENDBRANCH  32  33
ENDBRANCH  31  32
ENDBRANCH  23  31
BRANCH  24  35
HETATM   35  N   UNL     1      -7.713   1.904  69.996  1.00  0.00    -0.042 N  
HETATM   36  H   UNL     1      -8.002   1.128  69.400  1.00  0.00     0.000 HD 
BRANCH  35  37
HETATM   37  S   UNL     1      -6.113   2.053  70.514  1.00  0.00    -0.019 S  
HETATM   38  C   UNL     1      -5.918   3.823  70.539  1.00  0.00    -0.018 C  
HETATM   39  O   UNL     1      -5.976   1.535  71.856  1.00  0.00    -0.008 OA 
HETATM   40  O   UNL     1      -5.308   1.540  69.424  1.00  0.00    -0.011 OA 
ENDBRANCH  35  37
ENDBRANCH  24  35
ENDBRANCH  20  22
ENDBRANCH  17  20
ENDBRANCH  13  14
ENDBRANCH  12  13
ENDBRANCH  11  12
ENDBRANCH  10  11
ENDBRANCH   5  10
ENDBRANCH   4   5
ENDBRANCH   3   4
ENDBRANCH   2   3
TORSDOF 18
ENDMDL
MODEL      172
REMARK 921   NORMALIZED FREE ENERGY PREDICTED BY IDOCK:   -3.80 KCAL/MOL
REMARK 922        TOTAL FREE ENERGY PREDICTED BY IDOCK:  -10.51 KCAL/MOL
REMARK 923 INTER-LIGAND FREE ENERGY PREDICTED BY IDOCK:   -8.20 KCAL/MOL
REMARK 924 INTRA-LIGAND FREE ENERGY PREDICTED BY IDOCK:   -2.31 KCAL/MOL
REMARK 927      BINDING AFFINITY PREDICTED BY RF-SCORE:    0.00 PKD
ROOT
HETATM    1  C   UNL     1     -12.086  14.873  69.697  1.00  0.00    -0.334 C  
HETATM    2  C   UNL     1     -11.474  15.075  68.317  1.00  0.00    -0.349 C  
ENDROOT
BRANCH   2   3
HETATM    3  C   UNL     1     -10.511  16.262  68.332  1.00  0.00    -0.282 C  
BRANCH   3   4
HETATM    4  C   UNL     1      -9.162  15.999  67.648  1.00  0.00    -0.205 C  
BRANCH   4   5
HETATM    5  N   UNL     1      -7.954  16.678  68.183  1.00  0.00    -0.172 NA 
BRANCH   5   6
HETATM    6  C   UNL     1      -8.259  18.073  68.576  1.00  0.00    -0.303 C  
BRANCH   6   7
HETATM    7  C   UNL     1      -7.781  19.186  67.624  1.00  0.00    -0.271 C  
BRANCH   7   8
HETATM    8  C   UNL     1      -8.687  19.417  66.412  1.00  0.00    -0.376 C  
HETATM    9  C   UNL     1     -10.037  19.971  66.847  1.00  0.00    -0.601 C  
ENDBRANCH   7   8
ENDBRANCH   6   7
ENDBRANCH   5   6
BRANCH   5  10
HETATM   10  C   UNL     1      -7.432  15.908  69.341  1.00  0.00    -0.213 C  
BRANCH  10  11
HETATM   11  C   UNL     1      -6.053  15.265  69.132  1.00  0.00    -0.102 C  
BRANCH  11  12
HETATM   12  C   UNL     1      -5.935  14.658  67.738  1.00  0.00    -0.103 C  
BRANCH  12  13
HETATM   13  O   UNL     1      -5.621  13.268  67.848  1.00  0.00    -0.108 OA 
BRANCH  13  14
HETATM   14  C   UNL     1      -6.679  12.436  68.107  1.00  0.00    -0.075 A  
HETATM   15  C   UNL     1      -6.690  11.385  69.028  1.00  0.00    -0.092 A  
HETATM   16  C   UNL     1      -7.813  10.552  69.142  1.00  0.00    -0.138 A  
HETATM   17  C   UNL     1      -8.940  10.769  68.340  1.00  0.00    -0.153 A  
HETATM   18  C   UNL     1      -8.964  11.885  67.495  1.00  0.00    -0.171 A  
HETATM   19  C   UNL     1      -7.826  12.688  67.354  1.00  0.00    -0.175 A  
BRANCH  17  20
HETATM   20  C   UNL     1     -10.064   9.779  68.381  1.00  0.00    -0.166 C  
HETATM   21  O   UNL     1     -11.168  10.133  67.974  1.00  0.00    -0.270 OA 
BRANCH  20  22
HETATM   22  C   UNL     1      -9.824   8.448  68.944  1.00  0.00    -0.184 A  
HETATM   23  C   UNL     1     -10.025   8.082  70.274  1.00  0.00    -0.189 A  
HETATM   24  C   UNL     1      -8.274   5.660  66.796  1.00  0.00    -0.105 A  
HETATM   25  O   UNL     1      -9.718   6.763  70.448  1.00  0.00    -0.175 OA 
HETATM   26  C   UNL     1      -8.273   4.694  67.800  1.00  0.00    -0.099 A  
HETATM   27  C   UNL     1      -9.235   6.291  69.276  1.00  0.00    -0.133 A  
HETATM   28  C   UNL     1      -9.248   7.287  68.309  1.00  0.00    -0.133 A  
HETATM   29  C   UNL     1      -8.750   5.001  69.077  1.00  0.00    -0.101 A  
HETATM   30  C   UNL     1      -8.713   6.965  67.045  1.00  0.00    -0.119 A  
BRANCH  23  31
HETATM   31  C   UNL     1     -10.343   8.776  71.557  1.00  0.00    -0.374 C  
BRANCH  31  32
HETATM   32  C   UNL     1     -11.301   8.087  72.528  1.00  0.00    -0.469 C  
BRANCH  32  33
HETATM   33  C   UNL     1     -12.707   8.670  72.297  1.00  0.00    -0.450 C  
HETATM   34  C   UNL     1     -13.654   7.742  71.559  1.00  0.00    -0.391 C  
ENDBRANCH  32  33
ENDBRANCH  31  32
ENDBRANCH  23  31
BRANCH  24  35
HETATM   35  N   UNL     1      -7.815   5.343  65.484  1.00  0.00    -0.095 N  
HETATM   36  H   UNL     1      -6.899   5.653  65.160  1.00  0.00     0.000 HD 
BRANCH  35  37
HETATM   37  S   UNL     1      -8.832   4.441  64.483  1.00  0.00    -0.151 S  
HETATM   38  C   UNL     1      -7.846   2.983  64.211  1.00  0.00    -0.078 C  
HETATM   39  O   UNL     1     -10.036   4.081  65.194  1.00  0.00    -0.202 OA 
HETATM   40  O   UNL     1      -8.886   5.172  63.234  1.00  0.00    -0.093 OA 
ENDBRANCH  35  37
ENDBRANCH  24  35
ENDBRANCH  20  22
ENDBRANCH  17  20
ENDBRANCH  13  14
ENDBRANCH  12  13
ENDBRANCH  11  12
ENDBRANCH  10  11
ENDBRANCH   5  10
ENDBRANCH   4   5
ENDBRANCH   3   4
ENDBRANCH   2   3
TORSDOF 18
ENDMDL
MODEL      173
REMARK 921   NORMALIZED FREE ENERGY PREDICTED BY IDOCK:   -3.78 KCAL/MOL
REMARK 922        TOTAL FREE ENERGY PREDICTED BY IDOCK:  -10.49 KCAL/MOL
REMARK 923 INTER-LIGAND FREE ENERGY PREDICTED BY IDOCK:   -7.86 KCAL/MOL
REMARK 924 INTRA-LIGAND FREE ENERGY PREDICTED BY IDOCK:   -2.63 KCAL/MOL
REMARK 927      BINDING AFFINITY PREDICTED BY RF-SCORE:    0.00 PKD
ROOT
HETATM    1  C   UNL     1      -7.951  17.985  67.076  1.00  0.00    -0.237 C  
HETATM    2  C   UNL     1      -9.345  18.534  67.354  1.00  0.00    -0.287 C  
ENDROOT
BRANCH   2   3
HETATM    3  C   UNL     1     -10.359  17.916  66.392  1.00  0.00    -0.365 C  
BRANCH   3   4
HETATM    4  C   UNL     1     -10.352  16.380  66.356  1.00  0.00    -0.313 C  
BRANCH   4   5
HETATM    5  N   UNL     1     -11.161  15.646  67.362  1.00  0.00    -0.271 NA 
BRANCH   5   6
HETATM    6  C   UNL     1     -11.555  14.311  66.856  1.00  0.00    -0.387 C  
BRANCH   6   7
HETATM    7  C   UNL     1     -12.112  14.247  65.420  1.00  0.00    -0.396 C  
BRANCH   7   8
HETATM    8  C   UNL     1     -12.571  12.855  64.980  1.00  0.00    -0.538 C  
HETATM    9  C   UNL     1     -12.183  12.593  63.530  1.00  0.00    -0.638 C  
ENDBRANCH   7   8
ENDBRANCH   6   7
ENDBRANCH   5   6
BRANCH   5  10
HETATM   10  C   UNL     1     -10.383  15.521  68.621  1.00  0.00    -0.219 C  
BRANCH  10  11
HETATM   11  C   UNL     1      -9.796  14.128  68.892  1.00  0.00    -0.110 C  
BRANCH  11  12
HETATM   12  C   UNL     1      -8.708  13.783  67.881  1.00  0.00    -0.183 C  
BRANCH  12  13
HETATM   13  O   UNL     1      -7.910  12.710  68.386  1.00  0.00    -0.136 OA 
BRANCH  13  14
HETATM   14  C   UNL     1      -8.451  11.457  68.269  1.00  0.00    -0.154 A  
HETATM   15  C   UNL     1      -8.393  10.444  69.230  1.00  0.00    -0.161 A  
HETATM   16  C   UNL     1      -8.917   9.173  68.957  1.00  0.00    -0.143 A  
HETATM   17  C   UNL     1      -9.516   8.905  67.720  1.00  0.00    -0.163 A  
HETATM   18  C   UNL     1      -9.666   9.950  66.801  1.00  0.00    -0.244 A  
HETATM   19  C   UNL     1      -9.104  11.206  67.061  1.00  0.00    -0.158 A  
BRANCH  17  20
HETATM   20  C   UNL     1      -9.937   7.502  67.402  1.00  0.00    -0.187 C  
HETATM   21  O   UNL     1     -11.074   7.316  66.978  1.00  0.00    -0.308 OA 
BRANCH  20  22
HETATM   22  C   UNL     1      -9.001   6.403  67.652  1.00  0.00    -0.113 A  
HETATM   23  C   UNL     1      -7.954   6.023  66.813  1.00  0.00    -0.102 A  
HETATM   24  C   UNL     1      -9.451   4.097  70.696  1.00  0.00    -0.172 A  
HETATM   25  O   UNL     1      -7.273   4.974  67.361  1.00  0.00    -0.068 OA 
HETATM   26  C   UNL     1      -8.349   3.289  70.424  1.00  0.00    -0.082 A  
HETATM   27  C   UNL     1      -7.915   4.608  68.494  1.00  0.00    -0.080 A  
HETATM   28  C   UNL     1      -9.008   5.433  68.720  1.00  0.00    -0.127 A  
HETATM   29  C   UNL     1      -7.557   3.528  69.297  1.00  0.00    -0.052 A  
HETATM   30  C   UNL     1      -9.818   5.138  69.835  1.00  0.00    -0.289 A  
BRANCH  23  31
HETATM   31  C   UNL     1      -7.484   6.363  65.437  1.00  0.00    -0.084 C  
BRANCH  31  32
HETATM   32  C   UNL     1      -6.982   7.783  65.181  1.00  0.00    -0.059 C  
BRANCH  32  33
HETATM   33  C   UNL     1      -5.883   8.089  66.214  1.00  0.00    -0.041 C  
HETATM   34  C   UNL     1      -5.800   9.548  66.624  1.00  0.00    -0.055 C  
ENDBRANCH  32  33
ENDBRANCH  31  32
ENDBRANCH  23  31
BRANCH  24  35
HETATM   35  N   UNL     1     -10.244   3.874  71.859  1.00  0.00    -0.126 N  
HETATM   36  H   UNL     1     -10.821   3.038  71.949  1.00  0.00     0.000 HD 
BRANCH  35  37
HETATM   37  S   UNL     1     -10.199   5.034  73.085  1.00  0.00    -0.192 S  
HETATM   38  C   UNL     1     -10.452   4.024  74.529  1.00  0.00    -0.216 C  
HETATM   39  O   UNL     1      -8.889   5.641  73.146  1.00  0.00    -0.123 OA 
HETATM   40  O   UNL     1     -11.390   5.836  72.898  1.00  0.00    -0.283 OA 
ENDBRANCH  35  37
ENDBRANCH  24  35
ENDBRANCH  20  22
ENDBRANCH  17  20
ENDBRANCH  13  14
ENDBRANCH  12  13
ENDBRANCH  11  12
ENDBRANCH  10  11
ENDBRANCH   5  10
ENDBRANCH   4   5
ENDBRANCH   3   4
ENDBRANCH   2   3
TORSDOF 18
ENDMDL
MODEL      174
REMARK 921   NORMALIZED FREE ENERGY PREDICTED BY IDOCK:   -3.77 KCAL/MOL
REMARK 922        TOTAL FREE ENERGY PREDICTED BY IDOCK:  -10.46 KCAL/MOL
REMARK 923 INTER-LIGAND FREE ENERGY PREDICTED BY IDOCK:   -7.09 KCAL/MOL
REMARK 924 INTRA-LIGAND FREE ENERGY PREDICTED BY IDOCK:   -3.37 KCAL/MOL
REMARK 927      BINDING AFFINITY PREDICTED BY RF-SCORE:    0.00 PKD
ROOT
HETATM    1  C   UNL     1     -12.222  11.234  70.850  1.00  0.00    -0.460 C  
HETATM    2  C   UNL     1     -12.187   9.713  70.770  1.00  0.00    -0.309 C  
ENDROOT
BRANCH   2   3
HETATM    3  C   UNL     1     -10.996   9.169  71.557  1.00  0.00    -0.434 C  
BRANCH   3   4
HETATM    4  C   UNL     1     -11.367   8.196  72.687  1.00  0.00    -0.381 C  
BRANCH   4   5
HETATM    5  N   UNL     1     -10.542   6.975  72.867  1.00  0.00    -0.247 NA 
BRANCH   5   6
HETATM    6  C   UNL     1     -10.013   6.890  74.248  1.00  0.00    -0.273 C  
BRANCH   6   7
HETATM    7  C   UNL     1      -8.479   6.900  74.408  1.00  0.00    -0.186 C  
BRANCH   7   8
HETATM    8  C   UNL     1      -7.740   7.754  73.376  1.00  0.00    -0.168 C  
HETATM    9  C   UNL     1      -6.586   6.973  72.758  1.00  0.00    -0.061 C  
ENDBRANCH   7   8
ENDBRANCH   6   7
ENDBRANCH   5   6
BRANCH   5  10
HETATM   10  C   UNL     1     -11.361   5.778  72.545  1.00  0.00    -0.307 C  
BRANCH  10  11
HETATM   11  C   UNL     1     -10.565   4.534  72.126  1.00  0.00    -0.137 C  
BRANCH  11  12
HETATM   12  C   UNL     1      -9.856   4.756  70.794  1.00  0.00    -0.210 C  
BRANCH  12  13
HETATM   13  O   UNL     1     -10.727   5.456  69.902  1.00  0.00    -0.316 OA 
BRANCH  13  14
HETATM   14  C   UNL     1     -10.168   6.508  69.225  1.00  0.00    -0.187 A  
HETATM   15  C   UNL     1      -8.943   7.114  69.517  1.00  0.00    -0.140 A  
HETATM   16  C   UNL     1      -8.516   8.240  68.799  1.00  0.00    -0.125 A  
HETATM   17  C   UNL     1      -9.310   8.766  67.772  1.00  0.00    -0.157 A  
HETATM   18  C   UNL     1     -10.485   8.095  67.413  1.00  0.00    -0.356 A  
HETATM   19  C   UNL     1     -10.927   6.997  68.161  1.00  0.00    -0.165 A  
BRANCH  17  20
HETATM   20  C   UNL     1      -8.899  10.052  67.119  1.00  0.00    -0.135 C  
HETATM   21  O   UNL     1      -9.554  11.063  67.359  1.00  0.00    -0.163 OA 
BRANCH  20  22
HETATM   22  C   UNL     1      -7.769  10.050  66.188  1.00  0.00    -0.108 A  
HETATM   23  C   UNL     1      -6.647  10.874  66.272  1.00  0.00    -0.126 A  
HETATM   24  C   UNL     1      -7.819   7.831  63.047  1.00  0.00    -0.136 A  
HETATM   25  O   UNL     1      -5.783  10.593  65.252  1.00  0.00    -0.136 OA 
HETATM   26  C   UNL     1      -6.571   8.231  62.573  1.00  0.00    -0.087 A  
HETATM   27  C   UNL     1      -6.365   9.666  64.458  1.00  0.00    -0.099 A  
HETATM   28  C   UNL     1      -7.606   9.304  64.963  1.00  0.00    -0.107 A  
HETATM   29  C   UNL     1      -5.817   9.176  63.275  1.00  0.00    -0.088 A  
HETATM   30  C   UNL     1      -8.366   8.388  64.208  1.00  0.00    -0.091 A  
BRANCH  23  31
HETATM   31  C   UNL     1      -6.222  12.053  67.082  1.00  0.00    -0.151 C  
BRANCH  31  32
HETATM   32  C   UNL     1      -5.354  11.803  68.314  1.00  0.00    -0.043 C  
BRANCH  32  33
HETATM   33  C   UNL     1      -6.279  11.767  69.544  1.00  0.00    -0.115 C  
HETATM   34  C   UNL     1      -6.162  10.504  70.376  1.00  0.00    -0.128 C  
ENDBRANCH  32  33
ENDBRANCH  31  32
ENDBRANCH  23  31
BRANCH  24  35
HETATM   35  N   UNL     1      -8.578   6.847  62.349  1.00  0.00    -0.357 N  
HETATM   36  H   UNL     1      -9.209   7.111  61.592  1.00  0.00     0.000 HD 
BRANCH  35  37
HETATM   37  S   UNL     1      -8.404   5.233  62.813  1.00  0.00    -0.100 S  
HETATM   38  C   UNL     1      -8.300   5.390  64.584  1.00  0.00    -0.141 C  
HETATM   39  O   UNL     1      -9.590   4.486  62.465  1.00  0.00    -0.136 OA 
HETATM   40  O   UNL     1      -7.097   4.836  62.332  1.00  0.00    -0.030 OA 
ENDBRANCH  35  37
ENDBRANCH  24  35
ENDBRANCH  20  22
ENDBRANCH  17  20
ENDBRANCH  13  14
ENDBRANCH  12  13
ENDBRANCH  11  12
ENDBRANCH  10  11
ENDBRANCH   5  10
ENDBRANCH   4   5
ENDBRANCH   3   4
ENDBRANCH   2   3
TORSDOF 18
ENDMDL
MODEL      175
REMARK 921   NORMALIZED FREE ENERGY PREDICTED BY IDOCK:   -3.77 KCAL/MOL
REMARK 922        TOTAL FREE ENERGY PREDICTED BY IDOCK:  -10.45 KCAL/MOL
REMARK 923 INTER-LIGAND FREE ENERGY PREDICTED BY IDOCK:   -7.90 KCAL/MOL
REMARK 924 INTRA-LIGAND FREE ENERGY PREDICTED BY IDOCK:   -2.55 KCAL/MOL
REMARK 927      BINDING AFFINITY PREDICTED BY RF-SCORE:    0.00 PKD
ROOT
HETATM    1  C   UNL     1     -10.620  19.793  66.024  1.00  0.00    -0.573 C  
HETATM    2  C   UNL     1      -9.550  19.641  67.097  1.00  0.00    -0.459 C  
ENDROOT
BRANCH   2   3
HETATM    3  C   UNL     1      -9.857  18.434  67.983  1.00  0.00    -0.359 C  
BRANCH   3   4
HETATM    4  C   UNL     1     -10.258  17.164  67.217  1.00  0.00    -0.316 C  
BRANCH   4   5
HETATM    5  N   UNL     1      -9.374  15.974  67.309  1.00  0.00    -0.209 NA 
BRANCH   5   6
HETATM    6  C   UNL     1     -10.131  14.729  67.043  1.00  0.00    -0.245 C  
BRANCH   6   7
HETATM    7  C   UNL     1     -11.659  14.787  67.236  1.00  0.00    -0.385 C  
BRANCH   7   8
HETATM    8  C   UNL     1     -12.434  13.699  66.490  1.00  0.00    -0.337 C  
HETATM    9  C   UNL     1     -11.679  13.257  65.243  1.00  0.00    -0.357 C  
ENDBRANCH   7   8
ENDBRANCH   6   7
ENDBRANCH   5   6
BRANCH   5  10
HETATM   10  C   UNL     1      -8.252  16.122  66.348  1.00  0.00    -0.301 C  
BRANCH  10  11
HETATM   11  C   UNL     1      -6.879  16.389  66.981  1.00  0.00    -0.245 C  
BRANCH  11  12
HETATM   12  C   UNL     1      -6.465  15.247  67.902  1.00  0.00    -0.156 C  
BRANCH  12  13
HETATM   13  O   UNL     1      -6.014  14.140  67.117  1.00  0.00    -0.195 OA 
BRANCH  13  14
HETATM   14  C   UNL     1      -6.387  12.900  67.564  1.00  0.00    -0.158 A  
HETATM   15  C   UNL     1      -6.147  11.686  66.913  1.00  0.00    -0.148 A  
HETATM   16  C   UNL     1      -6.652  10.487  67.435  1.00  0.00    -0.067 A  
HETATM   17  C   UNL     1      -7.396  10.490  68.622  1.00  0.00    -0.091 A  
HETATM   18  C   UNL     1      -7.544  11.691  69.325  1.00  0.00     0.121 A  
HETATM   19  C   UNL     1      -7.074  12.891  68.778  1.00  0.00    -0.096 A  
BRANCH  17  20
HETATM   20  C   UNL     1      -8.044   9.218  69.078  1.00  0.00    -0.106 C  
HETATM   21  O   UNL     1      -7.707   8.747  70.162  1.00  0.00    -0.073 OA 
BRANCH  20  22
HETATM   22  C   UNL     1      -9.016   8.558  68.203  1.00  0.00    -0.142 A  
HETATM   23  C   UNL     1     -10.072   9.187  67.543  1.00  0.00    -0.228 A  
HETATM   24  C   UNL     1      -8.971   4.740  67.748  1.00  0.00    -0.111 A  
HETATM   25  O   UNL     1     -10.766   8.277  66.799  1.00  0.00    -0.267 OA 
HETATM   26  C   UNL     1     -10.055   4.690  66.875  1.00  0.00    -0.227 A  
HETATM   27  C   UNL     1     -10.236   7.055  67.035  1.00  0.00    -0.260 A  
HETATM   28  C   UNL     1      -9.166   7.152  67.914  1.00  0.00    -0.129 A  
HETATM   29  C   UNL     1     -10.722   5.862  66.506  1.00  0.00    -0.251 A  
HETATM   30  C   UNL     1      -8.546   5.949  68.309  1.00  0.00    -0.113 A  
BRANCH  23  31
HETATM   31  C   UNL     1     -10.712  10.535  67.554  1.00  0.00    -0.326 C  
BRANCH  31  32
HETATM   32  C   UNL     1     -11.743  10.832  68.641  1.00  0.00    -0.289 C  
BRANCH  32  33
HETATM   33  C   UNL     1     -11.183  11.958  69.528  1.00  0.00    -0.237 C  
HETATM   34  C   UNL     1     -12.240  12.746  70.280  1.00  0.00    -0.351 C  
ENDBRANCH  32  33
ENDBRANCH  31  32
ENDBRANCH  23  31
BRANCH  24  35
HETATM   35  N   UNL     1      -8.272   3.550  68.104  1.00  0.00    -0.081 N  
HETATM   36  H   UNL     1      -7.648   3.089  67.441  1.00  0.00     0.000 HD 
BRANCH  35  37
HETATM   37  S   UNL     1      -8.505   2.925  69.656  1.00  0.00    -0.066 S  
HETATM   38  C   UNL     1      -8.477   4.411  70.636  1.00  0.00    -0.082 C  
HETATM   39  O   UNL     1      -9.809   2.310  69.752  1.00  0.00     0.057 OA 
HETATM   40  O   UNL     1      -7.299   2.181  69.954  1.00  0.00    -0.042 OA 
ENDBRANCH  35  37
ENDBRANCH  24  35
ENDBRANCH  20  22
ENDBRANCH  17  20
ENDBRANCH  13  14
ENDBRANCH  12  13
ENDBRANCH  11  12
ENDBRANCH  10  11
ENDBRANCH   5  10
ENDBRANCH   4   5
ENDBRANCH   3   4
ENDBRANCH   2   3
TORSDOF 18
ENDMDL
MODEL      176
REMARK 921   NORMALIZED FREE ENERGY PREDICTED BY IDOCK:   -3.76 KCAL/MOL
REMARK 922        TOTAL FREE ENERGY PREDICTED BY IDOCK:  -10.43 KCAL/MOL
REMARK 923 INTER-LIGAND FREE ENERGY PREDICTED BY IDOCK:   -7.99 KCAL/MOL
REMARK 924 INTRA-LIGAND FREE ENERGY PREDICTED BY IDOCK:   -2.44 KCAL/MOL
REMARK 927      BINDING AFFINITY PREDICTED BY RF-SCORE:    0.00 PKD
ROOT
HETATM    1  C   UNL     1      -6.149  15.105  68.152  1.00  0.00    -0.142 C  
HETATM    2  C   UNL     1      -5.908  16.609  68.122  1.00  0.00    -0.119 C  
ENDROOT
BRANCH   2   3
HETATM    3  C   UNL     1      -7.124  17.329  67.540  1.00  0.00    -0.181 C  
BRANCH   3   4
HETATM    4  C   UNL     1      -7.921  16.509  66.514  1.00  0.00    -0.310 C  
BRANCH   4   5
HETATM    5  N   UNL     1      -9.404  16.534  66.589  1.00  0.00    -0.241 NA 
BRANCH   5   6
HETATM    6  C   UNL     1      -9.971  17.460  65.581  1.00  0.00     0.057 C  
BRANCH   6   7
HETATM    7  C   UNL     1     -10.774  18.663  66.114  1.00  0.00    -0.282 C  
BRANCH   7   8
HETATM    8  C   UNL     1      -9.973  19.617  67.002  1.00  0.00    -0.510 C  
HETATM    9  C   UNL     1     -10.341  19.426  68.468  1.00  0.00    -0.413 C  
ENDBRANCH   7   8
ENDBRANCH   6   7
ENDBRANCH   5   6
BRANCH   5  10
HETATM   10  C   UNL     1      -9.928  15.159  66.391  1.00  0.00    -0.272 C  
BRANCH  10  11
HETATM   11  C   UNL     1     -11.438  15.066  66.122  1.00  0.00    -0.222 C  
BRANCH  11  12
HETATM   12  C   UNL     1     -12.009  13.752  66.644  1.00  0.00    -0.431 C  
BRANCH  12  13
HETATM   13  O   UNL     1     -11.769  13.652  68.050  1.00  0.00    -0.312 OA 
BRANCH  13  14
HETATM   14  C   UNL     1     -11.084  12.539  68.461  1.00  0.00    -0.262 A  
HETATM   15  C   UNL     1     -11.648  11.388  69.020  1.00  0.00    -0.383 A  
HETATM   16  C   UNL     1     -10.830  10.345  69.477  1.00  0.00    -0.295 A  
HETATM   17  C   UNL     1      -9.437  10.439  69.370  1.00  0.00    -0.204 A  
HETATM   18  C   UNL     1      -8.882  11.545  68.715  1.00  0.00    -0.047 A  
HETATM   19  C   UNL     1      -9.700  12.603  68.298  1.00  0.00    -0.216 A  
BRANCH  17  20
HETATM   20  C   UNL     1      -8.585   9.377  69.996  1.00  0.00    -0.203 C  
HETATM   21  O   UNL     1      -8.002   9.639  71.045  1.00  0.00    -0.301 OA 
BRANCH  20  22
HETATM   22  C   UNL     1      -8.438   8.088  69.316  1.00  0.00    -0.136 A  
HETATM   23  C   UNL     1      -7.890   7.897  68.048  1.00  0.00    -0.127 A  
HETATM   24  C   UNL     1      -9.842   4.871  70.887  1.00  0.00    -0.207 A  
HETATM   25  O   UNL     1      -7.892   6.569  67.732  1.00  0.00    -0.107 OA 
HETATM   26  C   UNL     1      -9.442   4.025  69.855  1.00  0.00    -0.265 A  
HETATM   27  C   UNL     1      -8.514   5.905  68.733  1.00  0.00    -0.111 A  
HETATM   28  C   UNL     1      -8.901   6.786  69.733  1.00  0.00    -0.141 A  
HETATM   29  C   UNL     1      -8.771   4.536  68.740  1.00  0.00    -0.116 A  
HETATM   30  C   UNL     1      -9.620   6.251  70.821  1.00  0.00    -0.193 A  
BRANCH  23  31
HETATM   31  C   UNL     1      -7.445   8.760  66.914  1.00  0.00    -0.090 C  
BRANCH  31  32
HETATM   32  C   UNL     1      -7.939   8.413  65.510  1.00  0.00    -0.115 C  
BRANCH  32  33
HETATM   33  C   UNL     1      -8.761   9.605  64.990  1.00  0.00    -0.202 C  
HETATM   34  C   UNL     1     -10.139   9.734  65.614  1.00  0.00    -0.282 C  
ENDBRANCH  32  33
ENDBRANCH  31  32
ENDBRANCH  23  31
BRANCH  24  35
HETATM   35  N   UNL     1     -10.501   4.349  72.038  1.00  0.00    -0.114 N  
HETATM   36  H   UNL     1     -11.510   4.203  72.044  1.00  0.00     0.000 HD 
BRANCH  35  37
HETATM   37  S   UNL     1      -9.561   3.979  73.392  1.00  0.00    -0.115 S  
HETATM   38  C   UNL     1      -9.715   5.477  74.341  1.00  0.00    -0.187 C  
HETATM   39  O   UNL     1     -10.155   2.883  74.123  1.00  0.00    -0.106 OA 
HETATM   40  O   UNL     1      -8.199   3.907  72.904  1.00  0.00    -0.088 OA 
ENDBRANCH  35  37
ENDBRANCH  24  35
ENDBRANCH  20  22
ENDBRANCH  17  20
ENDBRANCH  13  14
ENDBRANCH  12  13
ENDBRANCH  11  12
ENDBRANCH  10  11
ENDBRANCH   5  10
ENDBRANCH   4   5
ENDBRANCH   3   4
ENDBRANCH   2   3
TORSDOF 18
ENDMDL
MODEL      177
REMARK 921   NORMALIZED FREE ENERGY PREDICTED BY IDOCK:   -3.74 KCAL/MOL
REMARK 922        TOTAL FREE ENERGY PREDICTED BY IDOCK:  -10.40 KCAL/MOL
REMARK 923 INTER-LIGAND FREE ENERGY PREDICTED BY IDOCK:   -6.44 KCAL/MOL
REMARK 924 INTRA-LIGAND FREE ENERGY PREDICTED BY IDOCK:   -3.96 KCAL/MOL
REMARK 927      BINDING AFFINITY PREDICTED BY RF-SCORE:    0.00 PKD
ROOT
HETATM    1  C   UNL     1     -11.829  12.673  67.069  1.00  0.00    -0.415 C  
HETATM    2  C   UNL     1     -10.414  12.562  66.515  1.00  0.00    -0.258 C  
ENDROOT
BRANCH   2   3
HETATM    3  C   UNL     1      -9.409  12.405  67.656  1.00  0.00    -0.188 C  
BRANCH   3   4
HETATM    4  C   UNL     1      -9.873  11.484  68.794  1.00  0.00    -0.141 C  
BRANCH   4   5
HETATM    5  N   UNL     1      -9.322  10.106  68.857  1.00  0.00    -0.169 NA 
BRANCH   5   6
HETATM    6  C   UNL     1      -7.903  10.082  68.434  1.00  0.00    -0.089 C  
BRANCH   6   7
HETATM    7  C   UNL     1      -7.170   8.729  68.531  1.00  0.00    -0.074 C  
BRANCH   7   8
HETATM    8  C   UNL     1      -7.775   7.618  67.670  1.00  0.00    -0.122 C  
HETATM    9  C   UNL     1      -7.398   6.247  68.216  1.00  0.00    -0.086 C  
ENDBRANCH   7   8
ENDBRANCH   6   7
ENDBRANCH   5   6
BRANCH   5  10
HETATM   10  C   UNL     1      -9.468   9.583  70.239  1.00  0.00    -0.259 C  
BRANCH  10  11
HETATM   11  C   UNL     1     -10.846   9.801  70.880  1.00  0.00    -0.399 C  
BRANCH  11  12
HETATM   12  C   UNL     1     -11.733   8.572  70.709  1.00  0.00    -0.205 C  
BRANCH  12  13
HETATM   13  O   UNL     1     -11.600   7.725  71.853  1.00  0.00    -0.265 OA 
BRANCH  13  14
HETATM   14  C   UNL     1     -11.143   6.457  71.607  1.00  0.00    -0.267 A  
HETATM   15  C   UNL     1     -11.013   5.433  72.550  1.00  0.00    -0.312 A  
HETATM   16  C   UNL     1     -10.454   4.199  72.188  1.00  0.00    -0.105 A  
HETATM   17  C   UNL     1     -10.028   3.974  70.873  1.00  0.00    -0.167 A  
HETATM   18  C   UNL     1     -10.257   4.963  69.908  1.00  0.00    -0.299 A  
HETATM   19  C   UNL     1     -10.776   6.208  70.284  1.00  0.00    -0.355 A  
BRANCH  17  20
HETATM   20  C   UNL     1      -9.305   2.702  70.549  1.00  0.00    -0.142 C  
HETATM   21  O   UNL     1      -9.663   1.669  71.108  1.00  0.00    -0.130 OA 
BRANCH  20  22
HETATM   22  C   UNL     1      -8.173   2.742  69.620  1.00  0.00    -0.070 A  
HETATM   23  C   UNL     1      -6.849   3.012  69.965  1.00  0.00    -0.034 A  
HETATM   24  C   UNL     1      -8.726   2.338  65.836  1.00  0.00    -0.119 A  
HETATM   25  O   UNL     1      -6.055   2.950  68.856  1.00  0.00    -0.024 OA 
HETATM   26  C   UNL     1      -7.384   2.465  65.484  1.00  0.00    -0.066 A  
HETATM   27  C   UNL     1      -6.852   2.735  67.785  1.00  0.00    -0.048 A  
HETATM   28  C   UNL     1      -8.177   2.622  68.181  1.00  0.00    -0.075 A  
HETATM   29  C   UNL     1      -6.412   2.679  66.465  1.00  0.00    -0.031 A  
HETATM   30  C   UNL     1      -9.142   2.458  67.166  1.00  0.00    -0.164 A  
BRANCH  23  31
HETATM   31  C   UNL     1      -6.115   3.481  71.177  1.00  0.00    -0.015 C  
BRANCH  31  32
HETATM   32  C   UNL     1      -5.863   4.981  71.328  1.00  0.00    -0.017 C  
BRANCH  32  33
HETATM   33  C   UNL     1      -7.115   5.607  71.969  1.00  0.00    -0.086 C  
HETATM   34  C   UNL     1      -7.156   7.123  71.906  1.00  0.00    -0.071 C  
ENDBRANCH  32  33
ENDBRANCH  31  32
ENDBRANCH  23  31
BRANCH  24  35
HETATM   35  N   UNL     1      -9.717   2.091  64.841  1.00  0.00    -0.337 N  
HETATM   36  H   UNL     1     -10.092   1.154  64.695  1.00  0.00     0.000 HD 
BRANCH  35  37
HETATM   37  S   UNL     1     -10.250   3.396  63.910  1.00  0.00    -0.229 S  
HETATM   38  C   UNL     1     -11.067   2.556  62.570  1.00  0.00    -0.165 C  
HETATM   39  O   UNL     1     -11.216   4.171  64.652  1.00  0.00    -0.331 OA 
HETATM   40  O   UNL     1      -9.047   4.003  63.378  1.00  0.00    -0.114 OA 
ENDBRANCH  35  37
ENDBRANCH  24  35
ENDBRANCH  20  22
ENDBRANCH  17  20
ENDBRANCH  13  14
ENDBRANCH  12  13
ENDBRANCH  11  12
ENDBRANCH  10  11
ENDBRANCH   5  10
ENDBRANCH   4   5
ENDBRANCH   3   4
ENDBRANCH   2   3
TORSDOF 18
ENDMDL
MODEL      178
REMARK 921   NORMALIZED FREE ENERGY PREDICTED BY IDOCK:   -3.73 KCAL/MOL
REMARK 922        TOTAL FREE ENERGY PREDICTED BY IDOCK:  -10.38 KCAL/MOL
REMARK 923 INTER-LIGAND FREE ENERGY PREDICTED BY IDOCK:   -8.61 KCAL/MOL
REMARK 924 INTRA-LIGAND FREE ENERGY PREDICTED BY IDOCK:   -1.77 KCAL/MOL
REMARK 927      BINDING AFFINITY PREDICTED BY RF-SCORE:    0.00 PKD
ROOT
HETATM    1  C   UNL     1     -11.553   6.357  69.773  1.00  0.00    -0.397 C  
HETATM    2  C   UNL     1     -12.259   6.843  71.032  1.00  0.00    -0.427 C  
ENDROOT
BRANCH   2   3
HETATM    3  C   UNL     1     -11.329   6.723  72.240  1.00  0.00    -0.310 C  
BRANCH   3   4
HETATM    4  C   UNL     1     -11.359   5.353  72.934  1.00  0.00    -0.303 C  
BRANCH   4   5
HETATM    5  N   UNL     1     -10.125   4.526  72.918  1.00  0.00    -0.151 NA 
BRANCH   5   6
HETATM    6  C   UNL     1      -9.809   4.069  71.545  1.00  0.00    -0.181 C  
BRANCH   6   7
HETATM    7  C   UNL     1      -9.730   2.546  71.319  1.00  0.00    -0.201 C  
BRANCH   7   8
HETATM    8  C   UNL     1      -9.166   2.136  69.958  1.00  0.00    -0.183 C  
HETATM    9  C   UNL     1      -9.721   3.026  68.853  1.00  0.00     0.081 C  
ENDBRANCH   7   8
ENDBRANCH   6   7
ENDBRANCH   5   6
BRANCH   5  10
HETATM   10  C   UNL     1      -8.999   5.316  73.480  1.00  0.00    -0.121 C  
BRANCH  10  11
HETATM   11  C   UNL     1      -8.723   6.653  72.778  1.00  0.00    -0.128 C  
BRANCH  11  12
HETATM   12  C   UNL     1      -7.237   6.996  72.812  1.00  0.00    -0.073 C  
BRANCH  12  13
HETATM   13  O   UNL     1      -6.772   7.236  71.482  1.00  0.00    -0.050 OA 
BRANCH  13  14
HETATM   14  C   UNL     1      -7.671   7.827  70.633  1.00  0.00    -0.091 A  
HETATM   15  C   UNL     1      -7.989   7.394  69.343  1.00  0.00    -0.124 A  
HETATM   16  C   UNL     1      -8.868   8.134  68.540  1.00  0.00    -0.134 A  
HETATM   17  C   UNL     1      -9.448   9.313  69.026  1.00  0.00    -0.155 A  
HETATM   18  C   UNL     1      -9.210   9.686  70.354  1.00  0.00    -0.258 A  
HETATM   19  C   UNL     1      -8.299   8.967  71.137  1.00  0.00    -0.212 A  
BRANCH  17  20
HETATM   20  C   UNL     1     -10.268  10.158  68.099  1.00  0.00    -0.171 C  
HETATM   21  O   UNL     1     -11.230   9.642  67.536  1.00  0.00    -0.109 OA 
BRANCH  20  22
HETATM   22  C   UNL     1      -9.869  11.547  67.859  1.00  0.00    -0.192 A  
HETATM   23  C   UNL     1      -8.702  11.957  67.217  1.00  0.00    -0.171 A  
HETATM   24  C   UNL     1     -11.960  14.456  69.258  1.00  0.00    -0.324 A  
HETATM   25  O   UNL     1      -8.658  13.320  67.151  1.00  0.00    -0.201 OA 
HETATM   26  C   UNL     1     -11.144  15.468  68.757  1.00  0.00    -0.291 A  
HETATM   27  C   UNL     1      -9.730  13.803  67.818  1.00  0.00    -0.230 A  
HETATM   28  C   UNL     1     -10.508  12.762  68.305  1.00  0.00    -0.250 A  
HETATM   29  C   UNL     1      -9.994  15.154  68.027  1.00  0.00    -0.221 A  
HETATM   30  C   UNL     1     -11.634  13.107  69.081  1.00  0.00    -0.368 A  
BRANCH  23  31
HETATM   31  C   UNL     1      -7.449  11.313  66.723  1.00  0.00    -0.146 C  
BRANCH  31  32
HETATM   32  C   UNL     1      -6.446  10.806  67.758  1.00  0.00    -0.059 C  
BRANCH  32  33
HETATM   33  C   UNL     1      -5.941  12.019  68.560  1.00  0.00    -0.050 C  
HETATM   34  C   UNL     1      -6.161  11.913  70.058  1.00  0.00    -0.153 C  
ENDBRANCH  32  33
ENDBRANCH  31  32
ENDBRANCH  23  31
BRANCH  24  35
HETATM   35  N   UNL     1     -13.148  14.772  69.979  1.00  0.00    -0.544 N  
HETATM   36  H   UNL     1     -14.006  15.029  69.490  1.00  0.00     0.000 HD 
BRANCH  35  37
HETATM   37  S   UNL     1     -13.095  14.711  71.666  1.00  0.00    -0.373 S  
HETATM   38  C   UNL     1     -11.462  15.345  71.985  1.00  0.00    -0.434 C  
HETATM   39  O   UNL     1     -14.077  15.609  72.226  1.00  0.00    -0.523 OA 
HETATM   40  O   UNL     1     -13.089  13.301  71.997  1.00  0.00    -0.381 OA 
ENDBRANCH  35  37
ENDBRANCH  24  35
ENDBRANCH  20  22
ENDBRANCH  17  20
ENDBRANCH  13  14
ENDBRANCH  12  13
ENDBRANCH  11  12
ENDBRANCH  10  11
ENDBRANCH   5  10
ENDBRANCH   4   5
ENDBRANCH   3   4
ENDBRANCH   2   3
TORSDOF 18
ENDMDL
MODEL      179
REMARK 921   NORMALIZED FREE ENERGY PREDICTED BY IDOCK:   -3.67 KCAL/MOL
REMARK 922        TOTAL FREE ENERGY PREDICTED BY IDOCK:  -10.25 KCAL/MOL
REMARK 923 INTER-LIGAND FREE ENERGY PREDICTED BY IDOCK:   -8.05 KCAL/MOL
REMARK 924 INTRA-LIGAND FREE ENERGY PREDICTED BY IDOCK:   -2.20 KCAL/MOL
REMARK 927      BINDING AFFINITY PREDICTED BY RF-SCORE:    0.00 PKD
ROOT
HETATM    1  C   UNL     1     -13.282  11.068  71.967  1.00  0.00    -0.447 C  
HETATM    2  C   UNL     1     -12.801   9.685  71.546  1.00  0.00    -0.485 C  
ENDROOT
BRANCH   2   3
HETATM    3  C   UNL     1     -11.520   9.799  70.719  1.00  0.00    -0.417 C  
BRANCH   3   4
HETATM    4  C   UNL     1     -10.861   8.455  70.373  1.00  0.00    -0.235 C  
BRANCH   4   5
HETATM    5  N   UNL     1      -9.450   8.235  70.779  1.00  0.00    -0.158 NA 
BRANCH   5   6
HETATM    6  C   UNL     1      -9.326   7.036  71.641  1.00  0.00    -0.156 C  
BRANCH   6   7
HETATM    7  C   UNL     1      -9.913   7.136  73.062  1.00  0.00    -0.247 C  
BRANCH   7   8
HETATM    8  C   UNL     1     -11.214   6.357  73.267  1.00  0.00    -0.035 C  
HETATM    9  C   UNL     1     -11.231   5.100  72.407  1.00  0.00    -0.176 C  
ENDBRANCH   7   8
ENDBRANCH   6   7
ENDBRANCH   5   6
BRANCH   5  10
HETATM   10  C   UNL     1      -8.606   8.097  69.565  1.00  0.00    -0.134 C  
BRANCH  10  11
HETATM   11  C   UNL     1      -7.228   8.769  69.645  1.00  0.00    -0.055 C  
BRANCH  11  12
HETATM   12  C   UNL     1      -7.344  10.206  70.143  1.00  0.00    -0.147 C  
BRANCH  12  13
HETATM   13  O   UNL     1      -6.145  10.918  69.829  1.00  0.00    -0.062 OA 
BRANCH  13  14
HETATM   14  C   UNL     1      -6.315  12.175  69.312  1.00  0.00    -0.103 A  
HETATM   15  C   UNL     1      -6.996  13.230  69.926  1.00  0.00     0.444 A  
HETATM   16  C   UNL     1      -7.173  14.449  69.256  1.00  0.00    -0.107 A  
HETATM   17  C   UNL     1      -6.660  14.628  67.965  1.00  0.00    -0.155 A  
HETATM   18  C   UNL     1      -5.889  13.607  67.396  1.00  0.00     0.182 A  
HETATM   19  C   UNL     1      -5.751  12.377  68.052  1.00  0.00    -0.073 A  
BRANCH  17  20
HETATM   20  C   UNL     1      -6.987  15.886  67.219  1.00  0.00    -0.206 C  
HETATM   21  O   UNL     1      -6.151  16.785  67.197  1.00  0.00    -0.144 OA 
BRANCH  20  22
HETATM   22  C   UNL     1      -8.301  16.017  66.585  1.00  0.00    -0.331 A  
HETATM   23  C   UNL     1      -8.997  17.212  66.401  1.00  0.00    -0.260 A  
HETATM   24  C   UNL     1     -10.271  12.902  65.489  1.00  0.00    -0.287 A  
HETATM   25  O   UNL     1     -10.179  16.970  65.762  1.00  0.00    -0.506 OA 
HETATM   26  C   UNL     1     -11.372  13.599  64.997  1.00  0.00    -0.339 A  
HETATM   27  C   UNL     1     -10.303  15.633  65.609  1.00  0.00    -0.385 A  
HETATM   28  C   UNL     1      -9.190  14.980  66.119  1.00  0.00    -0.294 A  
HETATM   29  C   UNL     1     -11.412  14.995  65.059  1.00  0.00    -0.364 A  
HETATM   30  C   UNL     1      -9.199  13.571  66.090  1.00  0.00     0.006 A  
BRANCH  23  31
HETATM   31  C   UNL     1      -8.855  18.631  66.840  1.00  0.00    -0.289 C  
BRANCH  31  32
HETATM   32  C   UNL     1      -9.711  19.687  66.142  1.00  0.00    -0.489 C  
BRANCH  32  33
HETATM   33  C   UNL     1     -10.642  20.312  67.196  1.00  0.00    -0.210 C  
HETATM   34  C   UNL     1     -10.200  20.090  68.631  1.00  0.00    -0.443 C  
ENDBRANCH  32  33
ENDBRANCH  31  32
ENDBRANCH  23  31
BRANCH  24  35
HETATM   35  N   UNL     1     -10.214  11.480  65.402  1.00  0.00    -0.252 N  
HETATM   36  H   UNL     1     -10.412  11.000  64.524  1.00  0.00     0.000 HD 
BRANCH  35  37
HETATM   37  S   UNL     1      -9.811  10.615  66.794  1.00  0.00    -0.205 S  
HETATM   38  C   UNL     1      -8.384   9.707  66.238  1.00  0.00    -0.116 C  
HETATM   39  O   UNL     1      -9.423  11.524  67.848  1.00  0.00    -0.167 OA 
HETATM   40  O   UNL     1     -10.889   9.665  66.980  1.00  0.00    -0.201 OA 
ENDBRANCH  35  37
ENDBRANCH  24  35
ENDBRANCH  20  22
ENDBRANCH  17  20
ENDBRANCH  13  14
ENDBRANCH  12  13
ENDBRANCH  11  12
ENDBRANCH  10  11
ENDBRANCH   5  10
ENDBRANCH   4   5
ENDBRANCH   3   4
ENDBRANCH   2   3
TORSDOF 18
ENDMDL
MODEL      180
REMARK 921   NORMALIZED FREE ENERGY PREDICTED BY IDOCK:   -3.66 KCAL/MOL
REMARK 922        TOTAL FREE ENERGY PREDICTED BY IDOCK:  -10.24 KCAL/MOL
REMARK 923 INTER-LIGAND FREE ENERGY PREDICTED BY IDOCK:   -7.75 KCAL/MOL
REMARK 924 INTRA-LIGAND FREE ENERGY PREDICTED BY IDOCK:   -2.49 KCAL/MOL
REMARK 927      BINDING AFFINITY PREDICTED BY RF-SCORE:    0.00 PKD
ROOT
HETATM    1  C   UNL     1      -8.471  16.618  66.215  1.00  0.00    -0.355 C  
HETATM    2  C   UNL     1      -9.538  15.532  66.253  1.00  0.00    -0.338 C  
ENDROOT
BRANCH   2   3
HETATM    3  C   UNL     1     -10.223  15.415  64.891  1.00  0.00    -0.162 C  
BRANCH   3   4
HETATM    4  C   UNL     1     -11.614  14.765  64.929  1.00  0.00    -0.401 C  
BRANCH   4   5
HETATM    5  N   UNL     1     -11.763  13.385  64.402  1.00  0.00    -0.376 NA 
BRANCH   5   6
HETATM    6  C   UNL     1     -10.450  12.820  64.011  1.00  0.00    -0.406 C  
BRANCH   6   7
HETATM    7  C   UNL     1     -10.467  11.487  63.238  1.00  0.00    -0.421 C  
BRANCH   7   8
HETATM    8  C   UNL     1      -9.102  11.043  62.710  1.00  0.00    -0.361 C  
HETATM    9  C   UNL     1      -8.699   9.704  63.314  1.00  0.00    -0.239 C  
ENDBRANCH   7   8
ENDBRANCH   6   7
ENDBRANCH   5   6
BRANCH   5  10
HETATM   10  C   UNL     1     -12.415  12.534  65.430  1.00  0.00    -0.240 C  
BRANCH  10  11
HETATM   11  C   UNL     1     -12.223  12.999  66.881  1.00  0.00    -0.233 C  
BRANCH  11  12
HETATM   12  C   UNL     1     -11.483  11.948  67.703  1.00  0.00    -0.317 C  
BRANCH  12  13
HETATM   13  O   UNL     1     -10.130  11.854  67.248  1.00  0.00    -0.195 OA 
BRANCH  13  14
HETATM   14  C   UNL     1      -9.622  10.585  67.148  1.00  0.00    -0.168 A  
HETATM   15  C   UNL     1     -10.366   9.402  67.123  1.00  0.00    -0.326 A  
HETATM   16  C   UNL     1      -9.722   8.157  67.100  1.00  0.00    -0.259 A  
HETATM   17  C   UNL     1      -8.323   8.084  67.093  1.00  0.00    -0.121 A  
HETATM   18  C   UNL     1      -7.584   9.270  67.013  1.00  0.00    -0.091 A  
HETATM   19  C   UNL     1      -8.230  10.510  67.078  1.00  0.00    -0.125 A  
BRANCH  17  20
HETATM   20  C   UNL     1      -7.663   6.744  67.214  1.00  0.00    -0.109 C  
HETATM   21  O   UNL     1      -6.669   6.519  66.529  1.00  0.00    -0.053 OA 
BRANCH  20  22
HETATM   22  C   UNL     1      -8.249   5.738  68.104  1.00  0.00    -0.104 A  
HETATM   23  C   UNL     1      -8.665   4.463  67.725  1.00  0.00    -0.105 A  
HETATM   24  C   UNL     1      -9.011   6.577  71.779  1.00  0.00    -0.138 A  
HETATM   25  O   UNL     1      -9.145   3.785  68.809  1.00  0.00    -0.117 OA 
HETATM   26  C   UNL     1      -9.530   5.326  72.103  1.00  0.00    -0.168 A  
HETATM   27  C   UNL     1      -9.131   4.629  69.866  1.00  0.00    -0.106 A  
HETATM   28  C   UNL     1      -8.614   5.862  69.495  1.00  0.00    -0.117 A  
HETATM   29  C   UNL     1      -9.610   4.320  71.136  1.00  0.00    -0.249 A  
HETATM   30  C   UNL     1      -8.593   6.874  70.477  1.00  0.00    -0.142 A  
BRANCH  23  31
HETATM   31  C   UNL     1      -8.853   3.715  66.446  1.00  0.00    -0.129 C  
BRANCH  31  32
HETATM   32  C   UNL     1      -8.803   2.189  66.492  1.00  0.00    -0.128 C  
BRANCH  32  33
HETATM   33  C   UNL     1      -7.921   1.710  65.326  1.00  0.00    -0.073 C  
HETATM   34  C   UNL     1      -6.889   2.724  64.866  1.00  0.00    -0.044 C  
ENDBRANCH  32  33
ENDBRANCH  31  32
ENDBRANCH  23  31
BRANCH  24  35
HETATM   35  N   UNL     1      -8.902   7.596  72.770  1.00  0.00    -0.140 N  
HETATM   36  H   UNL     1      -9.701   8.182  73.011  1.00  0.00     0.000 HD 
BRANCH  35  37
HETATM   37  S   UNL     1      -7.410   7.805  73.534  1.00  0.00    -0.123 S  
HETATM   38  C   UNL     1      -6.396   8.345  72.173  1.00  0.00    -0.068 C  
HETATM   39  O   UNL     1      -7.499   8.861  74.515  1.00  0.00    -0.419 OA 
HETATM   40  O   UNL     1      -6.977   6.472  73.900  1.00  0.00    -0.081 OA 
ENDBRANCH  35  37
ENDBRANCH  24  35
ENDBRANCH  20  22
ENDBRANCH  17  20
ENDBRANCH  13  14
ENDBRANCH  12  13
ENDBRANCH  11  12
ENDBRANCH  10  11
ENDBRANCH   5  10
ENDBRANCH   4   5
ENDBRANCH   3   4
ENDBRANCH   2   3
TORSDOF 18
ENDMDL
MODEL      181
REMARK 921   NORMALIZED FREE ENERGY PREDICTED BY IDOCK:   -3.61 KCAL/MOL
REMARK 922        TOTAL FREE ENERGY PREDICTED BY IDOCK:  -10.12 KCAL/MOL
REMARK 923 INTER-LIGAND FREE ENERGY PREDICTED BY IDOCK:   -7.97 KCAL/MOL
REMARK 924 INTRA-LIGAND FREE ENERGY PREDICTED BY IDOCK:   -2.14 KCAL/MOL
REMARK 927      BINDING AFFINITY PREDICTED BY RF-SCORE:    0.00 PKD
ROOT
HETATM    1  C   UNL     1     -10.784  19.923  66.031  1.00  0.00    -0.446 C  
HETATM    2  C   UNL     1      -9.387  19.880  66.639  1.00  0.00    -0.500 C  
ENDROOT
BRANCH   2   3
HETATM    3  C   UNL     1      -9.379  18.994  67.884  1.00  0.00    -0.354 C  
BRANCH   3   4
HETATM    4  C   UNL     1     -10.017  17.611  67.689  1.00  0.00    -0.323 C  
BRANCH   4   5
HETATM    5  N   UNL     1      -9.189  16.407  67.956  1.00  0.00    -0.203 NA 
BRANCH   5   6
HETATM    6  C   UNL     1     -10.040  15.234  68.264  1.00  0.00    -0.225 C  
BRANCH   6   7
HETATM    7  C   UNL     1     -11.374  15.121  67.500  1.00  0.00    -0.325 C  
BRANCH   7   8
HETATM    8  C   UNL     1     -11.898  13.692  67.348  1.00  0.00    -0.429 C  
HETATM    9  C   UNL     1     -12.582  13.509  65.998  1.00  0.00    -0.408 C  
ENDBRANCH   7   8
ENDBRANCH   6   7
ENDBRANCH   5   6
BRANCH   5  10
HETATM   10  C   UNL     1      -8.327  16.134  66.777  1.00  0.00    -0.264 C  
BRANCH  10  11
HETATM   11  C   UNL     1      -6.861  16.567  66.924  1.00  0.00    -0.248 C  
BRANCH  11  12
HETATM   12  C   UNL     1      -6.121  15.678  67.917  1.00  0.00    -0.147 C  
BRANCH  12  13
HETATM   13  O   UNL     1      -5.691  14.483  67.259  1.00  0.00    -0.291 OA 
BRANCH  13  14
HETATM   14  C   UNL     1      -6.124  13.308  67.815  1.00  0.00    -0.153 A  
HETATM   15  C   UNL     1      -5.828  12.023  67.351  1.00  0.00    -0.125 A  
HETATM   16  C   UNL     1      -6.400  10.897  67.961  1.00  0.00    -0.057 A  
HETATM   17  C   UNL     1      -7.268  11.047  69.050  1.00  0.00    -0.111 A  
HETATM   18  C   UNL     1      -7.479  12.327  69.576  1.00  0.00     0.523 A  
HETATM   19  C   UNL     1      -6.939  13.450  68.938  1.00  0.00    -0.102 A  
BRANCH  17  20
HETATM   20  C   UNL     1      -7.976   9.840  69.588  1.00  0.00    -0.150 C  
HETATM   21  O   UNL     1      -7.721   9.477  70.733  1.00  0.00    -0.230 OA 
BRANCH  20  22
HETATM   22  C   UNL     1      -8.906   9.113  68.721  1.00  0.00    -0.132 A  
HETATM   23  C   UNL     1      -9.526   9.628  67.583  1.00  0.00    -0.133 A  
HETATM   24  C   UNL     1     -10.052   5.554  69.622  1.00  0.00    -0.239 A  
HETATM   25  O   UNL     1     -10.313   8.672  67.007  1.00  0.00    -0.270 OA 
HETATM   26  C   UNL     1     -10.880   5.389  68.515  1.00  0.00     0.043 A  
HETATM   27  C   UNL     1     -10.286   7.577  67.799  1.00  0.00    -0.201 A  
HETATM   28  C   UNL     1      -9.456   7.789  68.891  1.00  0.00    -0.150 A  
HETATM   29  C   UNL     1     -11.021   6.416  67.577  1.00  0.00    -0.454 A  
HETATM   30  C   UNL     1      -9.372   6.757  69.848  1.00  0.00    -0.157 A  
BRANCH  23  31
HETATM   31  C   UNL     1      -9.663  10.963  66.929  1.00  0.00    -0.210 C  
BRANCH  31  32
HETATM   32  C   UNL     1      -9.100  11.133  65.519  1.00  0.00    -0.211 C  
BRANCH  32  33
HETATM   33  C   UNL     1     -10.272  11.030  64.527  1.00  0.00    -0.406 C  
HETATM   34  C   UNL     1      -9.947  11.508  63.124  1.00  0.00    -0.404 C  
ENDBRANCH  32  33
ENDBRANCH  31  32
ENDBRANCH  23  31
BRANCH  24  35
HETATM   35  N   UNL     1      -9.883   4.499  70.566  1.00  0.00    -0.218 N  
HETATM   36  H   UNL     1     -10.679   4.127  71.085  1.00  0.00     0.000 HD 
BRANCH  35  37
HETATM   37  S   UNL     1      -8.329   3.882  70.798  1.00  0.00    -0.071 S  
HETATM   38  C   UNL     1      -7.697   3.896  69.133  1.00  0.00    -0.053 C  
HETATM   39  O   UNL     1      -7.553   4.787  71.614  1.00  0.00    -0.084 OA 
HETATM   40  O   UNL     1      -8.519   2.499  71.182  1.00  0.00    -0.056 OA 
ENDBRANCH  35  37
ENDBRANCH  24  35
ENDBRANCH  20  22
ENDBRANCH  17  20
ENDBRANCH  13  14
ENDBRANCH  12  13
ENDBRANCH  11  12
ENDBRANCH  10  11
ENDBRANCH   5  10
ENDBRANCH   4   5
ENDBRANCH   3   4
ENDBRANCH   2   3
TORSDOF 18
ENDMDL
MODEL      182
REMARK 921   NORMALIZED FREE ENERGY PREDICTED BY IDOCK:   -3.57 KCAL/MOL
REMARK 922        TOTAL FREE ENERGY PREDICTED BY IDOCK:  -10.04 KCAL/MOL
REMARK 923 INTER-LIGAND FREE ENERGY PREDICTED BY IDOCK:   -8.46 KCAL/MOL
REMARK 924 INTRA-LIGAND FREE ENERGY PREDICTED BY IDOCK:   -1.58 KCAL/MOL
REMARK 927      BINDING AFFINITY PREDICTED BY RF-SCORE:    0.00 PKD
ROOT
HETATM    1  C   UNL     1     -10.346   3.158  73.775  1.00  0.00    -0.228 C  
HETATM    2  C   UNL     1     -10.836   4.593  73.921  1.00  0.00    -0.359 C  
ENDROOT
BRANCH   2   3
HETATM    3  C   UNL     1     -10.845   5.291  72.561  1.00  0.00    -0.301 C  
BRANCH   3   4
HETATM    4  C   UNL     1      -9.633   4.973  71.672  1.00  0.00    -0.156 C  
BRANCH   4   5
HETATM    5  N   UNL     1      -8.408   5.798  71.826  1.00  0.00    -0.119 NA 
BRANCH   5   6
HETATM    6  C   UNL     1      -7.273   4.979  72.312  1.00  0.00    -0.089 C  
BRANCH   6   7
HETATM    7  C   UNL     1      -6.676   5.360  73.681  1.00  0.00    -0.078 C  
BRANCH   7   8
HETATM    8  C   UNL     1      -7.528   6.336  74.496  1.00  0.00    -0.096 C  
HETATM    9  C   UNL     1      -6.910   7.729  74.485  1.00  0.00    -0.132 C  
ENDBRANCH   7   8
ENDBRANCH   6   7
ENDBRANCH   5   6
BRANCH   5  10
HETATM   10  C   UNL     1      -8.078   6.432  70.524  1.00  0.00    -0.117 C  
BRANCH  10  11
HETATM   11  C   UNL     1      -8.173   5.507  69.302  1.00  0.00    -0.095 C  
BRANCH  11  12
HETATM   12  C   UNL     1      -9.261   5.975  68.342  1.00  0.00    -0.114 C  
BRANCH  12  13
HETATM   13  O   UNL     1      -8.667   6.357  67.098  1.00  0.00    -0.110 OA 
BRANCH  13  14
HETATM   14  C   UNL     1      -8.927   7.636  66.681  1.00  0.00    -0.156 A  
HETATM   15  C   UNL     1      -8.029   8.484  66.027  1.00  0.00    -0.107 A  
HETATM   16  C   UNL     1      -8.390   9.805  65.724  1.00  0.00    -0.132 A  
HETATM   17  C   UNL     1      -9.660  10.287  66.065  1.00  0.00    -0.259 A  
HETATM   18  C   UNL     1     -10.591   9.405  66.624  1.00  0.00    -0.170 A  
HETATM   19  C   UNL     1     -10.212   8.100  66.963  1.00  0.00    -0.378 A  
BRANCH  17  20
HETATM   20  C   UNL     1      -9.967  11.740  65.859  1.00  0.00    -0.236 C  
HETATM   21  O   UNL     1     -10.067  12.159  64.709  1.00  0.00    -0.267 OA 
BRANCH  20  22
HETATM   22  C   UNL     1     -10.089  12.615  67.028  1.00  0.00    -0.228 A  
HETATM   23  C   UNL     1     -10.807  12.324  68.188  1.00  0.00    -0.227 A  
HETATM   24  C   UNL     1      -8.585  16.154  66.995  1.00  0.00    -0.205 A  
HETATM   25  O   UNL     1     -10.692  13.352  69.079  1.00  0.00    -0.214 OA 
HETATM   26  C   UNL     1      -8.996  16.493  68.281  1.00  0.00    -0.214 A  
HETATM   27  C   UNL     1      -9.990  14.342  68.483  1.00  0.00    -0.237 A  
HETATM   28  C   UNL     1      -9.608  13.964  67.203  1.00  0.00    -0.247 A  
HETATM   29  C   UNL     1      -9.725  15.585  69.054  1.00  0.00    -0.237 A  
HETATM   30  C   UNL     1      -8.919  14.919  66.428  1.00  0.00    -0.254 A  
BRANCH  23  31
HETATM   31  C   UNL     1     -11.762  11.270  68.640  1.00  0.00    -0.391 C  
BRANCH  31  32
HETATM   32  C   UNL     1     -12.044  11.151  70.137  1.00  0.00    -0.443 C  
BRANCH  32  33
HETATM   33  C   UNL     1     -11.462   9.811  70.622  1.00  0.00    -0.397 C  
HETATM   34  C   UNL     1     -12.317   9.094  71.650  1.00  0.00    -0.434 C  
ENDBRANCH  32  33
ENDBRANCH  31  32
ENDBRANCH  23  31
BRANCH  24  35
HETATM   35  N   UNL     1      -7.817  17.067  66.214  1.00  0.00    -0.306 N  
HETATM   36  H   UNL     1      -8.089  17.299  65.259  1.00  0.00     0.000 HD 
BRANCH  35  37
HETATM   37  S   UNL     1      -6.444  17.754  66.918  1.00  0.00    -0.185 S  
HETATM   38  C   UNL     1      -5.682  18.528  65.507  1.00  0.00    -0.203 C  
HETATM   39  O   UNL     1      -6.831  18.768  67.872  1.00  0.00    -0.209 OA 
HETATM   40  O   UNL     1      -5.612  16.635  67.306  1.00  0.00    -0.133 OA 
ENDBRANCH  35  37
ENDBRANCH  24  35
ENDBRANCH  20  22
ENDBRANCH  17  20
ENDBRANCH  13  14
ENDBRANCH  12  13
ENDBRANCH  11  12
ENDBRANCH  10  11
ENDBRANCH   5  10
ENDBRANCH   4   5
ENDBRANCH   3   4
ENDBRANCH   2   3
TORSDOF 18
ENDMDL
MODEL      183
REMARK 921   NORMALIZED FREE ENERGY PREDICTED BY IDOCK:   -3.57 KCAL/MOL
REMARK 922        TOTAL FREE ENERGY PREDICTED BY IDOCK:  -10.04 KCAL/MOL
REMARK 923 INTER-LIGAND FREE ENERGY PREDICTED BY IDOCK:   -8.45 KCAL/MOL
REMARK 924 INTRA-LIGAND FREE ENERGY PREDICTED BY IDOCK:   -1.59 KCAL/MOL
REMARK 927      BINDING AFFINITY PREDICTED BY RF-SCORE:    0.00 PKD
ROOT
HETATM    1  C   UNL     1     -10.957   6.940  72.185  1.00  0.00    -0.268 C  
HETATM    2  C   UNL     1      -9.727   6.222  71.643  1.00  0.00    -0.177 C  
ENDROOT
BRANCH   2   3
HETATM    3  C   UNL     1      -9.365   6.764  70.260  1.00  0.00    -0.159 C  
BRANCH   3   4
HETATM    4  C   UNL     1     -10.223   6.211  69.112  1.00  0.00    -0.194 C  
BRANCH   4   5
HETATM    5  N   UNL     1      -9.655   6.216  67.740  1.00  0.00    -0.114 NA 
BRANCH   5   6
HETATM    6  C   UNL     1     -10.592   5.596  66.775  1.00  0.00    -0.304 C  
BRANCH   6   7
HETATM    7  C   UNL     1     -10.002   4.560  65.798  1.00  0.00    -0.253 C  
BRANCH   7   8
HETATM    8  C   UNL     1      -9.334   3.360  66.474  1.00  0.00    -0.173 C  
HETATM    9  C   UNL     1      -7.831   3.576  66.593  1.00  0.00    -0.081 C  
ENDBRANCH   7   8
ENDBRANCH   6   7
ENDBRANCH   5   6
BRANCH   5  10
HETATM   10  C   UNL     1      -9.343   7.613  67.344  1.00  0.00    -0.141 C  
BRANCH  10  11
HETATM   11  C   UNL     1      -8.185   7.767  66.347  1.00  0.00    -0.116 C  
BRANCH  11  12
HETATM   12  C   UNL     1      -6.899   8.180  67.055  1.00  0.00    -0.070 C  
BRANCH  12  13
HETATM   13  O   UNL     1      -6.331   9.311  66.391  1.00  0.00    -0.064 OA 
BRANCH  13  14
HETATM   14  C   UNL     1      -6.441  10.508  67.050  1.00  0.00    -0.076 A  
HETATM   15  C   UNL     1      -7.505  10.899  67.868  1.00  0.00    -0.090 A  
HETATM   16  C   UNL     1      -7.539  12.187  68.423  1.00  0.00    -0.128 A  
HETATM   17  C   UNL     1      -6.501  13.093  68.172  1.00  0.00    -0.105 A  
HETATM   18  C   UNL     1      -5.388  12.662  67.439  1.00  0.00    -0.058 A  
HETATM   19  C   UNL     1      -5.379  11.391  66.853  1.00  0.00    -0.104 A  
BRANCH  17  20
HETATM   20  C   UNL     1      -6.634  14.505  68.657  1.00  0.00    -0.087 C  
HETATM   21  O   UNL     1      -6.324  14.754  69.819  1.00  0.00    -0.128 OA 
BRANCH  20  22
HETATM   22  C   UNL     1      -7.168  15.524  67.750  1.00  0.00    -0.177 A  
HETATM   23  C   UNL     1      -6.529  16.712  67.397  1.00  0.00    -0.171 A  
HETATM   24  C   UNL     1     -10.720  15.198  66.310  1.00  0.00    -0.320 A  
HETATM   25  O   UNL     1      -7.304  17.417  66.520  1.00  0.00    -0.220 OA 
HETATM   26  C   UNL     1     -10.683  16.382  65.578  1.00  0.00    -0.300 A  
HETATM   27  C   UNL     1      -8.471  16.751  66.369  1.00  0.00    -0.303 A  
HETATM   28  C   UNL     1      -8.466  15.585  67.122  1.00  0.00    -0.239 A  
HETATM   29  C   UNL     1      -9.546  17.196  65.603  1.00  0.00     0.140 A  
HETATM   30  C   UNL     1      -9.644  14.811  67.118  1.00  0.00    -0.231 A  
BRANCH  23  31
HETATM   31  C   UNL     1      -5.314  17.463  67.829  1.00  0.00    -0.124 C  
BRANCH  31  32
HETATM   32  C   UNL     1      -5.407  18.985  67.928  1.00  0.00    -0.178 C  
BRANCH  32  33
HETATM   33  C   UNL     1      -6.654  19.328  68.763  1.00  0.00    -0.308 C  
HETATM   34  C   UNL     1      -6.352  20.003  70.088  1.00  0.00    -0.368 C  
ENDBRANCH  32  33
ENDBRANCH  31  32
ENDBRANCH  23  31
BRANCH  24  35
HETATM   35  N   UNL     1     -11.866  14.353  66.265  1.00  0.00    -0.387 N  
HETATM   36  H   UNL     1     -12.423  14.177  67.101  1.00  0.00     0.000 HD 
BRANCH  35  37
HETATM   37  S   UNL     1     -12.276  13.649  64.785  1.00  0.00    -0.402 S  
HETATM   38  C   UNL     1     -10.728  12.904  64.315  1.00  0.00    -0.406 C  
HETATM   39  O   UNL     1     -13.266  12.617  64.984  1.00  0.00    -0.753 OA 
HETATM   40  O   UNL     1     -12.517  14.760  63.887  1.00  0.00    -0.811 OA 
ENDBRANCH  35  37
ENDBRANCH  24  35
ENDBRANCH  20  22
ENDBRANCH  17  20
ENDBRANCH  13  14
ENDBRANCH  12  13
ENDBRANCH  11  12
ENDBRANCH  10  11
ENDBRANCH   5  10
ENDBRANCH   4   5
ENDBRANCH   3   4
ENDBRANCH   2   3
TORSDOF 18
ENDMDL
MODEL      184
REMARK 921   NORMALIZED FREE ENERGY PREDICTED BY IDOCK:   -3.56 KCAL/MOL
REMARK 922        TOTAL FREE ENERGY PREDICTED BY IDOCK:  -10.03 KCAL/MOL
REMARK 923 INTER-LIGAND FREE ENERGY PREDICTED BY IDOCK:   -8.19 KCAL/MOL
REMARK 924 INTRA-LIGAND FREE ENERGY PREDICTED BY IDOCK:   -1.84 KCAL/MOL
REMARK 927      BINDING AFFINITY PREDICTED BY RF-SCORE:    0.00 PKD
ROOT
HETATM    1  C   UNL     1     -11.147   7.955  72.147  1.00  0.00    -0.351 C  
HETATM    2  C   UNL     1     -11.150   6.439  71.993  1.00  0.00    -0.306 C  
ENDROOT
BRANCH   2   3
HETATM    3  C   UNL     1     -10.318   6.029  70.779  1.00  0.00    -0.280 C  
BRANCH   3   4
HETATM    4  C   UNL     1      -8.882   6.575  70.774  1.00  0.00    -0.144 C  
BRANCH   4   5
HETATM    5  N   UNL     1      -8.071   6.419  69.539  1.00  0.00    -0.116 NA 
BRANCH   5   6
HETATM    6  C   UNL     1      -7.783   4.991  69.269  1.00  0.00    -0.075 C  
BRANCH   6   7
HETATM    7  C   UNL     1      -7.346   4.130  70.470  1.00  0.00    -0.041 C  
BRANCH   7   8
HETATM    8  C   UNL     1      -7.944   2.722  70.492  1.00  0.00    -0.050 C  
HETATM    9  C   UNL     1      -7.907   2.142  71.901  1.00  0.00    -0.045 C  
ENDBRANCH   7   8
ENDBRANCH   6   7
ENDBRANCH   5   6
BRANCH   5  10
HETATM   10  C   UNL     1      -8.795   7.033  68.397  1.00  0.00    -0.123 C  
BRANCH  10  11
HETATM   11  C   UNL     1      -8.628   8.554  68.257  1.00  0.00    -0.139 C  
BRANCH  11  12
HETATM   12  C   UNL     1      -9.897   9.199  67.712  1.00  0.00    -0.174 C  
BRANCH  12  13
HETATM   13  O   UNL     1      -9.637   9.740  66.414  1.00  0.00    -0.174 OA 
BRANCH  13  14
HETATM   14  C   UNL     1      -9.740  11.102  66.304  1.00  0.00    -0.211 A  
HETATM   15  C   UNL     1      -8.935  12.041  66.954  1.00  0.00    -0.199 A  
HETATM   16  C   UNL     1      -9.194  13.413  66.822  1.00  0.00    -0.242 A  
HETATM   17  C   UNL     1     -10.257  13.859  66.028  1.00  0.00    -0.317 A  
HETATM   18  C   UNL     1     -10.995  12.921  65.296  1.00  0.00    -0.310 A  
HETATM   19  C   UNL     1     -10.760  11.551  65.464  1.00  0.00    -0.328 A  
BRANCH  17  20
HETATM   20  C   UNL     1     -10.599  15.319  66.021  1.00  0.00    -0.319 C  
HETATM   21  O   UNL     1     -11.017  15.815  64.978  1.00  0.00    -0.410 OA 
BRANCH  20  22
HETATM   22  C   UNL     1     -10.379  16.109  67.235  1.00  0.00    -0.287 A  
HETATM   23  C   UNL     1      -9.390  17.076  67.405  1.00  0.00    -0.239 A  
HETATM   24  C   UNL     1     -12.439  15.437  70.412  1.00  0.00    -0.404 A  
HETATM   25  O   UNL     1      -9.484  17.627  68.651  1.00  0.00    -0.283 OA 
HETATM   26  C   UNL     1     -11.824  16.417  71.188  1.00  0.00    -0.131 A  
HETATM   27  C   UNL     1     -10.457  16.972  69.323  1.00  0.00    -0.293 A  
HETATM   28  C   UNL     1     -11.035  16.002  68.516  1.00  0.00    -0.326 A  
HETATM   29  C   UNL     1     -10.801  17.205  70.652  1.00  0.00     0.854 A  
HETATM   30  C   UNL     1     -12.028  15.188  69.098  1.00  0.00    -0.304 A  
BRANCH  23  31
HETATM   31  C   UNL     1      -8.193  17.553  66.650  1.00  0.00    -0.288 C  
BRANCH  31  32
HETATM   32  C   UNL     1      -7.353  18.670  67.267  1.00  0.00    -0.224 C  
BRANCH  32  33
HETATM   33  C   UNL     1      -5.881  18.412  66.897  1.00  0.00    -0.166 C  
HETATM   34  C   UNL     1      -5.541  18.705  65.448  1.00  0.00    -0.238 C  
ENDBRANCH  32  33
ENDBRANCH  31  32
ENDBRANCH  23  31
BRANCH  24  35
HETATM   35  N   UNL     1     -13.501  14.650  70.946  1.00  0.00    -0.513 N  
HETATM   36  H   UNL     1     -14.459  14.766  70.614  1.00  0.00     0.000 HD 
BRANCH  35  37
HETATM   37  S   UNL     1     -13.128  13.521  72.145  1.00  0.00    -0.380 S  
HETATM   38  C   UNL     1     -12.478  12.181  71.170  1.00  0.00    -0.234 C  
HETATM   39  O   UNL     1     -12.090  14.038  73.007  1.00  0.00     0.252 OA 
HETATM   40  O   UNL     1     -14.405  13.095  72.680  1.00  0.00    -0.636 OA 
ENDBRANCH  35  37
ENDBRANCH  24  35
ENDBRANCH  20  22
ENDBRANCH  17  20
ENDBRANCH  13  14
ENDBRANCH  12  13
ENDBRANCH  11  12
ENDBRANCH  10  11
ENDBRANCH   5  10
ENDBRANCH   4   5
ENDBRANCH   3   4
ENDBRANCH   2   3
TORSDOF 18
ENDMDL
MODEL      185
REMARK 921   NORMALIZED FREE ENERGY PREDICTED BY IDOCK:   -3.50 KCAL/MOL
REMARK 922        TOTAL FREE ENERGY PREDICTED BY IDOCK:   -9.89 KCAL/MOL
REMARK 923 INTER-LIGAND FREE ENERGY PREDICTED BY IDOCK:   -7.69 KCAL/MOL
REMARK 924 INTRA-LIGAND FREE ENERGY PREDICTED BY IDOCK:   -2.20 KCAL/MOL
REMARK 927      BINDING AFFINITY PREDICTED BY RF-SCORE:    0.00 PKD
ROOT
HETATM    1  C   UNL     1     -11.724  16.068  72.119  1.00  0.00    -0.587 C  
HETATM    2  C   UNL     1     -12.525  15.610  70.907  1.00  0.00    -0.497 C  
ENDROOT
BRANCH   2   3
HETATM    3  C   UNL     1     -11.629  14.832  69.944  1.00  0.00    -0.330 C  
BRANCH   3   4
HETATM    4  C   UNL     1     -12.349  13.731  69.150  1.00  0.00    -0.101 C  
BRANCH   4   5
HETATM    5  N   UNL     1     -11.984  13.536  67.723  1.00  0.00    -0.354 NA 
BRANCH   5   6
HETATM    6  C   UNL     1     -11.136  14.648  67.235  1.00  0.00    -0.328 C  
BRANCH   6   7
HETATM    7  C   UNL     1     -11.087  14.869  65.710  1.00  0.00    -0.342 C  
BRANCH   7   8
HETATM    8  C   UNL     1     -12.346  14.423  64.964  1.00  0.00    -0.401 C  
HETATM    9  C   UNL     1     -12.049  13.222  64.075  1.00  0.00    -0.508 C  
ENDBRANCH   7   8
ENDBRANCH   6   7
ENDBRANCH   5   6
BRANCH   5  10
HETATM   10  C   UNL     1     -11.284  12.236  67.569  1.00  0.00    -0.297 C  
BRANCH  10  11
HETATM   11  C   UNL     1     -11.389  11.289  68.774  1.00  0.00    -0.335 C  
BRANCH  11  12
HETATM   12  C   UNL     1     -10.030  10.695  69.127  1.00  0.00    -0.211 C  
BRANCH  12  13
HETATM   13  O   UNL     1     -10.214   9.421  69.751  1.00  0.00    -0.196 OA 
BRANCH  13  14
HETATM   14  C   UNL     1     -10.342   8.354  68.902  1.00  0.00    -0.215 A  
HETATM   15  C   UNL     1     -10.932   7.125  69.211  1.00  0.00    -0.163 A  
HETATM   16  C   UNL     1     -10.929   6.079  68.277  1.00  0.00    -0.347 A  
HETATM   17  C   UNL     1     -10.342   6.257  67.018  1.00  0.00    -0.300 A  
HETATM   18  C   UNL     1      -9.846   7.520  66.675  1.00  0.00    -0.274 A  
HETATM   19  C   UNL     1      -9.814   8.548  67.625  1.00  0.00    -0.222 A  
BRANCH  17  20
HETATM   20  C   UNL     1     -10.225   5.081  66.097  1.00  0.00    -0.255 C  
HETATM   21  O   UNL     1     -11.203   4.768  65.422  1.00  0.00    -0.103 OA 
BRANCH  20  22
HETATM   22  C   UNL     1      -8.974   4.320  66.066  1.00  0.00    -0.123 A  
HETATM   23  C   UNL     1      -8.122   4.203  64.969  1.00  0.00    -0.097 A  
HETATM   24  C   UNL     1      -7.894   2.199  69.087  1.00  0.00    -0.045 A  
HETATM   25  O   UNL     1      -7.040   3.436  65.296  1.00  0.00    -0.062 OA 
HETATM   26  C   UNL     1      -6.715   1.729  68.514  1.00  0.00    -0.029 A  
HETATM   27  C   UNL     1      -7.220   2.980  66.556  1.00  0.00    -0.066 A  
HETATM   28  C   UNL     1      -8.408   3.466  67.084  1.00  0.00    -0.093 A  
HETATM   29  C   UNL     1      -6.358   2.108  67.217  1.00  0.00    -0.028 A  
HETATM   30  C   UNL     1      -8.768   3.026  68.373  1.00  0.00    -0.139 A  
BRANCH  23  31
HETATM   31  C   UNL     1      -8.155   4.568  63.522  1.00  0.00    -0.093 C  
BRANCH  31  32
HETATM   32  C   UNL     1      -9.240   3.940  62.648  1.00  0.00    -0.109 C  
BRANCH  32  33
HETATM   33  C   UNL     1      -9.046   2.414  62.678  1.00  0.00    -0.087 C  
HETATM   34  C   UNL     1      -9.994   1.682  63.611  1.00  0.00    -0.130 C  
ENDBRANCH  32  33
ENDBRANCH  31  32
ENDBRANCH  23  31
BRANCH  24  35
HETATM   35  N   UNL     1      -8.247   1.837  70.420  1.00  0.00    -0.041 N  
HETATM   36  H   UNL     1      -8.863   1.044  70.603  1.00  0.00     0.000 HD 
BRANCH  35  37
HETATM   37  S   UNL     1      -7.617   2.759  71.687  1.00  0.00    -0.045 S  
HETATM   38  C   UNL     1      -7.421   1.522  72.952  1.00  0.00    -0.032 C  
HETATM   39  O   UNL     1      -6.322   3.283  71.322  1.00  0.00    -0.018 OA 
HETATM   40  O   UNL     1      -8.695   3.635  72.095  1.00  0.00    -0.089 OA 
ENDBRANCH  35  37
ENDBRANCH  24  35
ENDBRANCH  20  22
ENDBRANCH  17  20
ENDBRANCH  13  14
ENDBRANCH  12  13
ENDBRANCH  11  12
ENDBRANCH  10  11
ENDBRANCH   5  10
ENDBRANCH   4   5
ENDBRANCH   3   4
ENDBRANCH   2   3
TORSDOF 18
ENDMDL
MODEL      186
REMARK 921   NORMALIZED FREE ENERGY PREDICTED BY IDOCK:   -3.47 KCAL/MOL
REMARK 922        TOTAL FREE ENERGY PREDICTED BY IDOCK:   -9.85 KCAL/MOL
REMARK 923 INTER-LIGAND FREE ENERGY PREDICTED BY IDOCK:   -7.76 KCAL/MOL
REMARK 924 INTRA-LIGAND FREE ENERGY PREDICTED BY IDOCK:   -2.09 KCAL/MOL
REMARK 927      BINDING AFFINITY PREDICTED BY RF-SCORE:    0.00 PKD
ROOT
HETATM    1  C   UNL     1      -6.530   8.228  69.344  1.00  0.00    -0.038 C  
HETATM    2  C   UNL     1      -7.736   7.355  69.667  1.00  0.00    -0.107 C  
ENDROOT
BRANCH   2   3
HETATM    3  C   UNL     1      -7.388   5.879  69.473  1.00  0.00    -0.075 C  
BRANCH   3   4
HETATM    4  C   UNL     1      -7.997   5.239  68.216  1.00  0.00    -0.088 C  
BRANCH   4   5
HETATM    5  N   UNL     1      -9.309   4.554  68.337  1.00  0.00    -0.134 NA 
BRANCH   5   6
HETATM    6  C   UNL     1      -9.859   4.697  69.705  1.00  0.00    -0.226 C  
BRANCH   6   7
HETATM    7  C   UNL     1      -9.660   3.507  70.664  1.00  0.00    -0.247 C  
BRANCH   7   8
HETATM    8  C   UNL     1      -9.609   3.887  72.145  1.00  0.00    -0.209 C  
HETATM    9  C   UNL     1      -9.862   5.378  72.328  1.00  0.00    -0.199 C  
ENDBRANCH   7   8
ENDBRANCH   6   7
ENDBRANCH   5   6
BRANCH   5  10
HETATM   10  C   UNL     1     -10.248   5.114  67.333  1.00  0.00    -0.172 C  
BRANCH  10  11
HETATM   11  C   UNL     1      -9.791   6.418  66.664  1.00  0.00    -0.203 C  
BRANCH  11  12
HETATM   12  C   UNL     1     -10.610   7.606  67.156  1.00  0.00    -0.340 C  
BRANCH  12  13
HETATM   13  O   UNL     1     -10.478   8.692  66.235  1.00  0.00    -0.122 OA 
BRANCH  13  14
HETATM   14  C   UNL     1     -10.094   9.890  66.777  1.00  0.00    -0.230 A  
HETATM   15  C   UNL     1      -9.803  10.127  68.123  1.00  0.00    -0.164 A  
HETATM   16  C   UNL     1      -9.499  11.422  68.569  1.00  0.00    -0.183 A  
HETATM   17  C   UNL     1      -9.475  12.493  67.667  1.00  0.00    -0.188 A  
HETATM   18  C   UNL     1      -9.663  12.234  66.304  1.00  0.00    -0.254 A  
HETATM   19  C   UNL     1     -10.007  10.948  65.870  1.00  0.00    -0.294 A  
BRANCH  17  20
HETATM   20  C   UNL     1      -9.290  13.884  68.192  1.00  0.00    -0.203 C  
HETATM   21  O   UNL     1     -10.243  14.431  68.742  1.00  0.00    -0.235 OA 
BRANCH  20  22
HETATM   22  C   UNL     1      -8.005  14.557  67.992  1.00  0.00    -0.136 A  
HETATM   23  C   UNL     1      -6.761  14.063  68.383  1.00  0.00    -0.099 A  
HETATM   24  C   UNL     1      -7.857  18.101  66.506  1.00  0.00    -0.257 A  
HETATM   25  O   UNL     1      -5.776  14.940  68.026  1.00  0.00    -0.125 OA 
HETATM   26  C   UNL     1      -6.470  18.218  66.561  1.00  0.00    -0.229 A  
HETATM   27  C   UNL     1      -6.367  16.033  67.493  1.00  0.00    -0.170 A  
HETATM   28  C   UNL     1      -7.745  15.876  67.465  1.00  0.00    -0.183 A  
HETATM   29  C   UNL     1      -5.691  17.176  67.072  1.00  0.00    -0.205 A  
HETATM   30  C   UNL     1      -8.509  16.963  66.993  1.00  0.00    -0.228 A  
BRANCH  23  31
HETATM   31  C   UNL     1      -6.251  12.922  69.199  1.00  0.00    -0.101 C  
BRANCH  31  32
HETATM   32  C   UNL     1      -5.791  11.663  68.464  1.00  0.00    -0.049 C  
BRANCH  32  33
HETATM   33  C   UNL     1      -6.088  11.855  66.967  1.00  0.00    -0.149 C  
HETATM   34  C   UNL     1      -6.374  10.568  66.216  1.00  0.00    -0.106 C  
ENDBRANCH  32  33
ENDBRANCH  31  32
ENDBRANCH  23  31
BRANCH  24  35
HETATM   35  N   UNL     1      -8.652  19.151  65.960  1.00  0.00    -0.206 N  
HETATM   36  H   UNL     1      -8.220  19.993  65.579  1.00  0.00     0.000 HD 
BRANCH  35  37
HETATM   37  S   UNL     1     -10.330  18.959  65.962  1.00  0.00    -0.356 S  
HETATM   38  C   UNL     1     -10.703  19.186  67.688  1.00  0.00    -0.417 C  
HETATM   39  O   UNL     1     -10.950  20.013  65.193  1.00  0.00    -0.291 OA 
HETATM   40  O   UNL     1     -10.556  17.564  65.645  1.00  0.00    -0.549 OA 
ENDBRANCH  35  37
ENDBRANCH  24  35
ENDBRANCH  20  22
ENDBRANCH  17  20
ENDBRANCH  13  14
ENDBRANCH  12  13
ENDBRANCH  11  12
ENDBRANCH  10  11
ENDBRANCH   5  10
ENDBRANCH   4   5
ENDBRANCH   3   4
ENDBRANCH   2   3
TORSDOF 18
ENDMDL
MODEL      187
REMARK 921   NORMALIZED FREE ENERGY PREDICTED BY IDOCK:   -3.46 KCAL/MOL
REMARK 922        TOTAL FREE ENERGY PREDICTED BY IDOCK:   -9.81 KCAL/MOL
REMARK 923 INTER-LIGAND FREE ENERGY PREDICTED BY IDOCK:   -9.21 KCAL/MOL
REMARK 924 INTRA-LIGAND FREE ENERGY PREDICTED BY IDOCK:   -0.61 KCAL/MOL
REMARK 927      BINDING AFFINITY PREDICTED BY RF-SCORE:    0.00 PKD
ROOT
HETATM    1  C   UNL     1      -7.805  15.877  68.819  1.00  0.00    -0.185 C  
HETATM    2  C   UNL     1      -7.690  17.336  69.240  1.00  0.00     0.040 C  
ENDROOT
BRANCH   2   3
HETATM    3  C   UNL     1      -6.352  17.915  68.782  1.00  0.00    -0.217 C  
BRANCH   3   4
HETATM    4  C   UNL     1      -6.346  18.447  67.341  1.00  0.00    -0.182 C  
BRANCH   4   5
HETATM    5  N   UNL     1      -6.663  19.880  67.116  1.00  0.00    -0.206 NA 
BRANCH   5   6
HETATM    6  C   UNL     1      -6.811  20.171  65.671  1.00  0.00    -0.287 C  
BRANCH   6   7
HETATM    7  C   UNL     1      -5.561  19.979  64.790  1.00  0.00    -0.223 C  
BRANCH   7   8
HETATM    8  C   UNL     1      -5.403  21.017  63.677  1.00  0.00    -0.261 C  
HETATM    9  C   UNL     1      -5.960  20.487  62.362  1.00  0.00    -0.235 C  
ENDBRANCH   7   8
ENDBRANCH   6   7
ENDBRANCH   5   6
BRANCH   5  10
HETATM   10  C   UNL     1      -7.906  20.228  67.851  1.00  0.00    -0.198 C  
BRANCH  10  11
HETATM   11  C   UNL     1      -9.158  20.398  66.977  1.00  0.00    -0.459 C  
BRANCH  11  12
HETATM   12  C   UNL     1      -9.759  19.045  66.610  1.00  0.00    -0.341 C  
BRANCH  12  13
HETATM   13  O   UNL     1     -10.674  18.638  67.631  1.00  0.00    -0.427 OA 
BRANCH  13  14
HETATM   14  C   UNL     1     -10.774  17.287  67.838  1.00  0.00    -0.351 A  
HETATM   15  C   UNL     1     -10.534  16.291  66.887  1.00  0.00    -0.302 A  
HETATM   16  C   UNL     1     -10.751  14.941  67.201  1.00  0.00    -0.296 A  
HETATM   17  C   UNL     1     -11.201  14.575  68.475  1.00  0.00    -0.285 A  
HETATM   18  C   UNL     1     -11.339  15.565  69.456  1.00  0.00    -0.317 A  
HETATM   19  C   UNL     1     -11.162  16.914  69.125  1.00  0.00     0.081 A  
BRANCH  17  20
HETATM   20  C   UNL     1     -11.561  13.143  68.737  1.00  0.00    -0.308 C  
HETATM   21  O   UNL     1     -12.264  12.887  69.711  1.00  0.00    -0.255 OA 
BRANCH  20  22
HETATM   22  C   UNL     1     -11.027  12.101  67.857  1.00  0.00    -0.272 A  
HETATM   23  C   UNL     1     -11.349  11.933  66.511  1.00  0.00    -0.341 A  
HETATM   24  C   UNL     1      -8.718   9.356  69.243  1.00  0.00    -0.145 A  
HETATM   25  O   UNL     1     -10.656  10.876  65.993  1.00  0.00    -0.246 OA 
HETATM   26  C   UNL     1      -8.550   8.689  68.032  1.00  0.00    -0.137 A  
HETATM   27  C   UNL     1      -9.961  10.301  67.000  1.00  0.00    -0.201 A  
HETATM   28  C   UNL     1     -10.164  10.992  68.186  1.00  0.00    -0.201 A  
HETATM   29  C   UNL     1      -9.185   9.151  66.876  1.00  0.00    -0.183 A  
HETATM   30  C   UNL     1      -9.553  10.474  69.346  1.00  0.00    -0.170 A  
BRANCH  23  31
HETATM   31  C   UNL     1     -12.339  12.503  65.550  1.00  0.00    -0.364 C  
BRANCH  31  32
HETATM   32  C   UNL     1     -11.877  13.630  64.627  1.00  0.00    -0.427 C  
BRANCH  32  33
HETATM   33  C   UNL     1     -12.382  13.315  63.208  1.00  0.00    -0.317 C  
HETATM   34  C   UNL     1     -12.672  11.847  62.960  1.00  0.00    -0.056 C  
ENDBRANCH  32  33
ENDBRANCH  31  32
ENDBRANCH  23  31
BRANCH  24  35
HETATM   35  N   UNL     1      -8.050   8.904  70.419  1.00  0.00    -0.112 N  
HETATM   36  H   UNL     1      -7.058   9.094  70.564  1.00  0.00     0.000 HD 
BRANCH  35  37
HETATM   37  S   UNL     1      -8.947   8.046  71.563  1.00  0.00    -0.155 S  
HETATM   38  C   UNL     1      -8.352   6.389  71.298  1.00  0.00    -0.123 C  
HETATM   39  O   UNL     1      -8.592   8.477  72.895  1.00  0.00    -0.345 OA 
HETATM   40  O   UNL     1     -10.316   8.100  71.095  1.00  0.00    -0.195 OA 
ENDBRANCH  35  37
ENDBRANCH  24  35
ENDBRANCH  20  22
ENDBRANCH  17  20
ENDBRANCH  13  14
ENDBRANCH  12  13
ENDBRANCH  11  12
ENDBRANCH  10  11
ENDBRANCH   5  10
ENDBRANCH   4   5
ENDBRANCH   3   4
ENDBRANCH   2   3
TORSDOF 18
ENDMDL
MODEL      188
REMARK 921   NORMALIZED FREE ENERGY PREDICTED BY IDOCK:   -3.45 KCAL/MOL
REMARK 922        TOTAL FREE ENERGY PREDICTED BY IDOCK:   -9.81 KCAL/MOL
REMARK 923 INTER-LIGAND FREE ENERGY PREDICTED BY IDOCK:   -8.04 KCAL/MOL
REMARK 924 INTRA-LIGAND FREE ENERGY PREDICTED BY IDOCK:   -1.76 KCAL/MOL
REMARK 927      BINDING AFFINITY PREDICTED BY RF-SCORE:    0.00 PKD
ROOT
HETATM    1  C   UNL     1      -5.999  14.067  68.985  1.00  0.00    -0.091 C  
HETATM    2  C   UNL     1      -6.549  15.446  68.645  1.00  0.00    -0.098 C  
ENDROOT
BRANCH   2   3
HETATM    3  C   UNL     1      -7.848  15.701  69.408  1.00  0.00    -0.222 C  
BRANCH   3   4
HETATM    4  C   UNL     1      -8.629  16.940  68.945  1.00  0.00    -0.206 C  
BRANCH   4   5
HETATM    5  N   UNL     1      -9.974  16.745  68.346  1.00  0.00    -0.255 NA 
BRANCH   5   6
HETATM    6  C   UNL     1     -10.075  17.425  67.034  1.00  0.00    -0.313 C  
BRANCH   6   7
HETATM    7  C   UNL     1      -8.945  18.409  66.670  1.00  0.00    -0.295 C  
BRANCH   7   8
HETATM    8  C   UNL     1      -7.896  17.844  65.711  1.00  0.00     0.035 C  
HETATM    9  C   UNL     1      -6.491  18.073  66.253  1.00  0.00    -0.263 C  
ENDBRANCH   7   8
ENDBRANCH   6   7
ENDBRANCH   5   6
BRANCH   5  10
HETATM   10  C   UNL     1     -10.241  15.291  68.205  1.00  0.00    -0.226 C  
BRANCH  10  11
HETATM   11  C   UNL     1     -11.525  14.792  68.884  1.00  0.00    -0.321 C  
BRANCH  11  12
HETATM   12  C   UNL     1     -11.946  13.433  68.335  1.00  0.00    -0.324 C  
BRANCH  12  13
HETATM   13  O   UNL     1     -11.232  13.166  67.125  1.00  0.00    -0.275 OA 
BRANCH  13  14
HETATM   14  C   UNL     1     -10.497  12.010  67.108  1.00  0.00    -0.220 A  
HETATM   15  C   UNL     1      -9.545  11.629  68.057  1.00  0.00    -0.184 A  
HETATM   16  C   UNL     1      -8.798  10.455  67.884  1.00  0.00    -0.125 A  
HETATM   17  C   UNL     1      -9.005   9.644  66.762  1.00  0.00    -0.156 A  
HETATM   18  C   UNL     1     -10.032   9.973  65.868  1.00  0.00    -0.339 A  
HETATM   19  C   UNL     1     -10.745  11.168  66.023  1.00  0.00    -0.272 A  
BRANCH  17  20
HETATM   20  C   UNL     1      -8.096   8.475  66.529  1.00  0.00    -0.103 C  
HETATM   21  O   UNL     1      -7.221   8.578  65.673  1.00  0.00    -0.077 OA 
BRANCH  20  22
HETATM   22  C   UNL     1      -8.309   7.243  67.292  1.00  0.00    -0.119 A  
HETATM   23  C   UNL     1      -7.611   6.049  67.116  1.00  0.00    -0.092 A  
HETATM   24  C   UNL     1     -11.151   6.999  69.871  1.00  0.00    -0.264 A  
HETATM   25  O   UNL     1      -8.054   5.112  68.006  1.00  0.00    -0.097 OA 
HETATM   26  C   UNL     1     -10.889   5.683  70.244  1.00  0.00    -0.336 A  
HETATM   27  C   UNL     1      -9.087   5.649  68.693  1.00  0.00    -0.118 A  
HETATM   28  C   UNL     1      -9.316   6.955  68.285  1.00  0.00    -0.125 A  
HETATM   29  C   UNL     1      -9.845   4.972  69.646  1.00  0.00    -0.290 A  
HETATM   30  C   UNL     1     -10.408   7.631  68.867  1.00  0.00    -0.222 A  
BRANCH  23  31
HETATM   31  C   UNL     1      -6.630   5.497  66.135  1.00  0.00    -0.051 C  
BRANCH  31  32
HETATM   32  C   UNL     1      -7.035   4.262  65.331  1.00  0.00    -0.058 C  
BRANCH  32  33
HETATM   33  C   UNL     1      -6.138   4.197  64.082  1.00  0.00    -0.021 C  
HETATM   34  C   UNL     1      -6.019   5.510  63.330  1.00  0.00    -0.021 C  
ENDBRANCH  32  33
ENDBRANCH  31  32
ENDBRANCH  23  31
BRANCH  24  35
HETATM   35  N   UNL     1     -12.197   7.737  70.499  1.00  0.00    -0.491 N  
HETATM   36  H   UNL     1     -13.152   7.380  70.519  1.00  0.00     0.000 HD 
BRANCH  35  37
HETATM   37  S   UNL     1     -11.808   9.219  71.209  1.00  0.00    -0.368 S  
HETATM   38  C   UNL     1     -13.271   9.538  72.172  1.00  0.00    -0.451 C  
HETATM   39  O   UNL     1     -10.675   9.064  72.092  1.00  0.00    -0.332 OA 
HETATM   40  O   UNL     1     -11.786  10.171  70.118  1.00  0.00    -0.256 OA 
ENDBRANCH  35  37
ENDBRANCH  24  35
ENDBRANCH  20  22
ENDBRANCH  17  20
ENDBRANCH  13  14
ENDBRANCH  12  13
ENDBRANCH  11  12
ENDBRANCH  10  11
ENDBRANCH   5  10
ENDBRANCH   4   5
ENDBRANCH   3   4
ENDBRANCH   2   3
TORSDOF 18
ENDMDL
MODEL      189
REMARK 921   NORMALIZED FREE ENERGY PREDICTED BY IDOCK:   -3.45 KCAL/MOL
REMARK 922        TOTAL FREE ENERGY PREDICTED BY IDOCK:   -9.80 KCAL/MOL
REMARK 923 INTER-LIGAND FREE ENERGY PREDICTED BY IDOCK:   -7.96 KCAL/MOL
REMARK 924 INTRA-LIGAND FREE ENERGY PREDICTED BY IDOCK:   -1.84 KCAL/MOL
REMARK 927      BINDING AFFINITY PREDICTED BY RF-SCORE:    0.00 PKD
ROOT
HETATM    1  C   UNL     1     -13.226  15.388  71.168  1.00  0.00    -0.583 C  
HETATM    2  C   UNL     1     -12.087  14.975  70.244  1.00  0.00    -0.378 C  
ENDROOT
BRANCH   2   3
HETATM    3  C   UNL     1     -11.123  16.143  70.037  1.00  0.00    -0.363 C  
BRANCH   3   4
HETATM    4  C   UNL     1     -10.839  16.484  68.567  1.00  0.00    -0.349 C  
BRANCH   4   5
HETATM    5  N   UNL     1      -9.567  17.176  68.235  1.00  0.00    -0.270 NA 
BRANCH   5   6
HETATM    6  C   UNL     1      -9.708  18.644  68.372  1.00  0.00    -0.367 C  
BRANCH   6   7
HETATM    7  C   UNL     1     -10.670  19.345  67.392  1.00  0.00    -0.594 C  
BRANCH   7   8
HETATM    8  C   UNL     1     -10.018  19.812  66.089  1.00  0.00    -0.573 C  
HETATM    9  C   UNL     1      -8.500  19.833  66.223  1.00  0.00    -0.390 C  
ENDBRANCH   7   8
ENDBRANCH   6   7
ENDBRANCH   5   6
BRANCH   5  10
HETATM   10  C   UNL     1      -8.488  16.668  69.121  1.00  0.00    -0.115 C  
BRANCH  10  11
HETATM   11  C   UNL     1      -7.110  17.313  68.910  1.00  0.00    -0.242 C  
BRANCH  11  12
HETATM   12  C   UNL     1      -5.989  16.322  69.204  1.00  0.00    -0.141 C  
BRANCH  12  13
HETATM   13  O   UNL     1      -5.836  15.432  68.094  1.00  0.00    -0.112 OA 
BRANCH  13  14
HETATM   14  C   UNL     1      -5.860  14.096  68.394  1.00  0.00    -0.104 A  
HETATM   15  C   UNL     1      -5.342  13.067  67.602  1.00  0.00    -0.081 A  
HETATM   16  C   UNL     1      -5.503  11.727  67.982  1.00  0.00    -0.047 A  
HETATM   17  C   UNL     1      -6.176  11.403  69.166  1.00  0.00    -0.064 A  
HETATM   18  C   UNL     1      -6.600  12.437  70.008  1.00  0.00     0.200 A  
HETATM   19  C   UNL     1      -6.475  13.772  69.604  1.00  0.00    -0.094 A  
BRANCH  17  20
HETATM   20  C   UNL     1      -6.458   9.963  69.474  1.00  0.00    -0.048 C  
HETATM   21  O   UNL     1      -6.053   9.503  70.538  1.00  0.00    -0.050 OA 
BRANCH  20  22
HETATM   22  C   UNL     1      -7.162   9.147  68.481  1.00  0.00    -0.073 A  
HETATM   23  C   UNL     1      -7.039   7.765  68.333  1.00  0.00    -0.077 A  
HETATM   24  C   UNL     1      -9.389  10.790  65.812  1.00  0.00    -0.203 A  
HETATM   25  O   UNL     1      -7.850   7.330  67.324  1.00  0.00    -0.107 OA 
HETATM   26  C   UNL     1      -9.758   9.602  65.186  1.00  0.00    -0.287 A  
HETATM   27  C   UNL     1      -8.426   8.413  66.756  1.00  0.00    -0.114 A  
HETATM   28  C   UNL     1      -8.024   9.573  67.405  1.00  0.00    -0.106 A  
HETATM   29  C   UNL     1      -9.268   8.377  65.648  1.00  0.00    -0.118 A  
HETATM   30  C   UNL     1      -8.493  10.797  66.887  1.00  0.00    -0.131 A  
BRANCH  23  31
HETATM   31  C   UNL     1      -6.166   6.686  68.881  1.00  0.00    -0.027 C  
BRANCH  31  32
HETATM   32  C   UNL     1      -6.838   5.485  69.543  1.00  0.00    -0.061 C  
BRANCH  32  33
HETATM   33  C   UNL     1      -6.615   4.260  68.638  1.00  0.00    -0.045 C  
HETATM   34  C   UNL     1      -5.812   3.146  69.282  1.00  0.00    -0.023 C  
ENDBRANCH  32  33
ENDBRANCH  31  32
ENDBRANCH  23  31
BRANCH  24  35
HETATM   35  N   UNL     1      -9.909  12.039  65.362  1.00  0.00    -0.275 N  
HETATM   36  H   UNL     1      -9.577  12.465  64.496  1.00  0.00     0.000 HD 
BRANCH  35  37
HETATM   37  S   UNL     1     -11.092  12.792  66.303  1.00  0.00    -0.300 S  
HETATM   38  C   UNL     1     -11.971  13.730  65.071  1.00  0.00    -0.383 C  
HETATM   39  O   UNL     1     -11.975  11.802  66.875  1.00  0.00    -0.605 OA 
HETATM   40  O   UNL     1     -10.374  13.733  67.138  1.00  0.00    -0.258 OA 
ENDBRANCH  35  37
ENDBRANCH  24  35
ENDBRANCH  20  22
ENDBRANCH  17  20
ENDBRANCH  13  14
ENDBRANCH  12  13
ENDBRANCH  11  12
ENDBRANCH  10  11
ENDBRANCH   5  10
ENDBRANCH   4   5
ENDBRANCH   3   4
ENDBRANCH   2   3
TORSDOF 18
ENDMDL
MODEL      190
REMARK 921   NORMALIZED FREE ENERGY PREDICTED BY IDOCK:   -3.40 KCAL/MOL
REMARK 922        TOTAL FREE ENERGY PREDICTED BY IDOCK:   -9.69 KCAL/MOL
REMARK 923 INTER-LIGAND FREE ENERGY PREDICTED BY IDOCK:   -7.88 KCAL/MOL
REMARK 924 INTRA-LIGAND FREE ENERGY PREDICTED BY IDOCK:   -1.81 KCAL/MOL
REMARK 927      BINDING AFFINITY PREDICTED BY RF-SCORE:    0.00 PKD
ROOT
HETATM    1  C   UNL     1     -12.376  15.098  64.272  1.00  0.00    -0.198 C  
HETATM    2  C   UNL     1     -11.644  13.775  64.460  1.00  0.00    -0.413 C  
ENDROOT
BRANCH   2   3
HETATM    3  C   UNL     1     -10.224  14.024  64.968  1.00  0.00    -0.395 C  
BRANCH   3   4
HETATM    4  C   UNL     1     -10.095  15.191  65.958  1.00  0.00    -0.302 C  
BRANCH   4   5
HETATM    5  N   UNL     1      -8.747  15.527  66.482  1.00  0.00    -0.289 NA 
BRANCH   5   6
HETATM    6  C   UNL     1      -8.329  16.880  66.045  1.00  0.00    -0.145 C  
BRANCH   6   7
HETATM    7  C   UNL     1      -8.843  18.071  66.878  1.00  0.00    -0.266 C  
BRANCH   7   8
HETATM    8  C   UNL     1     -10.094  18.747  66.312  1.00  0.00    -0.447 C  
HETATM    9  C   UNL     1     -10.702  19.698  67.335  1.00  0.00    -0.563 C  
ENDBRANCH   7   8
ENDBRANCH   6   7
ENDBRANCH   5   6
BRANCH   5  10
HETATM   10  C   UNL     1      -8.760  15.436  67.964  1.00  0.00    -0.160 C  
BRANCH  10  11
HETATM   11  C   UNL     1      -9.414  14.170  68.536  1.00  0.00    -0.202 C  
BRANCH  11  12
HETATM   12  C   UNL     1      -8.474  12.973  68.441  1.00  0.00    -0.118 C  
BRANCH  12  13
HETATM   13  O   UNL     1      -8.663  12.316  67.185  1.00  0.00    -0.179 OA 
BRANCH  13  14
HETATM   14  C   UNL     1      -9.161  11.041  67.248  1.00  0.00    -0.138 A  
HETATM   15  C   UNL     1      -9.651  10.407  68.392  1.00  0.00    -0.153 A  
HETATM   16  C   UNL     1     -10.059   9.066  68.343  1.00  0.00    -0.216 A  
HETATM   17  C   UNL     1      -9.989   8.349  67.142  1.00  0.00    -0.304 A  
HETATM   18  C   UNL     1      -9.597   9.018  65.976  1.00  0.00    -0.342 A  
HETATM   19  C   UNL     1      -9.151  10.344  66.039  1.00  0.00    -0.187 A  
BRANCH  17  20
HETATM   20  C   UNL     1     -10.293   6.881  67.150  1.00  0.00    -0.269 C  
HETATM   21  O   UNL     1     -11.426   6.519  66.845  1.00  0.00    -0.212 OA 
BRANCH  20  22
HETATM   22  C   UNL     1      -9.252   5.939  67.566  1.00  0.00    -0.108 A  
HETATM   23  C   UNL     1      -8.324   5.330  66.721  1.00  0.00    -0.108 A  
HETATM   24  C   UNL     1      -9.044   4.727  71.210  1.00  0.00    -0.138 A  
HETATM   25  O   UNL     1      -7.491   4.526  67.444  1.00  0.00    -0.073 OA 
HETATM   26  C   UNL     1      -7.943   3.896  71.019  1.00  0.00    -0.063 A  
HETATM   27  C   UNL     1      -7.917   4.532  68.728  1.00  0.00    -0.078 A  
HETATM   28  C   UNL     1      -9.018   5.365  68.870  1.00  0.00    -0.130 A  
HETATM   29  C   UNL     1      -7.358   3.775  69.755  1.00  0.00    -0.042 A  
HETATM   30  C   UNL     1      -9.618   5.428  70.144  1.00  0.00    -0.235 A  
BRANCH  23  31
HETATM   31  C   UNL     1      -8.104   5.218  65.249  1.00  0.00    -0.123 C  
BRANCH  31  32
HETATM   32  C   UNL     1      -9.109   4.408  64.432  1.00  0.00    -0.152 C  
BRANCH  32  33
HETATM   33  C   UNL     1      -9.291   3.045  65.124  1.00  0.00    -0.133 C  
HETATM   34  C   UNL     1      -8.950   1.851  64.251  1.00  0.00    -0.108 C  
ENDBRANCH  32  33
ENDBRANCH  31  32
ENDBRANCH  23  31
BRANCH  24  35
HETATM   35  N   UNL     1      -9.625   4.875  72.503  1.00  0.00    -0.142 N  
HETATM   36  H   UNL     1      -9.903   4.060  73.051  1.00  0.00     0.000 HD 
BRANCH  35  37
HETATM   37  S   UNL     1      -9.840   6.439  73.103  1.00  0.00    -0.176 S  
HETATM   38  C   UNL     1      -8.365   7.243  72.513  1.00  0.00    -0.107 C  
HETATM   39  O   UNL     1     -10.998   7.049  72.492  1.00  0.00    -0.239 OA 
HETATM   40  O   UNL     1      -9.726   6.316  74.542  1.00  0.00    -0.230 OA 
ENDBRANCH  35  37
ENDBRANCH  24  35
ENDBRANCH  20  22
ENDBRANCH  17  20
ENDBRANCH  13  14
ENDBRANCH  12  13
ENDBRANCH  11  12
ENDBRANCH  10  11
ENDBRANCH   5  10
ENDBRANCH   4   5
ENDBRANCH   3   4
ENDBRANCH   2   3
TORSDOF 18
ENDMDL
MODEL      191
REMARK 921   NORMALIZED FREE ENERGY PREDICTED BY IDOCK:   -3.31 KCAL/MOL
REMARK 922        TOTAL FREE ENERGY PREDICTED BY IDOCK:   -9.51 KCAL/MOL
REMARK 923 INTER-LIGAND FREE ENERGY PREDICTED BY IDOCK:   -7.48 KCAL/MOL
REMARK 924 INTRA-LIGAND FREE ENERGY PREDICTED BY IDOCK:   -2.03 KCAL/MOL
REMARK 927      BINDING AFFINITY PREDICTED BY RF-SCORE:    0.00 PKD
ROOT
HETATM    1  C   UNL     1      -9.432   2.609  71.009  1.00  0.00    -0.224 C  
HETATM    2  C   UNL     1      -7.913   2.543  70.917  1.00  0.00    -0.055 C  
ENDROOT
BRANCH   2   3
HETATM    3  C   UNL     1      -7.344   3.914  70.551  1.00  0.00    -0.041 C  
BRANCH   3   4
HETATM    4  C   UNL     1      -7.309   4.210  69.044  1.00  0.00    -0.055 C  
BRANCH   4   5
HETATM    5  N   UNL     1      -6.991   3.098  68.113  1.00  0.00    -0.049 NA 
BRANCH   5   6
HETATM    6  C   UNL     1      -8.210   2.330  67.766  1.00  0.00    -0.065 C  
BRANCH   6   7
HETATM    7  C   UNL     1      -8.986   2.784  66.514  1.00  0.00    -0.159 C  
BRANCH   7   8
HETATM    8  C   UNL     1      -9.916   3.976  66.742  1.00  0.00    -0.071 C  
HETATM    9  C   UNL     1     -10.533   4.438  65.428  1.00  0.00    -0.219 C  
ENDBRANCH   7   8
ENDBRANCH   6   7
ENDBRANCH   5   6
BRANCH   5  10
HETATM   10  C   UNL     1      -6.353   3.649  66.891  1.00  0.00    -0.036 C  
BRANCH  10  11
HETATM   11  C   UNL     1      -5.570   4.954  67.093  1.00  0.00    -0.013 C  
BRANCH  11  12
HETATM   12  C   UNL     1      -5.560   5.793  65.819  1.00  0.00    -0.013 C  
BRANCH  12  13
HETATM   13  O   UNL     1      -6.884   6.258  65.545  1.00  0.00    -0.050 OA 
BRANCH  13  14
HETATM   14  C   UNL     1      -7.368   7.218  66.394  1.00  0.00    -0.080 A  
HETATM   15  C   UNL     1      -8.549   7.136  67.138  1.00  0.00    -0.121 A  
HETATM   16  C   UNL     1      -8.979   8.223  67.912  1.00  0.00    -0.134 A  
HETATM   17  C   UNL     1      -8.224   9.402  67.957  1.00  0.00    -0.114 A  
HETATM   18  C   UNL     1      -6.991   9.442  67.295  1.00  0.00    -0.085 A  
HETATM   19  C   UNL     1      -6.587   8.370  66.490  1.00  0.00    -0.056 A  
BRANCH  17  20
HETATM   20  C   UNL     1      -8.779  10.596  68.674  1.00  0.00    -0.148 C  
HETATM   21  O   UNL     1      -8.006  11.493  68.999  1.00  0.00    -0.094 OA 
BRANCH  20  22
HETATM   22  C   UNL     1     -10.206  10.630  69.003  1.00  0.00    -0.231 A  
HETATM   23  C   UNL     1     -11.174  11.385  68.340  1.00  0.00    -0.263 A  
HETATM   24  C   UNL     1     -11.558   8.744  72.070  1.00  0.00    -0.366 A  
HETATM   25  O   UNL     1     -12.401  11.164  68.897  1.00  0.00    -0.512 OA 
HETATM   26  C   UNL     1     -12.886   9.126  71.895  1.00  0.00    -0.466 A  
HETATM   27  C   UNL     1     -12.233  10.352  69.965  1.00  0.00    -0.189 A  
HETATM   28  C   UNL     1     -10.897  10.004  70.105  1.00  0.00    -0.365 A  
HETATM   29  C   UNL     1     -13.249   9.956  70.831  1.00  0.00    -0.309 A  
HETATM   30  C   UNL     1     -10.551   9.208  71.216  1.00  0.00    -0.399 A  
BRANCH  23  31
HETATM   31  C   UNL     1     -11.194  12.454  67.299  1.00  0.00    -0.357 C  
BRANCH  31  32
HETATM   32  C   UNL     1     -10.472  13.766  67.604  1.00  0.00    -0.242 C  
BRANCH  32  33
HETATM   33  C   UNL     1      -9.322  13.918  66.592  1.00  0.00    -0.282 C  
HETATM   34  C   UNL     1      -8.898  15.353  66.340  1.00  0.00    -0.340 C  
ENDBRANCH  32  33
ENDBRANCH  31  32
ENDBRANCH  23  31
BRANCH  24  35
HETATM   35  N   UNL     1     -11.188   7.874  73.137  1.00  0.00    -0.449 N  
HETATM   36  H   UNL     1     -11.524   8.035  74.086  1.00  0.00     0.000 HD 
BRANCH  35  37
HETATM   37  S   UNL     1     -10.176   6.569  72.783  1.00  0.00    -0.195 S  
HETATM   38  C   UNL     1     -11.260   5.193  73.103  1.00  0.00    -0.330 C  
HETATM   39  O   UNL     1      -9.818   6.584  71.383  1.00  0.00    -0.176 OA 
HETATM   40  O   UNL     1      -9.163   6.578  73.818  1.00  0.00    -0.132 OA 
ENDBRANCH  35  37
ENDBRANCH  24  35
ENDBRANCH  20  22
ENDBRANCH  17  20
ENDBRANCH  13  14
ENDBRANCH  12  13
ENDBRANCH  11  12
ENDBRANCH  10  11
ENDBRANCH   5  10
ENDBRANCH   4   5
ENDBRANCH   3   4
ENDBRANCH   2   3
TORSDOF 18
ENDMDL
MODEL      192
REMARK 921   NORMALIZED FREE ENERGY PREDICTED BY IDOCK:   -3.30 KCAL/MOL
REMARK 922        TOTAL FREE ENERGY PREDICTED BY IDOCK:   -9.50 KCAL/MOL
REMARK 923 INTER-LIGAND FREE ENERGY PREDICTED BY IDOCK:   -7.97 KCAL/MOL
REMARK 924 INTRA-LIGAND FREE ENERGY PREDICTED BY IDOCK:   -1.53 KCAL/MOL
REMARK 927      BINDING AFFINITY PREDICTED BY RF-SCORE:    0.00 PKD
ROOT
HETATM    1  C   UNL     1     -11.441  15.975  67.719  1.00  0.00    -0.080 C  
HETATM    2  C   UNL     1     -10.652  15.072  66.779  1.00  0.00    -0.301 C  
ENDROOT
BRANCH   2   3
HETATM    3  C   UNL     1     -11.583  14.448  65.739  1.00  0.00    -0.353 C  
BRANCH   3   4
HETATM    4  C   UNL     1     -12.070  13.033  66.085  1.00  0.00    -0.409 C  
BRANCH   4   5
HETATM    5  N   UNL     1     -11.073  11.933  66.125  1.00  0.00    -0.316 NA 
BRANCH   5   6
HETATM    6  C   UNL     1      -9.697  12.457  65.960  1.00  0.00    -0.244 C  
BRANCH   6   7
HETATM    7  C   UNL     1      -8.682  12.109  67.067  1.00  0.00    -0.190 C  
BRANCH   7   8
HETATM    8  C   UNL     1      -7.661  13.210  67.360  1.00  0.00    -0.151 C  
HETATM    9  C   UNL     1      -6.757  12.812  68.520  1.00  0.00    -0.090 C  
ENDBRANCH   7   8
ENDBRANCH   6   7
ENDBRANCH   5   6
BRANCH   5  10
HETATM   10  C   UNL     1     -11.204  11.199  67.410  1.00  0.00    -0.294 C  
BRANCH  10  11
HETATM   11  C   UNL     1     -12.010  11.923  68.498  1.00  0.00    -0.273 C  
BRANCH  11  12
HETATM   12  C   UNL     1     -11.304  11.848  69.848  1.00  0.00    -0.096 C  
BRANCH  12  13
HETATM   13  O   UNL     1     -12.056  11.014  70.733  1.00  0.00    -0.335 OA 
BRANCH  13  14
HETATM   14  C   UNL     1     -11.512   9.785  71.001  1.00  0.00    -0.383 A  
HETATM   15  C   UNL     1     -12.179   8.699  71.575  1.00  0.00    -0.368 A  
HETATM   16  C   UNL     1     -11.487   7.517  71.875  1.00  0.00    -0.307 A  
HETATM   17  C   UNL     1     -10.120   7.407  71.595  1.00  0.00    -0.200 A  
HETATM   18  C   UNL     1      -9.479   8.456  70.926  1.00  0.00    -0.205 A  
HETATM   19  C   UNL     1     -10.164   9.650  70.666  1.00  0.00    -0.346 A  
BRANCH  17  20
HETATM   20  C   UNL     1      -9.377   6.190  72.057  1.00  0.00    -0.149 C  
HETATM   21  O   UNL     1      -8.701   6.272  73.079  1.00  0.00    -0.125 OA 
BRANCH  20  22
HETATM   22  C   UNL     1      -9.443   4.966  71.255  1.00  0.00    -0.214 A  
HETATM   23  C   UNL     1      -9.362   3.665  71.751  1.00  0.00    -0.129 A  
HETATM   24  C   UNL     1      -9.610   5.144  67.417  1.00  0.00    -0.139 A  
HETATM   25  O   UNL     1      -9.478   2.767  70.729  1.00  0.00    -0.141 OA 
HETATM   26  C   UNL     1      -9.641   3.766  67.214  1.00  0.00    -0.213 A  
HETATM   27  C   UNL     1      -9.542   3.462  69.570  1.00  0.00    -0.081 A  
HETATM   28  C   UNL     1      -9.500   4.826  69.819  1.00  0.00    -0.233 A  
HETATM   29  C   UNL     1      -9.597   2.889  68.302  1.00  0.00    -0.118 A  
HETATM   30  C   UNL     1      -9.494   5.686  68.702  1.00  0.00    -0.152 A  
BRANCH  23  31
HETATM   31  C   UNL     1      -9.043   3.017  73.057  1.00  0.00    -0.107 C  
BRANCH  31  32
HETATM   32  C   UNL     1      -9.433   1.552  73.246  1.00  0.00    -0.089 C  
BRANCH  32  33
HETATM   33  C   UNL     1     -10.710   1.510  74.104  1.00  0.00    -0.181 C  
HETATM   34  C   UNL     1     -11.942   2.069  73.418  1.00  0.00    -0.125 C  
ENDBRANCH  32  33
ENDBRANCH  31  32
ENDBRANCH  23  31
BRANCH  24  35
HETATM   35  N   UNL     1      -9.683   6.041  66.312  1.00  0.00    -0.306 N  
HETATM   36  H   UNL     1     -10.504   6.062  65.706  1.00  0.00     0.000 HD 
BRANCH  35  37
HETATM   37  S   UNL     1      -8.372   7.069  66.035  1.00  0.00    -0.139 S  
HETATM   38  C   UNL     1      -9.202   8.611  65.712  1.00  0.00    -0.181 C  
HETATM   39  O   UNL     1      -7.577   7.192  67.234  1.00  0.00    -0.100 OA 
HETATM   40  O   UNL     1      -7.788   6.617  64.789  1.00  0.00    -0.104 OA 
ENDBRANCH  35  37
ENDBRANCH  24  35
ENDBRANCH  20  22
ENDBRANCH  17  20
ENDBRANCH  13  14
ENDBRANCH  12  13
ENDBRANCH  11  12
ENDBRANCH  10  11
ENDBRANCH   5  10
ENDBRANCH   4   5
ENDBRANCH   3   4
ENDBRANCH   2   3
TORSDOF 18
ENDMDL
MODEL      193
REMARK 921   NORMALIZED FREE ENERGY PREDICTED BY IDOCK:   -3.27 KCAL/MOL
REMARK 922        TOTAL FREE ENERGY PREDICTED BY IDOCK:   -9.43 KCAL/MOL
REMARK 923 INTER-LIGAND FREE ENERGY PREDICTED BY IDOCK:   -7.63 KCAL/MOL
REMARK 924 INTRA-LIGAND FREE ENERGY PREDICTED BY IDOCK:   -1.80 KCAL/MOL
REMARK 927      BINDING AFFINITY PREDICTED BY RF-SCORE:    0.00 PKD
ROOT
HETATM    1  C   UNL     1     -11.032   9.021  71.830  1.00  0.00    -0.443 C  
HETATM    2  C   UNL     1     -11.772   7.841  72.448  1.00  0.00    -0.394 C  
ENDROOT
BRANCH   2   3
HETATM    3  C   UNL     1     -11.630   6.604  71.563  1.00  0.00    -0.357 C  
BRANCH   3   4
HETATM    4  C   UNL     1     -10.804   5.466  72.182  1.00  0.00    -0.214 C  
BRANCH   4   5
HETATM    5  N   UNL     1      -9.327   5.505  72.034  1.00  0.00    -0.147 NA 
BRANCH   5   6
HETATM    6  C   UNL     1      -8.665   5.645  73.352  1.00  0.00    -0.117 C  
BRANCH   6   7
HETATM    7  C   UNL     1      -7.464   6.608  73.429  1.00  0.00    -0.087 C  
BRANCH   7   8
HETATM    8  C   UNL     1      -7.593   7.854  72.551  1.00  0.00    -0.129 C  
HETATM    9  C   UNL     1      -6.221   8.342  72.100  1.00  0.00    -0.060 C  
ENDBRANCH   7   8
ENDBRANCH   6   7
ENDBRANCH   5   6
BRANCH   5  10
HETATM   10  C   UNL     1      -8.871   4.270  71.346  1.00  0.00    -0.113 C  
BRANCH  10  11
HETATM   11  C   UNL     1      -9.516   4.006  69.978  1.00  0.00    -0.260 C  
BRANCH  11  12
HETATM   12  C   UNL     1      -9.259   5.161  69.016  1.00  0.00    -0.117 C  
BRANCH  12  13
HETATM   13  O   UNL     1     -10.213   6.200  69.251  1.00  0.00    -0.173 OA 
BRANCH  13  14
HETATM   14  C   UNL     1      -9.885   7.435  68.758  1.00  0.00    -0.164 A  
HETATM   15  C   UNL     1     -10.691   8.235  67.944  1.00  0.00    -0.138 A  
HETATM   16  C   UNL     1     -10.207   9.449  67.436  1.00  0.00    -0.298 A  
HETATM   17  C   UNL     1      -8.911   9.880  67.747  1.00  0.00    -0.134 A  
HETATM   18  C   UNL     1      -8.145   9.128  68.646  1.00  0.00    -0.102 A  
HETATM   19  C   UNL     1      -8.617   7.896  69.117  1.00  0.00    -0.138 A  
BRANCH  17  20
HETATM   20  C   UNL     1      -8.370  11.105  67.076  1.00  0.00    -0.144 C  
HETATM   21  O   UNL     1      -7.336  11.602  67.514  1.00  0.00    -0.103 OA 
BRANCH  20  22
HETATM   22  C   UNL     1      -9.112  11.693  65.958  1.00  0.00    -0.188 A  
HETATM   23  C   UNL     1      -9.165  11.182  64.661  1.00  0.00    -0.119 A  
HETATM   24  C   UNL     1     -10.931  15.057  66.363  1.00  0.00    -0.336 A  
HETATM   25  O   UNL     1      -9.961  11.970  63.880  1.00  0.00    -0.329 OA 
HETATM   26  C   UNL     1     -11.415  15.112  65.058  1.00  0.00    -0.339 A  
HETATM   27  C   UNL     1     -10.353  13.031  64.622  1.00  0.00    -0.352 A  
HETATM   28  C   UNL     1      -9.842  12.937  65.910  1.00  0.00    -0.239 A  
HETATM   29  C   UNL     1     -11.121  14.091  64.150  1.00  0.00    -0.062 A  
HETATM   30  C   UNL     1     -10.111  14.006  66.789  1.00  0.00    -0.264 A  
BRANCH  23  31
HETATM   31  C   UNL     1      -8.478  10.107  63.887  1.00  0.00    -0.181 C  
BRANCH  31  32
HETATM   32  C   UNL     1      -8.779   8.654  64.254  1.00  0.00     0.022 C  
BRANCH  32  33
HETATM   33  C   UNL     1      -7.712   7.768  63.587  1.00  0.00    -0.131 C  
HETATM   34  C   UNL     1      -6.921   6.906  64.554  1.00  0.00    -0.055 C  
ENDBRANCH  32  33
ENDBRANCH  31  32
ENDBRANCH  23  31
BRANCH  24  35
HETATM   35  N   UNL     1     -11.253  16.082  67.300  1.00  0.00    -0.125 N  
HETATM   36  H   UNL     1     -12.223  16.310  67.517  1.00  0.00     0.000 HD 
BRANCH  35  37
HETATM   37  S   UNL     1      -9.980  16.908  68.041  1.00  0.00    -0.292 S  
HETATM   38  C   UNL     1      -9.776  15.962  69.536  1.00  0.00    -0.255 C  
HETATM   39  O   UNL     1      -8.784  16.800  67.237  1.00  0.00    -0.194 OA 
HETATM   40  O   UNL     1     -10.524  18.198  68.411  1.00  0.00    -0.359 OA 
ENDBRANCH  35  37
ENDBRANCH  24  35
ENDBRANCH  20  22
ENDBRANCH  17  20
ENDBRANCH  13  14
ENDBRANCH  12  13
ENDBRANCH  11  12
ENDBRANCH  10  11
ENDBRANCH   5  10
ENDBRANCH   4   5
ENDBRANCH   3   4
ENDBRANCH   2   3
TORSDOF 18
ENDMDL
MODEL      194
REMARK 921   NORMALIZED FREE ENERGY PREDICTED BY IDOCK:   -3.26 KCAL/MOL
REMARK 922        TOTAL FREE ENERGY PREDICTED BY IDOCK:   -9.41 KCAL/MOL
REMARK 923 INTER-LIGAND FREE ENERGY PREDICTED BY IDOCK:   -7.64 KCAL/MOL
REMARK 924 INTRA-LIGAND FREE ENERGY PREDICTED BY IDOCK:   -1.77 KCAL/MOL
REMARK 927      BINDING AFFINITY PREDICTED BY RF-SCORE:    0.00 PKD
ROOT
HETATM    1  C   UNL     1      -5.654  17.707  69.902  1.00  0.00    -0.238 C  
HETATM    2  C   UNL     1      -5.971  16.558  68.953  1.00  0.00    -0.143 C  
ENDROOT
BRANCH   2   3
HETATM    3  C   UNL     1      -7.471  16.263  68.962  1.00  0.00    -0.220 C  
BRANCH   3   4
HETATM    4  C   UNL     1      -8.031  15.757  67.624  1.00  0.00    -0.146 C  
BRANCH   4   5
HETATM    5  N   UNL     1      -9.490  15.878  67.379  1.00  0.00    -0.218 NA 
BRANCH   5   6
HETATM    6  C   UNL     1      -9.775  16.923  66.368  1.00  0.00    -0.284 C  
BRANCH   6   7
HETATM    7  C   UNL     1      -8.882  18.179  66.396  1.00  0.00    -0.255 C  
BRANCH   7   8
HETATM    8  C   UNL     1      -9.650  19.502  66.450  1.00  0.00    -0.469 C  
HETATM    9  C   UNL     1     -10.745  19.446  67.508  1.00  0.00    -0.570 C  
ENDBRANCH   7   8
ENDBRANCH   6   7
ENDBRANCH   5   6
BRANCH   5  10
HETATM   10  C   UNL     1     -10.023  14.563  66.938  1.00  0.00    -0.259 C  
BRANCH  10  11
HETATM   11  C   UNL     1      -9.048  13.384  67.069  1.00  0.00    -0.245 C  
BRANCH  11  12
HETATM   12  C   UNL     1      -9.441  12.472  68.226  1.00  0.00    -0.201 C  
BRANCH  12  13
HETATM   13  O   UNL     1      -8.548  11.356  68.278  1.00  0.00    -0.143 OA 
BRANCH  13  14
HETATM   14  C   UNL     1      -9.068  10.156  67.871  1.00  0.00    -0.131 A  
HETATM   15  C   UNL     1     -10.264   9.974  67.171  1.00  0.00    -0.284 A  
HETATM   16  C   UNL     1     -10.730   8.684  66.882  1.00  0.00    -0.152 A  
HETATM   17  C   UNL     1      -9.998   7.560  67.284  1.00  0.00    -0.273 A  
HETATM   18  C   UNL     1      -8.750   7.747  67.892  1.00  0.00    -0.124 A  
HETATM   19  C   UNL     1      -8.309   9.036  68.216  1.00  0.00    -0.121 A  
BRANCH  17  20
HETATM   20  C   UNL     1     -10.590   6.197  67.091  1.00  0.00    -0.305 C  
HETATM   21  O   UNL     1     -11.641   6.101  66.463  1.00  0.00     0.297 OA 
BRANCH  20  22
HETATM   22  C   UNL     1      -9.925   5.039  67.693  1.00  0.00    -0.202 A  
HETATM   23  C   UNL     1      -9.295   4.010  66.993  1.00  0.00    -0.183 A  
HETATM   24  C   UNL     1     -10.025   4.477  71.496  1.00  0.00    -0.189 A  
HETATM   25  O   UNL     1      -8.767   3.104  67.868  1.00  0.00    -0.092 OA 
HETATM   26  C   UNL     1      -9.286   3.297  71.483  1.00  0.00    -0.204 A  
HETATM   27  C   UNL     1      -9.120   3.479  69.118  1.00  0.00    -0.140 A  
HETATM   28  C   UNL     1      -9.860   4.653  69.082  1.00  0.00    -0.242 A  
HETATM   29  C   UNL     1      -8.824   2.765  70.276  1.00  0.00    -0.147 A  
HETATM   30  C   UNL     1     -10.357   5.139  70.308  1.00  0.00    -0.331 A  
BRANCH  23  31
HETATM   31  C   UNL     1      -9.177   3.576  65.570  1.00  0.00    -0.156 C  
BRANCH  31  32
HETATM   32  C   UNL     1      -8.542   4.546  64.574  1.00  0.00    -0.140 C  
BRANCH  32  33
HETATM   33  C   UNL     1      -7.278   5.133  65.228  1.00  0.00    -0.067 C  
HETATM   34  C   UNL     1      -7.104   6.626  65.019  1.00  0.00    -0.064 C  
ENDBRANCH  32  33
ENDBRANCH  31  32
ENDBRANCH  23  31
BRANCH  24  35
HETATM   35  N   UNL     1     -10.475   5.038  72.727  1.00  0.00    -0.201 N  
HETATM   36  H   UNL     1     -10.729   4.441  73.515  1.00  0.00     0.000 HD 
BRANCH  35  37
HETATM   37  S   UNL     1     -10.574   6.720  72.845  1.00  0.00    -0.270 S  
HETATM   38  C   UNL     1      -8.916   7.197  72.402  1.00  0.00    -0.127 C  
HETATM   39  O   UNL     1     -11.500   7.232  71.861  1.00  0.00    -0.253 OA 
HETATM   40  O   UNL     1     -10.747   6.996  74.256  1.00  0.00    -0.146 OA 
ENDBRANCH  35  37
ENDBRANCH  24  35
ENDBRANCH  20  22
ENDBRANCH  17  20
ENDBRANCH  13  14
ENDBRANCH  12  13
ENDBRANCH  11  12
ENDBRANCH  10  11
ENDBRANCH   5  10
ENDBRANCH   4   5
ENDBRANCH   3   4
ENDBRANCH   2   3
TORSDOF 18
ENDMDL
MODEL      195
REMARK 921   NORMALIZED FREE ENERGY PREDICTED BY IDOCK:   -3.25 KCAL/MOL
REMARK 922        TOTAL FREE ENERGY PREDICTED BY IDOCK:   -9.40 KCAL/MOL
REMARK 923 INTER-LIGAND FREE ENERGY PREDICTED BY IDOCK:   -7.75 KCAL/MOL
REMARK 924 INTRA-LIGAND FREE ENERGY PREDICTED BY IDOCK:   -1.65 KCAL/MOL
REMARK 927      BINDING AFFINITY PREDICTED BY RF-SCORE:    0.00 PKD
ROOT
HETATM    1  C   UNL     1     -12.894   9.850  70.999  1.00  0.00    -0.417 C  
HETATM    2  C   UNL     1     -11.540   9.462  71.578  1.00  0.00    -0.467 C  
ENDROOT
BRANCH   2   3
HETATM    3  C   UNL     1     -10.434   9.710  70.553  1.00  0.00    -0.367 C  
BRANCH   3   4
HETATM    4  C   UNL     1      -9.063   9.132  70.939  1.00  0.00    -0.252 C  
BRANCH   4   5
HETATM    5  N   UNL     1      -8.599   7.899  70.253  1.00  0.00    -0.135 NA 
BRANCH   5   6
HETATM    6  C   UNL     1      -9.473   7.569  69.104  1.00  0.00    -0.150 C  
BRANCH   6   7
HETATM    7  C   UNL     1      -9.959   6.109  68.996  1.00  0.00    -0.188 C  
BRANCH   7   8
HETATM    8  C   UNL     1     -10.465   5.711  67.608  1.00  0.00    -0.284 C  
HETATM    9  C   UNL     1      -9.510   4.723  66.949  1.00  0.00    -0.165 C  
ENDBRANCH   7   8
ENDBRANCH   6   7
ENDBRANCH   5   6
BRANCH   5  10
HETATM   10  C   UNL     1      -7.195   8.086  69.807  1.00  0.00    -0.065 C  
BRANCH  10  11
HETATM   11  C   UNL     1      -6.284   8.823  70.800  1.00  0.00    -0.039 C  
BRANCH  11  12
HETATM   12  C   UNL     1      -5.483   9.918  70.105  1.00  0.00    -0.043 C  
BRANCH  12  13
HETATM   13  O   UNL     1      -6.209  10.390  68.967  1.00  0.00    -0.043 OA 
BRANCH  13  14
HETATM   14  C   UNL     1      -6.324  11.751  68.854  1.00  0.00    -0.067 A  
HETATM   15  C   UNL     1      -7.261  12.553  69.512  1.00  0.00     0.359 A  
HETATM   16  C   UNL     1      -7.329  13.929  69.249  1.00  0.00     0.054 A  
HETATM   17  C   UNL     1      -6.451  14.518  68.331  1.00  0.00    -0.102 A  
HETATM   18  C   UNL     1      -5.447  13.731  67.754  1.00  0.00    -0.047 A  
HETATM   19  C   UNL     1      -5.410  12.351  67.987  1.00  0.00    -0.073 A  
BRANCH  17  20
HETATM   20  C   UNL     1      -6.640  15.958  67.963  1.00  0.00    -0.131 C  
HETATM   21  O   UNL     1      -5.816  16.776  68.363  1.00  0.00    -0.122 OA 
BRANCH  20  22
HETATM   22  C   UNL     1      -7.819  16.347  67.185  1.00  0.00    -0.223 A  
HETATM   23  C   UNL     1      -8.262  17.653  66.981  1.00  0.00    -0.220 A  
HETATM   24  C   UNL     1     -10.161  13.678  65.708  1.00  0.00    -0.298 A  
HETATM   25  O   UNL     1      -9.378  17.651  66.194  1.00  0.00    -0.445 OA 
HETATM   26  C   UNL     1     -11.049  14.578  65.124  1.00  0.00    -0.374 A  
HETATM   27  C   UNL     1      -9.719  16.363  65.961  1.00  0.00    -0.326 A  
HETATM   28  C   UNL     1      -8.814  15.504  66.566  1.00  0.00    -0.348 A  
HETATM   29  C   UNL     1     -10.846  15.956  65.251  1.00  0.00    -0.401 A  
HETATM   30  C   UNL     1      -9.071  14.121  66.465  1.00  0.00    -0.198 A  
BRANCH  23  31
HETATM   31  C   UNL     1      -7.925  19.010  67.504  1.00  0.00    -0.276 C  
BRANCH  31  32
HETATM   32  C   UNL     1      -7.565  20.100  66.496  1.00  0.00    -0.316 C  
BRANCH  32  33
HETATM   33  C   UNL     1      -6.031  20.155  66.388  1.00  0.00    -0.191 C  
HETATM   34  C   UNL     1      -5.388  21.271  67.191  1.00  0.00    -0.335 C  
ENDBRANCH  32  33
ENDBRANCH  31  32
ENDBRANCH  23  31
BRANCH  24  35
HETATM   35  N   UNL     1     -10.349  12.273  65.557  1.00  0.00    -0.260 N  
HETATM   36  H   UNL     1     -10.187  11.815  64.659  1.00  0.00     0.000 HD 
BRANCH  35  37
HETATM   37  S   UNL     1     -10.847  11.389  66.906  1.00  0.00    -0.294 S  
HETATM   38  C   UNL     1     -10.648   9.719  66.320  1.00  0.00     0.000 C  
HETATM   39  O   UNL     1      -9.947  11.621  68.011  1.00  0.00    -0.177 OA 
HETATM   40  O   UNL     1     -12.268  11.644  67.027  1.00  0.00    -0.324 OA 
ENDBRANCH  35  37
ENDBRANCH  24  35
ENDBRANCH  20  22
ENDBRANCH  17  20
ENDBRANCH  13  14
ENDBRANCH  12  13
ENDBRANCH  11  12
ENDBRANCH  10  11
ENDBRANCH   5  10
ENDBRANCH   4   5
ENDBRANCH   3   4
ENDBRANCH   2   3
TORSDOF 18
ENDMDL
MODEL      196
REMARK 921   NORMALIZED FREE ENERGY PREDICTED BY IDOCK:   -3.21 KCAL/MOL
REMARK 922        TOTAL FREE ENERGY PREDICTED BY IDOCK:   -9.31 KCAL/MOL
REMARK 923 INTER-LIGAND FREE ENERGY PREDICTED BY IDOCK:   -7.06 KCAL/MOL
REMARK 924 INTRA-LIGAND FREE ENERGY PREDICTED BY IDOCK:   -2.25 KCAL/MOL
REMARK 927      BINDING AFFINITY PREDICTED BY RF-SCORE:    0.00 PKD
ROOT
HETATM    1  C   UNL     1     -12.209  14.178  66.751  1.00  0.00    -0.429 C  
HETATM    2  C   UNL     1     -10.782  13.667  66.905  1.00  0.00    -0.275 C  
ENDROOT
BRANCH   2   3
HETATM    3  C   UNL     1     -10.543  13.185  68.335  1.00  0.00    -0.264 C  
BRANCH   3   4
HETATM    4  C   UNL     1     -11.712  12.399  68.949  1.00  0.00    -0.324 C  
BRANCH   4   5
HETATM    5  N   UNL     1     -11.548  10.938  69.156  1.00  0.00    -0.296 NA 
BRANCH   5   6
HETATM    6  C   UNL     1     -10.468  10.397  68.298  1.00  0.00    -0.191 C  
BRANCH   6   7
HETATM    7  C   UNL     1     -10.868   9.938  66.882  1.00  0.00    -0.137 C  
BRANCH   7   8
HETATM    8  C   UNL     1      -9.688   9.584  65.974  1.00  0.00    -0.341 C  
HETATM    9  C   UNL     1      -8.427  10.315  66.418  1.00  0.00    -0.132 C  
ENDBRANCH   7   8
ENDBRANCH   6   7
ENDBRANCH   5   6
BRANCH   5  10
HETATM   10  C   UNL     1     -11.261  10.676  70.589  1.00  0.00    -0.095 C  
BRANCH  10  11
HETATM   11  C   UNL     1     -12.494  10.606  71.502  1.00  0.00    -0.471 C  
BRANCH  11  12
HETATM   12  C   UNL     1     -13.043   9.185  71.577  1.00  0.00    -0.349 C  
BRANCH  12  13
HETATM   13  O   UNL     1     -12.370   8.467  72.615  1.00  0.00    -0.378 OA 
BRANCH  13  14
HETATM   14  C   UNL     1     -11.795   7.281  72.242  1.00  0.00    -0.248 A  
HETATM   15  C   UNL     1     -11.410   6.250  73.103  1.00  0.00    -0.028 A  
HETATM   16  C   UNL     1     -10.754   5.114  72.605  1.00  0.00    -0.291 A  
HETATM   17  C   UNL     1     -10.485   4.996  71.236  1.00  0.00    -0.213 A  
HETATM   18  C   UNL     1     -10.965   5.982  70.365  1.00  0.00    -0.399 A  
HETATM   19  C   UNL     1     -11.581   7.132  70.871  1.00  0.00    -0.350 A  
BRANCH  17  20
HETATM   20  C   UNL     1      -9.657   3.844  70.753  1.00  0.00    -0.188 C  
HETATM   21  O   UNL     1      -9.973   2.711  71.104  1.00  0.00    -0.094 OA 
BRANCH  20  22
HETATM   22  C   UNL     1      -8.480   4.110  69.922  1.00  0.00    -0.087 A  
HETATM   23  C   UNL     1      -7.372   4.866  70.304  1.00  0.00    -0.055 A  
HETATM   24  C   UNL     1      -8.348   2.919  66.268  1.00  0.00    -0.092 A  
HETATM   25  O   UNL     1      -6.455   4.894  69.293  1.00  0.00    -0.033 OA 
HETATM   26  C   UNL     1      -7.082   3.434  65.999  1.00  0.00    -0.063 A  
HETATM   27  C   UNL     1      -6.986   4.246  68.231  1.00  0.00    -0.052 A  
HETATM   28  C   UNL     1      -8.248   3.759  68.542  1.00  0.00    -0.083 A  
HETATM   29  C   UNL     1      -6.374   4.124  66.986  1.00  0.00    -0.040 A  
HETATM   30  C   UNL     1      -8.960   3.112  67.512  1.00  0.00    -0.186 A  
BRANCH  23  31
HETATM   31  C   UNL     1      -7.001   5.751  71.447  1.00  0.00    -0.071 C  
BRANCH  31  32
HETATM   32  C   UNL     1      -7.102   5.179  72.860  1.00  0.00    -0.087 C  
BRANCH  32  33
HETATM   33  C   UNL     1      -6.760   3.681  72.789  1.00  0.00    -0.037 C  
HETATM   34  C   UNL     1      -7.067   2.909  74.059  1.00  0.00    -0.041 C  
ENDBRANCH  32  33
ENDBRANCH  31  32
ENDBRANCH  23  31
BRANCH  24  35
HETATM   35  N   UNL     1      -9.062   2.190  65.272  1.00  0.00    -0.162 N  
HETATM   36  H   UNL     1      -9.616   1.370  65.518  1.00  0.00     0.000 HD 
BRANCH  35  37
HETATM   37  S   UNL     1      -8.963   2.724  63.673  1.00  0.00    -0.097 S  
HETATM   38  C   UNL     1     -10.665   2.610  63.163  1.00  0.00    -0.225 C  
HETATM   39  O   UNL     1      -8.541   4.105  63.637  1.00  0.00    -0.096 OA 
HETATM   40  O   UNL     1      -8.226   1.694  62.971  1.00  0.00    -0.059 OA 
ENDBRANCH  35  37
ENDBRANCH  24  35
ENDBRANCH  20  22
ENDBRANCH  17  20
ENDBRANCH  13  14
ENDBRANCH  12  13
ENDBRANCH  11  12
ENDBRANCH  10  11
ENDBRANCH   5  10
ENDBRANCH   4   5
ENDBRANCH   3   4
ENDBRANCH   2   3
TORSDOF 18
ENDMDL
MODEL      197
REMARK 921   NORMALIZED FREE ENERGY PREDICTED BY IDOCK:   -3.04 KCAL/MOL
REMARK 922        TOTAL FREE ENERGY PREDICTED BY IDOCK:   -8.97 KCAL/MOL
REMARK 923 INTER-LIGAND FREE ENERGY PREDICTED BY IDOCK:   -7.44 KCAL/MOL
REMARK 924 INTRA-LIGAND FREE ENERGY PREDICTED BY IDOCK:   -1.52 KCAL/MOL
REMARK 927      BINDING AFFINITY PREDICTED BY RF-SCORE:    0.00 PKD
ROOT
HETATM    1  C   UNL     1     -11.794  16.279  64.479  1.00  0.00     0.181 C  
HETATM    2  C   UNL     1     -11.613  14.883  65.062  1.00  0.00    -0.357 C  
ENDROOT
BRANCH   2   3
HETATM    3  C   UNL     1     -10.143  14.638  65.403  1.00  0.00    -0.403 C  
BRANCH   3   4
HETATM    4  C   UNL     1      -9.676  15.286  66.715  1.00  0.00    -0.236 C  
BRANCH   4   5
HETATM    5  N   UNL     1      -8.268  15.081  67.142  1.00  0.00    -0.210 NA 
BRANCH   5   6
HETATM    6  C   UNL     1      -7.588  16.377  67.368  1.00  0.00    -0.158 C  
BRANCH   6   7
HETATM    7  C   UNL     1      -7.276  17.227  66.121  1.00  0.00    -0.304 C  
BRANCH   7   8
HETATM    8  C   UNL     1      -6.548  18.541  66.414  1.00  0.00    -0.233 C  
HETATM    9  C   UNL     1      -6.259  19.297  65.124  1.00  0.00    -0.312 C  
ENDBRANCH   7   8
ENDBRANCH   6   7
ENDBRANCH   5   6
BRANCH   5  10
HETATM   10  C   UNL     1      -8.245  14.254  68.375  1.00  0.00    -0.144 C  
BRANCH  10  11
HETATM   11  C   UNL     1      -8.682  12.793  68.192  1.00  0.00    -0.193 C  
BRANCH  11  12
HETATM   12  C   UNL     1      -7.668  12.016  67.359  1.00  0.00    -0.162 C  
BRANCH  12  13
HETATM   13  O   UNL     1      -8.339  11.365  66.277  1.00  0.00    -0.168 OA 
BRANCH  13  14
HETATM   14  C   UNL     1      -8.862  10.130  66.556  1.00  0.00    -0.140 A  
HETATM   15  C   UNL     1      -9.495   9.755  67.744  1.00  0.00    -0.152 A  
HETATM   16  C   UNL     1      -9.916   8.432  67.940  1.00  0.00    -0.228 A  
HETATM   17  C   UNL     1      -9.716   7.471  66.941  1.00  0.00    -0.272 A  
HETATM   18  C   UNL     1      -9.177   7.873  65.713  1.00  0.00    -0.033 A  
HETATM   19  C   UNL     1      -8.720   9.185  65.539  1.00  0.00    -0.210 A  
BRANCH  17  20
HETATM   20  C   UNL     1     -10.043   6.038  67.233  1.00  0.00    -0.169 C  
HETATM   21  O   UNL     1     -10.767   5.433  66.447  1.00  0.00    -0.297 OA 
BRANCH  20  22
HETATM   22  C   UNL     1      -9.532   5.425  68.462  1.00  0.00    -0.156 A  
HETATM   23  C   UNL     1      -8.504   4.486  68.533  1.00  0.00    -0.089 A  
HETATM   24  C   UNL     1     -11.193   6.150  71.854  1.00  0.00    -0.284 A  
HETATM   25  O   UNL     1      -8.273   4.143  69.834  1.00  0.00    -0.058 OA 
HETATM   26  C   UNL     1     -10.344   5.339  72.602  1.00  0.00    -0.247 A  
HETATM   27  C   UNL     1      -9.193   4.773  70.600  1.00  0.00    -0.134 A  
HETATM   28  C   UNL     1     -10.020   5.563  69.813  1.00  0.00    -0.279 A  
HETATM   29  C   UNL     1      -9.322   4.618  71.978  1.00  0.00    -0.180 A  
HETATM   30  C   UNL     1     -11.074   6.237  70.462  1.00  0.00    -0.399 A  
BRANCH  23  31
HETATM   31  C   UNL     1      -7.707   3.670  67.570  1.00  0.00    -0.078 C  
BRANCH  31  32
HETATM   32  C   UNL     1      -6.306   4.156  67.204  1.00  0.00    -0.040 C  
BRANCH  32  33
HETATM   33  C   UNL     1      -6.381   5.673  66.957  1.00  0.00    -0.039 C  
HETATM   34  C   UNL     1      -5.678   6.513  68.008  1.00  0.00    -0.012 C  
ENDBRANCH  32  33
ENDBRANCH  31  32
ENDBRANCH  23  31
BRANCH  24  35
HETATM   35  N   UNL     1     -12.219   6.908  72.490  1.00  0.00    -0.500 N  
HETATM   36  H   UNL     1     -12.474   6.734  73.462  1.00  0.00     0.000 HD 
BRANCH  35  37
HETATM   37  S   UNL     1     -13.000   8.102  71.587  1.00  0.00    -0.316 S  
HETATM   38  C   UNL     1     -13.672   9.129  72.877  1.00  0.00    -0.034 C  
HETATM   39  O   UNL     1     -12.034   8.859  70.825  1.00  0.00    -0.253 OA 
HETATM   40  O   UNL     1     -14.108   7.430  70.941  1.00  0.00    -0.143 OA 
ENDBRANCH  35  37
ENDBRANCH  24  35
ENDBRANCH  20  22
ENDBRANCH  17  20
ENDBRANCH  13  14
ENDBRANCH  12  13
ENDBRANCH  11  12
ENDBRANCH  10  11
ENDBRANCH   5  10
ENDBRANCH   4   5
ENDBRANCH   3   4
ENDBRANCH   2   3
TORSDOF 18
ENDMDL
MODEL      198
REMARK 921   NORMALIZED FREE ENERGY PREDICTED BY IDOCK:   -3.00 KCAL/MOL
REMARK 922        TOTAL FREE ENERGY PREDICTED BY IDOCK:   -8.87 KCAL/MOL
REMARK 923 INTER-LIGAND FREE ENERGY PREDICTED BY IDOCK:   -6.94 KCAL/MOL
REMARK 924 INTRA-LIGAND FREE ENERGY PREDICTED BY IDOCK:   -1.93 KCAL/MOL
REMARK 927      BINDING AFFINITY PREDICTED BY RF-SCORE:    0.00 PKD
ROOT
HETATM    1  C   UNL     1      -5.483  14.644  72.172  1.00  0.00    -0.018 C  
HETATM    2  C   UNL     1      -5.815  15.186  70.787  1.00  0.00    -0.022 C  
ENDROOT
BRANCH   2   3
HETATM    3  C   UNL     1      -6.733  14.215  70.045  1.00  0.00     0.002 C  
BRANCH   3   4
HETATM    4  C   UNL     1      -7.665  14.875  69.019  1.00  0.00    -0.153 C  
BRANCH   4   5
HETATM    5  N   UNL     1      -9.132  14.755  69.217  1.00  0.00    -0.088 NA 
BRANCH   5   6
HETATM    6  C   UNL     1      -9.807  16.054  68.993  1.00  0.00    -0.239 C  
BRANCH   6   7
HETATM    7  C   UNL     1     -10.757  16.546  70.103  1.00  0.00    -0.168 C  
BRANCH   7   8
HETATM    8  C   UNL     1     -11.733  15.487  70.618  1.00  0.00    -0.389 C  
HETATM    9  C   UNL     1     -11.441  15.147  72.074  1.00  0.00    -0.450 C  
ENDBRANCH   7   8
ENDBRANCH   6   7
ENDBRANCH   5   6
BRANCH   5  10
HETATM   10  C   UNL     1      -9.668  13.720  68.297  1.00  0.00    -0.231 C  
BRANCH  10  11
HETATM   11  C   UNL     1     -10.275  14.256  66.991  1.00  0.00    -0.260 C  
BRANCH  11  12
HETATM   12  C   UNL     1     -11.799  14.218  67.037  1.00  0.00    -0.428 C  
BRANCH  12  13
HETATM   13  O   UNL     1     -12.285  13.351  66.008  1.00  0.00    -0.420 OA 
BRANCH  13  14
HETATM   14  C   UNL     1     -11.353  12.531  65.429  1.00  0.00    -0.325 A  
HETATM   15  C   UNL     1     -10.644  12.796  64.254  1.00  0.00    -0.424 A  
HETATM   16  C   UNL     1      -9.773  11.837  63.717  1.00  0.00    -0.255 A  
HETATM   17  C   UNL     1      -9.596  10.604  64.358  1.00  0.00    -0.349 A  
HETATM   18  C   UNL     1     -10.227  10.384  65.588  1.00  0.00    -0.308 A  
HETATM   19  C   UNL     1     -11.127  11.328  66.098  1.00  0.00    -0.207 A  
BRANCH  17  20
HETATM   20  C   UNL     1      -8.774   9.546  63.687  1.00  0.00    -0.221 C  
HETATM   21  O   UNL     1      -8.983   9.308  62.500  1.00  0.00    -0.241 OA 
BRANCH  20  22
HETATM   22  C   UNL     1      -7.788   8.802  64.475  1.00  0.00    -0.129 A  
HETATM   23  C   UNL     1      -6.801   9.367  65.282  1.00  0.00    -0.083 A  
HETATM   24  C   UNL     1      -7.584   4.968  64.248  1.00  0.00    -0.074 A  
HETATM   25  O   UNL     1      -6.070   8.384  65.884  1.00  0.00    -0.047 OA 
HETATM   26  C   UNL     1      -6.528   4.831  65.147  1.00  0.00    -0.036 A  
HETATM   27  C   UNL     1      -6.507   7.194  65.414  1.00  0.00    -0.047 A  
HETATM   28  C   UNL     1      -7.551   7.379  64.519  1.00  0.00    -0.110 A  
HETATM   29  C   UNL     1      -5.957   5.958  65.745  1.00  0.00    -0.028 A  
HETATM   30  C   UNL     1      -8.073   6.230  63.891  1.00  0.00    -0.055 A  
BRANCH  23  31
HETATM   31  C   UNL     1      -6.256  10.733  65.537  1.00  0.00    -0.044 C  
BRANCH  31  32
HETATM   32  C   UNL     1      -6.828  11.526  66.711  1.00  0.00    -0.114 C  
BRANCH  32  33
HETATM   33  C   UNL     1      -6.862  10.597  67.937  1.00  0.00    -0.073 C  
HETATM   34  C   UNL     1      -8.141  10.680  68.749  1.00  0.00    -0.139 C  
ENDBRANCH  32  33
ENDBRANCH  31  32
ENDBRANCH  23  31
BRANCH  24  35
HETATM   35  N   UNL     1      -8.188   3.820  63.658  1.00  0.00    -0.089 N  
HETATM   36  H   UNL     1      -7.899   3.490  62.737  1.00  0.00     0.000 HD 
BRANCH  35  37
HETATM   37  S   UNL     1      -9.395   3.022  64.527  1.00  0.00    -0.147 S  
HETATM   38  C   UNL     1     -10.760   3.109  63.386  1.00  0.00    -0.244 C  
HETATM   39  O   UNL     1      -9.028   1.640  64.732  1.00  0.00    -0.107 OA 
HETATM   40  O   UNL     1      -9.702   3.892  65.643  1.00  0.00    -0.177 OA 
ENDBRANCH  35  37
ENDBRANCH  24  35
ENDBRANCH  20  22
ENDBRANCH  17  20
ENDBRANCH  13  14
ENDBRANCH  12  13
ENDBRANCH  11  12
ENDBRANCH  10  11
ENDBRANCH   5  10
ENDBRANCH   4   5
ENDBRANCH   3   4
ENDBRANCH   2   3
TORSDOF 18
ENDMDL
MODEL      199
REMARK 921   NORMALIZED FREE ENERGY PREDICTED BY IDOCK:   -2.93 KCAL/MOL
REMARK 922        TOTAL FREE ENERGY PREDICTED BY IDOCK:   -8.74 KCAL/MOL
REMARK 923 INTER-LIGAND FREE ENERGY PREDICTED BY IDOCK:   -7.06 KCAL/MOL
REMARK 924 INTRA-LIGAND FREE ENERGY PREDICTED BY IDOCK:   -1.69 KCAL/MOL
REMARK 927      BINDING AFFINITY PREDICTED BY RF-SCORE:    0.00 PKD
ROOT
HETATM    1  C   UNL     1      -6.613   8.495  71.370  1.00  0.00    -0.066 C  
HETATM    2  C   UNL     1      -8.055   8.581  71.854  1.00  0.00    -0.185 C  
ENDROOT
BRANCH   2   3
HETATM    3  C   UNL     1      -8.661   7.182  71.964  1.00  0.00    -0.130 C  
BRANCH   3   4
HETATM    4  C   UNL     1      -9.894   7.090  72.876  1.00  0.00    -0.177 C  
BRANCH   4   5
HETATM    5  N   UNL     1     -11.179   6.641  72.283  1.00  0.00    -0.256 NA 
BRANCH   5   6
HETATM    6  C   UNL     1     -12.231   7.670  72.454  1.00  0.00    -0.167 C  
BRANCH   6   7
HETATM    7  C   UNL     1     -11.822   9.134  72.199  1.00  0.00    -0.333 C  
BRANCH   7   8
HETATM    8  C   UNL     1     -11.598   9.482  70.726  1.00  0.00    -0.378 C  
HETATM    9  C   UNL     1     -12.388  10.727  70.340  1.00  0.00    -0.438 C  
ENDBRANCH   7   8
ENDBRANCH   6   7
ENDBRANCH   5   6
BRANCH   5  10
HETATM   10  C   UNL     1     -10.975   6.335  70.844  1.00  0.00    -0.286 C  
BRANCH  10  11
HETATM   11  C   UNL     1     -10.115   5.096  70.554  1.00  0.00    -0.326 C  
BRANCH  11  12
HETATM   12  C   UNL     1      -9.427   5.208  69.198  1.00  0.00    -0.134 C  
BRANCH  12  13
HETATM   13  O   UNL     1     -10.345   5.743  68.241  1.00  0.00    -0.177 OA 
BRANCH  13  14
HETATM   14  C   UNL     1     -10.011   6.961  67.710  1.00  0.00    -0.148 A  
HETATM   15  C   UNL     1     -10.775   7.698  66.801  1.00  0.00    -0.143 A  
HETATM   16  C   UNL     1     -10.284   8.898  66.267  1.00  0.00    -0.203 A  
HETATM   17  C   UNL     1      -9.024   9.378  66.646  1.00  0.00    -0.170 A  
HETATM   18  C   UNL     1      -8.308   8.692  67.634  1.00  0.00    -0.121 A  
HETATM   19  C   UNL     1      -8.783   7.474  68.133  1.00  0.00    -0.122 A  
BRANCH  17  20
HETATM   20  C   UNL     1      -8.464  10.583  65.953  1.00  0.00    -0.162 C  
HETATM   21  O   UNL     1      -8.942  10.908  64.869  1.00  0.00    -0.193 OA 
BRANCH  20  22
HETATM   22  C   UNL     1      -7.342  11.300  66.563  1.00  0.00    -0.101 A  
HETATM   23  C   UNL     1      -5.994  10.982  66.406  1.00  0.00    -0.143 A  
HETATM   24  C   UNL     1      -7.967  14.180  69.034  1.00  0.00     0.012 A  
HETATM   25  O   UNL     1      -5.220  11.868  67.100  1.00  0.00    -0.092 OA 
HETATM   26  C   UNL     1      -6.622  14.451  69.277  1.00  0.00    -0.122 A  
HETATM   27  C   UNL     1      -6.045  12.699  67.776  1.00  0.00    -0.127 A  
HETATM   28  C   UNL     1      -7.371  12.389  67.511  1.00  0.00    -0.146 A  
HETATM   29  C   UNL     1      -5.624  13.698  68.651  1.00  0.00    -0.084 A  
HETATM   30  C   UNL     1      -8.356  13.130  68.195  1.00  0.00    -0.161 A  
BRANCH  23  31
HETATM   31  C   UNL     1      -5.202   9.865  65.810  1.00  0.00    -0.041 C  
BRANCH  31  32
HETATM   32  C   UNL     1      -5.749   9.187  64.555  1.00  0.00    -0.064 C  
BRANCH  32  33
HETATM   33  C   UNL     1      -5.387  10.069  63.347  1.00  0.00    -0.104 C  
HETATM   34  C   UNL     1      -6.536  10.317  62.387  1.00  0.00    -0.137 C  
ENDBRANCH  32  33
ENDBRANCH  31  32
ENDBRANCH  23  31
BRANCH  24  35
HETATM   35  N   UNL     1      -8.986  14.965  69.648  1.00  0.00    -0.444 N  
HETATM   36  H   UNL     1      -8.793  15.514  70.486  1.00  0.00     0.000 HD 
BRANCH  35  37
HETATM   37  S   UNL     1     -10.523  14.957  68.949  1.00  0.00    -0.247 S  
HETATM   38  C   UNL     1     -11.101  16.590  69.362  1.00  0.00    -0.253 C  
HETATM   39  O   UNL     1     -10.414  14.835  67.513  1.00  0.00    -0.242 OA 
HETATM   40  O   UNL     1     -11.294  14.010  69.728  1.00  0.00    -0.243 OA 
ENDBRANCH  35  37
ENDBRANCH  24  35
ENDBRANCH  20  22
ENDBRANCH  17  20
ENDBRANCH  13  14
ENDBRANCH  12  13
ENDBRANCH  11  12
ENDBRANCH  10  11
ENDBRANCH   5  10
ENDBRANCH   4   5
ENDBRANCH   3   4
ENDBRANCH   2   3
TORSDOF 18
ENDMDL
MODEL      200
REMARK 921   NORMALIZED FREE ENERGY PREDICTED BY IDOCK:   -2.93 KCAL/MOL
REMARK 922        TOTAL FREE ENERGY PREDICTED BY IDOCK:   -8.74 KCAL/MOL
REMARK 923 INTER-LIGAND FREE ENERGY PREDICTED BY IDOCK:   -7.55 KCAL/MOL
REMARK 924 INTRA-LIGAND FREE ENERGY PREDICTED BY IDOCK:   -1.19 KCAL/MOL
REMARK 927      BINDING AFFINITY PREDICTED BY RF-SCORE:    0.00 PKD
ROOT
HETATM    1  C   UNL     1     -11.828   6.831  70.097  1.00  0.00    -0.321 C  
HETATM    2  C   UNL     1     -12.338   7.269  71.464  1.00  0.00    -0.397 C  
ENDROOT
BRANCH   2   3
HETATM    3  C   UNL     1     -11.205   7.231  72.489  1.00  0.00    -0.342 C  
BRANCH   3   4
HETATM    4  C   UNL     1     -11.111   5.923  73.289  1.00  0.00    -0.178 C  
BRANCH   4   5
HETATM    5  N   UNL     1      -9.838   5.160  73.249  1.00  0.00    -0.151 NA 
BRANCH   5   6
HETATM    6  C   UNL     1      -9.529   4.714  71.871  1.00  0.00    -0.145 C  
BRANCH   6   7
HETATM    7  C   UNL     1      -9.429   3.193  71.637  1.00  0.00    -0.214 C  
BRANCH   7   8
HETATM    8  C   UNL     1      -9.125   2.793  70.192  1.00  0.00    -0.188 C  
HETATM    9  C   UNL     1      -9.503   3.913  69.231  1.00  0.00    -0.256 C  
ENDBRANCH   7   8
ENDBRANCH   6   7
ENDBRANCH   5   6
BRANCH   5  10
HETATM   10  C   UNL     1      -8.742   6.008  73.783  1.00  0.00    -0.124 C  
BRANCH  10  11
HETATM   11  C   UNL     1      -8.551   7.356  73.073  1.00  0.00    -0.165 C  
BRANCH  11  12
HETATM   12  C   UNL     1      -7.104   7.828  73.168  1.00  0.00    -0.087 C  
BRANCH  12  13
HETATM   13  O   UNL     1      -6.523   7.852  71.862  1.00  0.00    -0.042 OA 
BRANCH  13  14
HETATM   14  C   UNL     1      -7.402   8.002  70.821  1.00  0.00    -0.057 A  
HETATM   15  C   UNL     1      -7.567   7.117  69.752  1.00  0.00    -0.103 A  
HETATM   16  C   UNL     1      -8.445   7.424  68.703  1.00  0.00    -0.129 A  
HETATM   17  C   UNL     1      -9.176   8.618  68.719  1.00  0.00    -0.142 A  
HETATM   18  C   UNL     1      -9.087   9.452  69.840  1.00  0.00    -0.221 A  
HETATM   19  C   UNL     1      -8.178   9.161  70.865  1.00  0.00    -0.220 A  
BRANCH  17  20
HETATM   20  C   UNL     1      -9.995   8.987  67.519  1.00  0.00    -0.207 C  
HETATM   21  O   UNL     1     -10.852   8.197  67.132  1.00  0.00    -0.261 OA 
BRANCH  20  22
HETATM   22  C   UNL     1      -9.716  10.247  66.825  1.00  0.00    -0.231 A  
HETATM   23  C   UNL     1      -8.800  10.416  65.787  1.00  0.00    -0.170 A  
HETATM   24  C   UNL     1     -11.362  13.527  67.975  1.00  0.00    -0.285 A  
HETATM   25  O   UNL     1      -8.808  11.714  65.363  1.00  0.00    -0.011 OA 
HETATM   26  C   UNL     1     -10.754  14.333  67.016  1.00  0.00    -0.290 A  
HETATM   27  C   UNL     1      -9.645  12.409  66.166  1.00  0.00    -0.233 A  
HETATM   28  C   UNL     1     -10.221  11.569  67.110  1.00  0.00    -0.233 A  
HETATM   29  C   UNL     1      -9.865  13.782  66.089  1.00  0.00    -0.310 A  
HETATM   30  C   UNL     1     -11.073  12.160  68.064  1.00  0.00    -0.292 A  
BRANCH  23  31
HETATM   31  C   UNL     1      -7.736   9.600  65.132  1.00  0.00    -0.117 C  
BRANCH  31  32
HETATM   32  C   UNL     1      -7.273  10.011  63.735  1.00  0.00    -0.128 C  
BRANCH  32  33
HETATM   33  C   UNL     1      -8.255   9.406  62.716  1.00  0.00    -0.162 C  
HETATM   34  C   UNL     1      -9.601  10.104  62.656  1.00  0.00    -0.200 C  
ENDBRANCH  32  33
ENDBRANCH  31  32
ENDBRANCH  23  31
BRANCH  24  35
HETATM   35  N   UNL     1     -12.291  14.080  68.905  1.00  0.00    -0.508 N  
HETATM   36  H   UNL     1     -13.240  13.714  68.980  1.00  0.00     0.000 HD 
BRANCH  35  37
HETATM   37  S   UNL     1     -11.774  15.360  69.878  1.00  0.00    -0.363 S  
HETATM   38  C   UNL     1     -10.222  14.731  70.483  1.00  0.00     0.564 C  
HETATM   39  O   UNL     1     -11.535  16.533  69.069  1.00  0.00    -0.249 OA 
HETATM   40  O   UNL     1     -12.698  15.390  70.993  1.00  0.00    -0.381 OA 
ENDBRANCH  35  37
ENDBRANCH  24  35
ENDBRANCH  20  22
ENDBRANCH  17  20
ENDBRANCH  13  14
ENDBRANCH  12  13
ENDBRANCH  11  12
ENDBRANCH  10  11
ENDBRANCH   5  10
ENDBRANCH   4   5
ENDBRANCH   3   4
ENDBRANCH   2   3
TORSDOF 18
ENDMDL
MODEL      201
REMARK 921   NORMALIZED FREE ENERGY PREDICTED BY IDOCK:   -2.89 KCAL/MOL
REMARK 922        TOTAL FREE ENERGY PREDICTED BY IDOCK:   -8.65 KCAL/MOL
REMARK 923 INTER-LIGAND FREE ENERGY PREDICTED BY IDOCK:   -6.69 KCAL/MOL
REMARK 924 INTRA-LIGAND FREE ENERGY PREDICTED BY IDOCK:   -1.96 KCAL/MOL
REMARK 927      BINDING AFFINITY PREDICTED BY RF-SCORE:    0.00 PKD
ROOT
HETATM    1  C   UNL     1     -12.835   9.432  71.907  1.00  0.00    -0.497 C  
HETATM    2  C   UNL     1     -12.995   7.917  71.875  1.00  0.00    -0.323 C  
ENDROOT
BRANCH   2   3
HETATM    3  C   UNL     1     -12.335   7.341  70.624  1.00  0.00    -0.145 C  
BRANCH   3   4
HETATM    4  C   UNL     1     -11.630   5.993  70.837  1.00  0.00    -0.077 C  
BRANCH   4   5
HETATM    5  N   UNL     1     -10.807   5.812  72.060  1.00  0.00    -0.243 NA 
BRANCH   5   6
HETATM    6  C   UNL     1     -11.437   4.842  72.986  1.00  0.00    -0.243 C  
BRANCH   6   7
HETATM    7  C   UNL     1     -10.595   3.616  73.389  1.00  0.00    -0.281 C  
BRANCH   7   8
HETATM    8  C   UNL     1     -10.872   2.357  72.565  1.00  0.00     0.054 C  
HETATM    9  C   UNL     1      -9.614   1.507  72.439  1.00  0.00    -0.143 C  
ENDBRANCH   7   8
ENDBRANCH   6   7
ENDBRANCH   5   6
BRANCH   5  10
HETATM   10  C   UNL     1      -9.446   5.359  71.672  1.00  0.00    -0.148 C  
BRANCH  10  11
HETATM   11  C   UNL     1      -9.073   5.591  70.201  1.00  0.00    -0.162 C  
BRANCH  11  12
HETATM   12  C   UNL     1      -8.194   6.828  70.045  1.00  0.00    -0.134 C  
BRANCH  12  13
HETATM   13  O   UNL     1      -8.934   7.990  70.429  1.00  0.00    -0.143 OA 
BRANCH  13  14
HETATM   14  C   UNL     1      -8.605   9.149  69.777  1.00  0.00    -0.142 A  
HETATM   15  C   UNL     1      -9.293  10.363  69.861  1.00  0.00     0.080 A  
HETATM   16  C   UNL     1      -8.902  11.458  69.078  1.00  0.00     0.080 A  
HETATM   17  C   UNL     1      -7.810  11.352  68.208  1.00  0.00    -0.132 A  
HETATM   18  C   UNL     1      -7.060  10.170  68.204  1.00  0.00    -0.079 A  
HETATM   19  C   UNL     1      -7.479   9.066  68.956  1.00  0.00    -0.074 A  
BRANCH  17  20
HETATM   20  C   UNL     1      -7.505  12.489  67.280  1.00  0.00    -0.125 C  
HETATM   21  O   UNL     1      -6.331  12.708  66.992  1.00  0.00    -0.212 OA 
BRANCH  20  22
HETATM   22  C   UNL     1      -8.604  13.324  66.789  1.00  0.00    -0.041 A  
HETATM   23  C   UNL     1      -9.846  12.859  66.357  1.00  0.00    -0.268 A  
HETATM   24  C   UNL     1      -8.140  17.116  66.348  1.00  0.00    -0.302 A  
HETATM   25  O   UNL     1     -10.634  13.910  65.985  1.00  0.00    -0.284 OA 
HETATM   26  C   UNL     1      -9.427  17.360  65.875  1.00  0.00    -0.022 A  
HETATM   27  C   UNL     1      -9.897  15.039  66.083  1.00  0.00    -0.301 A  
HETATM   28  C   UNL     1      -8.622  14.747  66.549  1.00  0.00    -0.075 A  
HETATM   29  C   UNL     1     -10.337  16.310  65.723  1.00  0.00    -0.393 A  
HETATM   30  C   UNL     1      -7.710  15.818  66.644  1.00  0.00    -0.140 A  
BRANCH  23  31
HETATM   31  C   UNL     1     -10.470  11.535  66.066  1.00  0.00    -0.298 C  
BRANCH  31  32
HETATM   32  C   UNL     1      -9.590  10.445  65.457  1.00  0.00    -0.290 C  
BRANCH  32  33
HETATM   33  C   UNL     1     -10.087   9.087  65.985  1.00  0.00    -0.154 C  
HETATM   34  C   UNL     1     -10.933   9.177  67.242  1.00  0.00     0.040 C  
ENDBRANCH  32  33
ENDBRANCH  31  32
ENDBRANCH  23  31
BRANCH  24  35
HETATM   35  N   UNL     1      -7.219  18.189  66.531  1.00  0.00    -0.217 N  
HETATM   36  H   UNL     1      -6.828  18.687  65.732  1.00  0.00     0.000 HD 
BRANCH  35  37
HETATM   37  S   UNL     1      -6.795  18.609  68.111  1.00  0.00    -0.235 S  
HETATM   38  C   UNL     1      -7.107  20.362  68.099  1.00  0.00    -0.227 C  
HETATM   39  O   UNL     1      -7.686  17.969  69.051  1.00  0.00    -0.226 OA 
HETATM   40  O   UNL     1      -5.361  18.420  68.185  1.00  0.00    -0.167 OA 
ENDBRANCH  35  37
ENDBRANCH  24  35
ENDBRANCH  20  22
ENDBRANCH  17  20
ENDBRANCH  13  14
ENDBRANCH  12  13
ENDBRANCH  11  12
ENDBRANCH  10  11
ENDBRANCH   5  10
ENDBRANCH   4   5
ENDBRANCH   3   4
ENDBRANCH   2   3
TORSDOF 18
ENDMDL
MODEL      202
REMARK 921   NORMALIZED FREE ENERGY PREDICTED BY IDOCK:   -2.83 KCAL/MOL
REMARK 922        TOTAL FREE ENERGY PREDICTED BY IDOCK:   -8.53 KCAL/MOL
REMARK 923 INTER-LIGAND FREE ENERGY PREDICTED BY IDOCK:   -8.63 KCAL/MOL
REMARK 924 INTRA-LIGAND FREE ENERGY PREDICTED BY IDOCK:    0.10 KCAL/MOL
REMARK 927      BINDING AFFINITY PREDICTED BY RF-SCORE:    0.00 PKD
ROOT
HETATM    1  C   UNL     1     -12.811  15.710  71.328  1.00  0.00    -0.550 C  
HETATM    2  C   UNL     1     -12.204  15.196  70.028  1.00  0.00    -0.379 C  
ENDROOT
BRANCH   2   3
HETATM    3  C   UNL     1     -10.875  15.897  69.751  1.00  0.00    -0.328 C  
BRANCH   3   4
HETATM    4  C   UNL     1     -10.681  16.349  68.296  1.00  0.00    -0.337 C  
BRANCH   4   5
HETATM    5  N   UNL     1      -9.317  16.732  67.850  1.00  0.00    -0.227 NA 
BRANCH   5   6
HETATM    6  C   UNL     1      -9.244  18.180  67.548  1.00  0.00    -0.257 C  
BRANCH   6   7
HETATM    7  C   UNL     1     -10.006  18.670  66.300  1.00  0.00    -0.398 C  
BRANCH   7   8
HETATM    8  C   UNL     1     -10.013  20.189  66.118  1.00  0.00    -0.532 C  
HETATM    9  C   UNL     1      -9.890  20.895  67.463  1.00  0.00    -0.295 C  
ENDBRANCH   7   8
ENDBRANCH   6   7
ENDBRANCH   5   6
BRANCH   5  10
HETATM   10  C   UNL     1      -8.337  16.366  68.904  1.00  0.00    -0.234 C  
BRANCH  10  11
HETATM   11  C   UNL     1      -7.049  17.204  68.920  1.00  0.00    -0.242 C  
BRANCH  11  12
HETATM   12  C   UNL     1      -5.823  16.331  68.678  1.00  0.00    -0.106 C  
BRANCH  12  13
HETATM   13  O   UNL     1      -6.168  15.255  67.801  1.00  0.00    -0.144 OA 
BRANCH  13  14
HETATM   14  C   UNL     1      -6.234  14.014  68.377  1.00  0.00    -0.102 A  
HETATM   15  C   UNL     1      -6.454  12.808  67.705  1.00  0.00    -0.152 A  
HETATM   16  C   UNL     1      -6.582  11.608  68.420  1.00  0.00    -0.061 A  
HETATM   17  C   UNL     1      -6.482  11.603  69.816  1.00  0.00    -0.111 A  
HETATM   18  C   UNL     1      -6.157  12.794  70.477  1.00  0.00     0.041 A  
HETATM   19  C   UNL     1      -6.072  13.996  69.763  1.00  0.00    -0.129 A  
BRANCH  17  20
HETATM   20  C   UNL     1      -6.766  10.334  70.562  1.00  0.00    -0.068 C  
HETATM   21  O   UNL     1      -6.187  10.142  71.628  1.00  0.00    -0.302 OA 
BRANCH  20  22
HETATM   22  C   UNL     1      -7.682   9.352  69.977  1.00  0.00    -0.124 A  
HETATM   23  C   UNL     1      -7.778   8.011  70.346  1.00  0.00    -0.085 A  
HETATM   24  C   UNL     1      -9.917  10.291  66.991  1.00  0.00    -0.201 A  
HETATM   25  O   UNL     1      -8.746   7.391  69.609  1.00  0.00    -0.136 OA 
HETATM   26  C   UNL     1     -10.519   9.041  66.869  1.00  0.00    -0.293 A  
HETATM   27  C   UNL     1      -9.215   8.282  68.706  1.00  0.00    -0.143 A  
HETATM   28  C   UNL     1      -8.583   9.508  68.859  1.00  0.00    -0.128 A  
HETATM   29  C   UNL     1     -10.166   7.998  67.729  1.00  0.00    -0.282 A  
HETATM   30  C   UNL     1      -8.920  10.526  67.945  1.00  0.00    -0.137 A  
BRANCH  23  31
HETATM   31  C   UNL     1      -7.018   7.065  71.216  1.00  0.00    -0.061 C  
BRANCH  31  32
HETATM   32  C   UNL     1      -7.706   6.535  72.473  1.00  0.00    -0.099 C  
BRANCH  32  33
HETATM   33  C   UNL     1      -8.503   7.693  73.099  1.00  0.00    -0.193 C  
HETATM   34  C   UNL     1      -9.713   7.255  73.904  1.00  0.00    -0.323 C  
ENDBRANCH  32  33
ENDBRANCH  31  32
ENDBRANCH  23  31
BRANCH  24  35
HETATM   35  N   UNL     1     -10.294  11.366  66.134  1.00  0.00    -0.241 N  
HETATM   36  H   UNL     1     -10.181  11.295  65.122  1.00  0.00     0.000 HD 
BRANCH  35  37
HETATM   37  S   UNL     1     -10.935  12.759  66.841  1.00  0.00    -0.268 S  
HETATM   38  C   UNL     1     -12.143  13.242  65.625  1.00  0.00    -0.441 C  
HETATM   39  O   UNL     1     -11.603  12.425  68.077  1.00  0.00    -0.305 OA 
HETATM   40  O   UNL     1      -9.864  13.733  66.805  1.00  0.00    -0.258 OA 
ENDBRANCH  35  37
ENDBRANCH  24  35
ENDBRANCH  20  22
ENDBRANCH  17  20
ENDBRANCH  13  14
ENDBRANCH  12  13
ENDBRANCH  11  12
ENDBRANCH  10  11
ENDBRANCH   5  10
ENDBRANCH   4   5
ENDBRANCH   3   4
ENDBRANCH   2   3
TORSDOF 18
ENDMDL
MODEL      203
REMARK 921   NORMALIZED FREE ENERGY PREDICTED BY IDOCK:   -2.83 KCAL/MOL
REMARK 922        TOTAL FREE ENERGY PREDICTED BY IDOCK:   -8.53 KCAL/MOL
REMARK 923 INTER-LIGAND FREE ENERGY PREDICTED BY IDOCK:   -7.09 KCAL/MOL
REMARK 924 INTRA-LIGAND FREE ENERGY PREDICTED BY IDOCK:   -1.44 KCAL/MOL
REMARK 927      BINDING AFFINITY PREDICTED BY RF-SCORE:    0.00 PKD
ROOT
HETATM    1  C   UNL     1      -5.753  14.909  68.445  1.00  0.00    -0.108 C  
HETATM    2  C   UNL     1      -5.463  16.360  68.810  1.00  0.00    -0.116 C  
ENDROOT
BRANCH   2   3
HETATM    3  C   UNL     1      -6.676  17.236  68.501  1.00  0.00    -0.185 C  
BRANCH   3   4
HETATM    4  C   UNL     1      -7.590  16.694  67.392  1.00  0.00    -0.165 C  
BRANCH   4   5
HETATM    5  N   UNL     1      -9.056  16.681  67.628  1.00  0.00    -0.206 NA 
BRANCH   5   6
HETATM    6  C   UNL     1      -9.716  17.814  66.938  1.00  0.00    -0.300 C  
BRANCH   6   7
HETATM    7  C   UNL     1     -10.367  18.890  67.830  1.00  0.00    -0.473 C  
BRANCH   7   8
HETATM    8  C   UNL     1      -9.844  20.308  67.597  1.00  0.00    -0.563 C  
HETATM    9  C   UNL     1      -9.988  20.702  66.132  1.00  0.00     0.037 C  
ENDBRANCH   7   8
ENDBRANCH   6   7
ENDBRANCH   5   6
BRANCH   5  10
HETATM   10  C   UNL     1      -9.616  15.387  67.163  1.00  0.00    -0.212 C  
BRANCH  10  11
HETATM   11  C   UNL     1     -11.134  15.375  66.933  1.00  0.00    -0.256 C  
BRANCH  11  12
HETATM   12  C   UNL     1     -11.691  13.957  67.003  1.00  0.00    -0.397 C  
BRANCH  12  13
HETATM   13  O   UNL     1     -11.276  13.342  68.226  1.00  0.00    -0.248 OA 
BRANCH  13  14
HETATM   14  C   UNL     1     -10.681  12.114  68.105  1.00  0.00    -0.211 A  
HETATM   15  C   UNL     1     -11.343  10.892  67.952  1.00  0.00    -0.380 A  
HETATM   16  C   UNL     1     -10.621   9.691  67.921  1.00  0.00    -0.308 A  
HETATM   17  C   UNL     1      -9.225   9.701  68.033  1.00  0.00    -0.132 A  
HETATM   18  C   UNL     1      -8.559  10.931  68.080  1.00  0.00    -0.131 A  
HETATM   19  C   UNL     1      -9.287  12.126  68.153  1.00  0.00    -0.204 A  
BRANCH  17  20
HETATM   20  C   UNL     1      -8.493   8.398  68.141  1.00  0.00    -0.132 C  
HETATM   21  O   UNL     1      -7.944   8.124  69.205  1.00  0.00    -0.109 OA 
BRANCH  20  22
HETATM   22  C   UNL     1      -8.418   7.522  66.969  1.00  0.00    -0.122 A  
HETATM   23  C   UNL     1      -8.142   7.933  65.666  1.00  0.00    -0.130 A  
HETATM   24  C   UNL     1      -9.263   3.781  67.257  1.00  0.00    -0.183 A  
HETATM   25  O   UNL     1      -8.132   6.855  64.827  1.00  0.00    -0.125 OA 
HETATM   26  C   UNL     1      -9.042   3.484  65.915  1.00  0.00    -0.156 A  
HETATM   27  C   UNL     1      -8.487   5.766  65.546  1.00  0.00    -0.150 A  
HETATM   28  C   UNL     1      -8.704   6.110  66.873  1.00  0.00    -0.109 A  
HETATM   29  C   UNL     1      -8.655   4.487  65.022  1.00  0.00    -0.133 A  
HETATM   30  C   UNL     1      -9.144   5.089  67.740  1.00  0.00    -0.123 A  
BRANCH  23  31
HETATM   31  C   UNL     1      -8.000   9.231  64.942  1.00  0.00    -0.121 C  
BRANCH  31  32
HETATM   32  C   UNL     1      -6.631   9.910  64.947  1.00  0.00    -0.119 C  
BRANCH  32  33
HETATM   33  C   UNL     1      -5.962   9.634  63.589  1.00  0.00    -0.103 C  
HETATM   34  C   UNL     1      -5.245  10.831  62.991  1.00  0.00    -0.179 C  
ENDBRANCH  32  33
ENDBRANCH  31  32
ENDBRANCH  23  31
BRANCH  24  35
HETATM   35  N   UNL     1      -9.631   2.756  68.176  1.00  0.00    -0.215 N  
HETATM   36  H   UNL     1     -10.208   1.968  67.881  1.00  0.00     0.000 HD 
BRANCH  35  37
HETATM   37  S   UNL     1      -9.084   2.882  69.769  1.00  0.00    -0.139 S  
HETATM   38  C   UNL     1      -9.891   1.487  70.526  1.00  0.00     0.053 C  
HETATM   39  O   UNL     1      -7.652   2.694  69.817  1.00  0.00    -0.044 OA 
HETATM   40  O   UNL     1      -9.702   4.083  70.292  1.00  0.00    -0.190 OA 
ENDBRANCH  35  37
ENDBRANCH  24  35
ENDBRANCH  20  22
ENDBRANCH  17  20
ENDBRANCH  13  14
ENDBRANCH  12  13
ENDBRANCH  11  12
ENDBRANCH  10  11
ENDBRANCH   5  10
ENDBRANCH   4   5
ENDBRANCH   3   4
ENDBRANCH   2   3
TORSDOF 18
ENDMDL
MODEL      204
REMARK 921   NORMALIZED FREE ENERGY PREDICTED BY IDOCK:   -2.82 KCAL/MOL
REMARK 922        TOTAL FREE ENERGY PREDICTED BY IDOCK:   -8.50 KCAL/MOL
REMARK 923 INTER-LIGAND FREE ENERGY PREDICTED BY IDOCK:   -6.49 KCAL/MOL
REMARK 924 INTRA-LIGAND FREE ENERGY PREDICTED BY IDOCK:   -2.01 KCAL/MOL
REMARK 927      BINDING AFFINITY PREDICTED BY RF-SCORE:    0.00 PKD
ROOT
HETATM    1  C   UNL     1     -12.039  14.564  68.302  1.00  0.00    -0.234 C  
HETATM    2  C   UNL     1     -10.958  15.633  68.389  1.00  0.00    -0.308 C  
ENDROOT
BRANCH   2   3
HETATM    3  C   UNL     1      -9.676  15.043  68.977  1.00  0.00    -0.229 C  
BRANCH   3   4
HETATM    4  C   UNL     1      -8.423  15.246  68.111  1.00  0.00    -0.151 C  
BRANCH   4   5
HETATM    5  N   UNL     1      -7.864  14.073  67.393  1.00  0.00    -0.183 NA 
BRANCH   5   6
HETATM    6  C   UNL     1      -6.563  13.666  67.973  1.00  0.00    -0.136 C  
BRANCH   6   7
HETATM    7  C   UNL     1      -6.014  14.529  69.127  1.00  0.00    -0.094 C  
BRANCH   7   8
HETATM    8  C   UNL     1      -6.140  13.890  70.511  1.00  0.00    -0.142 C  
HETATM    9  C   UNL     1      -5.313  14.657  71.536  1.00  0.00    -0.129 C  
ENDBRANCH   7   8
ENDBRANCH   6   7
ENDBRANCH   5   6
BRANCH   5  10
HETATM   10  C   UNL     1      -8.837  12.953  67.450  1.00  0.00    -0.199 C  
BRANCH  10  11
HETATM   11  C   UNL     1      -8.226  11.567  67.700  1.00  0.00    -0.131 C  
BRANCH  11  12
HETATM   12  C   UNL     1      -7.355  11.129  66.527  1.00  0.00    -0.129 C  
BRANCH  12  13
HETATM   13  O   UNL     1      -7.958  10.007  65.878  1.00  0.00    -0.115 OA 
BRANCH  13  14
HETATM   14  C   UNL     1      -8.673   9.163  66.686  1.00  0.00    -0.127 A  
HETATM   15  C   UNL     1     -10.013   8.804  66.518  1.00  0.00    -0.360 A  
HETATM   16  C   UNL     1     -10.657   7.993  67.463  1.00  0.00    -0.302 A  
HETATM   17  C   UNL     1      -9.960   7.524  68.584  1.00  0.00    -0.178 A  
HETATM   18  C   UNL     1      -8.592   7.798  68.695  1.00  0.00    -0.129 A  
HETATM   19  C   UNL     1      -7.965   8.643  67.771  1.00  0.00    -0.107 A  
BRANCH  17  20
HETATM   20  C   UNL     1     -10.709   6.782  69.649  1.00  0.00    -0.251 C  
HETATM   21  O   UNL     1     -11.618   6.029  69.307  1.00  0.00    -0.240 OA 
BRANCH  20  22
HETATM   22  C   UNL     1     -10.367   7.012  71.055  1.00  0.00    -0.216 A  
HETATM   23  C   UNL     1     -10.732   8.129  71.806  1.00  0.00    -0.251 A  
HETATM   24  C   UNL     1      -8.071   4.571  72.941  1.00  0.00    -0.096 A  
HETATM   25  O   UNL     1     -10.261   8.009  73.082  1.00  0.00    -0.322 OA 
HETATM   26  C   UNL     1      -8.092   5.264  74.149  1.00  0.00    -0.106 A  
HETATM   27  C   UNL     1      -9.521   6.879  73.147  1.00  0.00    -0.150 A  
HETATM   28  C   UNL     1      -9.522   6.227  71.922  1.00  0.00    -0.160 A  
HETATM   29  C   UNL     1      -8.819   6.452  74.271  1.00  0.00    -0.158 A  
HETATM   30  C   UNL     1      -8.739   5.060  71.812  1.00  0.00    -0.137 A  
BRANCH  23  31
HETATM   31  C   UNL     1     -11.364   9.456  71.545  1.00  0.00    -0.464 C  
BRANCH  31  32
HETATM   32  C   UNL     1     -10.859  10.271  70.356  1.00  0.00    -0.320 C  
BRANCH  32  33
HETATM   33  C   UNL     1     -12.082  10.873  69.642  1.00  0.00    -0.400 C  
HETATM   34  C   UNL     1     -13.401  10.634  70.354  1.00  0.00     0.220 C  
ENDBRANCH  32  33
ENDBRANCH  31  32
ENDBRANCH  23  31
BRANCH  24  35
HETATM   35  N   UNL     1      -7.353   3.346  72.820  1.00  0.00    -0.049 N  
HETATM   36  H   UNL     1      -7.843   2.462  72.676  1.00  0.00     0.000 HD 
BRANCH  35  37
HETATM   37  S   UNL     1      -5.669   3.398  72.923  1.00  0.00    -0.004 S  
HETATM   38  C   UNL     1      -5.208   2.180  71.708  1.00  0.00     0.000 C  
HETATM   39  O   UNL     1      -5.187   4.695  72.510  1.00  0.00    -0.004 OA 
HETATM   40  O   UNL     1      -5.348   2.857  74.228  1.00  0.00     0.000 OA 
ENDBRANCH  35  37
ENDBRANCH  24  35
ENDBRANCH  20  22
ENDBRANCH  17  20
ENDBRANCH  13  14
ENDBRANCH  12  13
ENDBRANCH  11  12
ENDBRANCH  10  11
ENDBRANCH   5  10
ENDBRANCH   4   5
ENDBRANCH   3   4
ENDBRANCH   2   3
TORSDOF 18
ENDMDL
MODEL      205
REMARK 921   NORMALIZED FREE ENERGY PREDICTED BY IDOCK:   -2.81 KCAL/MOL
REMARK 922        TOTAL FREE ENERGY PREDICTED BY IDOCK:   -8.48 KCAL/MOL
REMARK 923 INTER-LIGAND FREE ENERGY PREDICTED BY IDOCK:   -7.27 KCAL/MOL
REMARK 924 INTRA-LIGAND FREE ENERGY PREDICTED BY IDOCK:   -1.21 KCAL/MOL
REMARK 927      BINDING AFFINITY PREDICTED BY RF-SCORE:    0.00 PKD
ROOT
HETATM    1  C   UNL     1     -11.628  15.958  71.597  1.00  0.00    -0.541 C  
HETATM    2  C   UNL     1     -12.321  15.627  70.282  1.00  0.00    -0.402 C  
ENDROOT
BRANCH   2   3
HETATM    3  C   UNL     1     -11.411  14.767  69.405  1.00  0.00    -0.312 C  
BRANCH   3   4
HETATM    4  C   UNL     1     -12.152  13.808  68.462  1.00  0.00    -0.292 C  
BRANCH   4   5
HETATM    5  N   UNL     1     -11.481  13.396  67.203  1.00  0.00    -0.322 NA 
BRANCH   5   6
HETATM    6  C   UNL     1     -10.422  14.361  66.825  1.00  0.00    -0.273 C  
BRANCH   6   7
HETATM    7  C   UNL     1     -10.848  15.834  66.665  1.00  0.00    -0.241 C  
BRANCH   7   8
HETATM    8  C   UNL     1      -9.840  16.847  67.210  1.00  0.00    -0.265 C  
HETATM    9  C   UNL     1      -8.771  16.151  68.043  1.00  0.00    -0.176 C  
ENDBRANCH   7   8
ENDBRANCH   6   7
ENDBRANCH   5   6
BRANCH   5  10
HETATM   10  C   UNL     1     -10.913  12.034  67.373  1.00  0.00    -0.261 C  
BRANCH  10  11
HETATM   11  C   UNL     1     -11.374  11.285  68.632  1.00  0.00    -0.336 C  
BRANCH  11  12
HETATM   12  C   UNL     1     -10.190  10.668  69.370  1.00  0.00    -0.192 C  
BRANCH  12  13
HETATM   13  O   UNL     1     -10.600   9.447  69.992  1.00  0.00    -0.208 OA 
BRANCH  13  14
HETATM   14  C   UNL     1     -10.623   8.343  69.181  1.00  0.00    -0.163 A  
HETATM   15  C   UNL     1     -11.206   7.111  69.490  1.00  0.00    -0.121 A  
HETATM   16  C   UNL     1     -11.091   6.028  68.605  1.00  0.00    -0.293 A  
HETATM   17  C   UNL     1     -10.399   6.173  67.397  1.00  0.00    -0.262 A  
HETATM   18  C   UNL     1      -9.909   7.436  67.044  1.00  0.00    -0.273 A  
HETATM   19  C   UNL     1      -9.989   8.501  67.949  1.00  0.00    -0.225 A  
BRANCH  17  20
HETATM   20  C   UNL     1     -10.169   4.965  66.540  1.00  0.00    -0.270 C  
HETATM   21  O   UNL     1     -11.004   4.690  65.682  1.00  0.00    -0.253 OA 
BRANCH  20  22
HETATM   22  C   UNL     1      -8.990   4.131  66.785  1.00  0.00    -0.131 A  
HETATM   23  C   UNL     1      -7.934   3.937  65.895  1.00  0.00    -0.093 A  
HETATM   24  C   UNL     1      -8.710   2.022  69.988  1.00  0.00    -0.058 A  
HETATM   25  O   UNL     1      -6.997   3.116  66.453  1.00  0.00    -0.052 OA 
HETATM   26  C   UNL     1      -7.468   1.469  69.684  1.00  0.00    -0.036 A  
HETATM   27  C   UNL     1      -7.467   2.702  67.651  1.00  0.00    -0.057 A  
HETATM   28  C   UNL     1      -8.707   3.269  67.908  1.00  0.00    -0.135 A  
HETATM   29  C   UNL     1      -6.821   1.796  68.489  1.00  0.00    -0.032 A  
HETATM   30  C   UNL     1      -9.359   2.882  69.096  1.00  0.00    -0.211 A  
BRANCH  23  31
HETATM   31  C   UNL     1      -7.638   4.270  64.470  1.00  0.00    -0.073 C  
BRANCH  31  32
HETATM   32  C   UNL     1      -6.885   5.567  64.177  1.00  0.00    -0.047 C  
BRANCH  32  33
HETATM   33  C   UNL     1      -7.927   6.666  63.905  1.00  0.00    -0.075 C  
HETATM   34  C   UNL     1      -7.333   8.010  63.527  1.00  0.00    -0.110 C  
ENDBRANCH  32  33
ENDBRANCH  31  32
ENDBRANCH  23  31
BRANCH  24  35
HETATM   35  N   UNL     1      -9.359   1.713  71.219  1.00  0.00    -0.102 N  
HETATM   36  H   UNL     1      -9.861   0.833  71.342  1.00  0.00     0.000 HD 
BRANCH  35  37
HETATM   37  S   UNL     1      -9.273   2.845  72.469  1.00  0.00    -0.100 S  
HETATM   38  C   UNL     1      -7.810   3.752  72.016  1.00  0.00    -0.063 C  
HETATM   39  O   UNL     1     -10.418   3.725  72.420  1.00  0.00    -0.148 OA 
HETATM   40  O   UNL     1      -8.963   2.080  73.658  1.00  0.00    -0.065 OA 
ENDBRANCH  35  37
ENDBRANCH  24  35
ENDBRANCH  20  22
ENDBRANCH  17  20
ENDBRANCH  13  14
ENDBRANCH  12  13
ENDBRANCH  11  12
ENDBRANCH  10  11
ENDBRANCH   5  10
ENDBRANCH   4   5
ENDBRANCH   3   4
ENDBRANCH   2   3
TORSDOF 18
ENDMDL
MODEL      206
REMARK 921   NORMALIZED FREE ENERGY PREDICTED BY IDOCK:   -2.79 KCAL/MOL
REMARK 922        TOTAL FREE ENERGY PREDICTED BY IDOCK:   -8.45 KCAL/MOL
REMARK 923 INTER-LIGAND FREE ENERGY PREDICTED BY IDOCK:   -7.84 KCAL/MOL
REMARK 924 INTRA-LIGAND FREE ENERGY PREDICTED BY IDOCK:   -0.61 KCAL/MOL
REMARK 927      BINDING AFFINITY PREDICTED BY RF-SCORE:    0.00 PKD
ROOT
HETATM    1  C   UNL     1     -13.536   9.569  72.083  1.00  0.00    -0.500 C  
HETATM    2  C   UNL     1     -12.763   8.304  72.434  1.00  0.00    -0.287 C  
ENDROOT
BRANCH   2   3
HETATM    3  C   UNL     1     -11.782   7.956  71.315  1.00  0.00    -0.313 C  
BRANCH   3   4
HETATM    4  C   UNL     1     -11.451   6.460  71.198  1.00  0.00    -0.323 C  
BRANCH   4   5
HETATM    5  N   UNL     1     -10.044   6.067  70.933  1.00  0.00    -0.190 NA 
BRANCH   5   6
HETATM    6  C   UNL     1      -9.470   5.336  72.087  1.00  0.00    -0.143 C  
BRANCH   6   7
HETATM    7  C   UNL     1     -10.263   4.120  72.605  1.00  0.00    -0.231 C  
BRANCH   7   8
HETATM    8  C   UNL     1      -9.951   2.806  71.886  1.00  0.00    -0.210 C  
HETATM    9  C   UNL     1      -9.029   1.935  72.730  1.00  0.00    -0.078 C  
ENDBRANCH   7   8
ENDBRANCH   6   7
ENDBRANCH   5   6
BRANCH   5  10
HETATM   10  C   UNL     1      -9.991   5.234  69.705  1.00  0.00    -0.236 C  
BRANCH  10  11
HETATM   11  C   UNL     1      -9.046   5.744  68.607  1.00  0.00    -0.116 C  
BRANCH  11  12
HETATM   12  C   UNL     1      -8.927   7.264  68.647  1.00  0.00    -0.128 C  
BRANCH  12  13
HETATM   13  O   UNL     1      -7.796   7.674  67.874  1.00  0.00    -0.113 OA 
BRANCH  13  14
HETATM   14  C   UNL     1      -7.466   9.001  67.957  1.00  0.00    -0.084 A  
HETATM   15  C   UNL     1      -7.566   9.802  69.097  1.00  0.00    -0.085 A  
HETATM   16  C   UNL     1      -7.274  11.172  69.033  1.00  0.00    -0.118 A  
HETATM   17  C   UNL     1      -6.869  11.753  67.824  1.00  0.00    -0.090 A  
HETATM   18  C   UNL     1      -6.670  10.929  66.710  1.00  0.00    -0.120 A  
HETATM   19  C   UNL     1      -7.003   9.570  66.769  1.00  0.00    -0.081 A  
BRANCH  17  20
HETATM   20  C   UNL     1      -6.704  13.241  67.750  1.00  0.00    -0.153 C  
HETATM   21  O   UNL     1      -5.579  13.694  67.558  1.00  0.00    -0.330 OA 
BRANCH  20  22
HETATM   22  C   UNL     1      -7.873  14.099  67.955  1.00  0.00    -0.146 A  
HETATM   23  C   UNL     1      -7.897  15.269  68.714  1.00  0.00    -0.154 A  
HETATM   24  C   UNL     1     -11.316  13.089  66.571  1.00  0.00    -0.320 A  
HETATM   25  O   UNL     1      -9.144  15.825  68.676  1.00  0.00    -0.185 OA 
HETATM   26  C   UNL     1     -11.994  14.207  67.052  1.00  0.00    -0.471 A  
HETATM   27  C   UNL     1      -9.950  14.992  67.980  1.00  0.00    -0.219 A  
HETATM   28  C   UNL     1      -9.236  13.891  67.528  1.00  0.00    -0.205 A  
HETATM   29  C   UNL     1     -11.315  15.185  67.784  1.00  0.00    -0.335 A  
HETATM   30  C   UNL     1      -9.956  12.895  66.837  1.00  0.00    -0.238 A  
BRANCH  23  31
HETATM   31  C   UNL     1      -6.977  15.975  69.653  1.00  0.00    -0.136 C  
BRANCH  31  32
HETATM   32  C   UNL     1      -6.607  15.275  70.960  1.00  0.00     0.715 C  
BRANCH  32  33
HETATM   33  C   UNL     1      -6.251  13.815  70.628  1.00  0.00    -0.032 C  
HETATM   34  C   UNL     1      -5.399  13.126  71.678  1.00  0.00    -0.110 C  
ENDBRANCH  32  33
ENDBRANCH  31  32
ENDBRANCH  23  31
BRANCH  24  35
HETATM   35  N   UNL     1     -11.998  12.103  65.800  1.00  0.00    -0.303 N  
HETATM   36  H   UNL     1     -12.456  11.310  66.249  1.00  0.00     0.000 HD 
BRANCH  35  37
HETATM   37  S   UNL     1     -12.026  12.287  64.122  1.00  0.00    -0.445 S  
HETATM   38  C   UNL     1     -11.775  14.042  63.960  1.00  0.00    -0.248 C  
HETATM   39  O   UNL     1     -10.913  11.584  63.527  1.00  0.00    -0.399 OA 
HETATM   40  O   UNL     1     -13.391  12.002  63.728  1.00  0.00    -0.681 OA 
ENDBRANCH  35  37
ENDBRANCH  24  35
ENDBRANCH  20  22
ENDBRANCH  17  20
ENDBRANCH  13  14
ENDBRANCH  12  13
ENDBRANCH  11  12
ENDBRANCH  10  11
ENDBRANCH   5  10
ENDBRANCH   4   5
ENDBRANCH   3   4
ENDBRANCH   2   3
TORSDOF 18
ENDMDL
MODEL      207
REMARK 921   NORMALIZED FREE ENERGY PREDICTED BY IDOCK:   -2.79 KCAL/MOL
REMARK 922        TOTAL FREE ENERGY PREDICTED BY IDOCK:   -8.45 KCAL/MOL
REMARK 923 INTER-LIGAND FREE ENERGY PREDICTED BY IDOCK:   -8.56 KCAL/MOL
REMARK 924 INTRA-LIGAND FREE ENERGY PREDICTED BY IDOCK:    0.12 KCAL/MOL
REMARK 927      BINDING AFFINITY PREDICTED BY RF-SCORE:    0.00 PKD
ROOT
HETATM    1  C   UNL     1     -11.281  12.649  63.704  1.00  0.00    -0.525 C  
HETATM    2  C   UNL     1     -12.405  13.426  64.377  1.00  0.00    -0.399 C  
ENDROOT
BRANCH   2   3
HETATM    3  C   UNL     1     -11.829  14.444  65.361  1.00  0.00    -0.366 C  
BRANCH   3   4
HETATM    4  C   UNL     1     -12.231  14.215  66.825  1.00  0.00    -0.394 C  
BRANCH   4   5
HETATM    5  N   UNL     1     -11.194  14.376  67.876  1.00  0.00    -0.274 NA 
BRANCH   5   6
HETATM    6  C   UNL     1     -11.566  15.445  68.831  1.00  0.00    -0.354 C  
BRANCH   6   7
HETATM    7  C   UNL     1     -11.736  15.033  70.307  1.00  0.00    -0.338 C  
BRANCH   7   8
HETATM    8  C   UNL     1     -12.486  13.715  70.514  1.00  0.00    -0.394 C  
HETATM    9  C   UNL     1     -13.423  13.812  71.712  1.00  0.00    -0.456 C  
ENDBRANCH   7   8
ENDBRANCH   6   7
ENDBRANCH   5   6
BRANCH   5  10
HETATM   10  C   UNL     1     -11.007  13.083  68.583  1.00  0.00    -0.265 C  
BRANCH  10  11
HETATM   11  C   UNL     1     -10.408  11.953  67.733  1.00  0.00    -0.214 C  
BRANCH  11  12
HETATM   12  C   UNL     1      -9.057  12.357  67.153  1.00  0.00    -0.199 C  
BRANCH  12  13
HETATM   13  O   UNL     1      -8.198  11.214  67.104  1.00  0.00    -0.128 OA 
BRANCH  13  14
HETATM   14  C   UNL     1      -8.819   9.997  67.200  1.00  0.00    -0.135 A  
HETATM   15  C   UNL     1      -9.999   9.623  66.550  1.00  0.00    -0.313 A  
HETATM   16  C   UNL     1     -10.580   8.371  66.795  1.00  0.00    -0.227 A  
HETATM   17  C   UNL     1      -9.979   7.474  67.687  1.00  0.00    -0.219 A  
HETATM   18  C   UNL     1      -8.744   7.809  68.255  1.00  0.00    -0.127 A  
HETATM   19  C   UNL     1      -8.190   9.077  68.040  1.00  0.00    -0.110 A  
BRANCH  17  20
HETATM   20  C   UNL     1     -10.696   6.206  68.039  1.00  0.00    -0.295 C  
HETATM   21  O   UNL     1     -11.283   5.600  67.146  1.00  0.00     0.022 OA 
BRANCH  20  22
HETATM   22  C   UNL     1     -10.713   5.759  69.434  1.00  0.00    -0.397 A  
HETATM   23  C   UNL     1     -11.390   6.388  70.479  1.00  0.00    -0.375 A  
HETATM   24  C   UNL     1      -8.581   2.765  70.562  1.00  0.00    -0.060 A  
HETATM   25  O   UNL     1     -11.204   5.695  71.640  1.00  0.00    -0.231 OA 
HETATM   26  C   UNL     1      -8.969   2.812  71.899  1.00  0.00    -0.131 A  
HETATM   27  C   UNL     1     -10.348   4.680  71.386  1.00  0.00    -0.090 A  
HETATM   28  C   UNL     1      -9.983   4.676  70.047  1.00  0.00    -0.302 A  
HETATM   29  C   UNL     1      -9.863   3.790  72.342  1.00  0.00    -0.223 A  
HETATM   30  C   UNL     1      -9.040   3.711  69.639  1.00  0.00    -0.197 A  
BRANCH  23  31
HETATM   31  C   UNL     1     -12.126   7.671  70.682  1.00  0.00    -0.068 C  
BRANCH  31  32
HETATM   32  C   UNL     1     -11.751   8.531  71.887  1.00  0.00    -0.409 C  
BRANCH  32  33
HETATM   33  C   UNL     1     -10.215   8.577  71.975  1.00  0.00    -0.391 C  
HETATM   34  C   UNL     1      -9.570   9.627  71.089  1.00  0.00     0.123 C  
ENDBRANCH  32  33
ENDBRANCH  31  32
ENDBRANCH  23  31
BRANCH  24  35
HETATM   35  N   UNL     1      -7.691   1.751  70.100  1.00  0.00    -0.042 N  
HETATM   36  H   UNL     1      -8.034   0.821  69.860  1.00  0.00     0.000 HD 
BRANCH  35  37
HETATM   37  S   UNL     1      -6.052   2.136  69.963  1.00  0.00    -0.024 S  
HETATM   38  C   UNL     1      -6.082   3.892  70.253  1.00  0.00    -0.019 C  
HETATM   39  O   UNL     1      -5.301   1.487  71.012  1.00  0.00    -0.004 OA 
HETATM   40  O   UNL     1      -5.726   1.929  68.567  1.00  0.00    -0.017 OA 
ENDBRANCH  35  37
ENDBRANCH  24  35
ENDBRANCH  20  22
ENDBRANCH  17  20
ENDBRANCH  13  14
ENDBRANCH  12  13
ENDBRANCH  11  12
ENDBRANCH  10  11
ENDBRANCH   5  10
ENDBRANCH   4   5
ENDBRANCH   3   4
ENDBRANCH   2   3
TORSDOF 18
ENDMDL
MODEL      208
REMARK 921   NORMALIZED FREE ENERGY PREDICTED BY IDOCK:   -2.76 KCAL/MOL
REMARK 922        TOTAL FREE ENERGY PREDICTED BY IDOCK:   -8.38 KCAL/MOL
REMARK 923 INTER-LIGAND FREE ENERGY PREDICTED BY IDOCK:   -7.54 KCAL/MOL
REMARK 924 INTRA-LIGAND FREE ENERGY PREDICTED BY IDOCK:   -0.84 KCAL/MOL
REMARK 927      BINDING AFFINITY PREDICTED BY RF-SCORE:    0.00 PKD
ROOT
HETATM    1  C   UNL     1      -9.027  16.472  68.580  1.00  0.00    -0.236 C  
HETATM    2  C   UNL     1      -9.144  16.800  67.098  1.00  0.00    -0.224 C  
ENDROOT
BRANCH   2   3
HETATM    3  C   UNL     1     -10.304  16.026  66.473  1.00  0.00    -0.303 C  
BRANCH   3   4
HETATM    4  C   UNL     1     -11.285  15.417  67.487  1.00  0.00    -0.302 C  
BRANCH   4   5
HETATM    5  N   UNL     1     -12.008  14.175  67.113  1.00  0.00    -0.421 NA 
BRANCH   5   6
HETATM    6  C   UNL     1     -12.418  14.207  65.690  1.00  0.00    -0.469 C  
BRANCH   6   7
HETATM    7  C   UNL     1     -12.443  12.860  64.942  1.00  0.00    -0.540 C  
BRANCH   7   8
HETATM    8  C   UNL     1     -11.677  12.856  63.617  1.00  0.00    -0.572 C  
HETATM    9  C   UNL     1     -10.419  12.003  63.724  1.00  0.00    -0.469 C  
ENDBRANCH   7   8
ENDBRANCH   6   7
ENDBRANCH   5   6
BRANCH   5  10
HETATM   10  C   UNL     1     -11.137  13.002  67.381  1.00  0.00    -0.272 C  
BRANCH  10  11
HETATM   11  C   UNL     1     -11.788  11.878  68.201  1.00  0.00    -0.338 C  
BRANCH  11  12
HETATM   12  C   UNL     1     -11.661  12.143  69.697  1.00  0.00    -0.325 C  
BRANCH  12  13
HETATM   13  O   UNL     1     -11.481  10.904  70.387  1.00  0.00    -0.307 OA 
BRANCH  13  14
HETATM   14  C   UNL     1     -10.743   9.956  69.729  1.00  0.00    -0.267 A  
HETATM   15  C   UNL     1     -10.931   9.542  68.407  1.00  0.00    -0.117 A  
HETATM   16  C   UNL     1     -10.160   8.500  67.871  1.00  0.00    -0.258 A  
HETATM   17  C   UNL     1      -9.184   7.868  68.652  1.00  0.00    -0.142 A  
HETATM   18  C   UNL     1      -8.928   8.355  69.940  1.00  0.00    -0.142 A  
HETATM   19  C   UNL     1      -9.729   9.367  70.484  1.00  0.00    -0.331 A  
BRANCH  17  20
HETATM   20  C   UNL     1      -8.477   6.667  68.103  1.00  0.00    -0.116 C  
HETATM   21  O   UNL     1      -8.777   6.276  66.978  1.00  0.00    -0.108 OA 
BRANCH  20  22
HETATM   22  C   UNL     1      -7.492   5.975  68.939  1.00  0.00    -0.086 A  
HETATM   23  C   UNL     1      -6.110   6.145  68.873  1.00  0.00    -0.028 A  
HETATM   24  C   UNL     1      -8.593   3.242  71.411  1.00  0.00    -0.072 A  
HETATM   25  O   UNL     1      -5.497   5.358  69.806  1.00  0.00    -0.007 OA 
HETATM   26  C   UNL     1      -7.313   2.957  71.883  1.00  0.00    -0.043 A  
HETATM   27  C   UNL     1      -6.450   4.615  70.413  1.00  0.00    -0.034 A  
HETATM   28  C   UNL     1      -7.704   4.925  69.907  1.00  0.00    -0.056 A  
HETATM   29  C   UNL     1      -6.204   3.641  71.378  1.00  0.00    -0.015 A  
HETATM   30  C   UNL     1      -8.799   4.185  70.397  1.00  0.00    -0.137 A  
BRANCH  23  31
HETATM   31  C   UNL     1      -5.141   6.837  67.973  1.00  0.00    -0.008 C  
BRANCH  31  32
HETATM   32  C   UNL     1      -5.135   6.455  66.494  1.00  0.00    -0.012 C  
BRANCH  32  33
HETATM   33  C   UNL     1      -5.237   7.752  65.671  1.00  0.00    -0.028 C  
HETATM   34  C   UNL     1      -6.361   8.677  66.100  1.00  0.00    -0.056 C  
ENDBRANCH  32  33
ENDBRANCH  31  32
ENDBRANCH  23  31
BRANCH  24  35
HETATM   35  N   UNL     1      -9.729   2.567  71.944  1.00  0.00    -0.141 N  
HETATM   36  H   UNL     1     -10.111   1.739  71.487  1.00  0.00     0.000 HD 
BRANCH  35  37
HETATM   37  S   UNL     1     -10.427   3.179  73.355  1.00  0.00    -0.178 S  
HETATM   38  C   UNL     1     -11.258   4.626  72.732  1.00  0.00    -0.089 C  
HETATM   39  O   UNL     1     -11.404   2.248  73.869  1.00  0.00    -0.192 OA 
HETATM   40  O   UNL     1      -9.316   3.628  74.168  1.00  0.00    -0.092 OA 
ENDBRANCH  35  37
ENDBRANCH  24  35
ENDBRANCH  20  22
ENDBRANCH  17  20
ENDBRANCH  13  14
ENDBRANCH  12  13
ENDBRANCH  11  12
ENDBRANCH  10  11
ENDBRANCH   5  10
ENDBRANCH   4   5
ENDBRANCH   3   4
ENDBRANCH   2   3
TORSDOF 18
ENDMDL
MODEL      209
REMARK 921   NORMALIZED FREE ENERGY PREDICTED BY IDOCK:   -2.65 KCAL/MOL
REMARK 922        TOTAL FREE ENERGY PREDICTED BY IDOCK:   -8.15 KCAL/MOL
REMARK 923 INTER-LIGAND FREE ENERGY PREDICTED BY IDOCK:   -7.00 KCAL/MOL
REMARK 924 INTRA-LIGAND FREE ENERGY PREDICTED BY IDOCK:   -1.15 KCAL/MOL
REMARK 927      BINDING AFFINITY PREDICTED BY RF-SCORE:    0.00 PKD
ROOT
HETATM    1  C   UNL     1     -11.884  15.874  64.438  1.00  0.00    -0.101 C  
HETATM    2  C   UNL     1     -11.466  14.592  65.148  1.00  0.00    -0.375 C  
ENDROOT
BRANCH   2   3
HETATM    3  C   UNL     1      -9.952  14.576  65.362  1.00  0.00    -0.352 C  
BRANCH   3   4
HETATM    4  C   UNL     1      -9.432  15.649  66.330  1.00  0.00    -0.319 C  
BRANCH   4   5
HETATM    5  N   UNL     1      -7.964  15.810  66.483  1.00  0.00    -0.214 NA 
BRANCH   5   6
HETATM    6  C   UNL     1      -7.524  17.145  66.013  1.00  0.00    -0.143 C  
BRANCH   6   7
HETATM    7  C   UNL     1      -6.430  17.849  66.839  1.00  0.00    -0.207 C  
BRANCH   7   8
HETATM    8  C   UNL     1      -6.891  19.127  67.542  1.00  0.00    -0.224 C  
HETATM    9  C   UNL     1      -5.898  19.536  68.623  1.00  0.00    -0.250 C  
ENDBRANCH   7   8
ENDBRANCH   6   7
ENDBRANCH   5   6
BRANCH   5  10
HETATM   10  C   UNL     1      -7.594  15.608  67.907  1.00  0.00    -0.131 C  
BRANCH  10  11
HETATM   11  C   UNL     1      -7.850  14.197  68.456  1.00  0.00    -0.140 C  
BRANCH  11  12
HETATM   12  C   UNL     1      -6.731  13.240  68.057  1.00  0.00    -0.127 C  
BRANCH  12  13
HETATM   13  O   UNL     1      -7.178  12.403  66.987  1.00  0.00    -0.114 OA 
BRANCH  13  14
HETATM   14  C   UNL     1      -7.704  11.193  67.356  1.00  0.00    -0.120 A  
HETATM   15  C   UNL     1      -8.640  10.980  68.372  1.00  0.00    -0.149 A  
HETATM   16  C   UNL     1      -9.041   9.679  68.709  1.00  0.00    -0.134 A  
HETATM   17  C   UNL     1      -8.514   8.577  68.024  1.00  0.00    -0.131 A  
HETATM   18  C   UNL     1      -7.658   8.800  66.939  1.00  0.00    -0.090 A  
HETATM   19  C   UNL     1      -7.229  10.098  66.634  1.00  0.00    -0.105 A  
BRANCH  17  20
HETATM   20  C   UNL     1      -8.849   7.196  68.500  1.00  0.00    -0.125 C  
HETATM   21  O   UNL     1      -9.301   6.393  67.689  1.00  0.00    -0.119 OA 
BRANCH  20  22
HETATM   22  C   UNL     1      -8.672   6.867  69.917  1.00  0.00    -0.142 A  
HETATM   23  C   UNL     1      -7.636   6.100  70.448  1.00  0.00    -0.096 A  
HETATM   24  C   UNL     1     -11.309   7.905  72.516  1.00  0.00    -0.390 A  
HETATM   25  O   UNL     1      -7.770   6.008  71.804  1.00  0.00    -0.098 OA 
HETATM   26  C   UNL     1     -10.653   7.349  73.611  1.00  0.00    -0.316 A  
HETATM   27  C   UNL     1      -8.922   6.625  72.151  1.00  0.00    -0.138 A  
HETATM   28  C   UNL     1      -9.545   7.156  71.030  1.00  0.00    -0.158 A  
HETATM   29  C   UNL     1      -9.436   6.681  73.444  1.00  0.00    -0.163 A  
HETATM   30  C   UNL     1     -10.795   7.778  71.221  1.00  0.00    -0.255 A  
BRANCH  23  31
HETATM   31  C   UNL     1      -6.527   5.253  69.918  1.00  0.00    -0.035 C  
BRANCH  31  32
HETATM   32  C   UNL     1      -6.891   4.079  69.010  1.00  0.00    -0.046 C  
BRANCH  32  33
HETATM   33  C   UNL     1      -7.826   3.145  69.799  1.00  0.00    -0.048 C  
HETATM   34  C   UNL     1      -9.171   2.905  69.138  1.00  0.00    -0.220 C  
ENDBRANCH  32  33
ENDBRANCH  31  32
ENDBRANCH  23  31
BRANCH  24  35
HETATM   35  N   UNL     1     -12.536   8.611  72.687  1.00  0.00    -0.496 N  
HETATM   36  H   UNL     1     -13.030   8.596  73.580  1.00  0.00     0.000 HD 
BRANCH  35  37
HETATM   37  S   UNL     1     -13.148   9.471  71.369  1.00  0.00    -0.361 S  
HETATM   38  C   UNL     1     -13.652  10.990  72.150  1.00  0.00     0.021 C  
HETATM   39  O   UNL     1     -12.092   9.744  70.422  1.00  0.00    -0.215 OA 
HETATM   40  O   UNL     1     -14.348   8.763  70.974  1.00  0.00    -0.179 OA 
ENDBRANCH  35  37
ENDBRANCH  24  35
ENDBRANCH  20  22
ENDBRANCH  17  20
ENDBRANCH  13  14
ENDBRANCH  12  13
ENDBRANCH  11  12
ENDBRANCH  10  11
ENDBRANCH   5  10
ENDBRANCH   4   5
ENDBRANCH   3   4
ENDBRANCH   2   3
TORSDOF 18
ENDMDL
MODEL      210
REMARK 921   NORMALIZED FREE ENERGY PREDICTED BY IDOCK:   -2.49 KCAL/MOL
REMARK 922        TOTAL FREE ENERGY PREDICTED BY IDOCK:   -7.83 KCAL/MOL
REMARK 923 INTER-LIGAND FREE ENERGY PREDICTED BY IDOCK:   -6.67 KCAL/MOL
REMARK 924 INTRA-LIGAND FREE ENERGY PREDICTED BY IDOCK:   -1.16 KCAL/MOL
REMARK 927      BINDING AFFINITY PREDICTED BY RF-SCORE:    0.00 PKD
ROOT
HETATM    1  C   UNL     1     -11.134   4.602  65.251  1.00  0.00     0.108 C  
HETATM    2  C   UNL     1     -10.173   3.761  64.421  1.00  0.00    -0.227 C  
ENDROOT
BRANCH   2   3
HETATM    3  C   UNL     1      -9.270   4.663  63.580  1.00  0.00    -0.032 C  
BRANCH   3   4
HETATM    4  C   UNL     1      -7.984   3.990  63.076  1.00  0.00    -0.075 C  
BRANCH   4   5
HETATM    5  N   UNL     1      -6.678   4.557  63.496  1.00  0.00    -0.041 NA 
BRANCH   5   6
HETATM    6  C   UNL     1      -5.554   3.736  62.991  1.00  0.00    -0.013 C  
BRANCH   6   7
HETATM    7  C   UNL     1      -5.147   2.514  63.838  1.00  0.00    -0.008 C  
BRANCH   7   8
HETATM    8  C   UNL     1      -5.332   2.699  65.346  1.00  0.00    -0.009 C  
HETATM    9  C   UNL     1      -6.608   2.016  65.821  1.00  0.00    -0.024 C  
ENDBRANCH   7   8
ENDBRANCH   6   7
ENDBRANCH   5   6
BRANCH   5  10
HETATM   10  C   UNL     1      -6.569   5.954  63.004  1.00  0.00    -0.036 C  
BRANCH  10  11
HETATM   11  C   UNL     1      -7.382   6.992  63.793  1.00  0.00    -0.081 C  
BRANCH  11  12
HETATM   12  C   UNL     1      -8.123   7.939  62.855  1.00  0.00    -0.119 C  
BRANCH  12  13
HETATM   13  O   UNL     1      -7.570   9.252  62.969  1.00  0.00    -0.105 OA 
BRANCH  13  14
HETATM   14  C   UNL     1      -7.741   9.868  64.181  1.00  0.00    -0.138 A  
HETATM   15  C   UNL     1      -6.721  10.324  65.021  1.00  0.00    -0.108 A  
HETATM   16  C   UNL     1      -7.025  10.866  66.279  1.00  0.00    -0.120 A  
HETATM   17  C   UNL     1      -8.355  10.967  66.703  1.00  0.00    -0.155 A  
HETATM   18  C   UNL     1      -9.378  10.608  65.817  1.00  0.00    -0.223 A  
HETATM   19  C   UNL     1      -9.068  10.028  64.581  1.00  0.00    -0.280 A  
BRANCH  17  20
HETATM   20  C   UNL     1      -8.641  11.416  68.105  1.00  0.00    -0.153 C  
HETATM   21  O   UNL     1      -7.694  11.723  68.823  1.00  0.00    -0.130 OA 
BRANCH  20  22
HETATM   22  C   UNL     1     -10.026  11.427  68.582  1.00  0.00    -0.209 A  
HETATM   23  C   UNL     1     -11.021  12.311  68.165  1.00  0.00    -0.231 A  
HETATM   24  C   UNL     1     -11.151   9.057  71.394  1.00  0.00    -0.329 A  
HETATM   25  O   UNL     1     -12.195  12.026  68.800  1.00  0.00    -0.259 OA 
HETATM   26  C   UNL     1     -12.472   9.497  71.428  1.00  0.00    -0.450 A  
HETATM   27  C   UNL     1     -11.959  11.032  69.686  1.00  0.00    -0.353 A  
HETATM   28  C   UNL     1     -10.632  10.631  69.623  1.00  0.00    -0.260 A  
HETATM   29  C   UNL     1     -12.902  10.514  70.570  1.00  0.00    -0.339 A  
HETATM   30  C   UNL     1     -10.213   9.641  70.535  1.00  0.00    -0.351 A  
BRANCH  23  31
HETATM   31  C   UNL     1     -11.097  13.549  67.336  1.00  0.00    -0.300 C  
BRANCH  31  32
HETATM   32  C   UNL     1     -10.493  14.833  67.904  1.00  0.00    -0.246 C  
BRANCH  32  33
HETATM   33  C   UNL     1     -11.650  15.787  68.249  1.00  0.00    -0.302 C  
HETATM   34  C   UNL     1     -12.435  15.395  69.487  1.00  0.00    -0.110 C  
ENDBRANCH  32  33
ENDBRANCH  31  32
ENDBRANCH  23  31
BRANCH  24  35
HETATM   35  N   UNL     1     -10.716   8.002  72.248  1.00  0.00    -0.271 N  
HETATM   36  H   UNL     1     -10.787   8.084  73.262  1.00  0.00     0.000 HD 
BRANCH  35  37
HETATM   37  S   UNL     1     -10.077   6.612  71.531  1.00  0.00    -0.181 S  
HETATM   38  C   UNL     1      -8.332   6.869  71.769  1.00  0.00    -0.108 C  
HETATM   39  O   UNL     1     -10.495   5.440  72.265  1.00  0.00    -0.205 OA 
HETATM   40  O   UNL     1     -10.352   6.751  70.116  1.00  0.00    -0.195 OA 
ENDBRANCH  35  37
ENDBRANCH  24  35
ENDBRANCH  20  22
ENDBRANCH  17  20
ENDBRANCH  13  14
ENDBRANCH  12  13
ENDBRANCH  11  12
ENDBRANCH  10  11
ENDBRANCH   5  10
ENDBRANCH   4   5
ENDBRANCH   3   4
ENDBRANCH   2   3
TORSDOF 18
ENDMDL
MODEL      211
REMARK 921   NORMALIZED FREE ENERGY PREDICTED BY IDOCK:   -2.43 KCAL/MOL
REMARK 922        TOTAL FREE ENERGY PREDICTED BY IDOCK:   -7.71 KCAL/MOL
REMARK 923 INTER-LIGAND FREE ENERGY PREDICTED BY IDOCK:   -5.80 KCAL/MOL
REMARK 924 INTRA-LIGAND FREE ENERGY PREDICTED BY IDOCK:   -1.91 KCAL/MOL
REMARK 927      BINDING AFFINITY PREDICTED BY RF-SCORE:    0.00 PKD
ROOT
HETATM    1  C   UNL     1     -11.799  15.152  69.582  1.00  0.00    -0.362 C  
HETATM    2  C   UNL     1     -10.835  15.152  68.403  1.00  0.00    -0.255 C  
ENDROOT
BRANCH   2   3
HETATM    3  C   UNL     1      -9.637  16.055  68.698  1.00  0.00    -0.222 C  
BRANCH   3   4
HETATM    4  C   UNL     1      -8.435  15.847  67.764  1.00  0.00    -0.158 C  
BRANCH   4   5
HETATM    5  N   UNL     1      -7.069  16.008  68.325  1.00  0.00    -0.117 NA 
BRANCH   5   6
HETATM    6  C   UNL     1      -6.990  17.205  69.194  1.00  0.00    -0.224 C  
BRANCH   6   7
HETATM    7  C   UNL     1      -6.671  18.546  68.505  1.00  0.00    -0.267 C  
BRANCH   7   8
HETATM    8  C   UNL     1      -6.826  19.774  69.405  1.00  0.00    -0.364 C  
HETATM    9  C   UNL     1      -5.734  20.796  69.116  1.00  0.00    -0.398 C  
ENDBRANCH   7   8
ENDBRANCH   6   7
ENDBRANCH   5   6
BRANCH   5  10
HETATM   10  C   UNL     1      -6.703  14.784  69.082  1.00  0.00    -0.123 C  
BRANCH  10  11
HETATM   11  C   UNL     1      -5.529  13.982  68.502  1.00  0.00    -0.096 C  
BRANCH  11  12
HETATM   12  C   UNL     1      -6.020  12.902  67.545  1.00  0.00    -0.128 C  
BRANCH  12  13
HETATM   13  O   UNL     1      -5.619  11.617  68.029  1.00  0.00    -0.043 OA 
BRANCH  13  14
HETATM   14  C   UNL     1      -6.635  10.773  68.393  1.00  0.00    -0.055 A  
HETATM   15  C   UNL     1      -6.948  10.380  69.697  1.00  0.00    -0.127 A  
HETATM   16  C   UNL     1      -7.965   9.443  69.933  1.00  0.00    -0.132 A  
HETATM   17  C   UNL     1      -8.685   8.897  68.864  1.00  0.00    -0.136 A  
HETATM   18  C   UNL     1      -8.440   9.371  67.569  1.00  0.00    -0.122 A  
HETATM   19  C   UNL     1      -7.396  10.274  67.335  1.00  0.00    -0.093 A  
BRANCH  17  20
HETATM   20  C   UNL     1      -9.664   7.794  69.133  1.00  0.00    -0.161 C  
HETATM   21  O   UNL     1     -10.840   8.092  69.323  1.00  0.00    -0.177 OA 
BRANCH  20  22
HETATM   22  C   UNL     1      -9.181   6.413  69.206  1.00  0.00    -0.135 A  
HETATM   23  C   UNL     1      -8.863   5.726  70.377  1.00  0.00    -0.142 A  
HETATM   24  C   UNL     1      -8.422   4.428  66.000  1.00  0.00    -0.113 A  
HETATM   25  O   UNL     1      -8.462   4.455  70.078  1.00  0.00    -0.065 OA 
HETATM   26  C   UNL     1      -8.014   3.266  66.649  1.00  0.00    -0.080 A  
HETATM   27  C   UNL     1      -8.427   4.335  68.732  1.00  0.00    -0.083 A  
HETATM   28  C   UNL     1      -8.833   5.517  68.129  1.00  0.00    -0.105 A  
HETATM   29  C   UNL     1      -7.999   3.202  68.045  1.00  0.00    -0.068 A  
HETATM   30  C   UNL     1      -8.789   5.571  66.721  1.00  0.00    -0.114 A  
BRANCH  23  31
HETATM   31  C   UNL     1      -8.714   6.055  71.825  1.00  0.00    -0.138 C  
BRANCH  31  32
HETATM   32  C   UNL     1      -9.596   5.311  72.826  1.00  0.00    -0.167 C  
BRANCH  32  33
HETATM   33  C   UNL     1     -10.971   5.091  72.170  1.00  0.00    -0.122 C  
HETATM   34  C   UNL     1     -11.881   6.306  72.204  1.00  0.00    -0.365 C  
ENDBRANCH  32  33
ENDBRANCH  31  32
ENDBRANCH  23  31
BRANCH  24  35
HETATM   35  N   UNL     1      -8.466   4.488  64.577  1.00  0.00    -0.121 N  
HETATM   36  H   UNL     1      -9.132   3.924  64.048  1.00  0.00     0.000 HD 
BRANCH  35  37
HETATM   37  S   UNL     1      -7.383   5.518  63.791  1.00  0.00    -0.058 S  
HETATM   38  C   UNL     1      -5.917   5.299  64.778  1.00  0.00    -0.022 C  
HETATM   39  O   UNL     1      -7.134   5.046  62.449  1.00  0.00    -0.030 OA 
HETATM   40  O   UNL     1      -7.881   6.856  64.037  1.00  0.00    -0.109 OA 
ENDBRANCH  35  37
ENDBRANCH  24  35
ENDBRANCH  20  22
ENDBRANCH  17  20
ENDBRANCH  13  14
ENDBRANCH  12  13
ENDBRANCH  11  12
ENDBRANCH  10  11
ENDBRANCH   5  10
ENDBRANCH   4   5
ENDBRANCH   3   4
ENDBRANCH   2   3
TORSDOF 18
ENDMDL
MODEL      212
REMARK 921   NORMALIZED FREE ENERGY PREDICTED BY IDOCK:   -2.41 KCAL/MOL
REMARK 922        TOTAL FREE ENERGY PREDICTED BY IDOCK:   -7.66 KCAL/MOL
REMARK 923 INTER-LIGAND FREE ENERGY PREDICTED BY IDOCK:   -6.01 KCAL/MOL
REMARK 924 INTRA-LIGAND FREE ENERGY PREDICTED BY IDOCK:   -1.64 KCAL/MOL
REMARK 927      BINDING AFFINITY PREDICTED BY RF-SCORE:    0.00 PKD
ROOT
HETATM    1  C   UNL     1     -12.169  14.299  67.689  1.00  0.00    -0.215 C  
HETATM    2  C   UNL     1     -11.139  15.400  67.903  1.00  0.00    -0.323 C  
ENDROOT
BRANCH   2   3
HETATM    3  C   UNL     1      -9.929  14.853  68.660  1.00  0.00    -0.224 C  
BRANCH   3   4
HETATM    4  C   UNL     1      -8.571  15.191  68.025  1.00  0.00    -0.156 C  
BRANCH   4   5
HETATM    5  N   UNL     1      -7.824  14.107  67.338  1.00  0.00    -0.186 NA 
BRANCH   5   6
HETATM    6  C   UNL     1      -6.629  13.710  68.118  1.00  0.00    -0.124 C  
BRANCH   6   7
HETATM    7  C   UNL     1      -6.622  14.072  69.616  1.00  0.00    -0.099 C  
BRANCH   7   8
HETATM    8  C   UNL     1      -5.707  13.198  70.476  1.00  0.00    -0.176 C  
HETATM    9  C   UNL     1      -5.828  11.733  70.074  1.00  0.00    -0.148 C  
ENDBRANCH   7   8
ENDBRANCH   6   7
ENDBRANCH   5   6
BRANCH   5  10
HETATM   10  C   UNL     1      -8.725  12.945  67.130  1.00  0.00    -0.205 C  
BRANCH  10  11
HETATM   11  C   UNL     1      -8.057  11.568  67.256  1.00  0.00    -0.153 C  
BRANCH  11  12
HETATM   12  C   UNL     1      -7.376  11.165  65.953  1.00  0.00     0.112 C  
BRANCH  12  13
HETATM   13  O   UNL     1      -8.146  10.147  65.308  1.00  0.00    -0.139 OA 
BRANCH  13  14
HETATM   14  C   UNL     1      -8.844   9.311  66.138  1.00  0.00    -0.155 A  
HETATM   15  C   UNL     1     -10.231   9.134  66.148  1.00  0.00    -0.189 A  
HETATM   16  C   UNL     1     -10.835   8.307  67.106  1.00  0.00    -0.095 A  
HETATM   17  C   UNL     1     -10.055   7.640  68.058  1.00  0.00    -0.226 A  
HETATM   18  C   UNL     1      -8.661   7.736  67.979  1.00  0.00    -0.123 A  
HETATM   19  C   UNL     1      -8.065   8.596  67.049  1.00  0.00    -0.100 A  
BRANCH  17  20
HETATM   20  C   UNL     1     -10.737   6.880  69.156  1.00  0.00    -0.234 C  
HETATM   21  O   UNL     1     -11.902   6.530  68.987  1.00  0.00     0.016 OA 
BRANCH  20  22
HETATM   22  C   UNL     1     -10.012   6.622  70.402  1.00  0.00    -0.193 A  
HETATM   23  C   UNL     1     -10.024   7.440  71.532  1.00  0.00    -0.181 A  
HETATM   24  C   UNL     1      -7.626   3.621  70.700  1.00  0.00    -0.040 A  
HETATM   25  O   UNL     1      -9.253   6.890  72.516  1.00  0.00    -0.136 OA 
HETATM   26  C   UNL     1      -7.242   3.877  72.014  1.00  0.00    -0.054 A  
HETATM   27  C   UNL     1      -8.670   5.778  72.014  1.00  0.00    -0.137 A  
HETATM   28  C   UNL     1      -9.074   5.567  70.703  1.00  0.00    -0.168 A  
HETATM   29  C   UNL     1      -7.757   4.981  72.699  1.00  0.00    -0.097 A  
HETATM   30  C   UNL     1      -8.500   4.476  70.019  1.00  0.00    -0.088 A  
BRANCH  23  31
HETATM   31  C   UNL     1     -10.531   8.799  71.885  1.00  0.00    -0.423 C  
BRANCH  31  32
HETATM   32  C   UNL     1     -11.063   9.682  70.758  1.00  0.00    -0.403 C  
BRANCH  32  33
HETATM   33  C   UNL     1     -12.587   9.808  70.936  1.00  0.00    -0.350 C  
HETATM   34  C   UNL     1     -13.160   8.941  72.042  1.00  0.00    -0.454 C  
ENDBRANCH  32  33
ENDBRANCH  31  32
ENDBRANCH  23  31
BRANCH  24  35
HETATM   35  N   UNL     1      -7.125   2.480  70.007  1.00  0.00    -0.033 N  
HETATM   36  H   UNL     1      -7.297   1.537  70.355  1.00  0.00     0.000 HD 
BRANCH  35  37
HETATM   37  S   UNL     1      -6.238   2.736  68.593  1.00  0.00    -0.029 S  
HETATM   38  C   UNL     1      -7.535   2.798  67.375  1.00  0.00    -0.057 C  
HETATM   39  O   UNL     1      -5.571   4.017  68.651  1.00  0.00    -0.012 OA 
HETATM   40  O   UNL     1      -5.495   1.512  68.380  1.00  0.00    -0.015 OA 
ENDBRANCH  35  37
ENDBRANCH  24  35
ENDBRANCH  20  22
ENDBRANCH  17  20
ENDBRANCH  13  14
ENDBRANCH  12  13
ENDBRANCH  11  12
ENDBRANCH  10  11
ENDBRANCH   5  10
ENDBRANCH   4   5
ENDBRANCH   3   4
ENDBRANCH   2   3
TORSDOF 18
ENDMDL
MODEL      213
REMARK 921   NORMALIZED FREE ENERGY PREDICTED BY IDOCK:   -2.39 KCAL/MOL
REMARK 922        TOTAL FREE ENERGY PREDICTED BY IDOCK:   -7.62 KCAL/MOL
REMARK 923 INTER-LIGAND FREE ENERGY PREDICTED BY IDOCK:   -5.54 KCAL/MOL
REMARK 924 INTRA-LIGAND FREE ENERGY PREDICTED BY IDOCK:   -2.09 KCAL/MOL
REMARK 927      BINDING AFFINITY PREDICTED BY RF-SCORE:    0.00 PKD
ROOT
HETATM    1  C   UNL     1     -12.053  11.211  71.532  1.00  0.00     0.036 C  
HETATM    2  C   UNL     1     -11.818   9.717  71.347  1.00  0.00    -0.484 C  
ENDROOT
BRANCH   2   3
HETATM    3  C   UNL     1     -10.476   9.312  71.955  1.00  0.00    -0.125 C  
BRANCH   3   4
HETATM    4  C   UNL     1     -10.465   7.924  72.612  1.00  0.00    -0.320 C  
BRANCH   4   5
HETATM    5  N   UNL     1      -9.783   6.812  71.903  1.00  0.00    -0.156 NA 
BRANCH   5   6
HETATM    6  C   UNL     1      -8.731   6.206  72.751  1.00  0.00    -0.123 C  
BRANCH   6   7
HETATM    7  C   UNL     1      -7.272   6.381  72.283  1.00  0.00    -0.087 C  
BRANCH   7   8
HETATM    8  C   UNL     1      -6.344   5.222  72.651  1.00  0.00    -0.043 C  
HETATM    9  C   UNL     1      -7.097   3.898  72.619  1.00  0.00    -0.053 C  
ENDBRANCH   7   8
ENDBRANCH   6   7
ENDBRANCH   5   6
BRANCH   5  10
HETATM   10  C   UNL     1     -10.789   5.793  71.507  1.00  0.00    -0.253 C  
BRANCH  10  11
HETATM   11  C   UNL     1     -10.236   4.377  71.290  1.00  0.00    -0.137 C  
BRANCH  11  12
HETATM   12  C   UNL     1      -9.558   4.254  69.929  1.00  0.00    -0.209 C  
BRANCH  12  13
HETATM   13  O   UNL     1     -10.399   4.826  68.924  1.00  0.00    -0.089 OA 
BRANCH  13  14
HETATM   14  C   UNL     1     -10.013   6.053  68.451  1.00  0.00    -0.145 A  
HETATM   15  C   UNL     1      -8.807   6.700  68.734  1.00  0.00    -0.126 A  
HETATM   16  C   UNL     1      -8.564   7.994  68.252  1.00  0.00    -0.130 A  
HETATM   17  C   UNL     1      -9.524   8.651  67.473  1.00  0.00    -0.181 A  
HETATM   18  C   UNL     1     -10.685   7.960  67.104  1.00  0.00    -0.306 A  
HETATM   19  C   UNL     1     -10.941   6.685  67.622  1.00  0.00    -0.392 A  
BRANCH  17  20
HETATM   20  C   UNL     1      -9.299  10.084  67.094  1.00  0.00    -0.149 C  
HETATM   21  O   UNL     1     -10.225  10.878  67.239  1.00  0.00    -0.191 OA 
BRANCH  20  22
HETATM   22  C   UNL     1      -8.009  10.476  66.523  1.00  0.00    -0.132 A  
HETATM   23  C   UNL     1      -7.250  11.578  66.915  1.00  0.00    -0.137 A  
HETATM   24  C   UNL     1      -6.535   8.582  63.518  1.00  0.00    -0.085 A  
HETATM   25  O   UNL     1      -6.096  11.635  66.186  1.00  0.00    -0.081 OA 
HETATM   26  C   UNL     1      -5.383   9.357  63.415  1.00  0.00    -0.067 A  
HETATM   27  C   UNL     1      -6.136  10.644  65.268  1.00  0.00    -0.068 A  
HETATM   28  C   UNL     1      -7.303   9.904  65.402  1.00  0.00    -0.128 A  
HETATM   29  C   UNL     1      -5.165  10.422  64.294  1.00  0.00    -0.142 A  
HETATM   30  C   UNL     1      -7.520   8.869  64.470  1.00  0.00    -0.105 A  
BRANCH  23  31
HETATM   31  C   UNL     1      -7.433  12.765  67.802  1.00  0.00    -0.135 C  
BRANCH  31  32
HETATM   32  C   UNL     1      -8.010  14.039  67.187  1.00  0.00    -0.083 C  
BRANCH  32  33
HETATM   33  C   UNL     1      -9.468  14.173  67.662  1.00  0.00    -0.213 C  
HETATM   34  C   UNL     1     -10.369  14.932  66.705  1.00  0.00    -0.283 C  
ENDBRANCH  32  33
ENDBRANCH  31  32
ENDBRANCH  23  31
BRANCH  24  35
HETATM   35  N   UNL     1      -6.747   7.478  62.642  1.00  0.00    -0.069 N  
HETATM   36  H   UNL     1      -6.933   7.623  61.649  1.00  0.00     0.000 HD 
BRANCH  35  37
HETATM   37  S   UNL     1      -6.682   5.922  63.295  1.00  0.00    -0.033 S  
HETATM   38  C   UNL     1      -5.169   5.309  62.582  1.00  0.00    -0.013 C  
HETATM   39  O   UNL     1      -6.543   5.993  64.731  1.00  0.00    -0.037 OA 
HETATM   40  O   UNL     1      -7.778   5.203  62.680  1.00  0.00    -0.061 OA 
ENDBRANCH  35  37
ENDBRANCH  24  35
ENDBRANCH  20  22
ENDBRANCH  17  20
ENDBRANCH  13  14
ENDBRANCH  12  13
ENDBRANCH  11  12
ENDBRANCH  10  11
ENDBRANCH   5  10
ENDBRANCH   4   5
ENDBRANCH   3   4
ENDBRANCH   2   3
TORSDOF 18
ENDMDL
MODEL      214
REMARK 921   NORMALIZED FREE ENERGY PREDICTED BY IDOCK:   -2.36 KCAL/MOL
REMARK 922        TOTAL FREE ENERGY PREDICTED BY IDOCK:   -7.57 KCAL/MOL
REMARK 923 INTER-LIGAND FREE ENERGY PREDICTED BY IDOCK:   -7.62 KCAL/MOL
REMARK 924 INTRA-LIGAND FREE ENERGY PREDICTED BY IDOCK:    0.05 KCAL/MOL
REMARK 927      BINDING AFFINITY PREDICTED BY RF-SCORE:    0.00 PKD
ROOT
HETATM    1  C   UNL     1     -11.157   5.213  72.249  1.00  0.00    -0.176 C  
HETATM    2  C   UNL     1     -11.975   6.430  72.663  1.00  0.00    -0.016 C  
ENDROOT
BRANCH   2   3
HETATM    3  C   UNL     1     -12.260   7.315  71.450  1.00  0.00    -0.384 C  
BRANCH   3   4
HETATM    4  C   UNL     1     -11.668   6.799  70.130  1.00  0.00    -0.313 C  
BRANCH   4   5
HETATM    5  N   UNL     1     -10.220   6.471  70.085  1.00  0.00    -0.188 NA 
BRANCH   5   6
HETATM    6  C   UNL     1      -9.980   5.224  69.322  1.00  0.00    -0.215 C  
BRANCH   6   7
HETATM    7  C   UNL     1      -8.573   4.605  69.424  1.00  0.00    -0.102 C  
BRANCH   7   8
HETATM    8  C   UNL     1      -8.546   3.178  69.974  1.00  0.00    -0.109 C  
HETATM    9  C   UNL     1      -9.360   2.243  69.088  1.00  0.00    -0.185 C  
ENDBRANCH   7   8
ENDBRANCH   6   7
ENDBRANCH   5   6
BRANCH   5  10
HETATM   10  C   UNL     1      -9.479   7.607  69.480  1.00  0.00    -0.152 C  
BRANCH  10  11
HETATM   11  C   UNL     1      -9.240   7.501  67.967  1.00  0.00    -0.137 C  
BRANCH  11  12
HETATM   12  C   UNL     1     -10.412   8.084  67.184  1.00  0.00    -0.338 C  
BRANCH  12  13
HETATM   13  O   UNL     1      -9.938   9.115  66.313  1.00  0.00    -0.270 OA 
BRANCH  13  14
HETATM   14  C   UNL     1      -9.560  10.283  66.922  1.00  0.00    -0.173 A  
HETATM   15  C   UNL     1     -10.286  10.973  67.896  1.00  0.00    -0.213 A  
HETATM   16  C   UNL     1      -9.829  12.205  68.385  1.00  0.00    -0.200 A  
HETATM   17  C   UNL     1      -8.633  12.756  67.907  1.00  0.00    -0.181 A  
HETATM   18  C   UNL     1      -7.857  12.013  67.010  1.00  0.00    -0.138 A  
HETATM   19  C   UNL     1      -8.338  10.804  66.494  1.00  0.00    -0.146 A  
BRANCH  17  20
HETATM   20  C   UNL     1      -8.244  14.138  68.338  1.00  0.00    -0.149 C  
HETATM   21  O   UNL     1      -7.823  14.295  69.481  1.00  0.00     0.076 OA 
BRANCH  20  22
HETATM   22  C   UNL     1      -8.423  15.253  67.405  1.00  0.00    -0.197 A  
HETATM   23  C   UNL     1      -9.284  15.263  66.309  1.00  0.00    -0.315 A  
HETATM   24  C   UNL     1      -6.248  18.412  67.685  1.00  0.00    -0.180 A  
HETATM   25  O   UNL     1      -9.212  16.467  65.669  1.00  0.00    -0.481 OA 
HETATM   26  C   UNL     1      -6.822  19.074  66.602  1.00  0.00    -0.209 A  
HETATM   27  C   UNL     1      -8.253  17.204  66.275  1.00  0.00    -0.271 A  
HETATM   28  C   UNL     1      -7.705  16.504  67.341  1.00  0.00    -0.174 A  
HETATM   29  C   UNL     1      -7.841  18.468  65.862  1.00  0.00    -0.085 A  
HETATM   30  C   UNL     1      -6.644  17.117  68.038  1.00  0.00    -0.158 A  
BRANCH  23  31
HETATM   31  C   UNL     1     -10.137  14.274  65.586  1.00  0.00    -0.364 C  
BRANCH  31  32
HETATM   32  C   UNL     1     -11.654  14.414  65.701  1.00  0.00    -0.347 C  
BRANCH  32  33
HETATM   33  C   UNL     1     -11.967  15.065  67.060  1.00  0.00    -0.017 C  
HETATM   34  C   UNL     1     -12.279  14.077  68.169  1.00  0.00    -0.191 C  
ENDBRANCH  32  33
ENDBRANCH  31  32
ENDBRANCH  23  31
BRANCH  24  35
HETATM   35  N   UNL     1      -5.228  19.038  68.460  1.00  0.00    -0.191 N  
HETATM   36  H   UNL     1      -4.246  18.967  68.191  1.00  0.00     0.000 HD 
BRANCH  35  37
HETATM   37  S   UNL     1      -5.691  19.901  69.835  1.00  0.00    -0.298 S  
HETATM   38  C   UNL     1      -7.458  19.685  69.801  1.00  0.00     0.154 C  
HETATM   39  O   UNL     1      -5.153  19.273  71.019  1.00  0.00    -0.213 OA 
HETATM   40  O   UNL     1      -5.414  21.289  69.528  1.00  0.00    -0.372 OA 
ENDBRANCH  35  37
ENDBRANCH  24  35
ENDBRANCH  20  22
ENDBRANCH  17  20
ENDBRANCH  13  14
ENDBRANCH  12  13
ENDBRANCH  11  12
ENDBRANCH  10  11
ENDBRANCH   5  10
ENDBRANCH   4   5
ENDBRANCH   3   4
ENDBRANCH   2   3
TORSDOF 18
ENDMDL
MODEL      215
REMARK 921   NORMALIZED FREE ENERGY PREDICTED BY IDOCK:   -2.34 KCAL/MOL
REMARK 922        TOTAL FREE ENERGY PREDICTED BY IDOCK:   -7.52 KCAL/MOL
REMARK 923 INTER-LIGAND FREE ENERGY PREDICTED BY IDOCK:   -5.13 KCAL/MOL
REMARK 924 INTRA-LIGAND FREE ENERGY PREDICTED BY IDOCK:   -2.39 KCAL/MOL
REMARK 927      BINDING AFFINITY PREDICTED BY RF-SCORE:    0.00 PKD
ROOT
HETATM    1  C   UNL     1     -10.069   3.005  74.563  1.00  0.00    -0.192 C  
HETATM    2  C   UNL     1     -10.621   3.279  73.170  1.00  0.00    -0.260 C  
ENDROOT
BRANCH   2   3
HETATM    3  C   UNL     1     -10.885   4.773  72.989  1.00  0.00    -0.326 C  
BRANCH   3   4
HETATM    4  C   UNL     1     -11.128   5.208  71.536  1.00  0.00     0.142 C  
BRANCH   4   5
HETATM    5  N   UNL     1     -10.009   5.837  70.791  1.00  0.00    -0.185 NA 
BRANCH   5   6
HETATM    6  C   UNL     1     -10.317   7.248  70.460  1.00  0.00    -0.206 C  
BRANCH   6   7
HETATM    7  C   UNL     1      -9.319   8.313  70.954  1.00  0.00    -0.187 C  
BRANCH   7   8
HETATM    8  C   UNL     1      -9.359   9.630  70.175  1.00  0.00    -0.294 C  
HETATM    9  C   UNL     1     -10.693  10.337  70.380  1.00  0.00    -0.270 C  
ENDBRANCH   7   8
ENDBRANCH   6   7
ENDBRANCH   5   6
BRANCH   5  10
HETATM   10  C   UNL     1      -8.768   5.748  71.602  1.00  0.00    -0.136 C  
BRANCH  10  11
HETATM   11  C   UNL     1      -7.806   4.619  71.205  1.00  0.00    -0.082 C  
BRANCH  11  12
HETATM   12  C   UNL     1      -6.367   4.970  71.567  1.00  0.00    -0.030 C  
BRANCH  12  13
HETATM   13  O   UNL     1      -5.604   5.149  70.371  1.00  0.00    -0.014 OA 
BRANCH  13  14
HETATM   14  C   UNL     1      -6.325   5.217  69.208  1.00  0.00    -0.034 A  
HETATM   15  C   UNL     1      -6.673   4.136  68.394  1.00  0.00    -0.047 A  
HETATM   16  C   UNL     1      -7.346   4.347  67.182  1.00  0.00    -0.073 A  
HETATM   17  C   UNL     1      -7.686   5.643  66.777  1.00  0.00    -0.100 A  
HETATM   18  C   UNL     1      -7.429   6.712  67.644  1.00  0.00    -0.097 A  
HETATM   19  C   UNL     1      -6.720   6.502  68.833  1.00  0.00    -0.057 A  
BRANCH  17  20
HETATM   20  C   UNL     1      -8.274   5.851  65.414  1.00  0.00    -0.139 C  
HETATM   21  O   UNL     1      -9.183   5.109  65.051  1.00  0.00    -0.122 OA 
BRANCH  20  22
HETATM   22  C   UNL     1      -7.715   6.892  64.547  1.00  0.00    -0.116 A  
HETATM   23  C   UNL     1      -6.512   6.806  63.847  1.00  0.00    -0.038 A  
HETATM   24  C   UNL     1      -9.437  10.317  64.238  1.00  0.00    -0.307 A  
HETATM   25  O   UNL     1      -6.309   7.948  63.126  1.00  0.00    -0.066 OA 
HETATM   26  C   UNL     1      -8.511  10.859  63.349  1.00  0.00     0.028 A  
HETATM   27  C   UNL     1      -7.311   8.807  63.416  1.00  0.00    -0.100 A  
HETATM   28  C   UNL     1      -8.203   8.229  64.309  1.00  0.00    -0.116 A  
HETATM   29  C   UNL     1      -7.412  10.107  62.925  1.00  0.00    -0.143 A  
HETATM   30  C   UNL     1      -9.274   9.028  64.759  1.00  0.00     0.005 A  
BRANCH  23  31
HETATM   31  C   UNL     1      -5.348   5.874  63.796  1.00  0.00    -0.017 C  
BRANCH  31  32
HETATM   32  C   UNL     1      -5.614   4.381  63.987  1.00  0.00    -0.014 C  
BRANCH  32  33
HETATM   33  C   UNL     1      -6.495   3.905  62.818  1.00  0.00    -0.022 C  
HETATM   34  C   UNL     1      -7.317   2.666  63.119  1.00  0.00    -0.049 C  
ENDBRANCH  32  33
ENDBRANCH  31  32
ENDBRANCH  23  31
BRANCH  24  35
HETATM   35  N   UNL     1     -10.574  11.071  64.650  1.00  0.00    -0.326 N  
HETATM   36  H   UNL     1     -11.314  11.308  63.989  1.00  0.00     0.000 HD 
BRANCH  35  37
HETATM   37  S   UNL     1     -10.660  11.560  66.263  1.00  0.00    -0.271 S  
HETATM   38  C   UNL     1     -11.609  13.060  66.121  1.00  0.00    -0.366 C  
HETATM   39  O   UNL     1     -11.403  10.592  67.036  1.00  0.00    -0.308 OA 
HETATM   40  O   UNL     1      -9.307  11.931  66.624  1.00  0.00    -0.194 OA 
ENDBRANCH  35  37
ENDBRANCH  24  35
ENDBRANCH  20  22
ENDBRANCH  17  20
ENDBRANCH  13  14
ENDBRANCH  12  13
ENDBRANCH  11  12
ENDBRANCH  10  11
ENDBRANCH   5  10
ENDBRANCH   4   5
ENDBRANCH   3   4
ENDBRANCH   2   3
TORSDOF 18
ENDMDL
MODEL      216
REMARK 921   NORMALIZED FREE ENERGY PREDICTED BY IDOCK:   -2.33 KCAL/MOL
REMARK 922        TOTAL FREE ENERGY PREDICTED BY IDOCK:   -7.50 KCAL/MOL
REMARK 923 INTER-LIGAND FREE ENERGY PREDICTED BY IDOCK:   -6.50 KCAL/MOL
REMARK 924 INTRA-LIGAND FREE ENERGY PREDICTED BY IDOCK:   -0.99 KCAL/MOL
REMARK 927      BINDING AFFINITY PREDICTED BY RF-SCORE:    0.00 PKD
ROOT
HETATM    1  C   UNL     1     -10.831   8.169  72.656  1.00  0.00    -0.429 C  
HETATM    2  C   UNL     1     -11.097   6.755  72.155  1.00  0.00    -0.284 C  
ENDROOT
BRANCH   2   3
HETATM    3  C   UNL     1      -9.830   6.167  71.533  1.00  0.00    -0.190 C  
BRANCH   3   4
HETATM    4  C   UNL     1      -8.704   5.871  72.536  1.00  0.00    -0.123 C  
BRANCH   4   5
HETATM    5  N   UNL     1      -7.307   5.831  72.036  1.00  0.00    -0.092 NA 
BRANCH   5   6
HETATM    6  C   UNL     1      -7.013   4.537  71.379  1.00  0.00    -0.042 C  
BRANCH   6   7
HETATM    7  C   UNL     1      -6.447   3.415  72.272  1.00  0.00    -0.014 C  
BRANCH   7   8
HETATM    8  C   UNL     1      -5.238   2.685  71.683  1.00  0.00    -0.004 C  
HETATM    9  C   UNL     1      -5.536   2.203  70.269  1.00  0.00    -0.016 C  
ENDBRANCH   7   8
ENDBRANCH   6   7
ENDBRANCH   5   6
BRANCH   5  10
HETATM   10  C   UNL     1      -7.091   6.959  71.094  1.00  0.00    -0.075 C  
BRANCH  10  11
HETATM   11  C   UNL     1      -7.437   8.349  71.646  1.00  0.00    -0.118 C  
BRANCH  11  12
HETATM   12  C   UNL     1      -8.588   8.979  70.869  1.00  0.00    -0.215 C  
BRANCH  12  13
HETATM   13  O   UNL     1      -8.372   8.799  69.467  1.00  0.00    -0.114 OA 
BRANCH  13  14
HETATM   14  C   UNL     1      -8.569   9.908  68.686  1.00  0.00    -0.119 A  
HETATM   15  C   UNL     1      -7.735  11.028  68.626  1.00  0.00    -0.132 A  
HETATM   16  C   UNL     1      -8.090  12.138  67.845  1.00  0.00    -0.153 A  
HETATM   17  C   UNL     1      -9.280  12.133  67.109  1.00  0.00    -0.193 A  
HETATM   18  C   UNL     1     -10.060  10.970  67.089  1.00  0.00    -0.227 A  
HETATM   19  C   UNL     1      -9.723   9.881  67.902  1.00  0.00    -0.162 A  
BRANCH  17  20
HETATM   20  C   UNL     1      -9.704  13.384  66.401  1.00  0.00    -0.277 C  
HETATM   21  O   UNL     1      -9.862  13.341  65.184  1.00  0.00    -0.181 OA 
BRANCH  20  22
HETATM   22  C   UNL     1      -9.868  14.619  67.172  1.00  0.00    -0.237 A  
HETATM   23  C   UNL     1      -9.090  15.769  67.037  1.00  0.00    -0.220 A  
HETATM   24  C   UNL     1     -12.442  14.826  70.021  1.00  0.00    -0.281 A  
HETATM   25  O   UNL     1      -9.529  16.734  67.898  1.00  0.00    -0.226 OA 
HETATM   26  C   UNL     1     -12.158  16.144  70.372  1.00  0.00    -0.035 A  
HETATM   27  C   UNL     1     -10.518  16.201  68.651  1.00  0.00    -0.269 A  
HETATM   28  C   UNL     1     -10.762  14.888  68.273  1.00  0.00    -0.249 A  
HETATM   29  C   UNL     1     -11.170  16.860  69.690  1.00  0.00     0.250 A  
HETATM   30  C   UNL     1     -11.726  14.173  69.011  1.00  0.00    -0.361 A  
BRANCH  23  31
HETATM   31  C   UNL     1      -7.842  16.159  66.318  1.00  0.00    -0.053 C  
BRANCH  31  32
HETATM   32  C   UNL     1      -6.897  17.146  67.003  1.00  0.00    -0.228 C  
BRANCH  32  33
HETATM   33  C   UNL     1      -6.635  18.305  66.025  1.00  0.00    -0.290 C  
HETATM   34  C   UNL     1      -7.432  19.563  66.319  1.00  0.00    -0.291 C  
ENDBRANCH  32  33
ENDBRANCH  31  32
ENDBRANCH  23  31
BRANCH  24  35
HETATM   35  N   UNL     1     -13.468  14.101  70.695  1.00  0.00    -0.253 N  
HETATM   36  H   UNL     1     -14.402  14.017  70.293  1.00  0.00     0.000 HD 
BRANCH  35  37
HETATM   37  S   UNL     1     -13.093  13.388  72.179  1.00  0.00    -0.371 S  
HETATM   38  C   UNL     1     -12.576  11.764  71.663  1.00  0.00    -0.144 C  
HETATM   39  O   UNL     1     -11.979  14.075  72.792  1.00  0.00     0.344 OA 
HETATM   40  O   UNL     1     -14.359  13.246  72.867  1.00  0.00    -0.429 OA 
ENDBRANCH  35  37
ENDBRANCH  24  35
ENDBRANCH  20  22
ENDBRANCH  17  20
ENDBRANCH  13  14
ENDBRANCH  12  13
ENDBRANCH  11  12
ENDBRANCH  10  11
ENDBRANCH   5  10
ENDBRANCH   4   5
ENDBRANCH   3   4
ENDBRANCH   2   3
TORSDOF 18
ENDMDL
MODEL      217
REMARK 921   NORMALIZED FREE ENERGY PREDICTED BY IDOCK:   -2.32 KCAL/MOL
REMARK 922        TOTAL FREE ENERGY PREDICTED BY IDOCK:   -7.47 KCAL/MOL
REMARK 923 INTER-LIGAND FREE ENERGY PREDICTED BY IDOCK:   -6.47 KCAL/MOL
REMARK 924 INTRA-LIGAND FREE ENERGY PREDICTED BY IDOCK:   -1.01 KCAL/MOL
REMARK 927      BINDING AFFINITY PREDICTED BY RF-SCORE:    0.00 PKD
ROOT
HETATM    1  C   UNL     1     -10.881  19.873  66.008  1.00  0.00    -0.330 C  
HETATM    2  C   UNL     1      -9.382  19.604  65.968  1.00  0.00    -0.331 C  
ENDROOT
BRANCH   2   3
HETATM    3  C   UNL     1      -8.817  19.540  67.386  1.00  0.00    -0.363 C  
BRANCH   3   4
HETATM    4  C   UNL     1      -9.574  18.598  68.334  1.00  0.00    -0.359 C  
BRANCH   4   5
HETATM    5  N   UNL     1      -8.863  17.406  68.862  1.00  0.00    -0.210 NA 
BRANCH   5   6
HETATM    6  C   UNL     1      -9.815  16.438  69.454  1.00  0.00    -0.186 C  
BRANCH   6   7
HETATM    7  C   UNL     1     -11.058  16.082  68.615  1.00  0.00    -0.349 C  
BRANCH   7   8
HETATM    8  C   UNL     1     -11.199  14.593  68.290  1.00  0.00    -0.301 C  
HETATM    9  C   UNL     1     -11.971  14.395  66.992  1.00  0.00    -0.424 C  
ENDBRANCH   7   8
ENDBRANCH   6   7
ENDBRANCH   5   6
BRANCH   5  10
HETATM   10  C   UNL     1      -8.085  16.773  67.767  1.00  0.00    -0.179 C  
BRANCH  10  11
HETATM   11  C   UNL     1      -6.628  17.242  67.642  1.00  0.00    -0.169 C  
BRANCH  11  12
HETATM   12  C   UNL     1      -5.690  16.342  68.439  1.00  0.00    -0.103 C  
BRANCH  12  13
HETATM   13  O   UNL     1      -5.411  15.159  67.685  1.00  0.00    -0.281 OA 
BRANCH  13  14
HETATM   14  C   UNL     1      -5.543  13.975  68.362  1.00  0.00    -0.105 A  
HETATM   15  C   UNL     1      -5.132  12.719  67.907  1.00  0.00    -0.098 A  
HETATM   16  C   UNL     1      -5.398  11.567  68.661  1.00  0.00    -0.042 A  
HETATM   17  C   UNL     1      -6.072  11.663  69.885  1.00  0.00    -0.147 A  
HETATM   18  C   UNL     1      -6.388  12.931  70.387  1.00  0.00     0.214 A  
HETATM   19  C   UNL     1      -6.158  14.074  69.611  1.00  0.00    -0.122 A  
BRANCH  17  20
HETATM   20  C   UNL     1      -6.469  10.406  70.598  1.00  0.00    -0.032 C  
HETATM   21  O   UNL     1      -5.734   9.980  71.485  1.00  0.00    -0.205 OA 
BRANCH  20  22
HETATM   22  C   UNL     1      -7.688   9.707  70.185  1.00  0.00    -0.179 A  
HETATM   23  C   UNL     1      -8.696  10.239  69.381  1.00  0.00    -0.156 A  
HETATM   24  C   UNL     1      -8.481   6.188  71.521  1.00  0.00    -0.127 A  
HETATM   25  O   UNL     1      -9.674   9.308  69.180  1.00  0.00    -0.158 OA 
HETATM   26  C   UNL     1      -9.687   6.048  70.838  1.00  0.00    -0.207 A  
HETATM   27  C   UNL     1      -9.364   8.214  69.912  1.00  0.00    -0.159 A  
HETATM   28  C   UNL     1      -8.162   8.402  70.580  1.00  0.00    -0.113 A  
HETATM   29  C   UNL     1     -10.161   7.077  70.019  1.00  0.00    -0.196 A  
HETATM   30  C   UNL     1      -7.734   7.369  71.439  1.00  0.00    -0.086 A  
BRANCH  23  31
HETATM   31  C   UNL     1      -9.044  11.576  68.816  1.00  0.00    -0.063 C  
BRANCH  31  32
HETATM   32  C   UNL     1      -8.639  11.874  67.373  1.00  0.00    -0.164 C  
BRANCH  32  33
HETATM   33  C   UNL     1      -9.300  10.818  66.469  1.00  0.00    -0.192 C  
HETATM   34  C   UNL     1     -10.557  11.296  65.767  1.00  0.00    -0.306 C  
ENDBRANCH  32  33
ENDBRANCH  31  32
ENDBRANCH  23  31
BRANCH  24  35
HETATM   35  N   UNL     1      -7.980   5.130  72.334  1.00  0.00    -0.101 N  
HETATM   36  H   UNL     1      -8.557   4.317  72.552  1.00  0.00     0.000 HD 
BRANCH  35  37
HETATM   37  S   UNL     1      -6.405   5.262  72.928  1.00  0.00    -0.049 S  
HETATM   38  C   UNL     1      -5.453   4.831  71.486  1.00  0.00    -0.004 C  
HETATM   39  O   UNL     1      -6.127   6.631  73.296  1.00  0.00    -0.057 OA 
HETATM   40  O   UNL     1      -6.265   4.183  73.884  1.00  0.00    -0.029 OA 
ENDBRANCH  35  37
ENDBRANCH  24  35
ENDBRANCH  20  22
ENDBRANCH  17  20
ENDBRANCH  13  14
ENDBRANCH  12  13
ENDBRANCH  11  12
ENDBRANCH  10  11
ENDBRANCH   5  10
ENDBRANCH   4   5
ENDBRANCH   3   4
ENDBRANCH   2   3
TORSDOF 18
ENDMDL
MODEL      218
REMARK 921   NORMALIZED FREE ENERGY PREDICTED BY IDOCK:   -2.30 KCAL/MOL
REMARK 922        TOTAL FREE ENERGY PREDICTED BY IDOCK:   -7.45 KCAL/MOL
REMARK 923 INTER-LIGAND FREE ENERGY PREDICTED BY IDOCK:   -6.14 KCAL/MOL
REMARK 924 INTRA-LIGAND FREE ENERGY PREDICTED BY IDOCK:   -1.31 KCAL/MOL
REMARK 927      BINDING AFFINITY PREDICTED BY RF-SCORE:    0.00 PKD
ROOT
HETATM    1  C   UNL     1     -11.189   4.683  65.243  1.00  0.00     0.259 C  
HETATM    2  C   UNL     1     -10.267   3.704  64.528  1.00  0.00    -0.176 C  
ENDROOT
BRANCH   2   3
HETATM    3  C   UNL     1      -9.184   4.462  63.760  1.00  0.00    -0.118 C  
BRANCH   3   4
HETATM    4  C   UNL     1      -7.947   3.623  63.404  1.00  0.00    -0.079 C  
BRANCH   4   5
HETATM    5  N   UNL     1      -6.628   4.047  63.938  1.00  0.00    -0.041 NA 
BRANCH   5   6
HETATM    6  C   UNL     1      -5.602   3.003  63.712  1.00  0.00    -0.009 C  
BRANCH   6   7
HETATM    7  C   UNL     1      -5.533   1.859  64.744  1.00  0.00    -0.008 C  
BRANCH   7   8
HETATM    8  C   UNL     1      -5.900   2.271  66.171  1.00  0.00    -0.022 C  
HETATM    9  C   UNL     1      -7.359   1.944  66.469  1.00  0.00    -0.057 C  
ENDBRANCH   7   8
ENDBRANCH   6   7
ENDBRANCH   5   6
BRANCH   5  10
HETATM   10  C   UNL     1      -6.227   5.324  63.295  1.00  0.00    -0.022 C  
BRANCH  10  11
HETATM   11  C   UNL     1      -7.139   6.523  63.594  1.00  0.00    -0.055 C  
BRANCH  11  12
HETATM   12  C   UNL     1      -7.292   7.417  62.368  1.00  0.00    -0.091 C  
BRANCH  12  13
HETATM   13  O   UNL     1      -6.718   8.699  62.638  1.00  0.00    -0.092 OA 
BRANCH  13  14
HETATM   14  C   UNL     1      -7.374   9.462  63.569  1.00  0.00    -0.103 A  
HETATM   15  C   UNL     1      -6.796  10.072  64.685  1.00  0.00    -0.130 A  
HETATM   16  C   UNL     1      -7.592  10.762  65.611  1.00  0.00    -0.044 A  
HETATM   17  C   UNL     1      -8.976  10.855  65.423  1.00  0.00    -0.209 A  
HETATM   18  C   UNL     1      -9.537  10.333  64.251  1.00  0.00    -0.375 A  
HETATM   19  C   UNL     1      -8.745   9.609  63.352  1.00  0.00    -0.237 A  
BRANCH  17  20
HETATM   20  C   UNL     1      -9.818  11.471  66.500  1.00  0.00    -0.202 C  
HETATM   21  O   UNL     1     -11.033  11.300  66.459  1.00  0.00    -0.282 OA 
BRANCH  20  22
HETATM   22  C   UNL     1      -9.172  12.290  67.529  1.00  0.00    -0.181 A  
HETATM   23  C   UNL     1      -8.311  11.818  68.519  1.00  0.00    -0.131 A  
HETATM   24  C   UNL     1      -9.981  16.036  67.849  1.00  0.00    -0.233 A  
HETATM   25  O   UNL     1      -7.880  12.854  69.297  1.00  0.00     0.287 OA 
HETATM   26  C   UNL     1      -9.137  16.269  68.932  1.00  0.00    -0.250 A  
HETATM   27  C   UNL     1      -8.516  13.975  68.886  1.00  0.00     0.046 A  
HETATM   28  C   UNL     1      -9.350  13.694  67.813  1.00  0.00    -0.218 A  
HETATM   29  C   UNL     1      -8.387  15.226  69.483  1.00  0.00    -0.190 A  
HETATM   30  C   UNL     1     -10.133  14.753  67.310  1.00  0.00    -0.236 A  
BRANCH  23  31
HETATM   31  C   UNL     1      -7.864  10.488  69.027  1.00  0.00    -0.129 C  
BRANCH  31  32
HETATM   32  C   UNL     1      -8.929   9.516  69.531  1.00  0.00    -0.187 C  
BRANCH  32  33
HETATM   33  C   UNL     1      -8.573   8.112  69.009  1.00  0.00    -0.133 C  
HETATM   34  C   UNL     1      -9.741   7.144  68.975  1.00  0.00    -0.150 C  
ENDBRANCH  32  33
ENDBRANCH  31  32
ENDBRANCH  23  31
BRANCH  24  35
HETATM   35  N   UNL     1     -10.726  17.103  67.266  1.00  0.00    -0.263 N  
HETATM   36  H   UNL     1     -11.618  17.398  67.663  1.00  0.00     0.000 HD 
BRANCH  35  37
HETATM   37  S   UNL     1     -10.088  17.863  65.900  1.00  0.00    -0.075 S  
HETATM   38  C   UNL     1     -10.458  19.570  66.248  1.00  0.00    -0.512 C  
HETATM   39  O   UNL     1      -8.655  17.681  65.856  1.00  0.00    -0.526 OA 
HETATM   40  O   UNL     1     -10.933  17.448  64.800  1.00  0.00    -0.964 OA 
ENDBRANCH  35  37
ENDBRANCH  24  35
ENDBRANCH  20  22
ENDBRANCH  17  20
ENDBRANCH  13  14
ENDBRANCH  12  13
ENDBRANCH  11  12
ENDBRANCH  10  11
ENDBRANCH   5  10
ENDBRANCH   4   5
ENDBRANCH   3   4
ENDBRANCH   2   3
TORSDOF 18
ENDMDL
MODEL      219
REMARK 921   NORMALIZED FREE ENERGY PREDICTED BY IDOCK:   -2.27 KCAL/MOL
REMARK 922        TOTAL FREE ENERGY PREDICTED BY IDOCK:   -7.37 KCAL/MOL
REMARK 923 INTER-LIGAND FREE ENERGY PREDICTED BY IDOCK:   -5.18 KCAL/MOL
REMARK 924 INTRA-LIGAND FREE ENERGY PREDICTED BY IDOCK:   -2.19 KCAL/MOL
REMARK 927      BINDING AFFINITY PREDICTED BY RF-SCORE:    0.00 PKD
ROOT
HETATM    1  C   UNL     1      -7.289   4.356  67.709  1.00  0.00    -0.069 C  
HETATM    2  C   UNL     1      -8.647   4.078  67.076  1.00  0.00    -0.105 C  
ENDROOT
BRANCH   2   3
HETATM    3  C   UNL     1      -9.599   5.246  67.332  1.00  0.00    -0.146 C  
BRANCH   3   4
HETATM    4  C   UNL     1     -10.106   5.351  68.778  1.00  0.00    -0.185 C  
BRANCH   4   5
HETATM    5  N   UNL     1      -9.837   6.601  69.532  1.00  0.00    -0.152 NA 
BRANCH   5   6
HETATM    6  C   UNL     1      -8.792   6.387  70.561  1.00  0.00    -0.144 C  
BRANCH   6   7
HETATM    7  C   UNL     1      -8.930   7.188  71.871  1.00  0.00    -0.135 C  
BRANCH   7   8
HETATM    8  C   UNL     1      -7.721   7.091  72.803  1.00  0.00    -0.092 C  
HETATM    9  C   UNL     1      -6.486   6.628  72.039  1.00  0.00    -0.054 C  
ENDBRANCH   7   8
ENDBRANCH   6   7
ENDBRANCH   5   6
BRANCH   5  10
HETATM   10  C   UNL     1      -9.426   7.667  68.583  1.00  0.00    -0.151 C  
BRANCH  10  11
HETATM   11  C   UNL     1      -7.918   7.952  68.530  1.00  0.00    -0.121 C  
BRANCH  11  12
HETATM   12  C   UNL     1      -7.445   8.149  67.094  1.00  0.00    -0.089 C  
BRANCH  12  13
HETATM   13  O   UNL     1      -6.718   9.376  66.995  1.00  0.00    -0.074 OA 
BRANCH  13  14
HETATM   14  C   UNL     1      -7.475  10.518  66.964  1.00  0.00    -0.100 A  
HETATM   15  C   UNL     1      -8.460  10.824  66.020  1.00  0.00    -0.169 A  
HETATM   16  C   UNL     1      -9.111  12.066  66.048  1.00  0.00    -0.092 A  
HETATM   17  C   UNL     1      -8.788  13.012  67.029  1.00  0.00    -0.213 A  
HETATM   18  C   UNL     1      -7.877  12.662  68.033  1.00  0.00    -0.149 A  
HETATM   19  C   UNL     1      -7.200  11.438  67.976  1.00  0.00    -0.084 A  
BRANCH  17  20
HETATM   20  C   UNL     1      -9.393  14.381  66.948  1.00  0.00    -0.256 C  
HETATM   21  O   UNL     1      -9.324  14.987  65.882  1.00  0.00    -0.303 OA 
BRANCH  20  22
HETATM   22  C   UNL     1      -9.999  14.964  68.147  1.00  0.00    -0.222 A  
HETATM   23  C   UNL     1      -9.704  16.220  68.677  1.00  0.00    -0.235 A  
HETATM   24  C   UNL     1     -12.454  12.925  70.294  1.00  0.00    -0.127 A  
HETATM   25  O   UNL     1     -10.466  16.450  69.786  1.00  0.00    -0.290 OA 
HETATM   26  C   UNL     1     -12.677  13.924  71.238  1.00  0.00    -0.444 A  
HETATM   27  C   UNL     1     -11.183  15.332  70.038  1.00  0.00    -0.287 A  
HETATM   28  C   UNL     1     -10.924  14.363  69.078  1.00  0.00    -0.274 A  
HETATM   29  C   UNL     1     -12.028  15.158  71.131  1.00  0.00    -0.386 A  
HETATM   30  C   UNL     1     -11.551  13.111  69.240  1.00  0.00    -0.370 A  
BRANCH  23  31
HETATM   31  C   UNL     1      -8.693  17.291  68.436  1.00  0.00    -0.261 C  
BRANCH  31  32
HETATM   32  C   UNL     1      -7.282  17.083  68.984  1.00  0.00    -0.229 C  
BRANCH  32  33
HETATM   33  C   UNL     1      -6.319  16.992  67.787  1.00  0.00    -0.157 C  
HETATM   34  C   UNL     1      -6.995  16.680  66.464  1.00  0.00    -0.176 C  
ENDBRANCH  32  33
ENDBRANCH  31  32
ENDBRANCH  23  31
BRANCH  24  35
HETATM   35  N   UNL     1     -13.135  11.676  70.385  1.00  0.00     0.268 N  
HETATM   36  H   UNL     1     -13.953  11.481  69.807  1.00  0.00     0.000 HD 
BRANCH  35  37
HETATM   37  S   UNL     1     -12.547  10.529  71.476  1.00  0.00    -0.413 S  
HETATM   38  C   UNL     1     -11.183   9.845  70.559  1.00  0.00    -0.330 C  
HETATM   39  O   UNL     1     -12.049  11.184  72.663  1.00  0.00     2.008 OA 
HETATM   40  O   UNL     1     -13.576   9.513  71.553  1.00  0.00    -0.371 OA 
ENDBRANCH  35  37
ENDBRANCH  24  35
ENDBRANCH  20  22
ENDBRANCH  17  20
ENDBRANCH  13  14
ENDBRANCH  12  13
ENDBRANCH  11  12
ENDBRANCH  10  11
ENDBRANCH   5  10
ENDBRANCH   4   5
ENDBRANCH   3   4
ENDBRANCH   2   3
TORSDOF 18
ENDMDL
MODEL      220
REMARK 921   NORMALIZED FREE ENERGY PREDICTED BY IDOCK:   -2.16 KCAL/MOL
REMARK 922        TOTAL FREE ENERGY PREDICTED BY IDOCK:   -7.15 KCAL/MOL
REMARK 923 INTER-LIGAND FREE ENERGY PREDICTED BY IDOCK:   -6.52 KCAL/MOL
REMARK 924 INTRA-LIGAND FREE ENERGY PREDICTED BY IDOCK:   -0.63 KCAL/MOL
REMARK 927      BINDING AFFINITY PREDICTED BY RF-SCORE:    0.00 PKD
ROOT
HETATM    1  C   UNL     1     -13.351  15.322  70.206  1.00  0.00     0.045 C  
HETATM    2  C   UNL     1     -12.221  15.610  71.186  1.00  0.00    -0.466 C  
ENDROOT
BRANCH   2   3
HETATM    3  C   UNL     1     -10.972  14.816  70.803  1.00  0.00     0.008 C  
BRANCH   3   4
HETATM    4  C   UNL     1      -9.977  15.580  69.917  1.00  0.00    -0.233 C  
BRANCH   4   5
HETATM    5  N   UNL     1     -10.479  16.206  68.668  1.00  0.00    -0.254 NA 
BRANCH   5   6
HETATM    6  C   UNL     1     -10.410  17.683  68.748  1.00  0.00    -0.348 C  
BRANCH   6   7
HETATM    7  C   UNL     1      -9.032  18.330  68.505  1.00  0.00    -0.329 C  
BRANCH   7   8
HETATM    8  C   UNL     1      -9.017  19.397  67.408  1.00  0.00    -0.354 C  
HETATM    9  C   UNL     1     -10.211  20.334  67.551  1.00  0.00    -0.486 C  
ENDBRANCH   7   8
ENDBRANCH   6   7
ENDBRANCH   5   6
BRANCH   5  10
HETATM   10  C   UNL     1      -9.686  15.706  67.516  1.00  0.00    -0.222 C  
BRANCH  10  11
HETATM   11  C   UNL     1      -8.667  14.606  67.851  1.00  0.00    -0.169 C  
BRANCH  11  12
HETATM   12  C   UNL     1      -7.742  15.039  68.983  1.00  0.00    -0.170 C  
BRANCH  12  13
HETATM   13  O   UNL     1      -6.460  14.428  68.813  1.00  0.00    -0.081 OA 
BRANCH  13  14
HETATM   14  C   UNL     1      -6.472  13.133  68.365  1.00  0.00    -0.086 A  
HETATM   15  C   UNL     1      -5.941  12.679  67.155  1.00  0.00     0.036 A  
HETATM   16  C   UNL     1      -6.089  11.337  66.772  1.00  0.00    -0.131 A  
HETATM   17  C   UNL     1      -6.762  10.435  67.604  1.00  0.00    -0.074 A  
HETATM   18  C   UNL     1      -7.200  10.869  68.861  1.00  0.00    -0.095 A  
HETATM   19  C   UNL     1      -7.088  12.218  69.219  1.00  0.00     0.061 A  
BRANCH  17  20
HETATM   20  C   UNL     1      -7.031   9.046  67.106  1.00  0.00    -0.078 C  
HETATM   21  O   UNL     1      -6.093   8.399  66.649  1.00  0.00    -0.051 OA 
BRANCH  20  22
HETATM   22  C   UNL     1      -8.401   8.530  67.138  1.00  0.00    -0.111 A  
HETATM   23  C   UNL     1      -9.501   9.108  66.505  1.00  0.00    -0.208 A  
HETATM   24  C   UNL     1      -9.296   5.473  69.293  1.00  0.00    -0.118 A  
HETATM   25  O   UNL     1     -10.618   8.355  66.729  1.00  0.00    -0.295 OA 
HETATM   26  C   UNL     1     -10.647   5.454  68.955  1.00  0.00    -0.217 A  
HETATM   27  C   UNL     1     -10.281   7.351  67.569  1.00  0.00    -0.224 A  
HETATM   28  C   UNL     1      -8.931   7.414  67.884  1.00  0.00    -0.131 A  
HETATM   29  C   UNL     1     -11.172   6.412  68.084  1.00  0.00    -0.270 A  
HETATM   30  C   UNL     1      -8.440   6.467  68.805  1.00  0.00    -0.121 A  
BRANCH  23  31
HETATM   31  C   UNL     1      -9.796  10.381  65.784  1.00  0.00    -0.300 C  
BRANCH  31  32
HETATM   32  C   UNL     1      -9.786  10.361  64.257  1.00  0.00    -0.389 C  
BRANCH  32  33
HETATM   33  C   UNL     1      -8.644   9.433  63.805  1.00  0.00    -0.224 C  
HETATM   34  C   UNL     1      -7.337  10.146  63.512  1.00  0.00    -0.127 C  
ENDBRANCH  32  33
ENDBRANCH  31  32
ENDBRANCH  23  31
BRANCH  24  35
HETATM   35  N   UNL     1      -8.750   4.481  70.159  1.00  0.00    -0.076 N  
HETATM   36  H   UNL     1      -8.913   4.515  71.166  1.00  0.00     0.000 HD 
BRANCH  35  37
HETATM   37  S   UNL     1      -7.827   3.246  69.471  1.00  0.00    -0.049 S  
HETATM   38  C   UNL     1      -8.756   2.901  67.991  1.00  0.00    -0.107 C  
HETATM   39  O   UNL     1      -6.520   3.746  69.112  1.00  0.00    -0.032 OA 
HETATM   40  O   UNL     1      -7.981   2.112  70.358  1.00  0.00    -0.042 OA 
ENDBRANCH  35  37
ENDBRANCH  24  35
ENDBRANCH  20  22
ENDBRANCH  17  20
ENDBRANCH  13  14
ENDBRANCH  12  13
ENDBRANCH  11  12
ENDBRANCH  10  11
ENDBRANCH   5  10
ENDBRANCH   4   5
ENDBRANCH   3   4
ENDBRANCH   2   3
TORSDOF 18
ENDMDL
MODEL      221
REMARK 921   NORMALIZED FREE ENERGY PREDICTED BY IDOCK:   -2.15 KCAL/MOL
REMARK 922        TOTAL FREE ENERGY PREDICTED BY IDOCK:   -7.13 KCAL/MOL
REMARK 923 INTER-LIGAND FREE ENERGY PREDICTED BY IDOCK:   -8.32 KCAL/MOL
REMARK 924 INTRA-LIGAND FREE ENERGY PREDICTED BY IDOCK:    1.19 KCAL/MOL
REMARK 927      BINDING AFFINITY PREDICTED BY RF-SCORE:    0.00 PKD
ROOT
HETATM    1  C   UNL     1      -5.495  18.174  69.067  1.00  0.00    -0.194 C  
HETATM    2  C   UNL     1      -5.569  18.277  67.549  1.00  0.00    -0.148 C  
ENDROOT
BRANCH   2   3
HETATM    3  C   UNL     1      -6.456  17.167  66.985  1.00  0.00    -0.225 C  
BRANCH   3   4
HETATM    4  C   UNL     1      -7.963  17.389  67.188  1.00  0.00    -0.204 C  
BRANCH   4   5
HETATM    5  N   UNL     1      -8.430  17.914  68.496  1.00  0.00    -0.302 NA 
BRANCH   5   6
HETATM    6  C   UNL     1      -9.153  19.196  68.326  1.00  0.00    -0.338 C  
BRANCH   6   7
HETATM    7  C   UNL     1      -8.577  20.189  67.298  1.00  0.00    -0.414 C  
BRANCH   7   8
HETATM    8  C   UNL     1      -9.375  20.290  65.997  1.00  0.00    -0.227 C  
HETATM    9  C   UNL     1     -10.823  19.872  66.219  1.00  0.00    -0.317 C  
ENDBRANCH   7   8
ENDBRANCH   6   7
ENDBRANCH   5   6
BRANCH   5  10
HETATM   10  C   UNL     1      -9.302  16.903  69.147  1.00  0.00    -0.121 C  
BRANCH  10  11
HETATM   11  C   UNL     1      -9.876  15.831  68.208  1.00  0.00    -0.213 C  
BRANCH  11  12
HETATM   12  C   UNL     1     -11.390  15.965  68.082  1.00  0.00    -0.311 C  
BRANCH  12  13
HETATM   13  O   UNL     1     -11.746  16.069  66.701  1.00  0.00     0.432 OA 
BRANCH  13  14
HETATM   14  C   UNL     1     -11.507  14.956  65.938  1.00  0.00    -0.276 A  
HETATM   15  C   UNL     1     -12.441  13.970  65.610  1.00  0.00    -0.531 A  
HETATM   16  C   UNL     1     -12.051  12.833  64.887  1.00  0.00    -0.490 A  
HETATM   17  C   UNL     1     -10.722  12.677  64.476  1.00  0.00    -0.368 A  
HETATM   18  C   UNL     1      -9.813  13.716  64.714  1.00  0.00     0.017 A  
HETATM   19  C   UNL     1     -10.197  14.829  65.473  1.00  0.00    -0.400 A  
BRANCH  17  20
HETATM   20  C   UNL     1     -10.304  11.390  63.833  1.00  0.00    -0.379 C  
HETATM   21  O   UNL     1     -10.746  11.123  62.719  1.00  0.00     0.062 OA 
BRANCH  20  22
HETATM   22  C   UNL     1      -9.426  10.477  64.569  1.00  0.00    -0.329 A  
HETATM   23  C   UNL     1      -8.571   9.536  63.997  1.00  0.00    -0.207 A  
HETATM   24  C   UNL     1      -9.519  10.339  68.412  1.00  0.00    -0.146 A  
HETATM   25  O   UNL     1      -7.888   8.869  64.974  1.00  0.00    -0.102 OA 
HETATM   26  C   UNL     1      -8.545   9.351  68.540  1.00  0.00    -0.123 A  
HETATM   27  C   UNL     1      -8.351   9.298  66.171  1.00  0.00    -0.119 A  
HETATM   28  C   UNL     1      -9.322  10.273  65.995  1.00  0.00    -0.224 A  
HETATM   29  C   UNL     1      -7.944   8.799  67.406  1.00  0.00    -0.098 A  
HETATM   30  C   UNL     1      -9.948  10.776  67.153  1.00  0.00    -0.230 A  
BRANCH  23  31
HETATM   31  C   UNL     1      -8.320   8.980  62.635  1.00  0.00    -0.200 C  
BRANCH  31  32
HETATM   32  C   UNL     1      -6.935   8.408  62.336  1.00  0.00    -0.094 C  
BRANCH  32  33
HETATM   33  C   UNL     1      -7.006   6.881  62.519  1.00  0.00    -0.052 C  
HETATM   34  C   UNL     1      -5.766   6.269  63.145  1.00  0.00    -0.022 C  
ENDBRANCH  32  33
ENDBRANCH  31  32
ENDBRANCH  23  31
BRANCH  24  35
HETATM   35  N   UNL     1     -10.114  10.925  69.567  1.00  0.00    -0.437 N  
HETATM   36  H   UNL     1      -9.580  11.050  70.427  1.00  0.00     0.000 HD 
BRANCH  35  37
HETATM   37  S   UNL     1     -11.730  11.406  69.470  1.00  0.00    -0.379 S  
HETATM   38  C   UNL     1     -11.765  12.184  67.869  1.00  0.00    -0.336 C  
HETATM   39  O   UNL     1     -12.592  10.247  69.461  1.00  0.00    -0.005 OA 
HETATM   40  O   UNL     1     -11.879  12.447  70.466  1.00  0.00    -0.272 OA 
ENDBRANCH  35  37
ENDBRANCH  24  35
ENDBRANCH  20  22
ENDBRANCH  17  20
ENDBRANCH  13  14
ENDBRANCH  12  13
ENDBRANCH  11  12
ENDBRANCH  10  11
ENDBRANCH   5  10
ENDBRANCH   4   5
ENDBRANCH   3   4
ENDBRANCH   2   3
TORSDOF 18
ENDMDL
MODEL      222
REMARK 921   NORMALIZED FREE ENERGY PREDICTED BY IDOCK:   -2.15 KCAL/MOL
REMARK 922        TOTAL FREE ENERGY PREDICTED BY IDOCK:   -7.12 KCAL/MOL
REMARK 923 INTER-LIGAND FREE ENERGY PREDICTED BY IDOCK:   -7.50 KCAL/MOL
REMARK 924 INTRA-LIGAND FREE ENERGY PREDICTED BY IDOCK:    0.38 KCAL/MOL
REMARK 927      BINDING AFFINITY PREDICTED BY RF-SCORE:    0.00 PKD
ROOT
HETATM    1  C   UNL     1     -11.032   5.418  69.090  1.00  0.00     0.135 C  
HETATM    2  C   UNL     1     -10.863   6.218  70.375  1.00  0.00    -0.360 C  
ENDROOT
BRANCH   2   3
HETATM    3  C   UNL     1      -9.390   6.259  70.783  1.00  0.00    -0.168 C  
BRANCH   3   4
HETATM    4  C   UNL     1      -8.826   4.918  71.275  1.00  0.00    -0.132 C  
BRANCH   4   5
HETATM    5  N   UNL     1      -7.373   4.659  71.106  1.00  0.00    -0.061 NA 
BRANCH   5   6
HETATM    6  C   UNL     1      -7.047   4.363  69.692  1.00  0.00    -0.050 C  
BRANCH   6   7
HETATM    7  C   UNL     1      -8.172   3.757  68.830  1.00  0.00    -0.084 C  
BRANCH   7   8
HETATM    8  C   UNL     1      -8.086   2.240  68.649  1.00  0.00    -0.066 C  
HETATM    9  C   UNL     1      -8.615   1.519  69.883  1.00  0.00    -0.088 C  
ENDBRANCH   7   8
ENDBRANCH   6   7
ENDBRANCH   5   6
BRANCH   5  10
HETATM   10  C   UNL     1      -6.606   5.837  71.586  1.00  0.00    -0.054 C  
BRANCH  10  11
HETATM   11  C   UNL     1      -6.683   7.079  70.686  1.00  0.00    -0.053 C  
BRANCH  11  12
HETATM   12  C   UNL     1      -5.691   6.984  69.532  1.00  0.00    -0.015 C  
BRANCH  12  13
HETATM   13  O   UNL     1      -6.387   7.128  68.291  1.00  0.00    -0.037 OA 
BRANCH  13  14
HETATM   14  C   UNL     1      -7.518   7.900  68.328  1.00  0.00    -0.104 A  
HETATM   15  C   UNL     1      -8.676   7.698  67.571  1.00  0.00    -0.125 A  
HETATM   16  C   UNL     1      -9.739   8.609  67.639  1.00  0.00    -0.201 A  
HETATM   17  C   UNL     1      -9.658   9.730  68.476  1.00  0.00    -0.155 A  
HETATM   18  C   UNL     1      -8.542   9.872  69.310  1.00  0.00    -0.169 A  
HETATM   19  C   UNL     1      -7.466   8.983  69.207  1.00  0.00    -0.075 A  
BRANCH  17  20
HETATM   20  C   UNL     1     -10.745  10.761  68.421  1.00  0.00    -0.217 C  
HETATM   21  O   UNL     1     -11.897  10.407  68.658  1.00  0.00    -0.249 OA 
BRANCH  20  22
HETATM   22  C   UNL     1     -10.406  12.134  68.041  1.00  0.00    -0.213 A  
HETATM   23  C   UNL     1      -9.340  12.512  67.225  1.00  0.00    -0.190 A  
HETATM   24  C   UNL     1     -12.347  15.111  69.512  1.00  0.00    -0.171 A  
HETATM   25  O   UNL     1      -9.330  13.868  67.066  1.00  0.00    -0.232 OA 
HETATM   26  C   UNL     1     -11.623  16.094  68.844  1.00  0.00    -0.298 A  
HETATM   27  C   UNL     1     -10.314  14.384  67.836  1.00  0.00    -0.232 A  
HETATM   28  C   UNL     1     -11.003  13.371  68.488  1.00  0.00    -0.292 A  
HETATM   29  C   UNL     1     -10.573  15.744  67.990  1.00  0.00    -0.279 A  
HETATM   30  C   UNL     1     -12.023  13.756  69.381  1.00  0.00    -0.397 A  
BRANCH  23  31
HETATM   31  C   UNL     1      -8.151  11.848  66.614  1.00  0.00    -0.063 C  
BRANCH  31  32
HETATM   32  C   UNL     1      -8.393  10.787  65.541  1.00  0.00    -0.129 C  
BRANCH  32  33
HETATM   33  C   UNL     1      -9.248  11.424  64.432  1.00  0.00     0.007 C  
HETATM   34  C   UNL     1     -10.502  10.643  64.083  1.00  0.00    -0.188 C  
ENDBRANCH  32  33
ENDBRANCH  31  32
ENDBRANCH  23  31
BRANCH  24  35
HETATM   35  N   UNL     1     -13.437  15.463  70.361  1.00  0.00    -0.754 N  
HETATM   36  H   UNL     1     -14.308  15.827  69.974  1.00  0.00     0.000 HD 
BRANCH  35  37
HETATM   37  S   UNL     1     -13.244  15.260  72.026  1.00  0.00    -0.449 S  
HETATM   38  C   UNL     1     -11.837  16.304  72.343  1.00  0.00    -0.512 C  
HETATM   39  O   UNL     1     -14.396  15.780  72.726  1.00  0.00    -0.453 OA 
HETATM   40  O   UNL     1     -12.818  13.886  72.198  1.00  0.00    -0.332 OA 
ENDBRANCH  35  37
ENDBRANCH  24  35
ENDBRANCH  20  22
ENDBRANCH  17  20
ENDBRANCH  13  14
ENDBRANCH  12  13
ENDBRANCH  11  12
ENDBRANCH  10  11
ENDBRANCH   5  10
ENDBRANCH   4   5
ENDBRANCH   3   4
ENDBRANCH   2   3
TORSDOF 18
ENDMDL
MODEL      223
REMARK 921   NORMALIZED FREE ENERGY PREDICTED BY IDOCK:   -2.07 KCAL/MOL
REMARK 922        TOTAL FREE ENERGY PREDICTED BY IDOCK:   -6.96 KCAL/MOL
REMARK 923 INTER-LIGAND FREE ENERGY PREDICTED BY IDOCK:   -6.00 KCAL/MOL
REMARK 924 INTRA-LIGAND FREE ENERGY PREDICTED BY IDOCK:   -0.97 KCAL/MOL
REMARK 927      BINDING AFFINITY PREDICTED BY RF-SCORE:    0.00 PKD
ROOT
HETATM    1  C   UNL     1     -12.638  15.454  69.619  1.00  0.00    -0.071 C  
HETATM    2  C   UNL     1     -11.750  15.226  68.402  1.00  0.00    -0.340 C  
ENDROOT
BRANCH   2   3
HETATM    3  C   UNL     1     -10.405  15.926  68.588  1.00  0.00    -0.229 C  
BRANCH   3   4
HETATM    4  C   UNL     1      -9.269  15.373  67.714  1.00  0.00    -0.183 C  
BRANCH   4   5
HETATM    5  N   UNL     1      -7.881  15.436  68.237  1.00  0.00    -0.120 NA 
BRANCH   5   6
HETATM    6  C   UNL     1      -7.619  16.737  68.894  1.00  0.00    -0.239 C  
BRANCH   6   7
HETATM    7  C   UNL     1      -7.158  17.895  67.987  1.00  0.00    -0.215 C  
BRANCH   7   8
HETATM    8  C   UNL     1      -8.014  19.159  68.089  1.00  0.00    -0.339 C  
HETATM    9  C   UNL     1      -9.353  18.962  67.389  1.00  0.00    -0.321 C  
ENDBRANCH   7   8
ENDBRANCH   6   7
ENDBRANCH   5   6
BRANCH   5  10
HETATM   10  C   UNL     1      -7.664  14.315  69.188  1.00  0.00    -0.011 C  
BRANCH  10  11
HETATM   11  C   UNL     1      -6.503  13.374  68.835  1.00  0.00    -0.103 C  
BRANCH  11  12
HETATM   12  C   UNL     1      -6.986  12.195  67.997  1.00  0.00    -0.090 C  
BRANCH  12  13
HETATM   13  O   UNL     1      -6.497  10.976  68.562  1.00  0.00    -0.053 OA 
BRANCH  13  14
HETATM   14  C   UNL     1      -7.452  10.064  68.929  1.00  0.00    -0.083 A  
HETATM   15  C   UNL     1      -7.676   9.586  70.223  1.00  0.00    -0.170 A  
HETATM   16  C   UNL     1      -8.633   8.589  70.458  1.00  0.00    -0.155 A  
HETATM   17  C   UNL     1      -9.384   8.066  69.397  1.00  0.00    -0.155 A  
HETATM   18  C   UNL     1      -9.232   8.621  68.121  1.00  0.00    -0.142 A  
HETATM   19  C   UNL     1      -8.245   9.586  67.885  1.00  0.00    -0.114 A  
BRANCH  17  20
HETATM   20  C   UNL     1     -10.295   6.904  69.653  1.00  0.00    -0.206 C  
HETATM   21  O   UNL     1     -11.417   7.128  70.101  1.00  0.00    -0.266 OA 
BRANCH  20  22
HETATM   22  C   UNL     1      -9.804   5.545  69.408  1.00  0.00    -0.240 A  
HETATM   23  C   UNL     1      -9.387   4.644  70.388  1.00  0.00    -0.148 A  
HETATM   24  C   UNL     1      -9.315   4.254  65.819  1.00  0.00    -0.164 A  
HETATM   25  O   UNL     1      -9.010   3.466  69.809  1.00  0.00    -0.086 OA 
HETATM   26  C   UNL     1      -8.851   2.993  66.186  1.00  0.00    -0.143 A  
HETATM   27  C   UNL     1      -9.088   3.618  68.468  1.00  0.00    -0.147 A  
HETATM   28  C   UNL     1      -9.547   4.889  68.149  1.00  0.00    -0.191 A  
HETATM   29  C   UNL     1      -8.717   2.653  67.535  1.00  0.00    -0.138 A  
HETATM   30  C   UNL     1      -9.623   5.222  66.782  1.00  0.00    -0.156 A  
BRANCH  23  31
HETATM   31  C   UNL     1      -9.116   4.681  71.855  1.00  0.00    -0.162 C  
BRANCH  31  32
HETATM   32  C   UNL     1      -8.134   5.728  72.378  1.00  0.00    -0.107 C  
BRANCH  32  33
HETATM   33  C   UNL     1      -8.666   6.243  73.727  1.00  0.00    -0.127 C  
HETATM   34  C   UNL     1      -8.347   7.699  74.010  1.00  0.00    -0.262 C  
ENDBRANCH  32  33
ENDBRANCH  31  32
ENDBRANCH  23  31
BRANCH  24  35
HETATM   35  N   UNL     1      -9.480   4.594  64.445  1.00  0.00    -0.330 N  
HETATM   36  H   UNL     1      -9.413   5.563  64.133  1.00  0.00     0.000 HD 
BRANCH  35  37
HETATM   37  S   UNL     1      -9.787   3.347  63.349  1.00  0.00    -0.147 S  
HETATM   38  C   UNL     1     -10.501   2.115  64.417  1.00  0.00     0.428 C  
HETATM   39  O   UNL     1     -10.771   3.771  62.379  1.00  0.00    -0.194 OA 
HETATM   40  O   UNL     1      -8.484   2.869  62.938  1.00  0.00    -0.077 OA 
ENDBRANCH  35  37
ENDBRANCH  24  35
ENDBRANCH  20  22
ENDBRANCH  17  20
ENDBRANCH  13  14
ENDBRANCH  12  13
ENDBRANCH  11  12
ENDBRANCH  10  11
ENDBRANCH   5  10
ENDBRANCH   4   5
ENDBRANCH   3   4
ENDBRANCH   2   3
TORSDOF 18
ENDMDL
MODEL      224
REMARK 921   NORMALIZED FREE ENERGY PREDICTED BY IDOCK:   -2.01 KCAL/MOL
REMARK 922        TOTAL FREE ENERGY PREDICTED BY IDOCK:   -6.84 KCAL/MOL
REMARK 923 INTER-LIGAND FREE ENERGY PREDICTED BY IDOCK:   -4.80 KCAL/MOL
REMARK 924 INTRA-LIGAND FREE ENERGY PREDICTED BY IDOCK:   -2.03 KCAL/MOL
REMARK 927      BINDING AFFINITY PREDICTED BY RF-SCORE:    0.00 PKD
ROOT
HETATM    1  C   UNL     1      -8.560  10.055  66.860  1.00  0.00    -0.128 C  
HETATM    2  C   UNL     1      -7.705  11.059  66.096  1.00  0.00    -0.102 C  
ENDROOT
BRANCH   2   3
HETATM    3  C   UNL     1      -7.731  12.418  66.795  1.00  0.00     0.115 C  
BRANCH   3   4
HETATM    4  C   UNL     1      -9.100  12.816  67.367  1.00  0.00    -0.192 C  
BRANCH   4   5
HETATM    5  N   UNL     1      -9.158  13.923  68.355  1.00  0.00    -0.194 NA 
BRANCH   5   6
HETATM    6  C   UNL     1      -9.769  15.134  67.760  1.00  0.00    -0.211 C  
BRANCH   6   7
HETATM    7  C   UNL     1      -9.141  16.490  68.140  1.00  0.00    -0.207 C  
BRANCH   7   8
HETATM    8  C   UNL     1      -8.675  17.329  66.948  1.00  0.00    -0.261 C  
HETATM    9  C   UNL     1      -7.791  16.504  66.021  1.00  0.00     0.080 C  
ENDBRANCH   7   8
ENDBRANCH   6   7
ENDBRANCH   5   6
BRANCH   5  10
HETATM   10  C   UNL     1      -9.927  13.479  69.545  1.00  0.00     0.803 C  
BRANCH  10  11
HETATM   11  C   UNL     1     -11.323  14.102  69.693  1.00  0.00    -0.289 C  
BRANCH  11  12
HETATM   12  C   UNL     1     -12.407  13.029  69.696  1.00  0.00    -0.045 C  
BRANCH  12  13
HETATM   13  O   UNL     1     -12.385  12.333  70.945  1.00  0.00    -0.376 OA 
BRANCH  13  14
HETATM   14  C   UNL     1     -12.190  10.979  70.870  1.00  0.00    -0.367 A  
HETATM   15  C   UNL     1     -12.353  10.066  71.916  1.00  0.00    -0.348 A  
HETATM   16  C   UNL     1     -12.042   8.711  71.734  1.00  0.00    -0.403 A  
HETATM   17  C   UNL     1     -11.574   8.253  70.496  1.00  0.00    -0.133 A  
HETATM   18  C   UNL     1     -11.512   9.149  69.422  1.00  0.00     0.304 A  
HETATM   19  C   UNL     1     -11.783  10.509  69.621  1.00  0.00    -0.328 A  
BRANCH  17  20
HETATM   20  C   UNL     1     -11.113   6.832  70.372  1.00  0.00    -0.308 C  
HETATM   21  O   UNL     1     -11.746   6.076  69.639  1.00  0.00    -0.196 OA 
BRANCH  20  22
HETATM   22  C   UNL     1      -9.962   6.384  71.158  1.00  0.00    -0.203 A  
HETATM   23  C   UNL     1     -10.004   5.466  72.208  1.00  0.00    -0.177 A  
HETATM   24  C   UNL     1      -6.485   7.930  70.602  1.00  0.00    -0.037 A  
HETATM   25  O   UNL     1      -8.748   5.266  72.704  1.00  0.00    -0.120 OA 
HETATM   26  C   UNL     1      -5.837   7.171  71.574  1.00  0.00    -0.037 A  
HETATM   27  C   UNL     1      -7.906   6.104  72.057  1.00  0.00    -0.105 A  
HETATM   28  C   UNL     1      -8.595   6.844  71.106  1.00  0.00    -0.131 A  
HETATM   29  C   UNL     1      -6.549   6.240  72.336  1.00  0.00    -0.067 A  
HETATM   30  C   UNL     1      -7.863   7.812  70.388  1.00  0.00    -0.090 A  
BRANCH  23  31
HETATM   31  C   UNL     1     -11.058   4.773  73.004  1.00  0.00    -0.352 C  
BRANCH  31  32
HETATM   32  C   UNL     1     -10.966   3.255  73.151  1.00  0.00    -0.207 C  
BRANCH  32  33
HETATM   33  C   UNL     1     -10.207   2.952  74.455  1.00  0.00    -0.201 C  
HETATM   34  C   UNL     1      -9.397   1.669  74.423  1.00  0.00    -0.081 C  
ENDBRANCH  32  33
ENDBRANCH  31  32
ENDBRANCH  23  31
BRANCH  24  35
HETATM   35  N   UNL     1      -5.757   8.861  69.804  1.00  0.00    -0.029 N  
HETATM   36  H   UNL     1      -5.141   8.542  69.056  1.00  0.00     0.000 HD 
BRANCH  35  37
HETATM   37  S   UNL     1      -5.944  10.506  70.134  1.00  0.00    -0.105 S  
HETATM   38  C   UNL     1      -7.709  10.690  69.996  1.00  0.00     0.255 C  
HETATM   39  O   UNL     1      -5.535  10.789  71.491  1.00  0.00    -0.286 OA 
HETATM   40  O   UNL     1      -5.343  11.192  69.009  1.00  0.00    -0.041 OA 
ENDBRANCH  35  37
ENDBRANCH  24  35
ENDBRANCH  20  22
ENDBRANCH  17  20
ENDBRANCH  13  14
ENDBRANCH  12  13
ENDBRANCH  11  12
ENDBRANCH  10  11
ENDBRANCH   5  10
ENDBRANCH   4   5
ENDBRANCH   3   4
ENDBRANCH   2   3
TORSDOF 18
ENDMDL
MODEL      225
REMARK 921   NORMALIZED FREE ENERGY PREDICTED BY IDOCK:   -1.40 KCAL/MOL
REMARK 922        TOTAL FREE ENERGY PREDICTED BY IDOCK:   -5.60 KCAL/MOL
REMARK 923 INTER-LIGAND FREE ENERGY PREDICTED BY IDOCK:   -6.26 KCAL/MOL
REMARK 924 INTRA-LIGAND FREE ENERGY PREDICTED BY IDOCK:    0.66 KCAL/MOL
REMARK 927      BINDING AFFINITY PREDICTED BY RF-SCORE:    0.00 PKD
ROOT
HETATM    1  C   UNL     1     -11.133   8.817  72.225  1.00  0.00    -0.340 C  
HETATM    2  C   UNL     1     -11.836   7.790  71.346  1.00  0.00    -0.324 C  
ENDROOT
BRANCH   2   3
HETATM    3  C   UNL     1     -10.862   7.217  70.318  1.00  0.00    -0.264 C  
BRANCH   3   4
HETATM    4  C   UNL     1      -9.732   6.364  70.914  1.00  0.00    -0.176 C  
BRANCH   4   5
HETATM    5  N   UNL     1      -8.477   6.211  70.135  1.00  0.00    -0.131 NA 
BRANCH   5   6
HETATM    6  C   UNL     1      -8.618   5.160  69.101  1.00  0.00    -0.092 C  
BRANCH   6   7
HETATM    7  C   UNL     1     -10.038   4.899  68.562  1.00  0.00    -0.148 C  
BRANCH   7   8
HETATM    8  C   UNL     1     -10.156   4.945  67.037  1.00  0.00    -0.243 C  
HETATM    9  C   UNL     1      -9.507   6.207  66.483  1.00  0.00    -0.178 C  
ENDBRANCH   7   8
ENDBRANCH   6   7
ENDBRANCH   5   6
BRANCH   5  10
HETATM   10  C   UNL     1      -8.123   7.513  69.514  1.00  0.00    -0.128 C  
BRANCH  10  11
HETATM   11  C   UNL     1      -8.444   8.752  70.363  1.00  0.00    -0.163 C  
BRANCH  11  12
HETATM   12  C   UNL     1      -9.471   9.641  69.671  1.00  0.00    -0.210 C  
BRANCH  12  13
HETATM   13  O   UNL     1      -9.278   9.582  68.256  1.00  0.00    -0.130 OA 
BRANCH  13  14
HETATM   14  C   UNL     1      -9.251  10.788  67.606  1.00  0.00    -0.147 A  
HETATM   15  C   UNL     1      -8.284  11.784  67.764  1.00  0.00    -0.144 A  
HETATM   16  C   UNL     1      -8.412  13.013  67.100  1.00  0.00    -0.176 A  
HETATM   17  C   UNL     1      -9.509  13.253  66.263  1.00  0.00    -0.196 A  
HETATM   18  C   UNL     1     -10.419  12.216  66.026  1.00  0.00    -0.281 A  
HETATM   19  C   UNL     1     -10.309  11.007  66.723  1.00  0.00    -0.284 A  
BRANCH  17  20
HETATM   20  C   UNL     1      -9.696  14.622  65.682  1.00  0.00    -0.266 C  
HETATM   21  O   UNL     1      -9.765  14.734  64.461  1.00  0.00     0.219 OA 
BRANCH  20  22
HETATM   22  C   UNL     1      -9.743  15.778  66.582  1.00  0.00    -0.266 A  
HETATM   23  C   UNL     1      -8.907  16.892  66.515  1.00  0.00    -0.271 A  
HETATM   24  C   UNL     1     -12.136  15.825  69.592  1.00  0.00    -0.264 A  
HETATM   25  O   UNL     1      -9.239  17.785  67.493  1.00  0.00    -0.242 OA 
HETATM   26  C   UNL     1     -11.755  17.083  70.054  1.00  0.00     1.482 A  
HETATM   27  C   UNL     1     -10.214  17.230  68.249  1.00  0.00    -0.348 A  
HETATM   28  C   UNL     1     -10.556  15.978  67.758  1.00  0.00    -0.309 A  
HETATM   29  C   UNL     1     -10.766  17.812  69.387  1.00  0.00     0.449 A  
HETATM   30  C   UNL     1     -11.518  15.243  68.479  1.00  0.00    -0.355 A  
BRANCH  23  31
HETATM   31  C   UNL     1      -7.681  17.288  65.762  1.00  0.00     0.178 C  
BRANCH  31  32
HETATM   32  C   UNL     1      -6.349  17.295  66.511  1.00  0.00    -0.263 C  
BRANCH  32  33
HETATM   33  C   UNL     1      -6.653  17.163  68.014  1.00  0.00    -0.158 C  
HETATM   34  C   UNL     1      -6.693  15.732  68.520  1.00  0.00    -0.119 C  
ENDBRANCH  32  33
ENDBRANCH  31  32
ENDBRANCH  23  31
BRANCH  24  35
HETATM   35  N   UNL     1     -13.163  15.090  70.253  1.00  0.00    -0.638 N  
HETATM   36  H   UNL     1     -14.118  15.084  69.894  1.00  0.00     0.000 HD 
BRANCH  35  37
HETATM   37  S   UNL     1     -12.754  14.231  71.648  1.00  0.00    -0.361 S  
HETATM   38  C   UNL     1     -12.301  12.652  70.962  1.00  0.00    -0.211 C  
HETATM   39  O   UNL     1     -11.600  14.830  72.278  1.00  0.00    -0.256 OA 
HETATM   40  O   UNL     1     -13.998  14.056  72.368  1.00  0.00    -0.506 OA 
ENDBRANCH  35  37
ENDBRANCH  24  35
ENDBRANCH  20  22
ENDBRANCH  17  20
ENDBRANCH  13  14
ENDBRANCH  12  13
ENDBRANCH  11  12
ENDBRANCH  10  11
ENDBRANCH   5  10
ENDBRANCH   4   5
ENDBRANCH   3   4
ENDBRANCH   2   3
TORSDOF 18
ENDMDL
MODEL      226
REMARK 921   NORMALIZED FREE ENERGY PREDICTED BY IDOCK:   -1.27 KCAL/MOL
REMARK 922        TOTAL FREE ENERGY PREDICTED BY IDOCK:   -5.32 KCAL/MOL
REMARK 923 INTER-LIGAND FREE ENERGY PREDICTED BY IDOCK:   -5.38 KCAL/MOL
REMARK 924 INTRA-LIGAND FREE ENERGY PREDICTED BY IDOCK:    0.07 KCAL/MOL
REMARK 927      BINDING AFFINITY PREDICTED BY RF-SCORE:    0.00 PKD
ROOT
HETATM    1  C   UNL     1      -5.811  17.444  70.945  1.00  0.00     0.482 C  
HETATM    2  C   UNL     1      -6.085  17.540  69.449  1.00  0.00    -0.245 C  
ENDROOT
BRANCH   2   3
HETATM    3  C   UNL     1      -7.552  17.221  69.159  1.00  0.00    -0.103 C  
BRANCH   3   4
HETATM    4  C   UNL     1      -8.107  17.875  67.885  1.00  0.00    -0.244 C  
BRANCH   4   5
HETATM    5  N   UNL     1      -9.372  17.346  67.313  1.00  0.00    -0.236 NA 
BRANCH   5   6
HETATM    6  C   UNL     1      -9.908  18.258  66.276  1.00  0.00    -0.321 C  
BRANCH   6   7
HETATM    7  C   UNL     1      -9.874  19.767  66.589  1.00  0.00    -0.538 C  
BRANCH   7   8
HETATM    8  C   UNL     1      -8.468  20.362  66.689  1.00  0.00    -0.232 C  
HETATM    9  C   UNL     1      -7.650  20.023  65.448  1.00  0.00    -0.024 C  
ENDBRANCH   7   8
ENDBRANCH   6   7
ENDBRANCH   5   6
BRANCH   5  10
HETATM   10  C   UNL     1      -9.127  15.995  66.747  1.00  0.00    -0.244 C  
BRANCH  10  11
HETATM   11  C   UNL     1      -7.689  15.475  66.894  1.00  0.00    -0.200 C  
BRANCH  11  12
HETATM   12  C   UNL     1      -7.652  14.180  67.697  1.00  0.00    -0.180 C  
BRANCH  12  13
HETATM   13  O   UNL     1      -7.015  13.158  66.926  1.00  0.00     0.082 OA 
BRANCH  13  14
HETATM   14  C   UNL     1      -7.668  11.955  66.874  1.00  0.00    -0.106 A  
HETATM   15  C   UNL     1      -8.936  11.732  66.330  1.00  0.00    -0.176 A  
HETATM   16  C   UNL     1      -9.533  10.465  66.411  1.00  0.00    -0.209 A  
HETATM   17  C   UNL     1      -8.860   9.405  67.031  1.00  0.00    -0.139 A  
HETATM   18  C   UNL     1      -7.550   9.605  67.481  1.00  0.00    -0.095 A  
HETATM   19  C   UNL     1      -6.975  10.881  67.435  1.00  0.00    -0.084 A  
BRANCH  17  20
HETATM   20  C   UNL     1      -9.578   8.105  67.232  1.00  0.00    -0.163 C  
HETATM   21  O   UNL     1     -10.805   8.099  67.168  1.00  0.00    -0.261 OA 
BRANCH  20  22
HETATM   22  C   UNL     1      -8.802   6.902  67.542  1.00  0.00    -0.118 A  
HETATM   23  C   UNL     1      -8.257   6.024  66.605  1.00  0.00    -0.106 A  
HETATM   24  C   UNL     1      -8.322   5.760  71.183  1.00  0.00    -0.123 A  
HETATM   25  O   UNL     1      -7.581   5.022  67.240  1.00  0.00    -0.089 OA 
HETATM   26  C   UNL     1      -7.563   4.633  70.877  1.00  0.00    -0.068 A  
HETATM   27  C   UNL     1      -7.754   5.183  68.572  1.00  0.00    -0.079 A  
HETATM   28  C   UNL     1      -8.521   6.311  68.829  1.00  0.00    -0.119 A  
HETATM   29  C   UNL     1      -7.271   4.315  69.548  1.00  0.00    -0.050 A  
HETATM   30  C   UNL     1      -8.844   6.579  70.174  1.00  0.00    -0.144 A  
BRANCH  23  31
HETATM   31  C   UNL     1      -8.340   5.820  65.129  1.00  0.00    -0.146 C  
BRANCH  31  32
HETATM   32  C   UNL     1      -7.650   4.594  64.533  1.00  0.00    -0.073 C  
BRANCH  32  33
HETATM   33  C   UNL     1      -8.188   4.397  63.104  1.00  0.00    -0.093 C  
HETATM   34  C   UNL     1      -8.590   2.970  62.779  1.00  0.00    -0.078 C  
ENDBRANCH  32  33
ENDBRANCH  31  32
ENDBRANCH  23  31
BRANCH  24  35
HETATM   35  N   UNL     1      -8.598   6.103  72.538  1.00  0.00    -0.122 N  
HETATM   36  H   UNL     1      -7.973   6.717  73.062  1.00  0.00     0.000 HD 
BRANCH  35  37
HETATM   37  S   UNL     1      -9.989   5.464  73.252  1.00  0.00    -0.178 S  
HETATM   38  C   UNL     1      -9.297   4.172  74.263  1.00  0.00    -0.106 C  
HETATM   39  O   UNL     1     -10.612   6.456  74.098  1.00  0.00    -0.283 OA 
HETATM   40  O   UNL     1     -10.717   4.832  72.172  1.00  0.00    -0.174 OA 
ENDBRANCH  35  37
ENDBRANCH  24  35
ENDBRANCH  20  22
ENDBRANCH  17  20
ENDBRANCH  13  14
ENDBRANCH  12  13
ENDBRANCH  11  12
ENDBRANCH  10  11
ENDBRANCH   5  10
ENDBRANCH   4   5
ENDBRANCH   3   4
ENDBRANCH   2   3
TORSDOF 18
ENDMDL
MODEL      227
REMARK 921   NORMALIZED FREE ENERGY PREDICTED BY IDOCK:   -1.15 KCAL/MOL
REMARK 922        TOTAL FREE ENERGY PREDICTED BY IDOCK:   -5.08 KCAL/MOL
REMARK 923 INTER-LIGAND FREE ENERGY PREDICTED BY IDOCK:   -5.84 KCAL/MOL
REMARK 924 INTRA-LIGAND FREE ENERGY PREDICTED BY IDOCK:    0.76 KCAL/MOL
REMARK 927      BINDING AFFINITY PREDICTED BY RF-SCORE:    0.00 PKD
ROOT
HETATM    1  C   UNL     1      -9.765   3.370  71.668  1.00  0.00    -0.234 C  
HETATM    2  C   UNL     1      -8.289   2.994  71.640  1.00  0.00    -0.079 C  
ENDROOT
BRANCH   2   3
HETATM    3  C   UNL     1      -7.436   4.223  71.326  1.00  0.00    -0.059 C  
BRANCH   3   4
HETATM    4  C   UNL     1      -6.935   4.299  69.876  1.00  0.00    -0.042 C  
BRANCH   4   5
HETATM    5  N   UNL     1      -7.245   3.171  68.962  1.00  0.00    -0.048 NA 
BRANCH   5   6
HETATM    6  C   UNL     1      -8.682   2.816  69.024  1.00  0.00    -0.084 C  
BRANCH   6   7
HETATM    7  C   UNL     1      -9.629   3.579  68.076  1.00  0.00    -0.166 C  
BRANCH   7   8
HETATM    8  C   UNL     1     -10.337   4.775  68.716  1.00  0.00     0.028 C  
HETATM    9  C   UNL     1     -10.598   5.863  67.681  1.00  0.00    -0.335 C  
ENDBRANCH   7   8
ENDBRANCH   6   7
ENDBRANCH   5   6
BRANCH   5  10
HETATM   10  C   UNL     1      -6.856   3.541  67.577  1.00  0.00    -0.050 C  
BRANCH  10  11
HETATM   11  C   UNL     1      -5.375   3.900  67.387  1.00  0.00    -0.012 C  
BRANCH  11  12
HETATM   12  C   UNL     1      -5.147   4.613  66.059  1.00  0.00    -0.008 C  
BRANCH  12  13
HETATM   13  O   UNL     1      -6.295   5.404  65.740  1.00  0.00    -0.033 OA 
BRANCH  13  14
HETATM   14  C   UNL     1      -6.524   6.480  66.557  1.00  0.00    -0.043 A  
HETATM   15  C   UNL     1      -7.632   6.656  67.391  1.00  0.00    -0.104 A  
HETATM   16  C   UNL     1      -7.793   7.843  68.120  1.00  0.00    -0.127 A  
HETATM   17  C   UNL     1      -6.838   8.863  68.030  1.00  0.00    -0.070 A  
HETATM   18  C   UNL     1      -5.679   8.641  67.276  1.00  0.00    -0.039 A  
HETATM   19  C   UNL     1      -5.544   7.472  66.517  1.00  0.00    -0.025 A  
BRANCH  17  20
HETATM   20  C   UNL     1      -7.106  10.174  68.705  1.00  0.00    -0.074 C  
HETATM   21  O   UNL     1      -6.153  10.904  68.962  1.00  0.00    -0.041 OA 
BRANCH  20  22
HETATM   22  C   UNL     1      -8.481  10.517  69.076  1.00  0.00    -0.159 A  
HETATM   23  C   UNL     1      -9.166  10.032  70.190  1.00  0.00    -0.026 A  
HETATM   24  C   UNL     1     -10.637  12.730  66.787  1.00  0.00    -0.252 A  
HETATM   25  O   UNL     1     -10.419  10.572  70.240  1.00  0.00    -0.160 OA 
HETATM   26  C   UNL     1     -11.771  12.705  67.595  1.00  0.00    -0.420 A  
HETATM   27  C   UNL     1     -10.592  11.326  69.131  1.00  0.00    -0.187 A  
HETATM   28  C   UNL     1      -9.442  11.316  68.353  1.00  0.00    -0.192 A  
HETATM   29  C   UNL     1     -11.771  11.984  68.792  1.00  0.00    -0.377 A  
HETATM   30  C   UNL     1      -9.488  12.009  67.127  1.00  0.00    -0.187 A  
BRANCH  23  31
HETATM   31  C   UNL     1      -8.942   8.991  71.236  1.00  0.00    -0.281 C  
BRANCH  31  32
HETATM   32  C   UNL     1     -10.135   8.559  72.086  1.00  0.00    -0.393 C  
BRANCH  32  33
HETATM   33  C   UNL     1     -10.367   7.057  71.844  1.00  0.00    -0.213 C  
HETATM   34  C   UNL     1     -10.477   6.229  73.112  1.00  0.00    -0.259 C  
ENDBRANCH  32  33
ENDBRANCH  31  32
ENDBRANCH  23  31
BRANCH  24  35
HETATM   35  N   UNL     1     -10.624  13.487  65.579  1.00  0.00    -0.288 N  
HETATM   36  H   UNL     1      -9.756  13.879  65.214  1.00  0.00     0.000 HD 
BRANCH  35  37
HETATM   37  S   UNL     1     -12.088  13.717  64.769  1.00  0.00    -0.417 S  
HETATM   38  C   UNL     1     -11.708  15.131  63.757  1.00  0.00     0.567 C  
HETATM   39  O   UNL     1     -12.370  12.581  63.922  1.00  0.00    -0.463 OA 
HETATM   40  O   UNL     1     -13.025  14.146  65.787  1.00  0.00    -0.492 OA 
ENDBRANCH  35  37
ENDBRANCH  24  35
ENDBRANCH  20  22
ENDBRANCH  17  20
ENDBRANCH  13  14
ENDBRANCH  12  13
ENDBRANCH  11  12
ENDBRANCH  10  11
ENDBRANCH   5  10
ENDBRANCH   4   5
ENDBRANCH   3   4
ENDBRANCH   2   3
TORSDOF 18
ENDMDL
MODEL      228
REMARK 921   NORMALIZED FREE ENERGY PREDICTED BY IDOCK:   -1.15 KCAL/MOL
REMARK 922        TOTAL FREE ENERGY PREDICTED BY IDOCK:   -5.08 KCAL/MOL
REMARK 923 INTER-LIGAND FREE ENERGY PREDICTED BY IDOCK:   -7.37 KCAL/MOL
REMARK 924 INTRA-LIGAND FREE ENERGY PREDICTED BY IDOCK:    2.29 KCAL/MOL
REMARK 927      BINDING AFFINITY PREDICTED BY RF-SCORE:    0.00 PKD
ROOT
HETATM    1  C   UNL     1      -8.675   4.661  74.074  1.00  0.00    -0.104 C  
HETATM    2  C   UNL     1      -9.583   4.409  72.877  1.00  0.00    -0.163 C  
ENDROOT
BRANCH   2   3
HETATM    3  C   UNL     1     -10.113   5.732  72.326  1.00  0.00    -0.216 C  
BRANCH   3   4
HETATM    4  C   UNL     1      -9.038   6.653  71.730  1.00  0.00    -0.144 C  
BRANCH   4   5
HETATM    5  N   UNL     1      -8.342   6.217  70.493  1.00  0.00    -0.127 NA 
BRANCH   5   6
HETATM    6  C   UNL     1      -9.307   5.706  69.492  1.00  0.00    -0.133 C  
BRANCH   6   7
HETATM    7  C   UNL     1      -9.282   4.191  69.211  1.00  0.00    -0.213 C  
BRANCH   7   8
HETATM    8  C   UNL     1      -8.402   3.383  70.167  1.00  0.00    -0.081 C  
HETATM    9  C   UNL     1      -8.551   1.889  69.905  1.00  0.00    -0.096 C  
ENDBRANCH   7   8
ENDBRANCH   6   7
ENDBRANCH   5   6
BRANCH   5  10
HETATM   10  C   UNL     1      -7.566   7.357  69.939  1.00  0.00    -0.090 C  
BRANCH  10  11
HETATM   11  C   UNL     1      -8.401   8.433  69.230  1.00  0.00    -0.121 C  
BRANCH  11  12
HETATM   12  C   UNL     1      -7.787   9.817  69.417  1.00  0.00    -0.114 C  
BRANCH  12  13
HETATM   13  O   UNL     1      -6.968  10.132  68.289  1.00  0.00    -0.069 OA 
BRANCH  13  14
HETATM   14  C   UNL     1      -6.803  11.466  68.025  1.00  0.00    -0.067 A  
HETATM   15  C   UNL     1      -5.600  12.173  68.091  1.00  0.00    -0.053 A  
HETATM   16  C   UNL     1      -5.576  13.559  67.876  1.00  0.00    -0.116 A  
HETATM   17  C   UNL     1      -6.758  14.250  67.582  1.00  0.00    -0.188 A  
HETATM   18  C   UNL     1      -7.943  13.523  67.413  1.00  0.00    -0.165 A  
HETATM   19  C   UNL     1      -7.969  12.146  67.670  1.00  0.00    -0.157 A  
BRANCH  17  20
HETATM   20  C   UNL     1      -6.727  15.746  67.500  1.00  0.00    -0.190 C  
HETATM   21  O   UNL     1      -5.777  16.338  68.005  1.00  0.00    -0.096 OA 
BRANCH  20  22
HETATM   22  C   UNL     1      -7.846  16.449  66.868  1.00  0.00    -0.273 A  
HETATM   23  C   UNL     1      -8.111  17.814  66.976  1.00  0.00    -0.219 A  
HETATM   24  C   UNL     1     -10.527  14.509  64.910  1.00  0.00    -0.409 A  
HETATM   25  O   UNL     1      -9.220  18.134  66.246  1.00  0.00    -0.410 OA 
HETATM   26  C   UNL     1     -11.289  15.625  64.572  1.00  0.00    -0.327 A  
HETATM   27  C   UNL     1      -9.731  16.987  65.742  1.00  0.00    -0.050 A  
HETATM   28  C   UNL     1      -8.946  15.903  66.109  1.00  0.00    -0.376 A  
HETATM   29  C   UNL     1     -10.904  16.899  64.997  1.00  0.00    -0.077 A  
HETATM   30  C   UNL     1      -9.385  14.625  65.711  1.00  0.00    -0.058 A  
BRANCH  23  31
HETATM   31  C   UNL     1      -7.595  18.962  67.778  1.00  0.00    -0.255 C  
BRANCH  31  32
HETATM   32  C   UNL     1      -8.545  19.628  68.773  1.00  0.00    -0.277 C  
BRANCH  32  33
HETATM   33  C   UNL     1      -9.217  20.815  68.061  1.00  0.00     0.067 C  
HETATM   34  C   UNL     1     -10.121  20.422  66.908  1.00  0.00    -0.503 C  
ENDBRANCH  32  33
ENDBRANCH  31  32
ENDBRANCH  23  31
BRANCH  24  35
HETATM   35  N   UNL     1     -10.901  13.211  64.455  1.00  0.00    -0.377 N  
HETATM   36  H   UNL     1     -10.483  12.808  63.615  1.00  0.00     0.000 HD 
BRANCH  35  37
HETATM   37  S   UNL     1     -12.055  12.359  65.345  1.00  0.00    -0.276 S  
HETATM   38  C   UNL     1     -12.613  13.612  66.480  1.00  0.00    -0.172 C  
HETATM   39  O   UNL     1     -13.150  11.964  64.488  1.00  0.00    -0.451 OA 
HETATM   40  O   UNL     1     -11.307  11.381  66.106  1.00  0.00    -0.225 OA 
ENDBRANCH  35  37
ENDBRANCH  24  35
ENDBRANCH  20  22
ENDBRANCH  17  20
ENDBRANCH  13  14
ENDBRANCH  12  13
ENDBRANCH  11  12
ENDBRANCH  10  11
ENDBRANCH   5  10
ENDBRANCH   4   5
ENDBRANCH   3   4
ENDBRANCH   2   3
TORSDOF 18
ENDMDL
MODEL      229
REMARK 921   NORMALIZED FREE ENERGY PREDICTED BY IDOCK:   -1.09 KCAL/MOL
REMARK 922        TOTAL FREE ENERGY PREDICTED BY IDOCK:   -4.95 KCAL/MOL
REMARK 923 INTER-LIGAND FREE ENERGY PREDICTED BY IDOCK:   -5.60 KCAL/MOL
REMARK 924 INTRA-LIGAND FREE ENERGY PREDICTED BY IDOCK:    0.65 KCAL/MOL
REMARK 927      BINDING AFFINITY PREDICTED BY RF-SCORE:    0.00 PKD
ROOT
HETATM    1  C   UNL     1      -9.010  15.958  69.547  1.00  0.00    -0.135 C  
HETATM    2  C   UNL     1      -8.952  16.024  68.026  1.00  0.00    -0.187 C  
ENDROOT
BRANCH   2   3
HETATM    3  C   UNL     1      -9.819  14.923  67.415  1.00  0.00    -0.221 C  
BRANCH   3   4
HETATM    4  C   UNL     1     -10.665  14.139  68.429  1.00  0.00    -0.256 C  
BRANCH   4   5
HETATM    5  N   UNL     1     -11.573  13.079  67.922  1.00  0.00    -0.320 NA 
BRANCH   5   6
HETATM    6  C   UNL     1     -11.984  13.354  66.526  1.00  0.00    -0.400 C  
BRANCH   6   7
HETATM    7  C   UNL     1     -12.025  12.152  65.562  1.00  0.00    -0.290 C  
BRANCH   7   8
HETATM    8  C   UNL     1     -11.360  12.402  64.207  1.00  0.00    -0.420 C  
HETATM    9  C   UNL     1     -12.092  13.497  63.441  1.00  0.00    -0.351 C  
ENDBRANCH   7   8
ENDBRANCH   6   7
ENDBRANCH   5   6
BRANCH   5  10
HETATM   10  C   UNL     1     -10.891  11.763  68.018  1.00  0.00    -0.213 C  
BRANCH  10  11
HETATM   11  C   UNL     1     -11.661  10.681  68.789  1.00  0.00    -0.309 C  
BRANCH  11  12
HETATM   12  C   UNL     1     -11.566  10.905  70.294  1.00  0.00    -0.334 C  
BRANCH  12  13
HETATM   13  O   UNL     1     -11.025   9.736  70.917  1.00  0.00    -0.304 OA 
BRANCH  13  14
HETATM   14  C   UNL     1     -10.523   8.786  70.068  1.00  0.00    -0.212 A  
HETATM   15  C   UNL     1     -10.928   8.567  68.748  1.00  0.00     0.120 A  
HETATM   16  C   UNL     1     -10.392   7.505  68.006  1.00  0.00    -0.254 A  
HETATM   17  C   UNL     1      -9.435   6.656  68.575  1.00  0.00    -0.123 A  
HETATM   18  C   UNL     1      -8.955   6.942  69.859  1.00  0.00    -0.142 A  
HETATM   19  C   UNL     1      -9.524   7.977  70.611  1.00  0.00    -0.167 A  
BRANCH  17  20
HETATM   20  C   UNL     1      -8.987   5.447  67.811  1.00  0.00    -0.108 C  
HETATM   21  O   UNL     1      -9.756   4.960  66.986  1.00  0.00    -0.150 OA 
BRANCH  20  22
HETATM   22  C   UNL     1      -7.677   4.862  68.106  1.00  0.00    -0.082 A  
HETATM   23  C   UNL     1      -6.540   4.975  67.306  1.00  0.00    -0.053 A  
HETATM   24  C   UNL     1      -7.187   2.587  71.167  1.00  0.00    -0.033 A  
HETATM   25  O   UNL     1      -5.491   4.324  67.890  1.00  0.00    -0.015 OA 
HETATM   26  C   UNL     1      -5.836   2.338  70.942  1.00  0.00    -0.017 A  
HETATM   27  C   UNL     1      -5.949   3.716  69.008  1.00  0.00    -0.024 A  
HETATM   28  C   UNL     1      -7.299   3.985  69.188  1.00  0.00    -0.054 A  
HETATM   29  C   UNL     1      -5.187   2.897  69.837  1.00  0.00    -0.008 A  
HETATM   30  C   UNL     1      -7.939   3.366  70.281  1.00  0.00    -0.052 A  
BRANCH  23  31
HETATM   31  C   UNL     1      -6.216   5.486  65.942  1.00  0.00    -0.034 C  
BRANCH  31  32
HETATM   32  C   UNL     1      -5.413   4.582  65.008  1.00  0.00    -0.013 C  
BRANCH  32  33
HETATM   33  C   UNL     1      -6.128   3.221  64.938  1.00  0.00    -0.023 C  
HETATM   34  C   UNL     1      -5.464   2.213  64.018  1.00  0.00    -0.008 C  
ENDBRANCH  32  33
ENDBRANCH  31  32
ENDBRANCH  23  31
BRANCH  24  35
HETATM   35  N   UNL     1      -7.845   2.041  72.308  1.00  0.00    -0.044 N  
HETATM   36  H   UNL     1      -7.782   1.046  72.524  1.00  0.00     0.000 HD 
BRANCH  35  37
HETATM   37  S   UNL     1      -8.732   3.090  73.291  1.00  0.00    -0.080 S  
HETATM   38  C   UNL     1      -7.548   4.390  73.569  1.00  0.00    -0.078 C  
HETATM   39  O   UNL     1      -9.862   3.616  72.561  1.00  0.00    -0.138 OA 
HETATM   40  O   UNL     1      -8.908   2.384  74.543  1.00  0.00    -0.069 OA 
ENDBRANCH  35  37
ENDBRANCH  24  35
ENDBRANCH  20  22
ENDBRANCH  17  20
ENDBRANCH  13  14
ENDBRANCH  12  13
ENDBRANCH  11  12
ENDBRANCH  10  11
ENDBRANCH   5  10
ENDBRANCH   4   5
ENDBRANCH   3   4
ENDBRANCH   2   3
TORSDOF 18
ENDMDL
MODEL      230
REMARK 921   NORMALIZED FREE ENERGY PREDICTED BY IDOCK:   -1.07 KCAL/MOL
REMARK 922        TOTAL FREE ENERGY PREDICTED BY IDOCK:   -4.92 KCAL/MOL
REMARK 923 INTER-LIGAND FREE ENERGY PREDICTED BY IDOCK:   -4.95 KCAL/MOL
REMARK 924 INTRA-LIGAND FREE ENERGY PREDICTED BY IDOCK:    0.03 KCAL/MOL
REMARK 927      BINDING AFFINITY PREDICTED BY RF-SCORE:    0.00 PKD
ROOT
HETATM    1  C   UNL     1     -10.628   7.775  72.541  1.00  0.00    -0.352 C  
HETATM    2  C   UNL     1      -9.149   7.435  72.409  1.00  0.00    -0.164 C  
ENDROOT
BRANCH   2   3
HETATM    3  C   UNL     1      -8.515   8.253  71.285  1.00  0.00    -0.164 C  
BRANCH   3   4
HETATM    4  C   UNL     1      -9.189   8.086  69.915  1.00  0.00    -0.152 C  
BRANCH   4   5
HETATM    5  N   UNL     1      -8.427   8.474  68.701  1.00  0.00    -0.130 NA 
BRANCH   5   6
HETATM    6  C   UNL     1      -9.161   8.100  67.470  1.00  0.00    -0.137 C  
BRANCH   6   7
HETATM    7  C   UNL     1      -8.959   6.665  66.947  1.00  0.00    -0.131 C  
BRANCH   7   8
HETATM    8  C   UNL     1      -7.943   5.839  67.739  1.00  0.00    -0.098 C  
HETATM    9  C   UNL     1      -8.650   4.896  68.705  1.00  0.00    -0.096 C  
ENDBRANCH   7   8
ENDBRANCH   6   7
ENDBRANCH   5   6
BRANCH   5  10
HETATM   10  C   UNL     1      -8.167   9.936  68.732  1.00  0.00    -0.114 C  
BRANCH  10  11
HETATM   11  C   UNL     1      -7.049  10.423  67.799  1.00  0.00    -0.084 C  
BRANCH  11  12
HETATM   12  C   UNL     1      -5.782  10.752  68.582  1.00  0.00    -0.040 C  
BRANCH  12  13
HETATM   13  O   UNL     1      -5.492  12.146  68.455  1.00  0.00    -0.052 OA 
BRANCH  13  14
HETATM   14  C   UNL     1      -6.544  12.997  68.671  1.00  0.00    -0.092 A  
HETATM   15  C   UNL     1      -7.858  12.805  68.234  1.00  0.00    -0.141 A  
HETATM   16  C   UNL     1      -8.831  13.792  68.449  1.00  0.00    -0.165 A  
HETATM   17  C   UNL     1      -8.499  14.979  69.114  1.00  0.00    -0.192 A  
HETATM   18  C   UNL     1      -7.211  15.122  69.643  1.00  0.00    -0.194 A  
HETATM   19  C   UNL     1      -6.232  14.152  69.389  1.00  0.00    -0.109 A  
BRANCH  17  20
HETATM   20  C   UNL     1      -9.519  16.074  69.202  1.00  0.00    -0.253 C  
HETATM   21  O   UNL     1     -10.143  16.207  70.252  1.00  0.00     0.009 OA 
BRANCH  20  22
HETATM   22  C   UNL     1      -9.769  16.912  68.027  1.00  0.00    -0.256 A  
HETATM   23  C   UNL     1      -9.517  18.281  67.939  1.00  0.00    -0.282 A  
HETATM   24  C   UNL     1     -11.486  15.457  64.909  1.00  0.00    -0.311 A  
HETATM   25  O   UNL     1      -9.850  18.738  66.696  1.00  0.00    -0.319 OA 
HETATM   26  C   UNL     1     -11.467  16.640  64.174  1.00  0.00     0.659 A  
HETATM   27  C   UNL     1     -10.398  17.711  66.008  1.00  0.00    -0.304 A  
HETATM   28  C   UNL     1     -10.403  16.557  66.780  1.00  0.00    -0.296 A  
HETATM   29  C   UNL     1     -10.924  17.805  64.722  1.00  0.00     1.377 A  
HETATM   30  C   UNL     1     -11.002  15.410  66.221  1.00  0.00    -0.278 A  
BRANCH  23  31
HETATM   31  C   UNL     1      -9.123  19.377  68.872  1.00  0.00    -0.363 C  
BRANCH  31  32
HETATM   32  C   UNL     1      -7.683  19.884  68.818  1.00  0.00    -0.202 C  
BRANCH  32  33
HETATM   33  C   UNL     1      -6.750  18.677  69.022  1.00  0.00    -0.296 C  
HETATM   34  C   UNL     1      -5.964  18.279  67.786  1.00  0.00    -0.162 C  
ENDBRANCH  32  33
ENDBRANCH  31  32
ENDBRANCH  23  31
BRANCH  24  35
HETATM   35  N   UNL     1     -12.012  14.259  64.343  1.00  0.00    -0.520 N  
HETATM   36  H   UNL     1     -12.401  14.251  63.399  1.00  0.00     0.000 HD 
BRANCH  35  37
HETATM   37  S   UNL     1     -11.974  12.855  65.279  1.00  0.00    -0.445 S  
HETATM   38  C   UNL     1     -12.370  11.616  64.063  1.00  0.00    -0.091 C  
HETATM   39  O   UNL     1     -10.638  12.628  65.779  1.00  0.00    -0.263 OA 
HETATM   40  O   UNL     1     -13.105  12.963  66.177  1.00  0.00     0.249 OA 
ENDBRANCH  35  37
ENDBRANCH  24  35
ENDBRANCH  20  22
ENDBRANCH  17  20
ENDBRANCH  13  14
ENDBRANCH  12  13
ENDBRANCH  11  12
ENDBRANCH  10  11
ENDBRANCH   5  10
ENDBRANCH   4   5
ENDBRANCH   3   4
ENDBRANCH   2   3
TORSDOF 18
ENDMDL
MODEL      231
REMARK 921   NORMALIZED FREE ENERGY PREDICTED BY IDOCK:   -1.04 KCAL/MOL
REMARK 922        TOTAL FREE ENERGY PREDICTED BY IDOCK:   -4.86 KCAL/MOL
REMARK 923 INTER-LIGAND FREE ENERGY PREDICTED BY IDOCK:   -4.73 KCAL/MOL
REMARK 924 INTRA-LIGAND FREE ENERGY PREDICTED BY IDOCK:   -0.14 KCAL/MOL
REMARK 927      BINDING AFFINITY PREDICTED BY RF-SCORE:    0.00 PKD
ROOT
HETATM    1  C   UNL     1     -10.561   3.002  74.562  1.00  0.00    -0.169 C  
HETATM    2  C   UNL     1     -11.046   3.463  73.193  1.00  0.00    -0.171 C  
ENDROOT
BRANCH   2   3
HETATM    3  C   UNL     1     -11.321   4.966  73.206  1.00  0.00    -0.408 C  
BRANCH   3   4
HETATM    4  C   UNL     1     -11.517   5.593  71.817  1.00  0.00    -0.048 C  
BRANCH   4   5
HETATM    5  N   UNL     1     -10.315   5.861  70.988  1.00  0.00    -0.214 NA 
BRANCH   5   6
HETATM    6  C   UNL     1      -9.921   7.287  71.069  1.00  0.00    -0.187 C  
BRANCH   6   7
HETATM    7  C   UNL     1     -10.750   8.287  70.238  1.00  0.00    -0.237 C  
BRANCH   7   8
HETATM    8  C   UNL     1      -9.948   9.462  69.674  1.00  0.00    -0.209 C  
HETATM    9  C   UNL     1     -10.819  10.708  69.569  1.00  0.00    -0.303 C  
ENDBRANCH   7   8
ENDBRANCH   6   7
ENDBRANCH   5   6
BRANCH   5  10
HETATM   10  C   UNL     1      -9.203   4.985  71.437  1.00  0.00    -0.146 C  
BRANCH  10  11
HETATM   11  C   UNL     1      -9.198   3.573  70.833  1.00  0.00    -0.201 C  
BRANCH  11  12
HETATM   12  C   UNL     1      -7.801   2.962  70.873  1.00  0.00    -0.046 C  
BRANCH  12  13
HETATM   13  O   UNL     1      -7.165   3.144  69.605  1.00  0.00    -0.044 OA 
BRANCH  13  14
HETATM   14  C   UNL     1      -7.744   4.066  68.773  1.00  0.00    -0.054 A  
HETATM   15  C   UNL     1      -8.840   3.842  67.935  1.00  0.00    -0.138 A  
HETATM   16  C   UNL     1      -9.290   4.847  67.068  1.00  0.00    -0.136 A  
HETATM   17  C   UNL     1      -8.651   6.093  67.038  1.00  0.00    -0.108 A  
HETATM   18  C   UNL     1      -7.622   6.349  67.952  1.00  0.00    -0.102 A  
HETATM   19  C   UNL     1      -7.149   5.328  68.786  1.00  0.00    -0.061 A  
BRANCH  17  20
HETATM   20  C   UNL     1      -9.060   7.097  66.002  1.00  0.00    -0.069 C  
HETATM   21  O   UNL     1     -10.232   7.463  65.975  1.00  0.00     0.279 OA 
BRANCH  20  22
HETATM   22  C   UNL     1      -8.066   7.567  65.034  1.00  0.00    -0.127 A  
HETATM   23  C   UNL     1      -7.654   6.877  63.894  1.00  0.00    -0.109 A  
HETATM   24  C   UNL     1      -6.140  10.841  65.633  1.00  0.00    -0.097 A  
HETATM   25  O   UNL     1      -6.731   7.615  63.210  1.00  0.00    -0.061 OA 
HETATM   26  C   UNL     1      -5.380  10.772  64.468  1.00  0.00    -0.069 A  
HETATM   27  C   UNL     1      -6.470   8.728  63.932  1.00  0.00    -0.076 A  
HETATM   28  C   UNL     1      -7.242   8.751  65.085  1.00  0.00    -0.087 A  
HETATM   29  C   UNL     1      -5.527   9.694  63.590  1.00  0.00    -0.075 A  
HETATM   30  C   UNL     1      -7.036   9.823  65.977  1.00  0.00    -0.101 A  
BRANCH  23  31
HETATM   31  C   UNL     1      -7.847   5.514  63.319  1.00  0.00    -0.095 C  
BRANCH  31  32
HETATM   32  C   UNL     1      -9.094   4.732  63.729  1.00  0.00    -0.024 C  
BRANCH  32  33
HETATM   33  C   UNL     1      -8.710   3.244  63.817  1.00  0.00    -0.089 C  
HETATM   34  C   UNL     1      -8.017   2.703  62.580  1.00  0.00    -0.068 C  
ENDBRANCH  32  33
ENDBRANCH  31  32
ENDBRANCH  23  31
BRANCH  24  35
HETATM   35  N   UNL     1      -6.014  11.953  66.517  1.00  0.00    -0.274 N  
HETATM   36  H   UNL     1      -5.161  12.512  66.539  1.00  0.00     0.000 HD 
BRANCH  35  37
HETATM   37  S   UNL     1      -7.318  12.318  67.525  1.00  0.00    -0.148 S  
HETATM   38  C   UNL     1      -7.057  14.055  67.817  1.00  0.00    -0.173 C  
HETATM   39  O   UNL     1      -8.562  12.131  66.815  1.00  0.00    -0.191 OA 
HETATM   40  O   UNL     1      -7.049  11.621  68.766  1.00  0.00    -0.092 OA 
ENDBRANCH  35  37
ENDBRANCH  24  35
ENDBRANCH  20  22
ENDBRANCH  17  20
ENDBRANCH  13  14
ENDBRANCH  12  13
ENDBRANCH  11  12
ENDBRANCH  10  11
ENDBRANCH   5  10
ENDBRANCH   4   5
ENDBRANCH   3   4
ENDBRANCH   2   3
TORSDOF 18
ENDMDL
MODEL      232
REMARK 921   NORMALIZED FREE ENERGY PREDICTED BY IDOCK:   -1.02 KCAL/MOL
REMARK 922        TOTAL FREE ENERGY PREDICTED BY IDOCK:   -4.82 KCAL/MOL
REMARK 923 INTER-LIGAND FREE ENERGY PREDICTED BY IDOCK:   -4.63 KCAL/MOL
REMARK 924 INTRA-LIGAND FREE ENERGY PREDICTED BY IDOCK:   -0.19 KCAL/MOL
REMARK 927      BINDING AFFINITY PREDICTED BY RF-SCORE:    0.00 PKD
ROOT
HETATM    1  C   UNL     1      -9.105  16.788  65.537  1.00  0.00     0.547 C  
HETATM    2  C   UNL     1     -10.397  16.247  66.135  1.00  0.00    -0.352 C  
ENDROOT
BRANCH   2   3
HETATM    3  C   UNL     1     -10.345  16.318  67.661  1.00  0.00    -0.284 C  
BRANCH   3   4
HETATM    4  C   UNL     1     -11.509  15.614  68.374  1.00  0.00    -0.369 C  
BRANCH   4   5
HETATM    5  N   UNL     1     -11.476  15.518  69.856  1.00  0.00    -0.298 NA 
BRANCH   5   6
HETATM    6  C   UNL     1     -12.679  14.825  70.371  1.00  0.00    -0.316 C  
BRANCH   6   7
HETATM    7  C   UNL     1     -12.453  13.487  71.103  1.00  0.00    -0.424 C  
BRANCH   7   8
HETATM    8  C   UNL     1     -12.002  12.338  70.199  1.00  0.00    -0.377 C  
HETATM    9  C   UNL     1     -11.425  11.196  71.025  1.00  0.00     0.492 C  
ENDBRANCH   7   8
ENDBRANCH   6   7
ENDBRANCH   5   6
BRANCH   5  10
HETATM   10  C   UNL     1     -10.241  14.806  70.274  1.00  0.00     0.337 C  
BRANCH  10  11
HETATM   11  C   UNL     1      -9.288  14.423  69.132  1.00  0.00     0.057 C  
BRANCH  11  12
HETATM   12  C   UNL     1      -9.513  12.983  68.686  1.00  0.00    -0.001 C  
BRANCH  12  13
HETATM   13  O   UNL     1      -8.259  12.387  68.346  1.00  0.00    -0.164 OA 
BRANCH  13  14
HETATM   14  C   UNL     1      -8.326  11.168  67.724  1.00  0.00    -0.123 A  
HETATM   15  C   UNL     1      -9.491  10.537  67.279  1.00  0.00    -0.179 A  
HETATM   16  C   UNL     1      -9.437   9.248  66.728  1.00  0.00    -0.228 A  
HETATM   17  C   UNL     1      -8.211   8.582  66.609  1.00  0.00    -0.108 A  
HETATM   18  C   UNL     1      -7.036   9.257  66.958  1.00  0.00    -0.085 A  
HETATM   19  C   UNL     1      -7.100  10.527  67.546  1.00  0.00    -0.089 A  
BRANCH  17  20
HETATM   20  C   UNL     1      -8.200   7.154  66.152  1.00  0.00    -0.128 C  
HETATM   21  O   UNL     1      -7.691   6.893  65.065  1.00  0.00    -0.096 OA 
BRANCH  20  22
HETATM   22  C   UNL     1      -8.833   6.132  66.990  1.00  0.00    -0.110 A  
HETATM   23  C   UNL     1      -9.733   5.163  66.547  1.00  0.00    -0.171 A  
HETATM   24  C   UNL     1      -8.289   6.103  70.797  1.00  0.00    -0.126 A  
HETATM   25  O   UNL     1     -10.110   4.365  67.588  1.00  0.00    -0.099 OA 
HETATM   26  C   UNL     1      -9.092   4.992  71.044  1.00  0.00    -0.178 A  
HETATM   27  C   UNL     1      -9.543   4.854  68.714  1.00  0.00    -0.156 A  
HETATM   28  C   UNL     1      -8.761   5.962  68.421  1.00  0.00    -0.112 A  
HETATM   29  C   UNL     1      -9.749   4.346  69.994  1.00  0.00    -0.286 A  
HETATM   30  C   UNL     1      -8.151   6.625  69.505  1.00  0.00    -0.126 A  
BRANCH  23  31
HETATM   31  C   UNL     1     -10.484   4.870  65.290  1.00  0.00     0.077 C  
BRANCH  31  32
HETATM   32  C   UNL     1      -9.798   4.013  64.228  1.00  0.00    -0.175 C  
BRANCH  32  33
HETATM   33  C   UNL     1     -10.011   2.536  64.603  1.00  0.00     0.133 C  
HETATM   34  C   UNL     1     -10.545   1.674  63.474  1.00  0.00    -0.108 C  
ENDBRANCH  32  33
ENDBRANCH  31  32
ENDBRANCH  23  31
BRANCH  24  35
HETATM   35  N   UNL     1      -7.594   6.748  71.861  1.00  0.00    -0.094 N  
HETATM   36  H   UNL     1      -6.765   6.324  72.280  1.00  0.00     0.000 HD 
BRANCH  35  37
HETATM   37  S   UNL     1      -8.183   8.232  72.410  1.00  0.00    -0.140 S  
HETATM   38  C   UNL     1      -7.807   8.133  74.148  1.00  0.00    -0.231 C  
HETATM   39  O   UNL     1      -7.431   9.313  71.816  1.00  0.00    -0.335 OA 
HETATM   40  O   UNL     1      -9.622   8.149  72.268  1.00  0.00    -0.200 OA 
ENDBRANCH  35  37
ENDBRANCH  24  35
ENDBRANCH  20  22
ENDBRANCH  17  20
ENDBRANCH  13  14
ENDBRANCH  12  13
ENDBRANCH  11  12
ENDBRANCH  10  11
ENDBRANCH   5  10
ENDBRANCH   4   5
ENDBRANCH   3   4
ENDBRANCH   2   3
TORSDOF 18
ENDMDL
MODEL      233
REMARK 921   NORMALIZED FREE ENERGY PREDICTED BY IDOCK:   -0.99 KCAL/MOL
REMARK 922        TOTAL FREE ENERGY PREDICTED BY IDOCK:   -4.76 KCAL/MOL
REMARK 923 INTER-LIGAND FREE ENERGY PREDICTED BY IDOCK:   -5.07 KCAL/MOL
REMARK 924 INTRA-LIGAND FREE ENERGY PREDICTED BY IDOCK:    0.31 KCAL/MOL
REMARK 927      BINDING AFFINITY PREDICTED BY RF-SCORE:    0.00 PKD
ROOT
HETATM    1  C   UNL     1      -9.155  16.469  65.740  1.00  0.00    -0.040 C  
HETATM    2  C   UNL     1     -10.426  15.756  66.184  1.00  0.00    -0.326 C  
ENDROOT
BRANCH   2   3
HETATM    3  C   UNL     1     -10.523  15.747  67.710  1.00  0.00    -0.283 C  
BRANCH   3   4
HETATM    4  C   UNL     1     -11.855  15.216  68.262  1.00  0.00    -0.250 C  
BRANCH   4   5
HETATM    5  N   UNL     1     -12.132  15.377  69.712  1.00  0.00    -0.350 NA 
BRANCH   5   6
HETATM    6  C   UNL     1     -13.113  14.370  70.180  1.00  0.00     0.172 C  
BRANCH   6   7
HETATM    7  C   UNL     1     -12.567  13.216  71.044  1.00  0.00    -0.397 C  
BRANCH   7   8
HETATM    8  C   UNL     1     -12.774  11.823  70.446  1.00  0.00    -0.071 C  
HETATM    9  C   UNL     1     -12.291  10.746  71.408  1.00  0.00    -0.433 C  
ENDBRANCH   7   8
ENDBRANCH   6   7
ENDBRANCH   5   6
BRANCH   5  10
HETATM   10  C   UNL     1     -10.860  15.263  70.470  1.00  0.00    -0.257 C  
BRANCH  10  11
HETATM   11  C   UNL     1      -9.612  14.992  69.617  1.00  0.00    -0.047 C  
BRANCH  11  12
HETATM   12  C   UNL     1      -9.486  13.510  69.282  1.00  0.00     0.659 C  
BRANCH  12  13
HETATM   13  O   UNL     1      -8.329  13.302  68.468  1.00  0.00    -0.148 OA 
BRANCH  13  14
HETATM   14  C   UNL     1      -8.269  12.100  67.812  1.00  0.00    -0.154 A  
HETATM   15  C   UNL     1      -9.283  11.140  67.764  1.00  0.00    -0.153 A  
HETATM   16  C   UNL     1      -9.068   9.910  67.125  1.00  0.00    -0.154 A  
HETATM   17  C   UNL     1      -7.836   9.633  66.519  1.00  0.00    -0.108 A  
HETATM   18  C   UNL     1      -6.861  10.636  66.479  1.00  0.00    -0.124 A  
HETATM   19  C   UNL     1      -7.065  11.846  67.154  1.00  0.00    -0.142 A  
BRANCH  17  20
HETATM   20  C   UNL     1      -7.586   8.260  65.972  1.00  0.00    -0.078 C  
HETATM   21  O   UNL     1      -7.326   8.147  64.777  1.00  0.00    -0.081 OA 
BRANCH  20  22
HETATM   22  C   UNL     1      -7.705   7.104  66.864  1.00  0.00    -0.106 A  
HETATM   23  C   UNL     1      -6.994   6.916  68.048  1.00  0.00    -0.083 A  
HETATM   24  C   UNL     1      -9.931   4.115  65.913  1.00  0.00    -0.186 A  
HETATM   25  O   UNL     1      -7.366   5.741  68.635  1.00  0.00    -0.080 OA 
HETATM   26  C   UNL     1      -9.659   3.369  67.057  1.00  0.00    -0.117 A  
HETATM   27  C   UNL     1      -8.237   5.120  67.808  1.00  0.00    -0.098 A  
HETATM   28  C   UNL     1      -8.472   5.895  66.681  1.00  0.00    -0.111 A  
HETATM   29  C   UNL     1      -8.787   3.860  68.032  1.00  0.00    -0.136 A  
HETATM   30  C   UNL     1      -9.315   5.352  65.690  1.00  0.00    -0.098 A  
BRANCH  23  31
HETATM   31  C   UNL     1      -5.856   7.579  68.750  1.00  0.00    -0.023 C  
BRANCH  31  32
HETATM   32  C   UNL     1      -5.898   7.654  70.276  1.00  0.00    -0.023 C  
BRANCH  32  33
HETATM   33  C   UNL     1      -6.868   8.784  70.666  1.00  0.00    -0.050 C  
HETATM   34  C   UNL     1      -6.307  10.181  70.477  1.00  0.00    -0.117 C  
ENDBRANCH  32  33
ENDBRANCH  31  32
ENDBRANCH  23  31
BRANCH  24  35
HETATM   35  N   UNL     1     -10.841   3.630  64.929  1.00  0.00    -0.422 N  
HETATM   36  H   UNL     1     -11.816   3.440  65.164  1.00  0.00     0.000 HD 
BRANCH  35  37
HETATM   37  S   UNL     1     -10.259   3.376  63.365  1.00  0.00    -0.220 S  
HETATM   38  C   UNL     1     -11.058   1.842  62.941  1.00  0.00    -0.248 C  
HETATM   39  O   UNL     1     -10.728   4.422  62.486  1.00  0.00    -0.088 OA 
HETATM   40  O   UNL     1      -8.845   3.104  63.522  1.00  0.00    -0.092 OA 
ENDBRANCH  35  37
ENDBRANCH  24  35
ENDBRANCH  20  22
ENDBRANCH  17  20
ENDBRANCH  13  14
ENDBRANCH  12  13
ENDBRANCH  11  12
ENDBRANCH  10  11
ENDBRANCH   5  10
ENDBRANCH   4   5
ENDBRANCH   3   4
ENDBRANCH   2   3
TORSDOF 18
ENDMDL
MODEL      234
REMARK 921   NORMALIZED FREE ENERGY PREDICTED BY IDOCK:   -0.89 KCAL/MOL
REMARK 922        TOTAL FREE ENERGY PREDICTED BY IDOCK:   -4.54 KCAL/MOL
REMARK 923 INTER-LIGAND FREE ENERGY PREDICTED BY IDOCK:   -3.11 KCAL/MOL
REMARK 924 INTRA-LIGAND FREE ENERGY PREDICTED BY IDOCK:   -1.43 KCAL/MOL
REMARK 927      BINDING AFFINITY PREDICTED BY RF-SCORE:    0.00 PKD
ROOT
HETATM    1  C   UNL     1     -12.464  10.399  68.877  1.00  0.00     0.912 C  
HETATM    2  C   UNL     1     -11.594  10.586  67.641  1.00  0.00     0.136 C  
ENDROOT
BRANCH   2   3
HETATM    3  C   UNL     1     -10.264  11.235  68.022  1.00  0.00    -0.201 C  
BRANCH   3   4
HETATM    4  C   UNL     1      -9.760  10.881  69.430  1.00  0.00     0.009 C  
BRANCH   4   5
HETATM    5  N   UNL     1      -9.239   9.512  69.669  1.00  0.00    -0.185 NA 
BRANCH   5   6
HETATM    6  C   UNL     1      -7.810   9.413  69.291  1.00  0.00    -0.085 C  
BRANCH   6   7
HETATM    7  C   UNL     1      -7.425   8.290  68.308  1.00  0.00    -0.097 C  
BRANCH   7   8
HETATM    8  C   UNL     1      -7.030   6.971  68.975  1.00  0.00    -0.078 C  
HETATM    9  C   UNL     1      -5.518   6.790  68.958  1.00  0.00    -0.017 C  
ENDBRANCH   7   8
ENDBRANCH   6   7
ENDBRANCH   5   6
BRANCH   5  10
HETATM   10  C   UNL     1      -9.429   9.158  71.099  1.00  0.00    -0.261 C  
BRANCH  10  11
HETATM   11  C   UNL     1     -10.814   9.484  71.676  1.00  0.00    -0.225 C  
BRANCH  11  12
HETATM   12  C   UNL     1     -11.796   8.344  71.428  1.00  0.00    -0.296 C  
BRANCH  12  13
HETATM   13  O   UNL     1     -11.904   7.543  72.608  1.00  0.00    -0.266 OA 
BRANCH  13  14
HETATM   14  C   UNL     1     -11.420   6.265  72.507  1.00  0.00    -0.261 A  
HETATM   15  C   UNL     1     -11.768   5.188  73.328  1.00  0.00    -0.092 A  
HETATM   16  C   UNL     1     -11.139   3.944  73.174  1.00  0.00    -0.215 A  
HETATM   17  C   UNL     1     -10.160   3.763  72.189  1.00  0.00    -0.220 A  
HETATM   18  C   UNL     1      -9.890   4.812  71.302  1.00  0.00    -0.256 A  
HETATM   19  C   UNL     1     -10.490   6.064  71.486  1.00  0.00    -0.278 A  
BRANCH  17  20
HETATM   20  C   UNL     1      -9.404   2.470  72.142  1.00  0.00    -0.098 C  
HETATM   21  O   UNL     1      -9.930   1.469  72.620  1.00  0.00    -0.088 OA 
BRANCH  20  22
HETATM   22  C   UNL     1      -8.054   2.453  71.574  1.00  0.00    -0.054 A  
HETATM   23  C   UNL     1      -6.872   2.283  72.296  1.00  0.00    -0.019 A  
HETATM   24  C   UNL     1      -7.487   3.167  67.838  1.00  0.00    -0.054 A  
HETATM   25  O   UNL     1      -5.801   2.302  71.449  1.00  0.00    -0.012 OA 
HETATM   26  C   UNL     1      -6.102   3.034  67.879  1.00  0.00    -0.028 A  
HETATM   27  C   UNL     1      -6.258   2.572  70.206  1.00  0.00    -0.024 A  
HETATM   28  C   UNL     1      -7.640   2.704  70.214  1.00  0.00    -0.043 A  
HETATM   29  C   UNL     1      -5.453   2.741  69.082  1.00  0.00    -0.013 A  
HETATM   30  C   UNL     1      -8.262   3.051  68.998  1.00  0.00    -0.077 A  
BRANCH  23  31
HETATM   31  C   UNL     1      -6.474   2.231  73.733  1.00  0.00    -0.020 C  
BRANCH  31  32
HETATM   32  C   UNL     1      -6.149   3.548  74.437  1.00  0.00    -0.020 C  
BRANCH  32  33
HETATM   33  C   UNL     1      -5.996   4.634  73.357  1.00  0.00    -0.021 C  
HETATM   34  C   UNL     1      -5.986   6.053  73.896  1.00  0.00    -0.062 C  
ENDBRANCH  32  33
ENDBRANCH  31  32
ENDBRANCH  23  31
BRANCH  24  35
HETATM   35  N   UNL     1      -8.154   3.438  66.608  1.00  0.00    -0.090 N  
HETATM   36  H   UNL     1      -8.628   2.695  66.092  1.00  0.00     0.000 HD 
BRANCH  35  37
HETATM   37  S   UNL     1      -8.138   5.024  66.028  1.00  0.00    -0.109 S  
HETATM   38  C   UNL     1      -8.024   4.750  64.272  1.00  0.00    -0.101 C  
HETATM   39  O   UNL     1      -9.390   5.676  66.333  1.00  0.00    -0.147 OA 
HETATM   40  O   UNL     1      -6.875   5.579  66.467  1.00  0.00    -0.056 OA 
ENDBRANCH  35  37
ENDBRANCH  24  35
ENDBRANCH  20  22
ENDBRANCH  17  20
ENDBRANCH  13  14
ENDBRANCH  12  13
ENDBRANCH  11  12
ENDBRANCH  10  11
ENDBRANCH   5  10
ENDBRANCH   4   5
ENDBRANCH   3   4
ENDBRANCH   2   3
TORSDOF 18
ENDMDL
MODEL      235
REMARK 921   NORMALIZED FREE ENERGY PREDICTED BY IDOCK:   -0.66 KCAL/MOL
REMARK 922        TOTAL FREE ENERGY PREDICTED BY IDOCK:   -4.08 KCAL/MOL
REMARK 923 INTER-LIGAND FREE ENERGY PREDICTED BY IDOCK:   -2.88 KCAL/MOL
REMARK 924 INTRA-LIGAND FREE ENERGY PREDICTED BY IDOCK:   -1.20 KCAL/MOL
REMARK 927      BINDING AFFINITY PREDICTED BY RF-SCORE:    0.00 PKD
ROOT
HETATM    1  C   UNL     1     -10.045   2.986  74.465  1.00  0.00    -0.192 C  
HETATM    2  C   UNL     1     -10.530   3.068  73.023  1.00  0.00    -0.251 C  
ENDROOT
BRANCH   2   3
HETATM    3  C   UNL     1     -10.683   4.528  72.598  1.00  0.00    -0.229 C  
BRANCH   3   4
HETATM    4  C   UNL     1     -10.953   4.733  71.100  1.00  0.00     0.508 C  
BRANCH   4   5
HETATM    5  N   UNL     1      -9.794   4.786  70.174  1.00  0.00    -0.220 NA 
BRANCH   5   6
HETATM    6  C   UNL     1      -9.609   6.153  69.631  1.00  0.00    -0.148 C  
BRANCH   6   7
HETATM    7  C   UNL     1      -8.466   6.993  70.233  1.00  0.00    -0.138 C  
BRANCH   7   8
HETATM    8  C   UNL     1      -8.716   8.503  70.223  1.00  0.00    -0.144 C  
HETATM    9  C   UNL     1      -9.392   8.947  71.514  1.00  0.00    -0.335 C  
ENDBRANCH   7   8
ENDBRANCH   6   7
ENDBRANCH   5   6
BRANCH   5  10
HETATM   10  C   UNL     1      -8.573   4.338  70.891  1.00  0.00    -0.084 C  
BRANCH  10  11
HETATM   11  C   UNL     1      -8.238   2.846  70.745  1.00  0.00    -0.073 C  
BRANCH  11  12
HETATM   12  C   UNL     1      -6.752   2.591  70.971  1.00  0.00    -0.031 C  
BRANCH  12  13
HETATM   13  O   UNL     1      -6.097   2.439  69.708  1.00  0.00    -0.023 OA 
BRANCH  13  14
HETATM   14  C   UNL     1      -6.794   2.888  68.617  1.00  0.00    -0.044 A  
HETATM   15  C   UNL     1      -7.633   2.119  67.806  1.00  0.00    -0.055 A  
HETATM   16  C   UNL     1      -8.228   2.678  66.666  1.00  0.00    -0.085 A  
HETATM   17  C   UNL     1      -7.995   4.018  66.331  1.00  0.00    -0.097 A  
HETATM   18  C   UNL     1      -7.239   4.812  67.202  1.00  0.00    -0.077 A  
HETATM   19  C   UNL     1      -6.613   4.239  68.316  1.00  0.00    -0.046 A  
BRANCH  17  20
HETATM   20  C   UNL     1      -8.525   4.547  65.033  1.00  0.00    -0.128 C  
HETATM   21  O   UNL     1      -9.710   4.365  64.768  1.00  0.00    -0.165 OA 
BRANCH  20  22
HETATM   22  C   UNL     1      -7.607   5.217  64.108  1.00  0.00    -0.069 A  
HETATM   23  C   UNL     1      -6.732   4.579  63.228  1.00  0.00    -0.038 A  
HETATM   24  C   UNL     1      -7.251   9.046  64.126  1.00  0.00    -0.095 A  
HETATM   25  O   UNL     1      -6.039   5.506  62.504  1.00  0.00    -0.017 OA 
HETATM   26  C   UNL     1      -6.296   9.103  63.114  1.00  0.00    -0.090 A  
HETATM   27  C   UNL     1      -6.382   6.732  62.960  1.00  0.00    -0.043 A  
HETATM   28  C   UNL     1      -7.328   6.626  63.971  1.00  0.00    -0.078 A  
HETATM   29  C   UNL     1      -5.831   7.930  62.513  1.00  0.00    -0.069 A  
HETATM   30  C   UNL     1      -7.740   7.821  64.594  1.00  0.00    -0.121 A  
BRANCH  23  31
HETATM   31  C   UNL     1      -6.264   3.183  62.982  1.00  0.00    -0.014 C  
BRANCH  31  32
HETATM   32  C   UNL     1      -7.213   2.036  63.325  1.00  0.00    -0.040 C  
BRANCH  32  33
HETATM   33  C   UNL     1      -8.462   2.175  62.435  1.00  0.00    -0.073 C  
HETATM   34  C   UNL     1      -9.698   1.485  62.982  1.00  0.00    -0.096 C  
ENDBRANCH  32  33
ENDBRANCH  31  32
ENDBRANCH  23  31
BRANCH  24  35
HETATM   35  N   UNL     1      -7.748  10.242  64.722  1.00  0.00    -0.204 N  
HETATM   36  H   UNL     1      -7.397  10.564  65.624  1.00  0.00     0.000 HD 
BRANCH  35  37
HETATM   37  S   UNL     1      -8.936  11.108  63.892  1.00  0.00     0.091 S  
HETATM   38  C   UNL     1      -9.546  12.180  65.176  1.00  0.00    -0.032 C  
HETATM   39  O   UNL     1      -8.331  11.904  62.849  1.00  0.00     0.318 OA 
HETATM   40  O   UNL     1      -9.976  10.145  63.596  1.00  0.00    -0.152 OA 
ENDBRANCH  35  37
ENDBRANCH  24  35
ENDBRANCH  20  22
ENDBRANCH  17  20
ENDBRANCH  13  14
ENDBRANCH  12  13
ENDBRANCH  11  12
ENDBRANCH  10  11
ENDBRANCH   5  10
ENDBRANCH   4   5
ENDBRANCH   3   4
ENDBRANCH   2   3
TORSDOF 18
ENDMDL
MODEL      236
REMARK 921   NORMALIZED FREE ENERGY PREDICTED BY IDOCK:   -0.39 KCAL/MOL
REMARK 922        TOTAL FREE ENERGY PREDICTED BY IDOCK:   -3.53 KCAL/MOL
REMARK 923 INTER-LIGAND FREE ENERGY PREDICTED BY IDOCK:   -5.86 KCAL/MOL
REMARK 924 INTRA-LIGAND FREE ENERGY PREDICTED BY IDOCK:    2.34 KCAL/MOL
REMARK 927      BINDING AFFINITY PREDICTED BY RF-SCORE:    0.00 PKD
ROOT
HETATM    1  C   UNL     1     -10.800   9.574  72.269  1.00  0.00     0.897 C  
HETATM    2  C   UNL     1     -11.690   8.413  72.693  1.00  0.00    -0.364 C  
ENDROOT
BRANCH   2   3
HETATM    3  C   UNL     1     -11.589   7.272  71.680  1.00  0.00    -0.306 C  
BRANCH   3   4
HETATM    4  C   UNL     1     -11.288   5.897  72.295  1.00  0.00    -0.298 C  
BRANCH   4   5
HETATM    5  N   UNL     1      -9.892   5.597  72.706  1.00  0.00    -0.163 NA 
BRANCH   5   6
HETATM    6  C   UNL     1      -9.427   6.550  73.741  1.00  0.00    -0.161 C  
BRANCH   6   7
HETATM    7  C   UNL     1      -7.969   6.402  74.218  1.00  0.00    -0.109 C  
BRANCH   7   8
HETATM    8  C   UNL     1      -6.998   5.903  73.145  1.00  0.00    -0.084 C  
HETATM    9  C   UNL     1      -6.177   7.056  72.582  1.00  0.00    -0.052 C  
ENDBRANCH   7   8
ENDBRANCH   6   7
ENDBRANCH   5   6
BRANCH   5  10
HETATM   10  C   UNL     1      -9.818   4.201  73.207  1.00  0.00    -0.128 C  
BRANCH  10  11
HETATM   11  C   UNL     1     -10.039   3.113  72.146  1.00  0.00    -0.200 C  
BRANCH  11  12
HETATM   12  C   UNL     1      -9.690   3.623  70.752  1.00  0.00    -0.152 C  
BRANCH  12  13
HETATM   13  O   UNL     1     -10.382   4.851  70.507  1.00  0.00    -0.239 OA 
BRANCH  13  14
HETATM   14  C   UNL     1      -9.789   5.701  69.611  1.00  0.00    -0.184 A  
HETATM   15  C   UNL     1     -10.301   6.066  68.363  1.00  0.00    -0.252 A  
HETATM   16  C   UNL     1      -9.557   6.883  67.500  1.00  0.00    -0.150 A  
HETATM   17  C   UNL     1      -8.294   7.351  67.882  1.00  0.00    -0.119 A  
HETATM   18  C   UNL     1      -7.830   7.070  69.173  1.00  0.00    -0.114 A  
HETATM   19  C   UNL     1      -8.558   6.220  70.014  1.00  0.00    -0.134 A  
BRANCH  17  20
HETATM   20  C   UNL     1      -7.462   8.101  66.886  1.00  0.00    -0.091 C  
HETATM   21  O   UNL     1      -6.493   8.735  67.294  1.00  0.00    -0.056 OA 
BRANCH  20  22
HETATM   22  C   UNL     1      -7.858   8.091  65.475  1.00  0.00    -0.106 A  
HETATM   23  C   UNL     1      -7.663   7.035  64.585  1.00  0.00    -0.116 A  
HETATM   24  C   UNL     1      -9.353  11.232  63.835  1.00  0.00    -0.130 A  
HETATM   25  O   UNL     1      -8.168   7.358  63.359  1.00  0.00    -0.061 OA 
HETATM   26  C   UNL     1      -9.512  10.667  62.572  1.00  0.00    -0.289 A  
HETATM   27  C   UNL     1      -8.606   8.637  63.413  1.00  0.00    -0.002 A  
HETATM   28  C   UNL     1      -8.420   9.160  64.685  1.00  0.00    -0.197 A  
HETATM   29  C   UNL     1      -9.126   9.346  62.333  1.00  0.00    -0.207 A  
HETATM   30  C   UNL     1      -8.771  10.511  64.884  1.00  0.00    -0.192 A  
BRANCH  23  31
HETATM   31  C   UNL     1      -6.934   5.733  64.586  1.00  0.00    -0.052 C  
BRANCH  31  32
HETATM   32  C   UNL     1      -7.663   4.502  65.124  1.00  0.00    -0.085 C  
BRANCH  32  33
HETATM   33  C   UNL     1      -6.721   3.789  66.109  1.00  0.00    -0.049 C  
HETATM   34  C   UNL     1      -7.308   3.576  67.492  1.00  0.00    -0.059 C  
ENDBRANCH  32  33
ENDBRANCH  31  32
ENDBRANCH  23  31
BRANCH  24  35
HETATM   35  N   UNL     1      -9.772  12.570  64.090  1.00  0.00    -0.580 N  
HETATM   36  H   UNL     1      -9.344  13.356  63.600  1.00  0.00     0.000 HD 
BRANCH  35  37
HETATM   37  S   UNL     1     -10.997  12.817  65.225  1.00  0.00    -0.293 S  
HETATM   38  C   UNL     1     -10.649  14.480  65.756  1.00  0.00    -0.317 C  
HETATM   39  O   UNL     1     -12.288  12.779  64.578  1.00  0.00    -0.417 OA 
HETATM   40  O   UNL     1     -10.682  11.931  66.327  1.00  0.00    -0.251 OA 
ENDBRANCH  35  37
ENDBRANCH  24  35
ENDBRANCH  20  22
ENDBRANCH  17  20
ENDBRANCH  13  14
ENDBRANCH  12  13
ENDBRANCH  11  12
ENDBRANCH  10  11
ENDBRANCH   5  10
ENDBRANCH   4   5
ENDBRANCH   3   4
ENDBRANCH   2   3
TORSDOF 18
ENDMDL
MODEL      237
REMARK 921   NORMALIZED FREE ENERGY PREDICTED BY IDOCK:   -0.33 KCAL/MOL
REMARK 922        TOTAL FREE ENERGY PREDICTED BY IDOCK:   -3.39 KCAL/MOL
REMARK 923 INTER-LIGAND FREE ENERGY PREDICTED BY IDOCK:   -1.65 KCAL/MOL
REMARK 924 INTRA-LIGAND FREE ENERGY PREDICTED BY IDOCK:   -1.74 KCAL/MOL
REMARK 927      BINDING AFFINITY PREDICTED BY RF-SCORE:    0.00 PKD
ROOT
HETATM    1  C   UNL     1      -8.055  10.372  66.870  1.00  0.00    -0.118 C  
HETATM    2  C   UNL     1      -7.305  11.544  66.249  1.00  0.00     0.133 C  
ENDROOT
BRANCH   2   3
HETATM    3  C   UNL     1      -7.845  12.866  66.794  1.00  0.00     0.251 C  
BRANCH   3   4
HETATM    4  C   UNL     1      -9.370  12.909  66.972  1.00  0.00    -0.235 C  
BRANCH   4   5
HETATM    5  N   UNL     1      -9.951  13.967  67.837  1.00  0.00    -0.236 NA 
BRANCH   5   6
HETATM    6  C   UNL     1     -10.586  15.029  67.023  1.00  0.00    -0.293 C  
BRANCH   6   7
HETATM    7  C   UNL     1     -10.561  14.843  65.493  1.00  0.00    -0.373 C  
BRANCH   7   8
HETATM    8  C   UNL     1     -11.943  14.796  64.837  1.00  0.00    -0.359 C  
HETATM    9  C   UNL     1     -12.660  13.497  65.183  1.00  0.00    -0.485 C  
ENDBRANCH   7   8
ENDBRANCH   6   7
ENDBRANCH   5   6
BRANCH   5  10
HETATM   10  C   UNL     1     -10.938  13.356  68.763  1.00  0.00    -0.257 C  
BRANCH  10  11
HETATM   11  C   UNL     1     -12.359  13.207  68.201  1.00  0.00     0.127 C  
BRANCH  11  12
HETATM   12  C   UNL     1     -12.776  11.742  68.140  1.00  0.00     2.111 C  
BRANCH  12  13
HETATM   13  O   UNL     1     -12.808  11.200  69.463  1.00  0.00    -0.135 OA 
BRANCH  13  14
HETATM   14  C   UNL     1     -11.941  10.168  69.707  1.00  0.00    -0.037 A  
HETATM   15  C   UNL     1     -11.873   9.411  70.880  1.00  0.00    -0.365 A  
HETATM   16  C   UNL     1     -10.883   8.431  71.038  1.00  0.00    -0.280 A  
HETATM   17  C   UNL     1      -9.955   8.191  70.018  1.00  0.00    -0.192 A  
HETATM   18  C   UNL     1     -10.090   8.877  68.805  1.00  0.00    -0.215 A  
HETATM   19  C   UNL     1     -11.054   9.884  68.667  1.00  0.00    -0.182 A  
BRANCH  17  20
HETATM   20  C   UNL     1      -8.822   7.242  70.270  1.00  0.00    -0.147 C  
HETATM   21  O   UNL     1      -8.849   6.143  69.723  1.00  0.00    -0.133 OA 
BRANCH  20  22
HETATM   22  C   UNL     1      -7.754   7.636  71.192  1.00  0.00    -0.085 A  
HETATM   23  C   UNL     1      -7.343   6.915  72.313  1.00  0.00    -0.086 A  
HETATM   24  C   UNL     1      -5.979  11.026  70.805  1.00  0.00    -0.020 A  
HETATM   25  O   UNL     1      -6.313   7.563  72.934  1.00  0.00    -0.058 OA 
HETATM   26  C   UNL     1      -5.127  10.863  71.895  1.00  0.00     0.060 A  
HETATM   27  C   UNL     1      -6.110   8.734  72.289  1.00  0.00    -0.072 A  
HETATM   28  C   UNL     1      -6.984   8.857  71.218  1.00  0.00    -0.094 A  
HETATM   29  C   UNL     1      -5.186   9.703  72.672  1.00  0.00    -0.026 A  
HETATM   30  C   UNL     1      -6.938  10.059  70.483  1.00  0.00    -0.098 A  
BRANCH  23  31
HETATM   31  C   UNL     1      -7.819   5.722  73.074  1.00  0.00    -0.104 C  
BRANCH  31  32
HETATM   32  C   UNL     1      -9.280   5.306  72.915  1.00  0.00    -0.137 C  
BRANCH  32  33
HETATM   33  C   UNL     1      -9.308   3.944  72.200  1.00  0.00    -0.180 C  
HETATM   34  C   UNL     1      -9.441   2.752  73.130  1.00  0.00    -0.123 C  
ENDBRANCH  32  33
ENDBRANCH  31  32
ENDBRANCH  23  31
BRANCH  24  35
HETATM   35  N   UNL     1      -5.902  12.195  69.993  1.00  0.00    -0.138 N  
HETATM   36  H   UNL     1      -5.559  12.146  69.034  1.00  0.00     0.000 HD 
BRANCH  35  37
HETATM   37  S   UNL     1      -6.397  13.663  70.665  1.00  0.00     0.282 S  
HETATM   38  C   UNL     1      -5.222  14.789  69.943  1.00  0.00    -0.094 C  
HETATM   39  O   UNL     1      -7.726  13.995  70.207  1.00  0.00     0.901 OA 
HETATM   40  O   UNL     1      -6.093  13.559  72.077  1.00  0.00    -0.157 OA 
ENDBRANCH  35  37
ENDBRANCH  24  35
ENDBRANCH  20  22
ENDBRANCH  17  20
ENDBRANCH  13  14
ENDBRANCH  12  13
ENDBRANCH  11  12
ENDBRANCH  10  11
ENDBRANCH   5  10
ENDBRANCH   4   5
ENDBRANCH   3   4
ENDBRANCH   2   3
TORSDOF 18
ENDMDL
MODEL      238
REMARK 921   NORMALIZED FREE ENERGY PREDICTED BY IDOCK:   -0.32 KCAL/MOL
REMARK 922        TOTAL FREE ENERGY PREDICTED BY IDOCK:   -3.37 KCAL/MOL
REMARK 923 INTER-LIGAND FREE ENERGY PREDICTED BY IDOCK:   -6.12 KCAL/MOL
REMARK 924 INTRA-LIGAND FREE ENERGY PREDICTED BY IDOCK:    2.75 KCAL/MOL
REMARK 927      BINDING AFFINITY PREDICTED BY RF-SCORE:    0.00 PKD
ROOT
HETATM    1  C   UNL     1     -10.498  12.691  63.357  1.00  0.00    -0.108 C  
HETATM    2  C   UNL     1     -11.082  13.961  63.964  1.00  0.00     0.031 C  
ENDROOT
BRANCH   2   3
HETATM    3  C   UNL     1     -10.247  14.407  65.164  1.00  0.00    -0.420 C  
BRANCH   3   4
HETATM    4  C   UNL     1     -10.968  14.304  66.517  1.00  0.00    -0.316 C  
BRANCH   4   5
HETATM    5  N   UNL     1     -10.229  13.727  67.669  1.00  0.00    -0.240 NA 
BRANCH   5   6
HETATM    6  C   UNL     1     -10.940  13.989  68.942  1.00  0.00    -0.259 C  
BRANCH   6   7
HETATM    7  C   UNL     1     -12.141  14.953  68.882  1.00  0.00    -0.229 C  
BRANCH   7   8
HETATM    8  C   UNL     1     -12.577  15.508  70.240  1.00  0.00    -0.362 C  
HETATM    9  C   UNL     1     -11.452  16.312  70.880  1.00  0.00    -0.336 C  
ENDBRANCH   7   8
ENDBRANCH   6   7
ENDBRANCH   5   6
BRANCH   5  10
HETATM   10  C   UNL     1     -10.054  12.268  67.457  1.00  0.00    -0.201 C  
BRANCH  10  11
HETATM   11  C   UNL     1      -9.406  11.872  66.122  1.00  0.00    -0.228 C  
BRANCH  11  12
HETATM   12  C   UNL     1      -7.894  12.064  66.165  1.00  0.00     0.527 C  
BRANCH  12  13
HETATM   13  O   UNL     1      -7.283  10.905  66.738  1.00  0.00    -0.118 OA 
BRANCH  13  14
HETATM   14  C   UNL     1      -8.057   9.775  66.767  1.00  0.00    -0.120 A  
HETATM   15  C   UNL     1      -9.305   9.619  66.158  1.00  0.00    -0.248 A  
HETATM   16  C   UNL     1     -10.038   8.436  66.331  1.00  0.00    -0.242 A  
HETATM   17  C   UNL     1      -9.523   7.392  67.109  1.00  0.00    -0.187 A  
HETATM   18  C   UNL     1      -8.229   7.511  67.630  1.00  0.00    -0.118 A  
HETATM   19  C   UNL     1      -7.519   8.710  67.490  1.00  0.00    -0.090 A  
BRANCH  17  20
HETATM   20  C   UNL     1     -10.388   6.201  67.395  1.00  0.00    -0.211 C  
HETATM   21  O   UNL     1     -11.408   6.048  66.729  1.00  0.00    -0.134 OA 
BRANCH  20  22
HETATM   22  C   UNL     1     -10.015   5.294  68.482  1.00  0.00    -0.227 A  
HETATM   23  C   UNL     1     -10.453   5.386  69.803  1.00  0.00    -0.307 A  
HETATM   24  C   UNL     1      -7.429   2.505  67.910  1.00  0.00    -0.056 A  
HETATM   25  O   UNL     1      -9.924   4.368  70.543  1.00  0.00    -0.217 OA 
HETATM   26  C   UNL     1      -7.469   2.009  69.211  1.00  0.00    -0.043 A  
HETATM   27  C   UNL     1      -9.080   3.672  69.750  1.00  0.00    -0.124 A  
HETATM   28  C   UNL     1      -9.067   4.205  68.468  1.00  0.00    -0.182 A  
HETATM   29  C   UNL     1      -8.298   2.598  70.169  1.00  0.00    -0.074 A  
HETATM   30  C   UNL     1      -8.183   3.624  67.537  1.00  0.00    -0.090 A  
BRANCH  23  31
HETATM   31  C   UNL     1     -11.216   6.368  70.629  1.00  0.00    -0.400 C  
BRANCH  31  32
HETATM   32  C   UNL     1     -10.642   6.761  71.989  1.00  0.00    -0.239 C  
BRANCH  32  33
HETATM   33  C   UNL     1      -9.168   7.150  71.785  1.00  0.00    -0.147 C  
HETATM   34  C   UNL     1      -8.625   8.111  72.826  1.00  0.00    -0.269 C  
ENDBRANCH  32  33
ENDBRANCH  31  32
ENDBRANCH  23  31
BRANCH  24  35
HETATM   35  N   UNL     1      -6.605   1.889  66.923  1.00  0.00    -0.034 N  
HETATM   36  H   UNL     1      -6.334   0.909  67.003  1.00  0.00     0.000 HD 
BRANCH  35  37
HETATM   37  S   UNL     1      -6.093   2.829  65.617  1.00  0.00    -0.024 S  
HETATM   38  C   UNL     1      -5.275   4.170  66.455  1.00  0.00    -0.009 C  
HETATM   39  O   UNL     1      -5.130   2.097  64.827  1.00  0.00    -0.004 OA 
HETATM   40  O   UNL     1      -7.305   3.356  65.026  1.00  0.00    -0.069 OA 
ENDBRANCH  35  37
ENDBRANCH  24  35
ENDBRANCH  20  22
ENDBRANCH  17  20
ENDBRANCH  13  14
ENDBRANCH  12  13
ENDBRANCH  11  12
ENDBRANCH  10  11
ENDBRANCH   5  10
ENDBRANCH   4   5
ENDBRANCH   3   4
ENDBRANCH   2   3
TORSDOF 18
ENDMDL
MODEL      239
REMARK 921   NORMALIZED FREE ENERGY PREDICTED BY IDOCK:   -0.26 KCAL/MOL
REMARK 922        TOTAL FREE ENERGY PREDICTED BY IDOCK:   -3.26 KCAL/MOL
REMARK 923 INTER-LIGAND FREE ENERGY PREDICTED BY IDOCK:   -3.04 KCAL/MOL
REMARK 924 INTRA-LIGAND FREE ENERGY PREDICTED BY IDOCK:   -0.21 KCAL/MOL
REMARK 927      BINDING AFFINITY PREDICTED BY RF-SCORE:    0.00 PKD
ROOT
HETATM    1  C   UNL     1     -10.836  15.774  71.757  1.00  0.00     0.367 C  
HETATM    2  C   UNL     1     -11.535  16.617  70.698  1.00  0.00     0.165 C  
ENDROOT
BRANCH   2   3
HETATM    3  C   UNL     1     -10.932  16.343  69.321  1.00  0.00    -0.322 C  
BRANCH   3   4
HETATM    4  C   UNL     1     -11.953  15.941  68.245  1.00  0.00     0.107 C  
BRANCH   4   5
HETATM    5  N   UNL     1     -11.445  15.470  66.931  1.00  0.00    -0.096 NA 
BRANCH   5   6
HETATM    6  C   UNL     1     -10.309  16.301  66.471  1.00  0.00    -0.307 C  
BRANCH   6   7
HETATM    7  C   UNL     1     -10.585  17.803  66.260  1.00  0.00    -0.220 C  
BRANCH   7   8
HETATM    8  C   UNL     1      -9.674  18.734  67.061  1.00  0.00    -0.340 C  
HETATM    9  C   UNL     1      -8.421  17.999  67.521  1.00  0.00    -0.237 C  
ENDBRANCH   7   8
ENDBRANCH   6   7
ENDBRANCH   5   6
BRANCH   5  10
HETATM   10  C   UNL     1     -11.040  14.045  67.045  1.00  0.00    -0.304 C  
BRANCH  10  11
HETATM   11  C   UNL     1     -11.889  13.198  68.004  1.00  0.00    -0.398 C  
BRANCH  11  12
HETATM   12  C   UNL     1     -11.214  13.063  69.364  1.00  0.00    -0.145 C  
BRANCH  12  13
HETATM   13  O   UNL     1     -11.667  11.868  70.006  1.00  0.00    -0.317 OA 
BRANCH  13  14
HETATM   14  C   UNL     1     -11.491  10.708  69.299  1.00  0.00    -0.281 A  
HETATM   15  C   UNL     1     -11.977   9.447  69.657  1.00  0.00     0.523 A  
HETATM   16  C   UNL     1     -11.658   8.318  68.889  1.00  0.00     1.153 A  
HETATM   17  C   UNL     1     -10.857   8.442  67.747  1.00  0.00    -0.061 A  
HETATM   18  C   UNL     1     -10.460   9.719  67.334  1.00  0.00    -0.319 A  
HETATM   19  C   UNL     1     -10.745  10.837  68.127  1.00  0.00    -0.257 A  
BRANCH  17  20
HETATM   20  C   UNL     1     -10.415   7.202  67.029  1.00  0.00    -0.322 C  
HETATM   21  O   UNL     1     -11.114   6.778  66.113  1.00  0.00     0.712 OA 
BRANCH  20  22
HETATM   22  C   UNL     1      -9.198   6.518  67.472  1.00  0.00    -0.113 A  
HETATM   23  C   UNL     1      -7.977   6.515  66.798  1.00  0.00    -0.108 A  
HETATM   24  C   UNL     1      -9.233   4.285  70.603  1.00  0.00    -0.124 A  
HETATM   25  O   UNL     1      -7.056   5.793  67.502  1.00  0.00    -0.071 OA 
HETATM   26  C   UNL     1      -7.891   3.918  70.529  1.00  0.00    -0.051 A  
HETATM   27  C   UNL     1      -7.681   5.253  68.572  1.00  0.00    -0.080 A  
HETATM   28  C   UNL     1      -9.014   5.638  68.602  1.00  0.00    -0.113 A  
HETATM   29  C   UNL     1      -7.084   4.394  69.492  1.00  0.00    -0.050 A  
HETATM   30  C   UNL     1      -9.817   5.103  69.629  1.00  0.00    -0.286 A  
BRANCH  23  31
HETATM   31  C   UNL     1      -7.468   6.963  65.468  1.00  0.00    -0.086 C  
BRANCH  31  32
HETATM   32  C   UNL     1      -8.305   6.639  64.232  1.00  0.00     0.118 C  
BRANCH  32  33
HETATM   33  C   UNL     1      -8.180   5.130  63.960  1.00  0.00    -0.131 C  
HETATM   34  C   UNL     1      -9.465   4.349  64.163  1.00  0.00    -0.098 C  
ENDBRANCH  32  33
ENDBRANCH  31  32
ENDBRANCH  23  31
BRANCH  24  35
HETATM   35  N   UNL     1     -10.052   3.825  71.675  1.00  0.00    -0.131 N  
HETATM   36  H   UNL     1     -10.478   2.898  71.650  1.00  0.00     0.000 HD 
BRANCH  35  37
HETATM   37  S   UNL     1     -10.299   4.859  72.987  1.00  0.00    -0.200 S  
HETATM   38  C   UNL     1     -11.240   6.166  72.228  1.00  0.00    -0.289 C  
HETATM   39  O   UNL     1     -11.108   4.204  73.989  1.00  0.00    -0.212 OA 
HETATM   40  O   UNL     1      -8.990   5.390  73.307  1.00  0.00    -0.121 OA 
ENDBRANCH  35  37
ENDBRANCH  24  35
ENDBRANCH  20  22
ENDBRANCH  17  20
ENDBRANCH  13  14
ENDBRANCH  12  13
ENDBRANCH  11  12
ENDBRANCH  10  11
ENDBRANCH   5  10
ENDBRANCH   4   5
ENDBRANCH   3   4
ENDBRANCH   2   3
TORSDOF 18
ENDMDL
MODEL      240
REMARK 921   NORMALIZED FREE ENERGY PREDICTED BY IDOCK:   -0.22 KCAL/MOL
REMARK 922        TOTAL FREE ENERGY PREDICTED BY IDOCK:   -3.18 KCAL/MOL
REMARK 923 INTER-LIGAND FREE ENERGY PREDICTED BY IDOCK:   -1.56 KCAL/MOL
REMARK 924 INTRA-LIGAND FREE ENERGY PREDICTED BY IDOCK:   -1.61 KCAL/MOL
REMARK 927      BINDING AFFINITY PREDICTED BY RF-SCORE:    0.00 PKD
ROOT
HETATM    1  C   UNL     1     -11.196   9.954  64.907  1.00  0.00     3.187 C  
HETATM    2  C   UNL     1     -10.684  11.041  65.844  1.00  0.00    -0.226 C  
ENDROOT
BRANCH   2   3
HETATM    3  C   UNL     1     -11.405  12.360  65.570  1.00  0.00    -0.387 C  
BRANCH   3   4
HETATM    4  C   UNL     1     -11.458  13.320  66.768  1.00  0.00    -0.350 C  
BRANCH   4   5
HETATM    5  N   UNL     1     -10.294  14.211  67.010  1.00  0.00    -0.266 NA 
BRANCH   5   6
HETATM    6  C   UNL     1     -10.732  15.525  67.536  1.00  0.00    -0.300 C  
BRANCH   6   7
HETATM    7  C   UNL     1     -10.596  15.747  69.056  1.00  0.00    -0.232 C  
BRANCH   7   8
HETATM    8  C   UNL     1      -9.892  17.048  69.446  1.00  0.00    -0.033 C  
HETATM    9  C   UNL     1      -9.900  18.034  68.285  1.00  0.00    -0.357 C  
ENDBRANCH   7   8
ENDBRANCH   6   7
ENDBRANCH   5   6
BRANCH   5  10
HETATM   10  C   UNL     1      -9.361  13.551  67.959  1.00  0.00    -0.213 C  
BRANCH  10  11
HETATM   11  C   UNL     1      -7.940  13.318  67.424  1.00  0.00    -0.175 C  
BRANCH  11  12
HETATM   12  C   UNL     1      -7.072  12.610  68.458  1.00  0.00    -0.101 C  
BRANCH  12  13
HETATM   13  O   UNL     1      -6.294  11.597  67.814  1.00  0.00    -0.058 OA 
BRANCH  13  14
HETATM   14  C   UNL     1      -6.681  10.305  68.055  1.00  0.00    -0.066 A  
HETATM   15  C   UNL     1      -7.996   9.855  68.200  1.00  0.00    -0.100 A  
HETATM   16  C   UNL     1      -8.258   8.516  68.527  1.00  0.00    -0.123 A  
HETATM   17  C   UNL     1      -7.204   7.612  68.703  1.00  0.00    -0.082 A  
HETATM   18  C   UNL     1      -5.895   8.041  68.454  1.00  0.00    -0.036 A  
HETATM   19  C   UNL     1      -5.636   9.387  68.169  1.00  0.00    -0.037 A  
BRANCH  17  20
HETATM   20  C   UNL     1      -7.506   6.227  69.192  1.00  0.00    -0.094 C  
HETATM   21  O   UNL     1      -6.797   5.753  70.076  1.00  0.00    -0.056 OA 
BRANCH  20  22
HETATM   22  C   UNL     1      -8.597   5.473  68.570  1.00  0.00    -0.102 A  
HETATM   23  C   UNL     1      -9.497   4.646  69.242  1.00  0.00    -0.162 A  
HETATM   24  C   UNL     1      -9.035   5.446  64.750  1.00  0.00     0.043 A  
HETATM   25  O   UNL     1     -10.393   4.115  68.358  1.00  0.00     0.258 OA 
HETATM   26  C   UNL     1     -10.150   4.612  64.743  1.00  0.00     0.080 A  
HETATM   27  C   UNL     1     -10.035   4.511  67.115  1.00  0.00    -0.159 A  
HETATM   28  C   UNL     1      -8.917   5.332  67.170  1.00  0.00    -0.112 A  
HETATM   29  C   UNL     1     -10.670   4.115  65.941  1.00  0.00     0.429 A  
HETATM   30  C   UNL     1      -8.383   5.776  65.943  1.00  0.00    -0.130 A  
BRANCH  23  31
HETATM   31  C   UNL     1      -9.643   4.089  70.619  1.00  0.00    -0.260 C  
BRANCH  31  32
HETATM   32  C   UNL     1      -9.446   5.037  71.801  1.00  0.00    -0.194 C  
BRANCH  32  33
HETATM   33  C   UNL     1     -10.422   6.214  71.630  1.00  0.00    -0.267 C  
HETATM   34  C   UNL     1      -9.785   7.582  71.791  1.00  0.00    -0.187 C  
ENDBRANCH  32  33
ENDBRANCH  31  32
ENDBRANCH  23  31
BRANCH  24  35
HETATM   35  N   UNL     1      -8.519   5.977  63.532  1.00  0.00    -0.333 N  
HETATM   36  H   UNL     1      -8.620   5.469  62.653  1.00  0.00     0.000 HD 
BRANCH  35  37
HETATM   37  S   UNL     1      -7.733   7.471  63.587  1.00  0.00    -0.118 S  
HETATM   38  C   UNL     1      -6.381   7.194  62.462  1.00  0.00    -0.053 C  
HETATM   39  O   UNL     1      -8.595   8.503  63.058  1.00  0.00    -0.127 OA 
HETATM   40  O   UNL     1      -7.180   7.564  64.922  1.00  0.00    -0.064 OA 
ENDBRANCH  35  37
ENDBRANCH  24  35
ENDBRANCH  20  22
ENDBRANCH  17  20
ENDBRANCH  13  14
ENDBRANCH  12  13
ENDBRANCH  11  12
ENDBRANCH  10  11
ENDBRANCH   5  10
ENDBRANCH   4   5
ENDBRANCH   3   4
ENDBRANCH   2   3
TORSDOF 18
ENDMDL
MODEL      241
REMARK 921   NORMALIZED FREE ENERGY PREDICTED BY IDOCK:   -0.04 KCAL/MOL
REMARK 922        TOTAL FREE ENERGY PREDICTED BY IDOCK:   -2.79 KCAL/MOL
REMARK 923 INTER-LIGAND FREE ENERGY PREDICTED BY IDOCK:   -5.47 KCAL/MOL
REMARK 924 INTRA-LIGAND FREE ENERGY PREDICTED BY IDOCK:    2.68 KCAL/MOL
REMARK 927      BINDING AFFINITY PREDICTED BY RF-SCORE:    0.00 PKD
ROOT
HETATM    1  C   UNL     1      -9.781   3.413  71.693  1.00  0.00    -0.234 C  
HETATM    2  C   UNL     1      -8.356   2.884  71.798  1.00  0.00    -0.070 C  
ENDROOT
BRANCH   2   3
HETATM    3  C   UNL     1      -7.354   4.012  71.555  1.00  0.00    -0.054 C  
BRANCH   3   4
HETATM    4  C   UNL     1      -6.843   4.112  70.110  1.00  0.00    -0.034 C  
BRANCH   4   5
HETATM    5  N   UNL     1      -7.375   3.156  69.105  1.00  0.00    -0.048 NA 
BRANCH   5   6
HETATM    6  C   UNL     1      -8.850   3.058  69.194  1.00  0.00    -0.100 C  
BRANCH   6   7
HETATM    7  C   UNL     1      -9.584   2.471  67.972  1.00  0.00    -0.083 C  
BRANCH   7   8
HETATM    8  C   UNL     1      -9.085   2.993  66.623  1.00  0.00    -0.171 C  
HETATM    9  C   UNL     1      -9.890   4.210  66.184  1.00  0.00    -0.207 C  
ENDBRANCH   7   8
ENDBRANCH   6   7
ENDBRANCH   5   6
BRANCH   5  10
HETATM   10  C   UNL     1      -6.959   3.591  67.747  1.00  0.00    -0.051 C  
BRANCH  10  11
HETATM   11  C   UNL     1      -5.447   3.780  67.554  1.00  0.00    -0.020 C  
BRANCH  11  12
HETATM   12  C   UNL     1      -5.151   4.613  66.312  1.00  0.00    -0.008 C  
BRANCH  12  13
HETATM   13  O   UNL     1      -6.248   5.495  66.057  1.00  0.00    -0.032 OA 
BRANCH  13  14
HETATM   14  C   UNL     1      -6.591   6.334  67.084  1.00  0.00    -0.058 A  
HETATM   15  C   UNL     1      -7.829   6.376  67.731  1.00  0.00    -0.104 A  
HETATM   16  C   UNL     1      -8.084   7.339  68.718  1.00  0.00    -0.124 A  
HETATM   17  C   UNL     1      -7.096   8.266  69.073  1.00  0.00    -0.065 A  
HETATM   18  C   UNL     1      -5.825   8.154  68.499  1.00  0.00    -0.040 A  
HETATM   19  C   UNL     1      -5.588   7.218  67.485  1.00  0.00    -0.025 A  
BRANCH  17  20
HETATM   20  C   UNL     1      -7.443   9.372  70.024  1.00  0.00    -0.107 C  
HETATM   21  O   UNL     1      -6.625  10.271  70.196  1.00  0.00    -0.106 OA 
BRANCH  20  22
HETATM   22  C   UNL     1      -8.717   9.319  70.745  1.00  0.00    -0.272 A  
HETATM   23  C   UNL     1      -8.959   8.594  71.912  1.00  0.00    -0.231 A  
HETATM   24  C   UNL     1     -11.845  11.057  69.336  1.00  0.00    -0.335 A  
HETATM   25  O   UNL     1     -10.247   8.785  72.322  1.00  0.00    -0.313 OA 
HETATM   26  C   UNL     1     -12.694  10.680  70.374  1.00  0.00    -0.340 A  
HETATM   27  C   UNL     1     -10.870   9.547  71.395  1.00  0.00    -0.312 A  
HETATM   28  C   UNL     1      -9.991   9.891  70.379  1.00  0.00    -0.222 A  
HETATM   29  C   UNL     1     -12.217   9.899  71.430  1.00  0.00    -0.499 A  
HETATM   30  C   UNL     1     -10.511  10.635  69.300  1.00  0.00    -0.252 A  
BRANCH  23  31
HETATM   31  C   UNL     1      -8.237   7.574  72.728  1.00  0.00    -0.145 C  
BRANCH  31  32
HETATM   32  C   UNL     1      -6.795   7.241  72.349  1.00  0.00    -0.063 C  
BRANCH  32  33
HETATM   33  C   UNL     1      -5.898   8.387  72.849  1.00  0.00    -0.070 C  
HETATM   34  C   UNL     1      -6.476   9.168  74.015  1.00  0.00     0.190 C  
ENDBRANCH  32  33
ENDBRANCH  31  32
ENDBRANCH  23  31
BRANCH  24  35
HETATM   35  N   UNL     1     -12.320  11.877  68.271  1.00  0.00     0.280 N  
HETATM   36  H   UNL     1     -13.066  11.555  67.653  1.00  0.00     0.000 HD 
BRANCH  35  37
HETATM   37  S   UNL     1     -11.612  13.396  68.061  1.00  0.00    -0.355 S  
HETATM   38  C   UNL     1     -11.728  14.063  69.708  1.00  0.00    -0.313 C  
HETATM   39  O   UNL     1     -10.222  13.249  67.698  1.00  0.00    -0.222 OA 
HETATM   40  O   UNL     1     -12.534  14.135  67.224  1.00  0.00    -0.253 OA 
ENDBRANCH  35  37
ENDBRANCH  24  35
ENDBRANCH  20  22
ENDBRANCH  17  20
ENDBRANCH  13  14
ENDBRANCH  12  13
ENDBRANCH  11  12
ENDBRANCH  10  11
ENDBRANCH   5  10
ENDBRANCH   4   5
ENDBRANCH   3   4
ENDBRANCH   2   3
TORSDOF 18
ENDMDL
MODEL      242
REMARK 921   NORMALIZED FREE ENERGY PREDICTED BY IDOCK:    0.04 KCAL/MOL
REMARK 922        TOTAL FREE ENERGY PREDICTED BY IDOCK:   -2.64 KCAL/MOL
REMARK 923 INTER-LIGAND FREE ENERGY PREDICTED BY IDOCK:   -3.89 KCAL/MOL
REMARK 924 INTRA-LIGAND FREE ENERGY PREDICTED BY IDOCK:    1.25 KCAL/MOL
REMARK 927      BINDING AFFINITY PREDICTED BY RF-SCORE:    0.00 PKD
ROOT
HETATM    1  C   UNL     1     -12.328  10.649  71.950  1.00  0.00    -0.043 C  
HETATM    2  C   UNL     1     -11.991  10.017  70.606  1.00  0.00    -0.401 C  
ENDROOT
BRANCH   2   3
HETATM    3  C   UNL     1     -11.076   8.809  70.803  1.00  0.00    -0.306 C  
BRANCH   3   4
HETATM    4  C   UNL     1     -10.506   8.220  69.503  1.00  0.00    -0.227 C  
BRANCH   4   5
HETATM    5  N   UNL     1      -9.988   6.828  69.526  1.00  0.00    -0.160 NA 
BRANCH   5   6
HETATM    6  C   UNL     1     -10.916   5.905  68.832  1.00  0.00    -0.267 C  
BRANCH   6   7
HETATM    7  C   UNL     1     -10.320   5.035  67.707  1.00  0.00    -0.116 C  
BRANCH   7   8
HETATM    8  C   UNL     1      -9.120   4.186  68.130  1.00  0.00    -0.175 C  
HETATM    9  C   UNL     1      -8.124   4.053  66.985  1.00  0.00    -0.096 C  
ENDBRANCH   7   8
ENDBRANCH   6   7
ENDBRANCH   5   6
BRANCH   5  10
HETATM   10  C   UNL     1      -8.645   6.795  68.894  1.00  0.00    -0.130 C  
BRANCH  10  11
HETATM   11  C   UNL     1      -7.464   6.996  69.855  1.00  0.00    -0.090 C  
BRANCH  11  12
HETATM   12  C   UNL     1      -6.137   6.695  69.167  1.00  0.00    -0.026 C  
BRANCH  12  13
HETATM   13  O   UNL     1      -5.736   7.825  68.388  1.00  0.00    -0.027 OA 
BRANCH  13  14
HETATM   14  C   UNL     1      -6.498   8.954  68.539  1.00  0.00    -0.055 A  
HETATM   15  C   UNL     1      -6.884   9.528  69.754  1.00  0.00    -0.064 A  
HETATM   16  C   UNL     1      -7.735  10.641  69.776  1.00  0.00    -0.018 A  
HETATM   17  C   UNL     1      -8.202  11.199  68.579  1.00  0.00    -0.149 A  
HETATM   18  C   UNL     1      -7.730  10.687  67.364  1.00  0.00    -0.106 A  
HETATM   19  C   UNL     1      -6.914   9.549  67.348  1.00  0.00    -0.084 A  
BRANCH  17  20
HETATM   20  C   UNL     1      -9.223  12.295  68.635  1.00  0.00     0.001 C  
HETATM   21  O   UNL     1      -9.976  12.342  69.604  1.00  0.00     0.843 OA 
BRANCH  20  22
HETATM   22  C   UNL     1      -9.320  13.237  67.518  1.00  0.00    -0.218 A  
HETATM   23  C   UNL     1     -10.102  13.065  66.376  1.00  0.00    -0.279 A  
HETATM   24  C   UNL     1      -7.125  16.394  67.419  1.00  0.00    -0.159 A  
HETATM   25  O   UNL     1      -9.967  14.144  65.550  1.00  0.00    -0.327 OA 
HETATM   26  C   UNL     1      -7.612  16.864  66.202  1.00  0.00    -0.230 A  
HETATM   27  C   UNL     1      -9.044  14.969  66.092  1.00  0.00    -0.202 A  
HETATM   28  C   UNL     1      -8.582  14.458  67.296  1.00  0.00    -0.230 A  
HETATM   29  C   UNL     1      -8.585  16.145  65.503  1.00  0.00     1.005 A  
HETATM   30  C   UNL     1      -7.563  15.177  67.954  1.00  0.00    -0.151 A  
BRANCH  23  31
HETATM   31  C   UNL     1     -10.916  11.970  65.771  1.00  0.00    -0.351 C  
BRANCH  31  32
HETATM   32  C   UNL     1     -11.134  11.990  64.259  1.00  0.00    -0.411 C  
BRANCH  32  33
HETATM   33  C   UNL     1     -11.709  13.367  63.882  1.00  0.00    -0.455 C  
HETATM   34  C   UNL     1     -13.150  13.579  64.308  1.00  0.00     0.604 C  
ENDBRANCH  32  33
ENDBRANCH  31  32
ENDBRANCH  23  31
BRANCH  24  35
HETATM   35  N   UNL     1      -6.153  17.138  68.148  1.00  0.00    -0.126 N  
HETATM   36  H   UNL     1      -5.176  16.843  68.175  1.00  0.00     0.000 HD 
BRANCH  35  37
HETATM   37  S   UNL     1      -6.664  18.524  68.967  1.00  0.00    -0.262 S  
HETATM   38  C   UNL     1      -8.433  18.347  68.877  1.00  0.00    -0.147 C  
HETATM   39  O   UNL     1      -6.244  18.466  70.348  1.00  0.00    -0.031 OA 
HETATM   40  O   UNL     1      -6.291  19.633  68.113  1.00  0.00    -0.224 OA 
ENDBRANCH  35  37
ENDBRANCH  24  35
ENDBRANCH  20  22
ENDBRANCH  17  20
ENDBRANCH  13  14
ENDBRANCH  12  13
ENDBRANCH  11  12
ENDBRANCH  10  11
ENDBRANCH   5  10
ENDBRANCH   4   5
ENDBRANCH   3   4
ENDBRANCH   2   3
TORSDOF 18
ENDMDL
MODEL      243
REMARK 921   NORMALIZED FREE ENERGY PREDICTED BY IDOCK:    0.06 KCAL/MOL
REMARK 922        TOTAL FREE ENERGY PREDICTED BY IDOCK:   -2.59 KCAL/MOL
REMARK 923 INTER-LIGAND FREE ENERGY PREDICTED BY IDOCK:   -2.28 KCAL/MOL
REMARK 924 INTRA-LIGAND FREE ENERGY PREDICTED BY IDOCK:   -0.31 KCAL/MOL
REMARK 927      BINDING AFFINITY PREDICTED BY RF-SCORE:    0.00 PKD
ROOT
HETATM    1  C   UNL     1      -6.304  11.859  67.389  1.00  0.00    -0.128 C  
HETATM    2  C   UNL     1      -5.871  13.258  66.972  1.00  0.00     0.782 C  
ENDROOT
BRANCH   2   3
HETATM    3  C   UNL     1      -7.034  14.239  67.118  1.00  0.00     0.337 C  
BRANCH   3   4
HETATM    4  C   UNL     1      -8.421  13.582  67.170  1.00  0.00    -0.166 C  
BRANCH   4   5
HETATM    5  N   UNL     1      -9.548  14.357  67.748  1.00  0.00    -0.212 NA 
BRANCH   5   6
HETATM    6  C   UNL     1     -10.153  15.252  66.734  1.00  0.00    -0.258 C  
BRANCH   6   7
HETATM    7  C   UNL     1      -9.937  16.766  66.925  1.00  0.00    -0.274 C  
BRANCH   7   8
HETATM    8  C   UNL     1      -8.656  17.135  67.675  1.00  0.00    -0.214 C  
HETATM    9  C   UNL     1      -8.626  18.625  67.991  1.00  0.00    -0.321 C  
ENDBRANCH   7   8
ENDBRANCH   6   7
ENDBRANCH   5   6
BRANCH   5  10
HETATM   10  C   UNL     1     -10.563  13.417  68.289  1.00  0.00    -0.254 C  
BRANCH  10  11
HETATM   11  C   UNL     1     -11.774  13.165  67.379  1.00  0.00    -0.419 C  
BRANCH  11  12
HETATM   12  C   UNL     1     -11.959  11.676  67.108  1.00  0.00     0.193 C  
BRANCH  12  13
HETATM   13  O   UNL     1     -12.216  10.996  68.339  1.00  0.00    -0.586 OA 
BRANCH  13  14
HETATM   14  C   UNL     1     -11.221  10.162  68.778  1.00  0.00    -0.164 A  
HETATM   15  C   UNL     1     -11.262   9.371  69.930  1.00  0.00    -0.180 A  
HETATM   16  C   UNL     1     -10.144   8.619  70.317  1.00  0.00    -0.206 A  
HETATM   17  C   UNL     1      -8.974   8.645  69.548  1.00  0.00    -0.145 A  
HETATM   18  C   UNL     1      -8.972   9.354  68.341  1.00  0.00    -0.128 A  
HETATM   19  C   UNL     1     -10.076  10.136  67.981  1.00  0.00    -0.186 A  
BRANCH  17  20
HETATM   20  C   UNL     1      -7.749   7.949  70.061  1.00  0.00    -0.089 C  
HETATM   21  O   UNL     1      -7.469   6.845  69.601  1.00  0.00    -0.093 OA 
BRANCH  20  22
HETATM   22  C   UNL     1      -6.960   8.582  71.120  1.00  0.00    -0.070 A  
HETATM   23  C   UNL     1      -6.642   8.006  72.350  1.00  0.00    -0.075 A  
HETATM   24  C   UNL     1      -5.780  12.226  70.776  1.00  0.00    -0.085 A  
HETATM   25  O   UNL     1      -5.880   8.867  73.087  1.00  0.00    -0.100 OA 
HETATM   26  C   UNL     1      -5.131  12.280  72.007  1.00  0.00     0.094 A  
HETATM   27  C   UNL     1      -5.774  10.024  72.395  1.00  0.00     0.407 A  
HETATM   28  C   UNL     1      -6.440   9.927  71.181  1.00  0.00     0.089 A  
HETATM   29  C   UNL     1      -5.126  11.168  72.854  1.00  0.00     0.406 A  
HETATM   30  C   UNL     1      -6.473  11.080  70.371  1.00  0.00     0.005 A  
BRANCH  23  31
HETATM   31  C   UNL     1      -7.031   6.782  73.110  1.00  0.00    -0.075 C  
BRANCH  31  32
HETATM   32  C   UNL     1      -6.438   5.444  72.669  1.00  0.00    -0.060 C  
BRANCH  32  33
HETATM   33  C   UNL     1      -7.523   4.367  72.844  1.00  0.00    -0.080 C  
HETATM   34  C   UNL     1      -8.133   3.879  71.543  1.00  0.00    -0.069 C  
ENDBRANCH  32  33
ENDBRANCH  31  32
ENDBRANCH  23  31
BRANCH  24  35
HETATM   35  N   UNL     1      -5.764  13.349  69.898  1.00  0.00    -0.110 N  
HETATM   36  H   UNL     1      -5.610  13.230  68.896  1.00  0.00     0.000 HD 
BRANCH  35  37
HETATM   37  S   UNL     1      -6.007  14.882  70.563  1.00  0.00    -0.100 S  
HETATM   38  C   UNL     1      -5.187  15.914  69.367  1.00  0.00    -0.111 C  
HETATM   39  O   UNL     1      -7.417  15.196  70.584  1.00  0.00     0.509 OA 
HETATM   40  O   UNL     1      -5.214  14.902  71.775  1.00  0.00    -0.142 OA 
ENDBRANCH  35  37
ENDBRANCH  24  35
ENDBRANCH  20  22
ENDBRANCH  17  20
ENDBRANCH  13  14
ENDBRANCH  12  13
ENDBRANCH  11  12
ENDBRANCH  10  11
ENDBRANCH   5  10
ENDBRANCH   4   5
ENDBRANCH   3   4
ENDBRANCH   2   3
TORSDOF 18
ENDMDL
MODEL      244
REMARK 921   NORMALIZED FREE ENERGY PREDICTED BY IDOCK:    0.17 KCAL/MOL
REMARK 922        TOTAL FREE ENERGY PREDICTED BY IDOCK:   -2.37 KCAL/MOL
REMARK 923 INTER-LIGAND FREE ENERGY PREDICTED BY IDOCK:   -4.84 KCAL/MOL
REMARK 924 INTRA-LIGAND FREE ENERGY PREDICTED BY IDOCK:    2.47 KCAL/MOL
REMARK 927      BINDING AFFINITY PREDICTED BY RF-SCORE:    0.00 PKD
ROOT
HETATM    1  C   UNL     1     -11.510   4.935  64.843  1.00  0.00     1.110 C  
HETATM    2  C   UNL     1     -10.414   3.886  64.705  1.00  0.00    -0.164 C  
ENDROOT
BRANCH   2   3
HETATM    3  C   UNL     1      -9.084   4.552  64.353  1.00  0.00    -0.143 C  
BRANCH   3   4
HETATM    4  C   UNL     1      -7.840   3.734  64.730  1.00  0.00    -0.085 C  
BRANCH   4   5
HETATM    5  N   UNL     1      -6.878   4.318  65.700  1.00  0.00    -0.056 NA 
BRANCH   5   6
HETATM    6  C   UNL     1      -5.574   3.618  65.641  1.00  0.00    -0.017 C  
BRANCH   6   7
HETATM    7  C   UNL     1      -5.128   2.866  66.910  1.00  0.00    -0.004 C  
BRANCH   7   8
HETATM    8  C   UNL     1      -6.270   2.484  67.854  1.00  0.00    -0.025 C  
HETATM    9  C   UNL     1      -5.874   2.724  69.306  1.00  0.00    -0.023 C  
ENDBRANCH   7   8
ENDBRANCH   6   7
ENDBRANCH   5   6
BRANCH   5  10
HETATM   10  C   UNL     1      -6.710   5.765  65.413  1.00  0.00    -0.044 C  
BRANCH  10  11
HETATM   11  C   UNL     1      -7.946   6.464  64.825  1.00  0.00    -0.121 C  
BRANCH  11  12
HETATM   12  C   UNL     1      -7.721   6.844  63.366  1.00  0.00    -0.106 C  
BRANCH  12  13
HETATM   13  O   UNL     1      -6.699   7.841  63.285  1.00  0.00    -0.068 OA 
BRANCH  13  14
HETATM   14  C   UNL     1      -6.772   8.848  64.211  1.00  0.00    -0.078 A  
HETATM   15  C   UNL     1      -5.688   9.521  64.780  1.00  0.00    -0.070 A  
HETATM   16  C   UNL     1      -5.892  10.481  65.782  1.00  0.00    -0.126 A  
HETATM   17  C   UNL     1      -7.188  10.784  66.218  1.00  0.00    -0.137 A  
HETATM   18  C   UNL     1      -8.276  10.185  65.573  1.00  0.00    -0.156 A  
HETATM   19  C   UNL     1      -8.066   9.197  64.603  1.00  0.00    -0.136 A  
BRANCH  17  20
HETATM   20  C   UNL     1      -7.367  11.705  67.387  1.00  0.00    -0.128 C  
HETATM   21  O   UNL     1      -6.390  11.953  68.089  1.00  0.00    -0.049 OA 
BRANCH  20  22
HETATM   22  C   UNL     1      -8.700  12.237  67.678  1.00  0.00    -0.175 A  
HETATM   23  C   UNL     1      -9.146  13.522  67.371  1.00  0.00    -0.219 A  
HETATM   24  C   UNL     1     -11.251  10.156  69.666  1.00  0.00    -0.261 A  
HETATM   25  O   UNL     1     -10.443  13.674  67.768  1.00  0.00    -0.235 OA 
HETATM   26  C   UNL     1     -12.261  11.115  69.644  1.00  0.00    -0.360 A  
HETATM   27  C   UNL     1     -10.819  12.543  68.406  1.00  0.00    -0.243 A  
HETATM   28  C   UNL     1      -9.781  11.621  68.410  1.00  0.00    -0.199 A  
HETATM   29  C   UNL     1     -12.056  12.345  69.014  1.00  0.00    -0.185 A  
HETATM   30  C   UNL     1      -9.998  10.409  69.097  1.00  0.00    -0.237 A  
BRANCH  23  31
HETATM   31  C   UNL     1      -8.542  14.791  66.866  1.00  0.00    -0.254 C  
BRANCH  31  32
HETATM   32  C   UNL     1      -9.157  16.112  67.326  1.00  0.00    -0.215 C  
BRANCH  32  33
HETATM   33  C   UNL     1      -8.100  17.215  67.140  1.00  0.00    -0.215 C  
HETATM   34  C   UNL     1      -6.681  16.700  66.987  1.00  0.00    -0.242 C  
ENDBRANCH  32  33
ENDBRANCH  31  32
ENDBRANCH  23  31
BRANCH  24  35
HETATM   35  N   UNL     1     -11.467   8.889  70.283  1.00  0.00    -0.438 N  
HETATM   36  H   UNL     1     -12.367   8.656  70.703  1.00  0.00     0.000 HD 
BRANCH  35  37
HETATM   37  S   UNL     1     -10.189   7.786  70.298  1.00  0.00    -0.202 S  
HETATM   38  C   UNL     1      -9.976   7.477  68.558  1.00  0.00    -0.168 C  
HETATM   39  O   UNL     1      -8.999   8.413  70.825  1.00  0.00    -0.140 OA 
HETATM   40  O   UNL     1     -10.730   6.582  70.894  1.00  0.00    -0.225 OA 
ENDBRANCH  35  37
ENDBRANCH  24  35
ENDBRANCH  20  22
ENDBRANCH  17  20
ENDBRANCH  13  14
ENDBRANCH  12  13
ENDBRANCH  11  12
ENDBRANCH  10  11
ENDBRANCH   5  10
ENDBRANCH   4   5
ENDBRANCH   3   4
ENDBRANCH   2   3
TORSDOF 18
ENDMDL
MODEL      245
REMARK 921   NORMALIZED FREE ENERGY PREDICTED BY IDOCK:    0.23 KCAL/MOL
REMARK 922        TOTAL FREE ENERGY PREDICTED BY IDOCK:   -2.26 KCAL/MOL
REMARK 923 INTER-LIGAND FREE ENERGY PREDICTED BY IDOCK:   -3.61 KCAL/MOL
REMARK 924 INTRA-LIGAND FREE ENERGY PREDICTED BY IDOCK:    1.36 KCAL/MOL
REMARK 927      BINDING AFFINITY PREDICTED BY RF-SCORE:    0.00 PKD
ROOT
HETATM    1  C   UNL     1      -9.191  17.173  66.449  1.00  0.00    -0.285 C  
HETATM    2  C   UNL     1      -9.874  15.851  66.778  1.00  0.00    -0.254 C  
ENDROOT
BRANCH   2   3
HETATM    3  C   UNL     1     -11.378  15.956  66.532  1.00  0.00     0.207 C  
BRANCH   3   4
HETATM    4  C   UNL     1     -12.204  14.802  67.120  1.00  0.00     0.041 C  
BRANCH   4   5
HETATM    5  N   UNL     1     -11.957  13.428  66.616  1.00  0.00    -0.397 NA 
BRANCH   5   6
HETATM    6  C   UNL     1     -10.759  13.389  65.745  1.00  0.00    -0.274 C  
BRANCH   6   7
HETATM    7  C   UNL     1     -10.905  12.666  64.392  1.00  0.00    -0.386 C  
BRANCH   7   8
HETATM    8  C   UNL     1      -9.957  11.480  64.201  1.00  0.00    -0.327 C  
HETATM    9  C   UNL     1     -10.461  10.259  64.960  1.00  0.00    -0.036 C  
ENDBRANCH   7   8
ENDBRANCH   6   7
ENDBRANCH   5   6
BRANCH   5  10
HETATM   10  C   UNL     1     -11.797  12.504  67.768  1.00  0.00    -0.313 C  
BRANCH  10  11
HETATM   11  C   UNL     1     -11.634  13.185  69.135  1.00  0.00    -0.368 C  
BRANCH  11  12
HETATM   12  C   UNL     1     -10.263  12.891  69.735  1.00  0.00     1.378 C  
BRANCH  12  13
HETATM   13  O   UNL     1      -9.375  12.451  68.704  1.00  0.00    -0.127 OA 
BRANCH  13  14
HETATM   14  C   UNL     1      -9.265  11.094  68.550  1.00  0.00    -0.183 A  
HETATM   15  C   UNL     1      -8.556  10.437  67.541  1.00  0.00    -0.125 A  
HETATM   16  C   UNL     1      -8.587   9.038  67.444  1.00  0.00    -0.115 A  
HETATM   17  C   UNL     1      -9.323   8.282  68.364  1.00  0.00    -0.136 A  
HETATM   18  C   UNL     1      -9.945   8.936  69.434  1.00  0.00    -0.192 A  
HETATM   19  C   UNL     1      -9.946  10.334  69.502  1.00  0.00    -0.252 A  
BRANCH  17  20
HETATM   20  C   UNL     1      -9.456   6.804  68.152  1.00  0.00    -0.120 C  
HETATM   21  O   UNL     1     -10.553   6.284  68.339  1.00  0.00    -0.203 OA 
BRANCH  20  22
HETATM   22  C   UNL     1      -8.272   6.028  67.777  1.00  0.00    -0.112 A  
HETATM   23  C   UNL     1      -7.717   4.985  68.519  1.00  0.00    -0.079 A  
HETATM   24  C   UNL     1      -6.234   6.945  64.647  1.00  0.00    -0.036 A  
HETATM   25  O   UNL     1      -6.631   4.474  67.868  1.00  0.00    -0.044 OA 
HETATM   26  C   UNL     1      -5.286   5.936  64.797  1.00  0.00    -0.013 A  
HETATM   27  C   UNL     1      -6.418   5.224  66.763  1.00  0.00    -0.041 A  
HETATM   28  C   UNL     1      -7.379   6.219  66.659  1.00  0.00    -0.078 A  
HETATM   29  C   UNL     1      -5.356   5.053  65.878  1.00  0.00    -0.013 A  
HETATM   30  C   UNL     1      -7.254   7.127  65.588  1.00  0.00    -0.070 A  
BRANCH  23  31
HETATM   31  C   UNL     1      -7.910   4.393  69.875  1.00  0.00    -0.053 C  
BRANCH  31  32
HETATM   32  C   UNL     1      -6.682   4.233  70.771  1.00  0.00    -0.035 C  
BRANCH  32  33
HETATM   33  C   UNL     1      -6.959   3.077  71.749  1.00  0.00    -0.031 C  
HETATM   34  C   UNL     1      -8.289   2.380  71.531  1.00  0.00    -0.079 C  
ENDBRANCH  32  33
ENDBRANCH  31  32
ENDBRANCH  23  31
BRANCH  24  35
HETATM   35  N   UNL     1      -6.182   7.830  63.531  1.00  0.00    -0.061 N  
HETATM   36  H   UNL     1      -6.103   7.470  62.579  1.00  0.00     0.000 HD 
BRANCH  35  37
HETATM   37  S   UNL     1      -6.252   9.490  63.829  1.00  0.00    -0.103 S  
HETATM   38  C   UNL     1      -7.771   9.926  63.008  1.00  0.00    -0.138 C  
HETATM   39  O   UNL     1      -6.385   9.734  65.247  1.00  0.00    -0.076 OA 
HETATM   40  O   UNL     1      -5.162  10.063  63.067  1.00  0.00    -0.086 OA 
ENDBRANCH  35  37
ENDBRANCH  24  35
ENDBRANCH  20  22
ENDBRANCH  17  20
ENDBRANCH  13  14
ENDBRANCH  12  13
ENDBRANCH  11  12
ENDBRANCH  10  11
ENDBRANCH   5  10
ENDBRANCH   4   5
ENDBRANCH   3   4
ENDBRANCH   2   3
TORSDOF 18
ENDMDL
MODEL      246
REMARK 921   NORMALIZED FREE ENERGY PREDICTED BY IDOCK:    0.35 KCAL/MOL
REMARK 922        TOTAL FREE ENERGY PREDICTED BY IDOCK:   -2.01 KCAL/MOL
REMARK 923 INTER-LIGAND FREE ENERGY PREDICTED BY IDOCK:   -0.78 KCAL/MOL
REMARK 924 INTRA-LIGAND FREE ENERGY PREDICTED BY IDOCK:   -1.23 KCAL/MOL
REMARK 927      BINDING AFFINITY PREDICTED BY RF-SCORE:    0.00 PKD
ROOT
HETATM    1  C   UNL     1     -11.355   9.826  64.926  1.00  0.00     4.339 C  
HETATM    2  C   UNL     1     -10.882  10.753  66.040  1.00  0.00    -0.102 C  
ENDROOT
BRANCH   2   3
HETATM    3  C   UNL     1     -11.652  12.072  65.994  1.00  0.00    -0.371 C  
BRANCH   3   4
HETATM    4  C   UNL     1     -11.755  12.799  67.343  1.00  0.00    -0.366 C  
BRANCH   4   5
HETATM    5  N   UNL     1     -10.644  13.697  67.748  1.00  0.00    -0.240 NA 
BRANCH   5   6
HETATM    6  C   UNL     1     -11.157  14.882  68.474  1.00  0.00    -0.266 C  
BRANCH   6   7
HETATM    7  C   UNL     1     -11.538  14.680  69.954  1.00  0.00    -0.333 C  
BRANCH   7   8
HETATM    8  C   UNL     1     -10.984  15.746  70.903  1.00  0.00    -0.277 C  
HETATM    9  C   UNL     1     -12.031  16.147  71.934  1.00  0.00    -0.583 C  
ENDBRANCH   7   8
ENDBRANCH   6   7
ENDBRANCH   5   6
BRANCH   5  10
HETATM   10  C   UNL     1      -9.684  12.940  68.590  1.00  0.00    -0.040 C  
BRANCH  10  11
HETATM   11  C   UNL     1      -8.251  12.864  68.043  1.00  0.00    -0.168 C  
BRANCH  11  12
HETATM   12  C   UNL     1      -7.256  12.534  69.150  1.00  0.00     0.070 C  
BRANCH  12  13
HETATM   13  O   UNL     1      -6.327  11.554  68.679  1.00  0.00    -0.050 OA 
BRANCH  13  14
HETATM   14  C   UNL     1      -6.437  10.309  69.241  1.00  0.00    -0.049 A  
HETATM   15  C   UNL     1      -7.627   9.678  69.613  1.00  0.00    -0.114 A  
HETATM   16  C   UNL     1      -7.602   8.433  70.256  1.00  0.00    -0.068 A  
HETATM   17  C   UNL     1      -6.381   7.801  70.526  1.00  0.00    -0.037 A  
HETATM   18  C   UNL     1      -5.198   8.386  70.060  1.00  0.00    -0.022 A  
HETATM   19  C   UNL     1      -5.226   9.649  69.456  1.00  0.00    -0.035 A  
BRANCH  17  20
HETATM   20  C   UNL     1      -6.377   6.543  71.342  1.00  0.00    -0.042 C  
HETATM   21  O   UNL     1      -5.516   6.412  72.207  1.00  0.00    -0.034 OA 
BRANCH  20  22
HETATM   22  C   UNL     1      -7.363   5.500  71.048  1.00  0.00    -0.084 A  
HETATM   23  C   UNL     1      -7.992   4.690  71.993  1.00  0.00    -0.100 A  
HETATM   24  C   UNL     1      -8.241   4.596  67.415  1.00  0.00    -0.101 A  
HETATM   25  O   UNL     1      -8.864   3.840  71.374  1.00  0.00    -0.090 OA 
HETATM   26  C   UNL     1      -9.161   3.601  67.737  1.00  0.00    -0.193 A  
HETATM   27  C   UNL     1      -8.744   4.022  70.039  1.00  0.00    -0.071 A  
HETATM   28  C   UNL     1      -7.814   5.015  69.766  1.00  0.00    -0.071 A  
HETATM   29  C   UNL     1      -9.424   3.285  69.073  1.00  0.00    -0.187 A  
HETATM   30  C   UNL     1      -7.530   5.277  68.410  1.00  0.00    -0.075 A  
BRANCH  23  31
HETATM   31  C   UNL     1      -7.858   4.418  73.455  1.00  0.00    -0.090 C  
BRANCH  31  32
HETATM   32  C   UNL     1      -7.692   5.611  74.395  1.00  0.00    -0.098 C  
BRANCH  32  33
HETATM   33  C   UNL     1      -8.895   6.548  74.185  1.00  0.00    -0.169 C  
HETATM   34  C   UNL     1      -8.526   8.012  74.030  1.00  0.00    -0.312 C  
ENDBRANCH  32  33
ENDBRANCH  31  32
ENDBRANCH  23  31
BRANCH  24  35
HETATM   35  N   UNL     1      -7.991   4.941  66.055  1.00  0.00    -0.106 N  
HETATM   36  H   UNL     1      -8.088   4.248  65.311  1.00  0.00     0.000 HD 
BRANCH  35  37
HETATM   37  S   UNL     1      -7.529   6.527  65.709  1.00  0.00    -0.085 S  
HETATM   38  C   UNL     1      -6.264   6.262  64.484  1.00  0.00    -0.030 C  
HETATM   39  O   UNL     1      -8.631   7.247  65.114  1.00  0.00    -0.070 OA 
HETATM   40  O   UNL     1      -6.879   7.007  66.911  1.00  0.00    -0.060 OA 
ENDBRANCH  35  37
ENDBRANCH  24  35
ENDBRANCH  20  22
ENDBRANCH  17  20
ENDBRANCH  13  14
ENDBRANCH  12  13
ENDBRANCH  11  12
ENDBRANCH  10  11
ENDBRANCH   5  10
ENDBRANCH   4   5
ENDBRANCH   3   4
ENDBRANCH   2   3
TORSDOF 18
ENDMDL
MODEL      247
REMARK 921   NORMALIZED FREE ENERGY PREDICTED BY IDOCK:    0.93 KCAL/MOL
REMARK 922        TOTAL FREE ENERGY PREDICTED BY IDOCK:   -0.81 KCAL/MOL
REMARK 923 INTER-LIGAND FREE ENERGY PREDICTED BY IDOCK:   -2.44 KCAL/MOL
REMARK 924 INTRA-LIGAND FREE ENERGY PREDICTED BY IDOCK:    1.63 KCAL/MOL
REMARK 927      BINDING AFFINITY PREDICTED BY RF-SCORE:    0.00 PKD
ROOT
HETATM    1  C   UNL     1     -13.255  11.909  63.804  1.00  0.00     0.025 C  
HETATM    2  C   UNL     1     -12.570  12.906  62.878  1.00  0.00     0.429 C  
ENDROOT
BRANCH   2   3
HETATM    3  C   UNL     1     -11.052  12.806  63.023  1.00  0.00     0.518 C  
BRANCH   3   4
HETATM    4  C   UNL     1     -10.460  13.662  64.152  1.00  0.00     0.043 C  
BRANCH   4   5
HETATM    5  N   UNL     1     -10.632  13.201  65.553  1.00  0.00    -0.282 NA 
BRANCH   5   6
HETATM    6  C   UNL     1     -10.456  11.733  65.655  1.00  0.00    -0.265 C  
BRANCH   6   7
HETATM    7  C   UNL     1      -9.254  11.123  64.907  1.00  0.00    -0.175 C  
BRANCH   7   8
HETATM    8  C   UNL     1      -8.848   9.729  65.390  1.00  0.00    -0.199 C  
HETATM    9  C   UNL     1      -7.774   9.822  66.466  1.00  0.00    -0.105 C  
ENDBRANCH   7   8
ENDBRANCH   6   7
ENDBRANCH   5   6
BRANCH   5  10
HETATM   10  C   UNL     1      -9.659  13.907  66.425  1.00  0.00    -0.277 C  
BRANCH  10  11
HETATM   11  C   UNL     1      -9.965  13.849  67.929  1.00  0.00    -0.242 C  
BRANCH  11  12
HETATM   12  C   UNL     1     -11.264  14.578  68.255  1.00  0.00    -0.277 C  
BRANCH  12  13
HETATM   13  O   UNL     1     -12.102  13.729  69.045  1.00  0.00    -0.346 OA 
BRANCH  13  14
HETATM   14  C   UNL     1     -11.614  12.473  69.293  1.00  0.00    -0.319 A  
HETATM   15  C   UNL     1     -12.374  11.349  69.629  1.00  0.00    -0.236 A  
HETATM   16  C   UNL     1     -11.748  10.134  69.939  1.00  0.00    -0.248 A  
HETATM   17  C   UNL     1     -10.352  10.029  69.907  1.00  0.00    -0.315 A  
HETATM   18  C   UNL     1      -9.600  11.126  69.469  1.00  0.00     0.342 A  
HETATM   19  C   UNL     1     -10.227  12.349  69.200  1.00  0.00     0.205 A  
BRANCH  17  20
HETATM   20  C   UNL     1      -9.705   8.763  70.382  1.00  0.00    -0.180 C  
HETATM   21  O   UNL     1     -10.234   8.148  71.304  1.00  0.00    -0.189 OA 
BRANCH  20  22
HETATM   22  C   UNL     1      -8.447   8.330  69.768  1.00  0.00    -0.128 A  
HETATM   23  C   UNL     1      -7.178   8.809  70.093  1.00  0.00    -0.054 A  
HETATM   24  C   UNL     1      -8.451   5.856  66.823  1.00  0.00    -0.109 A  
HETATM   25  O   UNL     1      -6.232   8.176  69.339  1.00  0.00    -0.033 OA 
HETATM   26  C   UNL     1      -7.068   5.829  66.662  1.00  0.00    -0.069 A  
HETATM   27  C   UNL     1      -6.871   7.362  68.468  1.00  0.00    -0.073 A  
HETATM   28  C   UNL     1      -8.244   7.428  68.660  1.00  0.00    -0.125 A  
HETATM   29  C   UNL     1      -6.244   6.600  67.486  1.00  0.00    -0.039 A  
HETATM   30  C   UNL     1      -9.054   6.680  67.781  1.00  0.00    -0.113 A  
BRANCH  23  31
HETATM   31  C   UNL     1      -6.612   9.909  70.928  1.00  0.00    -0.018 C  
BRANCH  31  32
HETATM   32  C   UNL     1      -6.467  11.291  70.292  1.00  0.00     0.002 C  
BRANCH  32  33
HETATM   33  C   UNL     1      -5.921  12.249  71.366  1.00  0.00     0.924 C  
HETATM   34  C   UNL     1      -6.073  13.720  71.025  1.00  0.00    -0.030 C  
ENDBRANCH  32  33
ENDBRANCH  31  32
ENDBRANCH  23  31
BRANCH  24  35
HETATM   35  N   UNL     1      -9.294   5.050  66.003  1.00  0.00    -0.151 N  
HETATM   36  H   UNL     1     -10.214   5.380  65.712  1.00  0.00     0.000 HD 
BRANCH  35  37
HETATM   37  S   UNL     1      -8.724   3.533  65.529  1.00  0.00    -0.127 S  
HETATM   38  C   UNL     1      -9.366   3.423  63.872  1.00  0.00    -0.126 C  
HETATM   39  O   UNL     1      -7.280   3.537  65.486  1.00  0.00    -0.068 OA 
HETATM   40  O   UNL     1      -9.449   2.580  66.344  1.00  0.00    -0.011 OA 
ENDBRANCH  35  37
ENDBRANCH  24  35
ENDBRANCH  20  22
ENDBRANCH  17  20
ENDBRANCH  13  14
ENDBRANCH  12  13
ENDBRANCH  11  12
ENDBRANCH  10  11
ENDBRANCH   5  10
ENDBRANCH   4   5
ENDBRANCH   3   4
ENDBRANCH   2   3
TORSDOF 18
ENDMDL
MODEL      248
REMARK 921   NORMALIZED FREE ENERGY PREDICTED BY IDOCK:    1.56 KCAL/MOL
REMARK 922        TOTAL FREE ENERGY PREDICTED BY IDOCK:    0.48 KCAL/MOL
REMARK 923 INTER-LIGAND FREE ENERGY PREDICTED BY IDOCK:   -0.27 KCAL/MOL
REMARK 924 INTRA-LIGAND FREE ENERGY PREDICTED BY IDOCK:    0.75 KCAL/MOL
REMARK 927      BINDING AFFINITY PREDICTED BY RF-SCORE:    0.00 PKD
ROOT
HETATM    1  C   UNL     1     -12.654  13.622  64.739  1.00  0.00    -0.339 C  
HETATM    2  C   UNL     1     -12.767  12.264  65.421  1.00  0.00     0.450 C  
ENDROOT
BRANCH   2   3
HETATM    3  C   UNL     1     -11.681  12.114  66.487  1.00  0.00    -0.392 C  
BRANCH   3   4
HETATM    4  C   UNL     1     -10.809  10.859  66.338  1.00  0.00    -0.145 C  
BRANCH   4   5
HETATM    5  N   UNL     1      -9.335  11.027  66.270  1.00  0.00    -0.178 NA 
BRANCH   5   6
HETATM    6  C   UNL     1      -8.881  11.172  64.867  1.00  0.00     0.019 C  
BRANCH   6   7
HETATM    7  C   UNL     1      -9.178   9.997  63.914  1.00  0.00    -0.317 C  
BRANCH   7   8
HETATM    8  C   UNL     1      -7.972   9.516  63.106  1.00  0.00    -0.141 C  
HETATM    9  C   UNL     1      -7.031   8.694  63.979  1.00  0.00    -0.082 C  
ENDBRANCH   7   8
ENDBRANCH   6   7
ENDBRANCH   5   6
BRANCH   5  10
HETATM   10  C   UNL     1      -8.939  12.212  67.074  1.00  0.00    -0.201 C  
BRANCH  10  11
HETATM   11  C   UNL     1      -7.437  12.330  67.370  1.00  0.00    -0.160 C  
BRANCH  11  12
HETATM   12  C   UNL     1      -6.606  12.049  66.122  1.00  0.00     1.071 C  
BRANCH  12  13
HETATM   13  O   UNL     1      -5.768  10.914  66.353  1.00  0.00    -0.084 OA 
BRANCH  13  14
HETATM   14  C   UNL     1      -5.904  10.310  67.575  1.00  0.00    -0.045 A  
HETATM   15  C   UNL     1      -5.530  10.855  68.807  1.00  0.00    -0.040 A  
HETATM   16  C   UNL     1      -5.647  10.101  69.983  1.00  0.00    -0.046 A  
HETATM   17  C   UNL     1      -6.149   8.795  69.940  1.00  0.00    -0.034 A  
HETATM   18  C   UNL     1      -6.621   8.291  68.721  1.00  0.00    -0.054 A  
HETATM   19  C   UNL     1      -6.463   9.032  67.543  1.00  0.00    -0.064 A  
BRANCH  17  20
HETATM   20  C   UNL     1      -6.128   7.964  71.187  1.00  0.00    -0.034 C  
HETATM   21  O   UNL     1      -5.133   7.281  71.416  1.00  0.00    -0.026 OA 
BRANCH  20  22
HETATM   22  C   UNL     1      -7.304   7.957  72.060  1.00  0.00    -0.088 A  
HETATM   23  C   UNL     1      -7.455   8.710  73.224  1.00  0.00     0.120 A  
HETATM   24  C   UNL     1     -10.228   5.550  71.393  1.00  0.00    -0.215 A  
HETATM   25  O   UNL     1      -8.680   8.473  73.779  1.00  0.00    -0.263 OA 
HETATM   26  C   UNL     1     -10.998   5.961  72.478  1.00  0.00    -0.307 A  
HETATM   27  C   UNL     1      -9.290   7.514  73.046  1.00  0.00    -0.191 A  
HETATM   28  C   UNL     1      -8.485   7.130  71.982  1.00  0.00    -0.113 A  
HETATM   29  C   UNL     1     -10.531   6.956  73.341  1.00  0.00    -0.360 A  
HETATM   30  C   UNL     1      -8.958   6.088  71.159  1.00  0.00    -0.142 A  
BRANCH  23  31
HETATM   31  C   UNL     1      -6.590   9.575  74.079  1.00  0.00     0.679 C  
BRANCH  31  32
HETATM   32  C   UNL     1      -5.207   9.953  73.551  1.00  0.00     0.056 C  
BRANCH  32  33
HETATM   33  C   UNL     1      -5.359  11.223  72.696  1.00  0.00     0.704 C  
HETATM   34  C   UNL     1      -5.156  12.519  73.459  1.00  0.00     0.337 C  
ENDBRANCH  32  33
ENDBRANCH  31  32
ENDBRANCH  23  31
BRANCH  24  35
HETATM   35  N   UNL     1     -10.713   4.554  70.495  1.00  0.00     0.428 N  
HETATM   36  H   UNL     1     -11.709   4.470  70.293  1.00  0.00     0.000 HD 
BRANCH  35  37
HETATM   37  S   UNL     1      -9.590   3.519  69.775  1.00  0.00    -0.058 S  
HETATM   38  C   UNL     1      -9.911   1.999  70.646  1.00  0.00     0.086 C  
HETATM   39  O   UNL     1      -9.901   3.346  68.375  1.00  0.00    -0.043 OA 
HETATM   40  O   UNL     1      -8.294   4.003  70.203  1.00  0.00    -0.060 OA 
ENDBRANCH  35  37
ENDBRANCH  24  35
ENDBRANCH  20  22
ENDBRANCH  17  20
ENDBRANCH  13  14
ENDBRANCH  12  13
ENDBRANCH  11  12
ENDBRANCH  10  11
ENDBRANCH   5  10
ENDBRANCH   4   5
ENDBRANCH   3   4
ENDBRANCH   2   3
TORSDOF 18
ENDMDL
MODEL      249
REMARK 921   NORMALIZED FREE ENERGY PREDICTED BY IDOCK:    1.66 KCAL/MOL
REMARK 922        TOTAL FREE ENERGY PREDICTED BY IDOCK:    0.70 KCAL/MOL
REMARK 923 INTER-LIGAND FREE ENERGY PREDICTED BY IDOCK:   -4.70 KCAL/MOL
REMARK 924 INTRA-LIGAND FREE ENERGY PREDICTED BY IDOCK:    5.40 KCAL/MOL
REMARK 927      BINDING AFFINITY PREDICTED BY RF-SCORE:    0.00 PKD
ROOT
HETATM    1  C   UNL     1      -6.649   7.658  70.288  1.00  0.00    -0.038 C  
HETATM    2  C   UNL     1      -8.133   7.857  70.567  1.00  0.00    -0.109 C  
ENDROOT
BRANCH   2   3
HETATM    3  C   UNL     1      -8.855   6.510  70.582  1.00  0.00    -0.144 C  
BRANCH   3   4
HETATM    4  C   UNL     1      -9.905   6.360  71.693  1.00  0.00    -0.167 C  
BRANCH   4   5
HETATM    5  N   UNL     1     -11.338   6.298  71.307  1.00  0.00    -0.297 NA 
BRANCH   5   6
HETATM    6  C   UNL     1     -12.135   7.292  72.063  1.00  0.00    -0.290 C  
BRANCH   6   7
HETATM    7  C   UNL     1     -11.832   8.779  71.793  1.00  0.00    -0.414 C  
BRANCH   7   8
HETATM    8  C   UNL     1     -13.066   9.635  71.502  1.00  0.00    -0.488 C  
HETATM    9  C   UNL     1     -12.755  11.114  71.700  1.00  0.00    -0.466 C  
ENDBRANCH   7   8
ENDBRANCH   6   7
ENDBRANCH   5   6
BRANCH   5  10
HETATM   10  C   UNL     1     -11.462   6.528  69.845  1.00  0.00    -0.403 C  
BRANCH  10  11
HETATM   11  C   UNL     1     -10.569   5.642  68.964  1.00  0.00    -0.316 C  
BRANCH  11  12
HETATM   12  C   UNL     1     -10.013   6.426  67.781  1.00  0.00    -0.128 C  
BRANCH  12  13
HETATM   13  O   UNL     1     -11.022   7.303  67.273  1.00  0.00    -0.293 OA 
BRANCH  13  14
HETATM   14  C   UNL     1     -10.634   8.600  67.061  1.00  0.00    -0.223 A  
HETATM   15  C   UNL     1     -11.376   9.581  66.397  1.00  0.00     1.618 A  
HETATM   16  C   UNL     1     -10.833  10.854  66.172  1.00  0.00    -0.166 A  
HETATM   17  C   UNL     1      -9.542  11.161  66.619  1.00  0.00    -0.215 A  
HETATM   18  C   UNL     1      -8.843  10.211  67.373  1.00  0.00    -0.135 A  
HETATM   19  C   UNL     1      -9.372   8.928  67.559  1.00  0.00    -0.160 A  
BRANCH  17  20
HETATM   20  C   UNL     1      -8.933  12.477  66.239  1.00  0.00    -0.003 C  
HETATM   21  O   UNL     1      -9.277  12.995  65.180  1.00  0.00     0.417 OA 
BRANCH  20  22
HETATM   22  C   UNL     1      -7.921  13.073  67.114  1.00  0.00    -0.095 A  
HETATM   23  C   UNL     1      -6.718  12.475  67.489  1.00  0.00    -0.151 A  
HETATM   24  C   UNL     1      -8.551  16.464  68.816  1.00  0.00    -0.250 A  
HETATM   25  O   UNL     1      -6.008  13.318  68.296  1.00  0.00    -0.072 OA 
HETATM   26  C   UNL     1      -7.331  16.513  69.486  1.00  0.00    -0.001 A  
HETATM   27  C   UNL     1      -6.768  14.413  68.523  1.00  0.00    -0.097 A  
HETATM   28  C   UNL     1      -7.974  14.317  67.844  1.00  0.00    -0.156 A  
HETATM   29  C   UNL     1      -6.410  15.470  69.357  1.00  0.00    -0.138 A  
HETATM   30  C   UNL     1      -8.905  15.359  68.032  1.00  0.00    -0.165 A  
BRANCH  23  31
HETATM   31  C   UNL     1      -6.087  11.129  67.360  1.00  0.00    -0.061 C  
BRANCH  31  32
HETATM   32  C   UNL     1      -6.930   9.992  66.783  1.00  0.00    -0.089 C  
BRANCH  32  33
HETATM   33  C   UNL     1      -5.968   8.915  66.250  1.00  0.00    -0.059 C  
HETATM   34  C   UNL     1      -5.129   8.242  67.321  1.00  0.00    -0.032 C  
ENDBRANCH  32  33
ENDBRANCH  31  32
ENDBRANCH  23  31
BRANCH  24  35
HETATM   35  N   UNL     1      -9.481  17.539  68.922  1.00  0.00    -0.232 N  
HETATM   36  H   UNL     1     -10.449  17.371  69.195  1.00  0.00     0.000 HD 
BRANCH  35  37
HETATM   37  S   UNL     1      -8.933  19.100  68.582  1.00  0.00    -0.352 S  
HETATM   38  C   UNL     1      -7.647  19.289  69.800  1.00  0.00     0.288 C  
HETATM   39  O   UNL     1      -8.353  19.144  67.260  1.00  0.00    -0.271 OA 
HETATM   40  O   UNL     1     -10.022  19.978  68.956  1.00  0.00    -0.344 OA 
ENDBRANCH  35  37
ENDBRANCH  24  35
ENDBRANCH  20  22
ENDBRANCH  17  20
ENDBRANCH  13  14
ENDBRANCH  12  13
ENDBRANCH  11  12
ENDBRANCH  10  11
ENDBRANCH   5  10
ENDBRANCH   4   5
ENDBRANCH   3   4
ENDBRANCH   2   3
TORSDOF 18
ENDMDL
MODEL      250
REMARK 921   NORMALIZED FREE ENERGY PREDICTED BY IDOCK:    1.68 KCAL/MOL
REMARK 922        TOTAL FREE ENERGY PREDICTED BY IDOCK:    0.73 KCAL/MOL
REMARK 923 INTER-LIGAND FREE ENERGY PREDICTED BY IDOCK:   -3.21 KCAL/MOL
REMARK 924 INTRA-LIGAND FREE ENERGY PREDICTED BY IDOCK:    3.94 KCAL/MOL
REMARK 927      BINDING AFFINITY PREDICTED BY RF-SCORE:    0.00 PKD
ROOT
HETATM    1  C   UNL     1      -9.256  16.461  68.060  1.00  0.00    -0.204 C  
HETATM    2  C   UNL     1     -10.762  16.380  68.270  1.00  0.00    -0.337 C  
ENDROOT
BRANCH   2   3
HETATM    3  C   UNL     1     -11.217  14.921  68.293  1.00  0.00    -0.306 C  
BRANCH   3   4
HETATM    4  C   UNL     1     -11.454  14.304  66.906  1.00  0.00    -0.363 C  
BRANCH   4   5
HETATM    5  N   UNL     1     -10.277  14.042  66.039  1.00  0.00    -0.295 NA 
BRANCH   5   6
HETATM    6  C   UNL     1     -10.686  13.404  64.766  1.00  0.00    -0.390 C  
BRANCH   6   7
HETATM    7  C   UNL     1     -11.416  12.050  64.869  1.00  0.00    -0.352 C  
BRANCH   7   8
HETATM    8  C   UNL     1     -12.912  12.110  64.552  1.00  0.00     0.027 C  
HETATM    9  C   UNL     1     -13.267  13.429  63.876  1.00  0.00     1.204 C  
ENDBRANCH   7   8
ENDBRANCH   6   7
ENDBRANCH   5   6
BRANCH   5  10
HETATM   10  C   UNL     1      -9.565  15.319  65.780  1.00  0.00    -0.324 C  
BRANCH  10  11
HETATM   11  C   UNL     1      -8.081  15.333  66.176  1.00  0.00     0.801 C  
BRANCH  11  12
HETATM   12  C   UNL     1      -7.775  14.249  67.203  1.00  0.00    -0.017 C  
BRANCH  12  13
HETATM   13  O   UNL     1      -8.543  13.080  66.905  1.00  0.00    -0.194 OA 
BRANCH  13  14
HETATM   14  C   UNL     1      -8.079  11.908  67.443  1.00  0.00    -0.165 A  
HETATM   15  C   UNL     1      -7.696  11.710  68.773  1.00  0.00    -0.111 A  
HETATM   16  C   UNL     1      -7.158  10.482  69.183  1.00  0.00    -0.089 A  
HETATM   17  C   UNL     1      -7.007   9.434  68.266  1.00  0.00    -0.071 A  
HETATM   18  C   UNL     1      -7.489   9.601  66.962  1.00  0.00    -0.091 A  
HETATM   19  C   UNL     1      -7.986  10.843  66.547  1.00  0.00    -0.152 A  
BRANCH  17  20
HETATM   20  C   UNL     1      -6.299   8.185  68.696  1.00  0.00    -0.053 C  
HETATM   21  O   UNL     1      -5.128   8.273  69.056  1.00  0.00    -0.026 OA 
BRANCH  20  22
HETATM   22  C   UNL     1      -7.007   6.905  68.629  1.00  0.00    -0.076 A  
HETATM   23  C   UNL     1      -6.878   5.959  67.612  1.00  0.00    -0.060 A  
HETATM   24  C   UNL     1      -9.667   5.994  71.253  1.00  0.00    -0.172 A  
HETATM   25  O   UNL     1      -7.668   4.877  67.877  1.00  0.00    -0.082 OA 
HETATM   26  C   UNL     1      -9.982   4.752  70.707  1.00  0.00    -0.291 A  
HETATM   27  C   UNL     1      -8.374   5.143  69.000  1.00  0.00    -0.087 A  
HETATM   28  C   UNL     1      -8.034   6.391  69.503  1.00  0.00    -0.113 A  
HETATM   29  C   UNL     1      -9.340   4.303  69.549  1.00  0.00    -0.232 A  
HETATM   30  C   UNL     1      -8.734   6.839  70.641  1.00  0.00    -0.143 A  
BRANCH  23  31
HETATM   31  C   UNL     1      -6.229   5.887  66.270  1.00  0.00    -0.037 C  
BRANCH  31  32
HETATM   32  C   UNL     1      -7.025   6.373  65.060  1.00  0.00    -0.052 C  
BRANCH  32  33
HETATM   33  C   UNL     1      -6.300   7.601  64.481  1.00  0.00    -0.044 C  
HETATM   34  C   UNL     1      -6.630   7.894  63.029  1.00  0.00    -0.080 C  
ENDBRANCH  32  33
ENDBRANCH  31  32
ENDBRANCH  23  31
BRANCH  24  35
HETATM   35  N   UNL     1     -10.300   6.442  72.449  1.00  0.00    -0.187 N  
HETATM   36  H   UNL     1      -9.751   6.684  73.274  1.00  0.00     0.000 HD 
BRANCH  35  37
HETATM   37  S   UNL     1     -11.984   6.562  72.460  1.00  0.00     0.018 S  
HETATM   38  C   UNL     1     -12.327   6.793  70.728  1.00  0.00    -0.232 C  
HETATM   39  O   UNL     1     -12.566   5.316  72.903  1.00  0.00     0.091 OA 
HETATM   40  O   UNL     1     -12.275   7.809  73.134  1.00  0.00     0.074 OA 
ENDBRANCH  35  37
ENDBRANCH  24  35
ENDBRANCH  20  22
ENDBRANCH  17  20
ENDBRANCH  13  14
ENDBRANCH  12  13
ENDBRANCH  11  12
ENDBRANCH  10  11
ENDBRANCH   5  10
ENDBRANCH   4   5
ENDBRANCH   3   4
ENDBRANCH   2   3
TORSDOF 18
ENDMDL
MODEL      251
REMARK 921   NORMALIZED FREE ENERGY PREDICTED BY IDOCK:    2.25 KCAL/MOL
REMARK 922        TOTAL FREE ENERGY PREDICTED BY IDOCK:    1.90 KCAL/MOL
REMARK 923 INTER-LIGAND FREE ENERGY PREDICTED BY IDOCK:   -0.34 KCAL/MOL
REMARK 924 INTRA-LIGAND FREE ENERGY PREDICTED BY IDOCK:    2.24 KCAL/MOL
REMARK 927      BINDING AFFINITY PREDICTED BY RF-SCORE:    0.00 PKD
ROOT
HETATM    1  C   UNL     1      -8.957   6.014  66.627  1.00  0.00    -0.129 C  
HETATM    2  C   UNL     1      -9.513   6.965  65.575  1.00  0.00     0.531 C  
ENDROOT
BRANCH   2   3
HETATM    3  C   UNL     1      -9.807   8.329  66.197  1.00  0.00    -0.138 C  
BRANCH   3   4
HETATM    4  C   UNL     1     -11.124   8.404  66.983  1.00  0.00     0.579 C  
BRANCH   4   5
HETATM    5  N   UNL     1     -11.387   9.609  67.810  1.00  0.00     0.099 NA 
BRANCH   5   6
HETATM    6  C   UNL     1     -11.555   9.249  69.237  1.00  0.00     0.493 C  
BRANCH   6   7
HETATM    7  C   UNL     1     -11.926  10.390  70.204  1.00  0.00    -0.357 C  
BRANCH   7   8
HETATM    8  C   UNL     1     -11.940   9.990  71.681  1.00  0.00    -0.369 C  
HETATM    9  C   UNL     1     -12.757   8.721  71.889  1.00  0.00    -0.427 C  
ENDBRANCH   7   8
ENDBRANCH   6   7
ENDBRANCH   5   6
BRANCH   5  10
HETATM   10  C   UNL     1     -10.269  10.572  67.641  1.00  0.00    -0.197 C  
BRANCH  10  11
HETATM   11  C   UNL     1      -9.175  10.501  68.716  1.00  0.00    -0.177 C  
BRANCH  11  12
HETATM   12  C   UNL     1      -7.897   9.881  68.160  1.00  0.00    -0.085 C  
BRANCH  12  13
HETATM   13  O   UNL     1      -6.766  10.623  68.624  1.00  0.00    -0.055 OA 
BRANCH  13  14
HETATM   14  C   UNL     1      -6.663  11.907  68.158  1.00  0.00    -0.062 A  
HETATM   15  C   UNL     1      -6.006  12.307  66.991  1.00  0.00    -0.044 A  
HETATM   16  C   UNL     1      -5.900  13.667  66.664  1.00  0.00     2.502 A  
HETATM   17  C   UNL     1      -6.462  14.641  67.499  1.00  0.00    -0.079 A  
HETATM   18  C   UNL     1      -7.209  14.231  68.610  1.00  0.00    -0.125 A  
HETATM   19  C   UNL     1      -7.276  12.876  68.955  1.00  0.00    -0.042 A  
BRANCH  17  20
HETATM   20  C   UNL     1      -6.210  16.088  67.202  1.00  0.00    -0.044 C  
HETATM   21  O   UNL     1      -5.138  16.402  66.693  1.00  0.00    -0.339 OA 
BRANCH  20  22
HETATM   22  C   UNL     1      -7.225  17.079  67.569  1.00  0.00    -0.173 A  
HETATM   23  C   UNL     1      -7.055  18.463  67.545  1.00  0.00    -0.205 A  
HETATM   24  C   UNL     1     -10.629  15.970  68.977  1.00  0.00    -0.257 A  
HETATM   25  O   UNL     1      -8.209  19.083  67.932  1.00  0.00    -0.268 OA 
HETATM   26  C   UNL     1     -11.137  17.256  69.142  1.00  0.00     0.331 A  
HETATM   27  C   UNL     1      -9.094  18.126  68.292  1.00  0.00    -0.300 A  
HETATM   28  C   UNL     1      -8.543  16.864  68.118  1.00  0.00    -0.221 A  
HETATM   29  C   UNL     1     -10.364  18.372  68.808  1.00  0.00    -0.230 A  
HETATM   30  C   UNL     1      -9.326  15.760  68.512  1.00  0.00    -0.198 A  
BRANCH  23  31
HETATM   31  C   UNL     1      -5.923  19.416  67.352  1.00  0.00    -0.196 C  
BRANCH  31  32
HETATM   32  C   UNL     1      -5.216  19.953  68.595  1.00  0.00    -0.211 C  
BRANCH  32  33
HETATM   33  C   UNL     1      -6.291  20.272  69.649  1.00  0.00    -0.317 C  
HETATM   34  C   UNL     1      -5.878  19.962  71.076  1.00  0.00    -0.312 C  
ENDBRANCH  32  33
ENDBRANCH  31  32
ENDBRANCH  23  31
BRANCH  24  35
HETATM   35  N   UNL     1     -11.424  14.830  69.290  1.00  0.00    -0.279 N  
HETATM   36  H   UNL     1     -11.579  14.547  70.258  1.00  0.00     0.000 HD 
BRANCH  35  37
HETATM   37  S   UNL     1     -12.103  13.960  68.012  1.00  0.00    -0.182 S  
HETATM   38  C   UNL     1     -10.647  13.485  67.103  1.00  0.00    -0.264 C  
HETATM   39  O   UNL     1     -12.764  12.777  68.513  1.00  0.00     0.553 OA 
HETATM   40  O   UNL     1     -12.815  14.939  67.218  1.00  0.00     0.851 OA 
ENDBRANCH  35  37
ENDBRANCH  24  35
ENDBRANCH  20  22
ENDBRANCH  17  20
ENDBRANCH  13  14
ENDBRANCH  12  13
ENDBRANCH  11  12
ENDBRANCH  10  11
ENDBRANCH   5  10
ENDBRANCH   4   5
ENDBRANCH   3   4
ENDBRANCH   2   3
TORSDOF 18
ENDMDL
MODEL      252
REMARK 921   NORMALIZED FREE ENERGY PREDICTED BY IDOCK:    2.35 KCAL/MOL
REMARK 922        TOTAL FREE ENERGY PREDICTED BY IDOCK:    2.10 KCAL/MOL
REMARK 923 INTER-LIGAND FREE ENERGY PREDICTED BY IDOCK:   -0.56 KCAL/MOL
REMARK 924 INTRA-LIGAND FREE ENERGY PREDICTED BY IDOCK:    2.66 KCAL/MOL
REMARK 927      BINDING AFFINITY PREDICTED BY RF-SCORE:    0.00 PKD
ROOT
HETATM    1  C   UNL     1     -12.529  10.490  68.855  1.00  0.00     0.730 C  
HETATM    2  C   UNL     1     -12.155  10.773  67.406  1.00  0.00     1.452 C  
ENDROOT
BRANCH   2   3
HETATM    3  C   UNL     1     -10.931  11.687  67.343  1.00  0.00    -0.313 C  
BRANCH   3   4
HETATM    4  C   UNL     1      -9.998  11.589  68.560  1.00  0.00    -0.204 C  
BRANCH   4   5
HETATM    5  N   UNL     1      -9.413  10.266  68.896  1.00  0.00    -0.178 NA 
BRANCH   5   6
HETATM    6  C   UNL     1     -10.216   9.166  68.314  1.00  0.00    -0.206 C  
BRANCH   6   7
HETATM    7  C   UNL     1      -9.895   7.738  68.797  1.00  0.00    -0.171 C  
BRANCH   7   8
HETATM    8  C   UNL     1      -9.490   6.768  67.685  1.00  0.00    -0.126 C  
HETATM    9  C   UNL     1     -10.689   5.953  67.217  1.00  0.00    -0.380 C  
ENDBRANCH   7   8
ENDBRANCH   6   7
ENDBRANCH   5   6
BRANCH   5  10
HETATM   10  C   UNL     1      -8.013  10.210  68.404  1.00  0.00    -0.102 C  
BRANCH  10  11
HETATM   11  C   UNL     1      -7.253  11.545  68.436  1.00  0.00    -0.089 C  
BRANCH  11  12
HETATM   12  C   UNL     1      -6.916  11.951  69.866  1.00  0.00     0.373 C  
BRANCH  12  13
HETATM   13  O   UNL     1      -5.777  11.212  70.315  1.00  0.00    -0.097 OA 
BRANCH  13  14
HETATM   14  C   UNL     1      -6.038  10.178  71.175  1.00  0.00     0.047 A  
HETATM   15  C   UNL     1      -5.126   9.593  72.057  1.00  0.00    -0.077 A  
HETATM   16  C   UNL     1      -5.495   8.483  72.830  1.00  0.00    -0.061 A  
HETATM   17  C   UNL     1      -6.787   7.952  72.734  1.00  0.00    -0.089 A  
HETATM   18  C   UNL     1      -7.729   8.604  71.929  1.00  0.00    -0.111 A  
HETATM   19  C   UNL     1      -7.343   9.686  71.128  1.00  0.00     0.221 A  
BRANCH  17  20
HETATM   20  C   UNL     1      -7.109   6.681  73.461  1.00  0.00    -0.076 C  
HETATM   21  O   UNL     1      -6.448   6.395  74.456  1.00  0.00    -0.073 OA 
BRANCH  20  22
HETATM   22  C   UNL     1      -8.160   5.807  72.937  1.00  0.00    -0.115 A  
HETATM   23  C   UNL     1      -7.967   4.529  72.413  1.00  0.00    -0.094 A  
HETATM   24  C   UNL     1     -11.791   7.047  72.671  1.00  0.00    -0.033 A  
HETATM   25  O   UNL     1      -9.164   3.992  72.035  1.00  0.00    -0.116 OA 
HETATM   26  C   UNL     1     -12.302   5.869  72.130  1.00  0.00     0.076 A  
HETATM   27  C   UNL     1     -10.118   4.933  72.220  1.00  0.00    -0.191 A  
HETATM   28  C   UNL     1      -9.564   6.089  72.751  1.00  0.00    -0.161 A  
HETATM   29  C   UNL     1     -11.461   4.781  71.883  1.00  0.00     0.686 A  
HETATM   30  C   UNL     1     -10.425   7.188  72.942  1.00  0.00    -0.303 A  
BRANCH  23  31
HETATM   31  C   UNL     1      -6.804   3.674  72.034  1.00  0.00    -0.023 C  
BRANCH  31  32
HETATM   32  C   UNL     1      -6.104   3.961  70.706  1.00  0.00    -0.018 C  
BRANCH  32  33
HETATM   33  C   UNL     1      -6.605   2.932  69.677  1.00  0.00    -0.033 C  
HETATM   34  C   UNL     1      -7.604   3.485  68.677  1.00  0.00    -0.053 C  
ENDBRANCH  32  33
ENDBRANCH  31  32
ENDBRANCH  23  31
BRANCH  24  35
HETATM   35  N   UNL     1     -12.650   8.149  72.951  1.00  0.00    -0.547 N  
HETATM   36  H   UNL     1     -12.946   8.355  73.905  1.00  0.00     0.000 HD 
BRANCH  35  37
HETATM   37  S   UNL     1     -13.165   9.104  71.657  1.00  0.00    -0.387 S  
HETATM   38  C   UNL     1     -11.756  10.170  71.430  1.00  0.00    -0.290 C  
HETATM   39  O   UNL     1     -13.345   8.288  70.479  1.00  0.00     0.584 OA 
HETATM   40  O   UNL     1     -14.245   9.913  72.184  1.00  0.00    -0.012 OA 
ENDBRANCH  35  37
ENDBRANCH  24  35
ENDBRANCH  20  22
ENDBRANCH  17  20
ENDBRANCH  13  14
ENDBRANCH  12  13
ENDBRANCH  11  12
ENDBRANCH  10  11
ENDBRANCH   5  10
ENDBRANCH   4   5
ENDBRANCH   3   4
ENDBRANCH   2   3
TORSDOF 18
ENDMDL
MODEL      253
REMARK 921   NORMALIZED FREE ENERGY PREDICTED BY IDOCK:    2.88 KCAL/MOL
REMARK 922        TOTAL FREE ENERGY PREDICTED BY IDOCK:    3.19 KCAL/MOL
REMARK 923 INTER-LIGAND FREE ENERGY PREDICTED BY IDOCK:   -3.70 KCAL/MOL
REMARK 924 INTRA-LIGAND FREE ENERGY PREDICTED BY IDOCK:    6.89 KCAL/MOL
REMARK 927      BINDING AFFINITY PREDICTED BY RF-SCORE:    0.00 PKD
ROOT
HETATM    1  C   UNL     1     -10.553   8.278  70.285  1.00  0.00    -0.230 C  
HETATM    2  C   UNL     1      -9.038   8.162  70.397  1.00  0.00    -0.150 C  
ENDROOT
BRANCH   2   3
HETATM    3  C   UNL     1      -8.369   8.717  69.140  1.00  0.00    -0.119 C  
BRANCH   3   4
HETATM    4  C   UNL     1      -9.309   8.882  67.936  1.00  0.00    -0.141 C  
BRANCH   4   5
HETATM    5  N   UNL     1      -8.730   8.801  66.571  1.00  0.00    -0.116 NA 
BRANCH   5   6
HETATM    6  C   UNL     1      -9.780   8.525  65.564  1.00  0.00     0.382 C  
BRANCH   6   7
HETATM    7  C   UNL     1     -10.329   7.086  65.505  1.00  0.00     2.266 C  
BRANCH   7   8
HETATM    8  C   UNL     1      -9.955   6.215  66.706  1.00  0.00    -0.218 C  
HETATM    9  C   UNL     1     -10.295   4.754  66.440  1.00  0.00    -0.312 C  
ENDBRANCH   7   8
ENDBRANCH   6   7
ENDBRANCH   5   6
BRANCH   5  10
HETATM   10  C   UNL     1      -8.026  10.071  66.261  1.00  0.00    -0.111 C  
BRANCH  10  11
HETATM   11  C   UNL     1      -7.240  10.079  64.942  1.00  0.00    -0.140 C  
BRANCH  11  12
HETATM   12  C   UNL     1      -5.763   9.782  65.180  1.00  0.00    -0.074 C  
BRANCH  12  13
HETATM   13  O   UNL     1      -5.134  10.928  65.760  1.00  0.00    -0.102 OA 
BRANCH  13  14
HETATM   14  C   UNL     1      -5.952  11.754  66.486  1.00  0.00     0.061 A  
HETATM   15  C   UNL     1      -7.327  11.591  66.672  1.00  0.00    -0.069 A  
HETATM   16  C   UNL     1      -8.070  12.553  67.371  1.00  0.00    -0.180 A  
HETATM   17  C   UNL     1      -7.439  13.685  67.901  1.00  0.00    -0.158 A  
HETATM   18  C   UNL     1      -6.047  13.792  67.805  1.00  0.00    -0.140 A  
HETATM   19  C   UNL     1      -5.316  12.851  67.069  1.00  0.00     0.417 A  
BRANCH  17  20
HETATM   20  C   UNL     1      -8.277  14.765  68.517  1.00  0.00    -0.153 C  
HETATM   21  O   UNL     1      -8.577  14.666  69.704  1.00  0.00     0.104 OA 
BRANCH  20  22
HETATM   22  C   UNL     1      -8.747  15.869  67.677  1.00  0.00    -0.174 A  
HETATM   23  C   UNL     1      -8.392  17.210  67.825  1.00  0.00    -0.202 A  
HETATM   24  C   UNL     1     -11.372  15.266  64.932  1.00  0.00    -0.384 A  
HETATM   25  O   UNL     1      -8.999  17.963  66.862  1.00  0.00    -0.244 OA 
HETATM   26  C   UNL     1     -11.432  16.590  64.502  1.00  0.00     0.052 A  
HETATM   27  C   UNL     1      -9.810  17.151  66.147  1.00  0.00    -0.262 A  
HETATM   28  C   UNL     1      -9.724  15.847  66.614  1.00  0.00    -0.270 A  
HETATM   29  C   UNL     1     -10.649  17.570  65.118  1.00  0.00     0.275 A  
HETATM   30  C   UNL     1     -10.563  14.889  66.009  1.00  0.00    -0.321 A  
BRANCH  23  31
HETATM   31  C   UNL     1      -7.656  18.035  68.827  1.00  0.00    -0.277 C  
BRANCH  31  32
HETATM   32  C   UNL     1      -6.240  18.493  68.479  1.00  0.00    -0.211 C  
BRANCH  32  33
HETATM   33  C   UNL     1      -6.345  19.531  67.348  1.00  0.00    -0.207 C  
HETATM   34  C   UNL     1      -5.911  20.931  67.742  1.00  0.00    -0.353 C  
ENDBRANCH  32  33
ENDBRANCH  31  32
ENDBRANCH  23  31
BRANCH  24  35
HETATM   35  N   UNL     1     -12.148  14.259  64.287  1.00  0.00    -0.604 N  
HETATM   36  H   UNL     1     -12.713  14.476  63.466  1.00  0.00     0.000 HD 
BRANCH  35  37
HETATM   37  S   UNL     1     -12.105  12.695  64.923  1.00  0.00    -0.454 S  
HETATM   38  C   UNL     1     -12.339  13.019  66.658  1.00  0.00    -0.061 C  
HETATM   39  O   UNL     1     -13.220  11.925  64.423  1.00  0.00    -0.545 OA 
HETATM   40  O   UNL     1     -10.740  12.246  64.742  1.00  0.00    -0.277 OA 
ENDBRANCH  35  37
ENDBRANCH  24  35
ENDBRANCH  20  22
ENDBRANCH  17  20
ENDBRANCH  13  14
ENDBRANCH  12  13
ENDBRANCH  11  12
ENDBRANCH  10  11
ENDBRANCH   5  10
ENDBRANCH   4   5
ENDBRANCH   3   4
ENDBRANCH   2   3
TORSDOF 18
ENDMDL
MODEL      254
REMARK 921   NORMALIZED FREE ENERGY PREDICTED BY IDOCK:    3.80 KCAL/MOL
REMARK 922        TOTAL FREE ENERGY PREDICTED BY IDOCK:    5.07 KCAL/MOL
REMARK 923 INTER-LIGAND FREE ENERGY PREDICTED BY IDOCK:    3.95 KCAL/MOL
REMARK 924 INTRA-LIGAND FREE ENERGY PREDICTED BY IDOCK:    1.13 KCAL/MOL
REMARK 927      BINDING AFFINITY PREDICTED BY RF-SCORE:    0.00 PKD
ROOT
HETATM    1  C   UNL     1      -7.535  10.283  72.738  1.00  0.00     5.098 C  
HETATM    2  C   UNL     1      -6.720   9.337  71.865  1.00  0.00     0.191 C  
ENDROOT
BRANCH   2   3
HETATM    3  C   UNL     1      -7.517   8.949  70.619  1.00  0.00    -0.091 C  
BRANCH   3   4
HETATM    4  C   UNL     1      -7.946  10.134  69.741  1.00  0.00    -0.161 C  
BRANCH   4   5
HETATM    5  N   UNL     1      -6.948  11.194  69.448  1.00  0.00    -0.123 NA 
BRANCH   5   6
HETATM    6  C   UNL     1      -5.647  10.606  69.055  1.00  0.00    -0.040 C  
BRANCH   6   7
HETATM    7  C   UNL     1      -5.163   9.384  69.860  1.00  0.00    -0.033 C  
BRANCH   7   8
HETATM    8  C   UNL     1      -5.145   8.072  69.072  1.00  0.00    -0.023 C  
HETATM    9  C   UNL     1      -5.903   8.221  67.759  1.00  0.00    -0.043 C  
ENDBRANCH   7   8
ENDBRANCH   6   7
ENDBRANCH   5   6
BRANCH   5  10
HETATM   10  C   UNL     1      -7.471  12.077  68.374  1.00  0.00    -0.110 C  
BRANCH  10  11
HETATM   11  C   UNL     1      -8.732  11.565  67.663  1.00  0.00    -0.142 C  
BRANCH  11  12
HETATM   12  C   UNL     1      -9.982  12.259  68.193  1.00  0.00    -0.210 C  
BRANCH  12  13
HETATM   13  O   UNL     1     -11.144  11.544  67.764  1.00  0.00    -0.224 OA 
BRANCH  13  14
HETATM   14  C   UNL     1     -11.035  10.178  67.759  1.00  0.00    -0.277 A  
HETATM   15  C   UNL     1     -10.840   9.366  68.879  1.00  0.00    -0.151 A  
HETATM   16  C   UNL     1     -10.662   7.982  68.733  1.00  0.00    -0.078 A  
HETATM   17  C   UNL     1     -10.687   7.396  67.462  1.00  0.00    -0.310 A  
HETATM   18  C   UNL     1     -10.987   8.197  66.353  1.00  0.00     1.273 A  
HETATM   19  C   UNL     1     -11.122   9.583  66.499  1.00  0.00     0.567 A  
BRANCH  17  20
HETATM   20  C   UNL     1     -10.351   5.942  67.323  1.00  0.00    -0.226 C  
HETATM   21  O   UNL     1     -11.270   5.144  67.156  1.00  0.00     0.495 OA 
BRANCH  20  22
HETATM   22  C   UNL     1      -8.954   5.519  67.438  1.00  0.00    -0.107 A  
HETATM   23  C   UNL     1      -8.141   5.106  66.383  1.00  0.00    -0.108 A  
HETATM   24  C   UNL     1      -7.274   5.216  70.885  1.00  0.00    -0.064 A  
HETATM   25  O   UNL     1      -6.893   4.801  66.845  1.00  0.00    -0.053 OA 
HETATM   26  C   UNL     1      -6.038   4.792  70.401  1.00  0.00    -0.018 A  
HETATM   27  C   UNL     1      -6.908   4.921  68.192  1.00  0.00    -0.056 A  
HETATM   28  C   UNL     1      -8.158   5.336  68.629  1.00  0.00    -0.090 A  
HETATM   29  C   UNL     1      -5.834   4.625  69.029  1.00  0.00    -0.017 A  
HETATM   30  C   UNL     1      -8.351   5.446  70.021  1.00  0.00    -0.107 A  
BRANCH  23  31
HETATM   31  C   UNL     1      -8.318   4.781  64.937  1.00  0.00    -0.134 C  
BRANCH  31  32
HETATM   32  C   UNL     1      -8.865   3.402  64.573  1.00  0.00    -0.114 C  
BRANCH  32  33
HETATM   33  C   UNL     1      -8.251   2.379  65.545  1.00  0.00    -0.087 C  
HETATM   34  C   UNL     1      -6.912   1.820  65.100  1.00  0.00    -0.046 C  
ENDBRANCH  32  33
ENDBRANCH  31  32
ENDBRANCH  23  31
BRANCH  24  35
HETATM   35  N   UNL     1      -7.477   5.414  72.282  1.00  0.00    -0.094 N  
HETATM   36  H   UNL     1      -7.219   6.294  72.730  1.00  0.00     0.000 HD 
BRANCH  35  37
HETATM   37  S   UNL     1      -8.157   4.152  73.173  1.00  0.00    -0.090 S  
HETATM   38  C   UNL     1      -7.833   2.761  72.108  1.00  0.00    -0.054 C  
HETATM   39  O   UNL     1      -7.443   3.982  74.417  1.00  0.00    -0.071 OA 
HETATM   40  O   UNL     1      -9.585   4.395  73.152  1.00  0.00    -0.125 OA 
ENDBRANCH  35  37
ENDBRANCH  24  35
ENDBRANCH  20  22
ENDBRANCH  17  20
ENDBRANCH  13  14
ENDBRANCH  12  13
ENDBRANCH  11  12
ENDBRANCH  10  11
ENDBRANCH   5  10
ENDBRANCH   4   5
ENDBRANCH   3   4
ENDBRANCH   2   3
TORSDOF 18
ENDMDL
MODEL      255
REMARK 921   NORMALIZED FREE ENERGY PREDICTED BY IDOCK:    3.83 KCAL/MOL
REMARK 922        TOTAL FREE ENERGY PREDICTED BY IDOCK:    5.14 KCAL/MOL
REMARK 923 INTER-LIGAND FREE ENERGY PREDICTED BY IDOCK:   -2.21 KCAL/MOL
REMARK 924 INTRA-LIGAND FREE ENERGY PREDICTED BY IDOCK:    7.36 KCAL/MOL
REMARK 927      BINDING AFFINITY PREDICTED BY RF-SCORE:    0.00 PKD
ROOT
HETATM    1  C   UNL     1     -12.140  16.104  68.507  1.00  0.00     0.337 C  
HETATM    2  C   UNL     1     -11.355  16.408  69.777  1.00  0.00    -0.176 C  
ENDROOT
BRANCH   2   3
HETATM    3  C   UNL     1     -10.475  15.216  70.154  1.00  0.00    -0.192 C  
BRANCH   3   4
HETATM    4  C   UNL     1      -9.000  15.358  69.752  1.00  0.00    -0.031 C  
BRANCH   4   5
HETATM    5  N   UNL     1      -8.613  16.493  68.875  1.00  0.00    -0.247 NA 
BRANCH   5   6
HETATM    6  C   UNL     1      -9.220  17.759  69.345  1.00  0.00     0.375 C  
BRANCH   6   7
HETATM    7  C   UNL     1      -8.677  19.063  68.728  1.00  0.00    -0.351 C  
BRANCH   7   8
HETATM    8  C   UNL     1      -7.558  19.727  69.534  1.00  0.00     0.012 C  
HETATM    9  C   UNL     1      -6.196  19.201  69.099  1.00  0.00    -0.298 C  
ENDBRANCH   7   8
ENDBRANCH   6   7
ENDBRANCH   5   6
BRANCH   5  10
HETATM   10  C   UNL     1      -7.132  16.602  68.839  1.00  0.00    -0.205 C  
BRANCH  10  11
HETATM   11  C   UNL     1      -6.378  15.267  68.753  1.00  0.00    -0.094 C  
BRANCH  11  12
HETATM   12  C   UNL     1      -6.206  14.642  70.133  1.00  0.00    -0.165 C  
BRANCH  12  13
HETATM   13  O   UNL     1      -5.713  13.307  69.994  1.00  0.00    -0.107 OA 
BRANCH  13  14
HETATM   14  C   UNL     1      -6.628  12.373  69.587  1.00  0.00    -0.006 A  
HETATM   15  C   UNL     1      -6.407  10.996  69.488  1.00  0.00    -0.095 A  
HETATM   16  C   UNL     1      -7.403  10.151  68.977  1.00  0.00    -0.087 A  
HETATM   17  C   UNL     1      -8.636  10.675  68.569  1.00  0.00    -0.137 A  
HETATM   18  C   UNL     1      -8.891  12.038  68.767  1.00  0.00     0.079 A  
HETATM   19  C   UNL     1      -7.879  12.884  69.238  1.00  0.00     0.538 A  
BRANCH  17  20
HETATM   20  C   UNL     1      -9.625   9.773  67.895  1.00  0.00    -0.138 C  
HETATM   21  O   UNL     1     -10.252   8.975  68.587  1.00  0.00    -0.194 OA 
BRANCH  20  22
HETATM   22  C   UNL     1      -9.774   9.839  66.439  1.00  0.00    -0.275 A  
HETATM   23  C   UNL     1      -9.484   8.808  65.546  1.00  0.00    -0.026 A  
HETATM   24  C   UNL     1     -10.806  13.121  64.721  1.00  0.00    -0.352 A  
HETATM   25  O   UNL     1      -9.755   9.206  64.269  1.00  0.00     0.523 OA 
HETATM   26  C   UNL     1     -10.776  12.615  63.423  1.00  0.00    -0.220 A  
HETATM   27  C   UNL     1     -10.130  10.505  64.308  1.00  0.00    -0.310 A  
HETATM   28  C   UNL     1     -10.138  10.968  65.617  1.00  0.00    -0.310 A  
HETATM   29  C   UNL     1     -10.422  11.283  63.191  1.00  0.00    -0.293 A  
HETATM   30  C   UNL     1     -10.448  12.328  65.817  1.00  0.00    -0.287 A  
BRANCH  23  31
HETATM   31  C   UNL     1      -8.833   7.466  65.609  1.00  0.00    -0.056 C  
BRANCH  31  32
HETATM   32  C   UNL     1      -9.725   6.230  65.507  1.00  0.00     0.574 C  
BRANCH  32  33
HETATM   33  C   UNL     1     -11.016   6.513  66.295  1.00  0.00     0.579 C  
HETATM   34  C   UNL     1     -11.034   5.925  67.694  1.00  0.00    -0.247 C  
ENDBRANCH  32  33
ENDBRANCH  31  32
ENDBRANCH  23  31
BRANCH  24  35
HETATM   35  N   UNL     1     -11.193  14.471  64.964  1.00  0.00    -0.362 N  
HETATM   36  H   UNL     1     -11.958  14.900  64.443  1.00  0.00     0.000 HD 
BRANCH  35  37
HETATM   37  S   UNL     1     -10.348  15.340  66.139  1.00  0.00    -0.321 S  
HETATM   38  C   UNL     1     -11.517  16.626  66.527  1.00  0.00     0.866 C  
HETATM   39  O   UNL     1     -10.135  14.516  67.307  1.00  0.00    -0.244 OA 
HETATM   40  O   UNL     1      -9.239  15.953  65.439  1.00  0.00    -0.271 OA 
ENDBRANCH  35  37
ENDBRANCH  24  35
ENDBRANCH  20  22
ENDBRANCH  17  20
ENDBRANCH  13  14
ENDBRANCH  12  13
ENDBRANCH  11  12
ENDBRANCH  10  11
ENDBRANCH   5  10
ENDBRANCH   4   5
ENDBRANCH   3   4
ENDBRANCH   2   3
TORSDOF 18
ENDMDL
MODEL      256
REMARK 921   NORMALIZED FREE ENERGY PREDICTED BY IDOCK:    4.23 KCAL/MOL
REMARK 922        TOTAL FREE ENERGY PREDICTED BY IDOCK:    5.96 KCAL/MOL
REMARK 923 INTER-LIGAND FREE ENERGY PREDICTED BY IDOCK:    3.93 KCAL/MOL
REMARK 924 INTRA-LIGAND FREE ENERGY PREDICTED BY IDOCK:    2.03 KCAL/MOL
REMARK 927      BINDING AFFINITY PREDICTED BY RF-SCORE:    0.00 PKD
ROOT
HETATM    1  C   UNL     1     -11.570  20.825  65.570  1.00  0.00     2.805 C  
HETATM    2  C   UNL     1     -10.157  20.477  65.120  1.00  0.00     0.757 C  
ENDROOT
BRANCH   2   3
HETATM    3  C   UNL     1      -9.224  20.385  66.327  1.00  0.00    -0.222 C  
BRANCH   3   4
HETATM    4  C   UNL     1      -9.834  19.692  67.555  1.00  0.00    -0.378 C  
BRANCH   4   5
HETATM    5  N   UNL     1      -9.065  18.601  68.205  1.00  0.00    -0.304 NA 
BRANCH   5   6
HETATM    6  C   UNL     1      -9.971  17.563  68.749  1.00  0.00    -0.342 C  
BRANCH   6   7
HETATM    7  C   UNL     1     -10.344  16.401  67.807  1.00  0.00    -0.287 C  
BRANCH   7   8
HETATM    8  C   UNL     1      -9.216  15.397  67.562  1.00  0.00    -0.201 C  
HETATM    9  C   UNL     1      -9.430  14.656  66.248  1.00  0.00    -0.322 C  
ENDBRANCH   7   8
ENDBRANCH   6   7
ENDBRANCH   5   6
BRANCH   5  10
HETATM   10  C   UNL     1      -8.123  18.011  67.219  1.00  0.00    -0.210 C  
BRANCH  10  11
HETATM   11  C   UNL     1      -7.146  19.003  66.572  1.00  0.00    -0.234 C  
BRANCH  11  12
HETATM   12  C   UNL     1      -5.739  18.839  67.138  1.00  0.00    -0.144 C  
BRANCH  12  13
HETATM   13  O   UNL     1      -5.163  17.629  66.640  1.00  0.00    -0.134 OA 
BRANCH  13  14
HETATM   14  C   UNL     1      -5.530  16.481  67.291  1.00  0.00    -0.131 A  
HETATM   15  C   UNL     1      -5.491  15.188  66.761  1.00  0.00     1.658 A  
HETATM   16  C   UNL     1      -5.973  14.100  67.502  1.00  0.00     0.076 A  
HETATM   17  C   UNL     1      -6.490  14.294  68.789  1.00  0.00    -0.089 A  
HETATM   18  C   UNL     1      -6.430  15.573  69.357  1.00  0.00    -0.151 A  
HETATM   19  C   UNL     1      -5.988  16.662  68.596  1.00  0.00    -0.134 A  
BRANCH  17  20
HETATM   20  C   UNL     1      -7.129  13.140  69.500  1.00  0.00     0.263 C  
HETATM   21  O   UNL     1      -6.761  12.883  70.643  1.00  0.00     0.458 OA 
BRANCH  20  22
HETATM   22  C   UNL     1      -8.128  12.333  68.796  1.00  0.00     0.054 A  
HETATM   23  C   UNL     1      -7.890  11.552  67.665  1.00  0.00    -0.125 A  
HETATM   24  C   UNL     1     -11.826  12.435  69.847  1.00  0.00    -0.305 A  
HETATM   25  O   UNL     1      -9.039  10.921  67.282  1.00  0.00    -0.141 OA 
HETATM   26  C   UNL     1     -12.272  11.539  68.878  1.00  0.00    -0.128 A  
HETATM   27  C   UNL     1     -10.037  11.349  68.088  1.00  0.00    -0.189 A  
HETATM   28  C   UNL     1      -9.550  12.244  69.031  1.00  0.00     0.308 A  
HETATM   29  C   UNL     1     -11.374  10.981  67.963  1.00  0.00    -0.374 A  
HETATM   30  C   UNL     1     -10.485  12.830  69.907  1.00  0.00     1.247 A  
BRANCH  23  31
HETATM   31  C   UNL     1      -6.768  11.344  66.703  1.00  0.00    -0.112 C  
BRANCH  31  32
HETATM   32  C   UNL     1      -5.853  10.139  66.916  1.00  0.00    -0.051 C  
BRANCH  32  33
HETATM   33  C   UNL     1      -6.690   8.866  66.696  1.00  0.00    -0.072 C  
HETATM   34  C   UNL     1      -6.675   8.347  65.271  1.00  0.00    -0.056 C  
ENDBRANCH  32  33
ENDBRANCH  31  32
ENDBRANCH  23  31
BRANCH  24  35
HETATM   35  N   UNL     1     -12.733  12.984  70.799  1.00  0.00    -0.220 N  
HETATM   36  H   UNL     1     -13.539  12.449  71.126  1.00  0.00     0.000 HD 
BRANCH  35  37
HETATM   37  S   UNL     1     -12.437  14.545  71.371  1.00  0.00    -0.374 S  
HETATM   38  C   UNL     1     -11.093  14.251  72.502  1.00  0.00     2.387 C  
HETATM   39  O   UNL     1     -11.981  15.390  70.291  1.00  0.00    -0.304 OA 
HETATM   40  O   UNL     1     -13.602  14.893  72.157  1.00  0.00    -0.349 OA 
ENDBRANCH  35  37
ENDBRANCH  24  35
ENDBRANCH  20  22
ENDBRANCH  17  20
ENDBRANCH  13  14
ENDBRANCH  12  13
ENDBRANCH  11  12
ENDBRANCH  10  11
ENDBRANCH   5  10
ENDBRANCH   4   5
ENDBRANCH   3   4
ENDBRANCH   2   3
TORSDOF 18
ENDMDL
MODEL      257
REMARK 921   NORMALIZED FREE ENERGY PREDICTED BY IDOCK:    4.85 KCAL/MOL
REMARK 922        TOTAL FREE ENERGY PREDICTED BY IDOCK:    7.24 KCAL/MOL
REMARK 923 INTER-LIGAND FREE ENERGY PREDICTED BY IDOCK:    5.72 KCAL/MOL
REMARK 924 INTRA-LIGAND FREE ENERGY PREDICTED BY IDOCK:    1.52 KCAL/MOL
REMARK 927      BINDING AFFINITY PREDICTED BY RF-SCORE:    0.00 PKD
ROOT
HETATM    1  C   UNL     1      -9.813  13.093  70.569  1.00  0.00     4.821 C  
HETATM    2  C   UNL     1      -8.353  13.377  70.241  1.00  0.00     3.583 C  
ENDROOT
BRANCH   2   3
HETATM    3  C   UNL     1      -8.203  13.734  68.762  1.00  0.00    -0.002 C  
BRANCH   3   4
HETATM    4  C   UNL     1      -9.497  13.621  67.943  1.00  0.00    -0.213 C  
BRANCH   4   5
HETATM    5  N   UNL     1     -10.556  12.695  68.419  1.00  0.00    -0.238 NA 
BRANCH   5   6
HETATM    6  C   UNL     1     -11.727  13.444  68.931  1.00  0.00    -0.328 C  
BRANCH   6   7
HETATM    7  C   UNL     1     -12.276  14.572  68.036  1.00  0.00    -0.127 C  
BRANCH   7   8
HETATM    8  C   UNL     1     -12.682  15.840  68.791  1.00  0.00     1.031 C  
HETATM    9  C   UNL     1     -11.461  16.519  69.399  1.00  0.00    -0.013 C  
ENDBRANCH   7   8
ENDBRANCH   6   7
ENDBRANCH   5   6
BRANCH   5  10
HETATM   10  C   UNL     1     -10.954  11.793  67.308  1.00  0.00    -0.267 C  
BRANCH  10  11
HETATM   11  C   UNL     1     -10.116  10.513  67.170  1.00  0.00    -0.253 C  
BRANCH  11  12
HETATM   12  C   UNL     1     -10.594   9.667  65.995  1.00  0.00     0.179 C  
BRANCH  12  13
HETATM   13  O   UNL     1      -9.592   8.702  65.664  1.00  0.00    -0.142 OA 
BRANCH  13  14
HETATM   14  C   UNL     1      -9.030   8.037  66.722  1.00  0.00    -0.144 A  
HETATM   15  C   UNL     1      -7.687   8.087  67.104  1.00  0.00    -0.101 A  
HETATM   16  C   UNL     1      -7.217   7.293  68.160  1.00  0.00    -0.091 A  
HETATM   17  C   UNL     1      -8.093   6.448  68.853  1.00  0.00    -0.111 A  
HETATM   18  C   UNL     1      -9.457   6.480  68.537  1.00  0.00    -0.121 A  
HETATM   19  C   UNL     1      -9.912   7.242  67.455  1.00  0.00    -0.228 A  
BRANCH  17  20
HETATM   20  C   UNL     1      -7.538   5.507  69.879  1.00  0.00    -0.074 C  
HETATM   21  O   UNL     1      -6.573   4.812  69.572  1.00  0.00    -0.034 OA 
BRANCH  20  22
HETATM   22  C   UNL     1      -8.189   5.413  71.188  1.00  0.00    -0.119 A  
HETATM   23  C   UNL     1      -8.070   4.348  72.080  1.00  0.00    -0.099 A  
HETATM   24  C   UNL     1     -10.670   8.117  72.341  1.00  0.00    -0.334 A  
HETATM   25  O   UNL     1      -8.796   4.600  73.208  1.00  0.00    -0.107 OA 
HETATM   26  C   UNL     1     -10.956   7.529  73.571  1.00  0.00    -0.093 A  
HETATM   27  C   UNL     1      -9.455   5.766  73.027  1.00  0.00    -0.150 A  
HETATM   28  C   UNL     1      -9.147   6.311  71.789  1.00  0.00    -0.144 A  
HETATM   29  C   UNL     1     -10.353   6.322  73.936  1.00  0.00    -0.318 A  
HETATM   30  C   UNL     1      -9.808   7.502  71.426  1.00  0.00    -0.191 A  
BRANCH  23  31
HETATM   31  C   UNL     1      -7.487   2.974  72.061  1.00  0.00    -0.052 C  
BRANCH  31  32
HETATM   32  C   UNL     1      -7.942   2.016  70.961  1.00  0.00    -0.050 C  
BRANCH  32  33
HETATM   33  C   UNL     1      -9.320   2.487  70.465  1.00  0.00    -0.209 C  
HETATM   34  C   UNL     1     -10.485   1.658  70.977  1.00  0.00     0.634 C  
ENDBRANCH  32  33
ENDBRANCH  31  32
ENDBRANCH  23  31
BRANCH  24  35
HETATM   35  N   UNL     1     -11.261   9.362  71.977  1.00  0.00    -0.169 N  
HETATM   36  H   UNL     1     -10.947  10.236  72.401  1.00  0.00     0.000 HD 
BRANCH  35  37
HETATM   37  S   UNL     1     -12.496   9.349  70.826  1.00  0.00     0.003 S  
HETATM   38  C   UNL     1     -13.421   7.911  71.325  1.00  0.00    -0.158 C  
HETATM   39  O   UNL     1     -13.321  10.526  70.970  1.00  0.00    -0.306 OA 
HETATM   40  O   UNL     1     -11.845   9.036  69.570  1.00  0.00     0.453 OA 
ENDBRANCH  35  37
ENDBRANCH  24  35
ENDBRANCH  20  22
ENDBRANCH  17  20
ENDBRANCH  13  14
ENDBRANCH  12  13
ENDBRANCH  11  12
ENDBRANCH  10  11
ENDBRANCH   5  10
ENDBRANCH   4   5
ENDBRANCH   3   4
ENDBRANCH   2   3
TORSDOF 18
ENDMDL
MODEL      258
REMARK 921   NORMALIZED FREE ENERGY PREDICTED BY IDOCK:    5.88 KCAL/MOL
REMARK 922        TOTAL FREE ENERGY PREDICTED BY IDOCK:    9.35 KCAL/MOL
REMARK 923 INTER-LIGAND FREE ENERGY PREDICTED BY IDOCK:    7.20 KCAL/MOL
REMARK 924 INTRA-LIGAND FREE ENERGY PREDICTED BY IDOCK:    2.15 KCAL/MOL
REMARK 927      BINDING AFFINITY PREDICTED BY RF-SCORE:    0.00 PKD
ROOT
HETATM    1  C   UNL     1      -7.211   3.909  73.041  1.00  0.00    -0.059 C  
HETATM    2  C   UNL     1      -7.909   3.640  71.714  1.00  0.00    -0.062 C  
ENDROOT
BRANCH   2   3
HETATM    3  C   UNL     1      -8.620   4.901  71.225  1.00  0.00    -0.132 C  
BRANCH   3   4
HETATM    4  C   UNL     1      -7.681   6.034  70.783  1.00  0.00    -0.098 C  
BRANCH   4   5
HETATM    5  N   UNL     1      -6.894   5.853  69.537  1.00  0.00    -0.059 NA 
BRANCH   5   6
HETATM    6  C   UNL     1      -7.713   5.221  68.478  1.00  0.00    -0.080 C  
BRANCH   6   7
HETATM    7  C   UNL     1      -7.272   5.461  67.020  1.00  0.00    -0.078 C  
BRANCH   7   8
HETATM    8  C   UNL     1      -6.182   4.509  66.523  1.00  0.00    -0.032 C  
HETATM    9  C   UNL     1      -5.898   4.741  65.044  1.00  0.00    -0.014 C  
ENDBRANCH   7   8
ENDBRANCH   6   7
ENDBRANCH   5   6
BRANCH   5  10
HETATM   10  C   UNL     1      -6.380   7.172  69.087  1.00  0.00    -0.035 C  
BRANCH  10  11
HETATM   11  C   UNL     1      -7.305   7.943  68.133  1.00  0.00    -0.099 C  
BRANCH  11  12
HETATM   12  C   UNL     1      -7.705   9.291  68.724  1.00  0.00    -0.083 C  
BRANCH  12  13
HETATM   13  O   UNL     1      -6.738  10.278  68.357  1.00  0.00    -0.057 OA 
BRANCH  13  14
HETATM   14  C   UNL     1      -7.072  11.576  68.645  1.00  0.00    -0.098 A  
HETATM   15  C   UNL     1      -6.656  12.301  69.765  1.00  0.00     0.032 A  
HETATM   16  C   UNL     1      -7.134  13.600  69.989  1.00  0.00     0.539 A  
HETATM   17  C   UNL     1      -8.028  14.190  69.087  1.00  0.00     0.096 A  
HETATM   18  C   UNL     1      -8.360  13.502  67.914  1.00  0.00    -0.175 A  
HETATM   19  C   UNL     1      -7.913  12.189  67.716  1.00  0.00    -0.151 A  
BRANCH  17  20
HETATM   20  C   UNL     1      -8.633  15.519  69.425  1.00  0.00    -0.259 C  
HETATM   21  O   UNL     1      -8.760  15.818  70.609  1.00  0.00     1.376 OA 
BRANCH  20  22
HETATM   22  C   UNL     1      -9.093  16.390  68.341  1.00  0.00    -0.214 A  
HETATM   23  C   UNL     1      -9.273  17.770  68.429  1.00  0.00    -0.285 A  
HETATM   24  C   UNL     1     -10.180  14.908  64.962  1.00  0.00    -0.330 A  
HETATM   25  O   UNL     1      -9.693  18.265  67.227  1.00  0.00    -0.284 OA 
HETATM   26  C   UNL     1     -10.504  16.128  64.372  1.00  0.00     1.028 A  
HETATM   27  C   UNL     1      -9.875  17.220  66.388  1.00  0.00    -0.299 A  
HETATM   28  C   UNL     1      -9.548  16.028  67.019  1.00  0.00    -0.229 A  
HETATM   29  C   UNL     1     -10.366  17.320  65.089  1.00  0.00     0.347 A  
HETATM   30  C   UNL     1      -9.747  14.837  66.291  1.00  0.00    -0.326 A  
BRANCH  23  31
HETATM   31  C   UNL     1      -9.266  18.801  69.509  1.00  0.00     0.384 C  
BRANCH  31  32
HETATM   32  C   UNL     1     -10.209  18.605  70.695  1.00  0.00     2.071 C  
BRANCH  32  33
HETATM   33  C   UNL     1     -10.634  19.997  71.195  1.00  0.00     2.957 C  
HETATM   34  C   UNL     1      -9.481  20.884  71.628  1.00  0.00     2.690 C  
ENDBRANCH  32  33
ENDBRANCH  31  32
ENDBRANCH  23  31
BRANCH  24  35
HETATM   35  N   UNL     1     -10.293  13.693  64.226  1.00  0.00    -0.648 N  
HETATM   36  H   UNL     1      -9.469  13.238  63.833  1.00  0.00     0.000 HD 
BRANCH  35  37
HETATM   37  S   UNL     1     -11.832  13.029  64.022  1.00  0.00    -0.479 S  
HETATM   38  C   UNL     1     -12.863  14.461  64.260  1.00  0.00     0.331 C  
HETATM   39  O   UNL     1     -11.988  12.543  62.670  1.00  0.00     0.373 OA 
HETATM   40  O   UNL     1     -12.026  12.156  65.161  1.00  0.00    -0.355 OA 
ENDBRANCH  35  37
ENDBRANCH  24  35
ENDBRANCH  20  22
ENDBRANCH  17  20
ENDBRANCH  13  14
ENDBRANCH  12  13
ENDBRANCH  11  12
ENDBRANCH  10  11
ENDBRANCH   5  10
ENDBRANCH   4   5
ENDBRANCH   3   4
ENDBRANCH   2   3
TORSDOF 18
ENDMDL
MODEL      259
REMARK 921   NORMALIZED FREE ENERGY PREDICTED BY IDOCK:    9.97 KCAL/MOL
REMARK 922        TOTAL FREE ENERGY PREDICTED BY IDOCK:   17.74 KCAL/MOL
REMARK 923 INTER-LIGAND FREE ENERGY PREDICTED BY IDOCK:    8.28 KCAL/MOL
REMARK 924 INTRA-LIGAND FREE ENERGY PREDICTED BY IDOCK:    9.46 KCAL/MOL
REMARK 927      BINDING AFFINITY PREDICTED BY RF-SCORE:    0.00 PKD
ROOT
HETATM    1  C   UNL     1     -13.870  11.816  64.896  1.00  0.00     4.635 C  
HETATM    2  C   UNL     1     -13.180  12.502  63.724  1.00  0.00     0.248 C  
ENDROOT
BRANCH   2   3
HETATM    3  C   UNL     1     -11.729  12.031  63.615  1.00  0.00    -0.587 C  
BRANCH   3   4
HETATM    4  C   UNL     1     -10.682  13.139  63.805  1.00  0.00    -0.071 C  
BRANCH   4   5
HETATM    5  N   UNL     1     -10.603  13.818  65.124  1.00  0.00    -0.351 NA 
BRANCH   5   6
HETATM    6  C   UNL     1     -11.020  12.907  66.216  1.00  0.00    -0.281 C  
BRANCH   6   7
HETATM    7  C   UNL     1     -11.034  11.399  65.898  1.00  0.00    -0.268 C  
BRANCH   7   8
HETATM    8  C   UNL     1      -9.874  10.611  66.511  1.00  0.00    -0.250 C  
HETATM    9  C   UNL     1      -8.537  11.227  66.119  1.00  0.00    -0.156 C  
ENDBRANCH   7   8
ENDBRANCH   6   7
ENDBRANCH   5   6
BRANCH   5  10
HETATM   10  C   UNL     1      -9.216  14.299  65.345  1.00  0.00     0.743 C  
BRANCH  10  11
HETATM   11  C   UNL     1      -9.031  15.235  66.548  1.00  0.00    -0.340 C  
BRANCH  11  12
HETATM   12  C   UNL     1     -10.204  16.201  66.680  1.00  0.00    -0.287 C  
BRANCH  12  13
HETATM   13  O   UNL     1     -11.185  15.643  67.559  1.00  0.00    -0.317 OA 
BRANCH  13  14
HETATM   14  C   UNL     1     -10.832  14.475  68.182  1.00  0.00    -0.240 A  
HETATM   15  C   UNL     1     -11.693  13.625  68.882  1.00  0.00    -0.377 A  
HETATM   16  C   UNL     1     -11.194  12.497  69.547  1.00  0.00    -0.163 A  
HETATM   17  C   UNL     1      -9.825  12.202  69.511  1.00  0.00     1.019 A  
HETATM   18  C   UNL     1      -8.983  12.995  68.723  1.00  0.00     0.172 A  
HETATM   19  C   UNL     1      -9.479  14.144  68.095  1.00  0.00    -0.213 A  
BRANCH  17  20
HETATM   20  C   UNL     1      -9.300  11.075  70.348  1.00  0.00     2.405 C  
HETATM   21  O   UNL     1      -9.954  10.719  71.324  1.00  0.00     2.397 OA 
BRANCH  20  22
HETATM   22  C   UNL     1      -8.009  10.472  70.004  1.00  0.00     0.226 A  
HETATM   23  C   UNL     1      -6.762  10.926  70.431  1.00  0.00     0.150 A  
HETATM   24  C   UNL     1      -7.814   7.535  67.529  1.00  0.00    -0.116 A  
HETATM   25  O   UNL     1      -5.777  10.121  69.937  1.00  0.00    -0.040 OA 
HETATM   26  C   UNL     1      -6.428   7.401  67.581  1.00  0.00    -0.056 A  
HETATM   27  C   UNL     1      -6.355   9.207  69.125  1.00  0.00    -0.042 A  
HETATM   28  C   UNL     1      -7.731   9.383  69.098  1.00  0.00    -0.079 A  
HETATM   29  C   UNL     1      -5.664   8.253  68.382  1.00  0.00    -0.034 A  
HETATM   30  C   UNL     1      -8.472   8.544  68.242  1.00  0.00    -0.135 A  
BRANCH  23  31
HETATM   31  C   UNL     1      -6.228  12.119  71.152  1.00  0.00     1.208 C  
BRANCH  31  32
HETATM   32  C   UNL     1      -6.592  13.504  70.618  1.00  0.00     0.564 C  
BRANCH  32  33
HETATM   33  C   UNL     1      -5.302  14.341  70.556  1.00  0.00    -0.118 C  
HETATM   34  C   UNL     1      -5.233  15.297  69.380  1.00  0.00    -0.092 C  
ENDBRANCH  32  33
ENDBRANCH  31  32
ENDBRANCH  23  31
BRANCH  24  35
HETATM   35  N   UNL     1      -8.599   6.649  66.735  1.00  0.00    -0.116 N  
HETATM   36  H   UNL     1      -8.531   6.657  65.717  1.00  0.00     0.000 HD 
BRANCH  35  37
HETATM   37  S   UNL     1      -9.646   5.588  67.528  1.00  0.00    -0.128 S  
HETATM   38  C   UNL     1     -10.545   6.709  68.580  1.00  0.00    -0.234 C  
HETATM   39  O   UNL     1     -10.555   4.987  66.579  1.00  0.00    -0.291 OA 
HETATM   40  O   UNL     1      -8.799   4.776  68.376  1.00  0.00    -0.100 OA 
ENDBRANCH  35  37
ENDBRANCH  24  35
ENDBRANCH  20  22
ENDBRANCH  17  20
ENDBRANCH  13  14
ENDBRANCH  12  13
ENDBRANCH  11  12
ENDBRANCH  10  11
ENDBRANCH   5  10
ENDBRANCH   4   5
ENDBRANCH   3   4
ENDBRANCH   2   3
TORSDOF 18
ENDMDL
MODEL      260
REMARK 921   NORMALIZED FREE ENERGY PREDICTED BY IDOCK:   16.05 KCAL/MOL
REMARK 922        TOTAL FREE ENERGY PREDICTED BY IDOCK:   30.22 KCAL/MOL
REMARK 923 INTER-LIGAND FREE ENERGY PREDICTED BY IDOCK:   20.02 KCAL/MOL
REMARK 924 INTRA-LIGAND FREE ENERGY PREDICTED BY IDOCK:   10.20 KCAL/MOL
REMARK 927      BINDING AFFINITY PREDICTED BY RF-SCORE:    0.00 PKD
ROOT
HETATM    1  C   UNL     1      -8.973   6.028  66.635  1.00  0.00    -0.129 C  
HETATM    2  C   UNL     1      -9.640   6.951  65.623  1.00  0.00     0.512 C  
ENDROOT
BRANCH   2   3
HETATM    3  C   UNL     1     -10.071   8.253  66.298  1.00  0.00    -0.101 C  
BRANCH   3   4
HETATM    4  C   UNL     1     -11.363   8.148  67.122  1.00  0.00     1.253 C  
BRANCH   4   5
HETATM    5  N   UNL     1     -11.753   9.301  67.974  1.00  0.00     1.143 NA 
BRANCH   5   6
HETATM    6  C   UNL     1     -11.771   8.921  69.406  1.00  0.00     0.796 C  
BRANCH   6   7
HETATM    7  C   UNL     1     -12.231  10.000  70.406  1.00  0.00    -0.249 C  
BRANCH   7   8
HETATM    8  C   UNL     1     -13.373   9.564  71.327  1.00  0.00    -0.385 C  
HETATM    9  C   UNL     1     -13.086   9.964  72.769  1.00  0.00     0.383 C  
ENDBRANCH   7   8
ENDBRANCH   6   7
ENDBRANCH   5   6
BRANCH   5  10
HETATM   10  C   UNL     1     -10.809  10.424  67.741  1.00  0.00    -0.297 C  
BRANCH  10  11
HETATM   11  C   UNL     1      -9.632  10.504  68.724  1.00  0.00    -0.181 C  
BRANCH  11  12
HETATM   12  C   UNL     1      -8.306  10.243  68.017  1.00  0.00    -0.114 C  
BRANCH  12  13
HETATM   13  O   UNL     1      -7.321  11.163  68.496  1.00  0.00    -0.090 OA 
BRANCH  13  14
HETATM   14  C   UNL     1      -7.588  12.489  68.279  1.00  0.00    -0.129 A  
HETATM   15  C   UNL     1      -7.231  13.224  67.145  1.00  0.00     0.108 A  
HETATM   16  C   UNL     1      -7.491  14.600  67.077  1.00  0.00     0.144 A  
HETATM   17  C   UNL     1      -8.121  15.254  68.143  1.00  0.00    -0.136 A  
HETATM   18  C   UNL     1      -8.571  14.497  69.231  1.00  0.00     0.106 A  
HETATM   19  C   UNL     1      -8.272  13.131  69.312  1.00  0.00     0.711 A  
BRANCH  17  20
HETATM   20  C   UNL     1      -8.256  16.747  68.105  1.00  0.00    -0.199 C  
HETATM   21  O   UNL     1      -7.389  17.396  67.526  1.00  0.00    -0.166 OA 
BRANCH  20  22
HETATM   22  C   UNL     1      -9.382  17.379  68.795  1.00  0.00    -0.244 A  
HETATM   23  C   UNL     1      -9.510  18.742  69.061  1.00  0.00    -0.217 A  
HETATM   24  C   UNL     1     -12.211  15.247  70.292  1.00  0.00    -0.363 A  
HETATM   25  O   UNL     1     -10.690  18.985  69.703  1.00  0.00     0.769 OA 
HETATM   26  C   UNL     1     -12.943  16.320  70.796  1.00  0.00     1.358 A  
HETATM   27  C   UNL     1     -11.288  17.795  69.938  1.00  0.00     2.414 A  
HETATM   28  C   UNL     1     -10.522  16.757  69.426  1.00  0.00    -0.312 A  
HETATM   29  C   UNL     1     -12.483  17.629  70.634  1.00  0.00     8.821 A  
HETATM   30  C   UNL     1     -10.984  15.444  69.649  1.00  0.00    -0.288 A  
BRANCH  23  31
HETATM   31  C   UNL     1      -8.646  19.955  68.959  1.00  0.00     0.041 C  
BRANCH  31  32
HETATM   32  C   UNL     1      -9.166  21.140  68.148  1.00  0.00     0.545 C  
BRANCH  32  33
HETATM   33  C   UNL     1      -9.856  20.585  66.890  1.00  0.00    -0.506 C  
HETATM   34  C   UNL     1     -10.602  19.282  67.110  1.00  0.00    -0.575 C  
ENDBRANCH  32  33
ENDBRANCH  31  32
ENDBRANCH  23  31
BRANCH  24  35
HETATM   35  N   UNL     1     -12.692  13.912  70.431  1.00  0.00    -0.271 N  
HETATM   36  H   UNL     1     -13.322  13.506  69.739  1.00  0.00     0.000 HD 
BRANCH  35  37
HETATM   37  S   UNL     1     -12.187  13.022  71.774  1.00  0.00     0.857 S  
HETATM   38  C   UNL     1     -12.775  14.043  73.109  1.00  0.00     0.023 C  
HETATM   39  O   UNL     1     -12.868  11.748  71.808  1.00  0.00    -0.369 OA 
HETATM   40  O   UNL     1     -10.742  13.102  71.765  1.00  0.00     5.356 OA 
ENDBRANCH  35  37
ENDBRANCH  24  35
ENDBRANCH  20  22
ENDBRANCH  17  20
ENDBRANCH  13  14
ENDBRANCH  12  13
ENDBRANCH  11  12
ENDBRANCH  10  11
ENDBRANCH   5  10
ENDBRANCH   4   5
ENDBRANCH   3   4
ENDBRANCH   2   3
TORSDOF 18
ENDMDL
MODEL      261
REMARK 921   NORMALIZED FREE ENERGY PREDICTED BY IDOCK:   16.08 KCAL/MOL
REMARK 922        TOTAL FREE ENERGY PREDICTED BY IDOCK:   30.28 KCAL/MOL
REMARK 923 INTER-LIGAND FREE ENERGY PREDICTED BY IDOCK:   15.60 KCAL/MOL
REMARK 924 INTRA-LIGAND FREE ENERGY PREDICTED BY IDOCK:   14.69 KCAL/MOL
REMARK 927      BINDING AFFINITY PREDICTED BY RF-SCORE:    0.00 PKD
ROOT
HETATM    1  C   UNL     1      -9.680  12.340  63.147  1.00  0.00     0.346 C  
HETATM    2  C   UNL     1      -9.815  13.857  63.144  1.00  0.00     6.391 C  
ENDROOT
BRANCH   2   3
HETATM    3  C   UNL     1      -8.856  14.476  64.161  1.00  0.00     7.686 C  
BRANCH   3   4
HETATM    4  C   UNL     1      -9.507  14.869  65.496  1.00  0.00    -0.009 C  
BRANCH   4   5
HETATM    5  N   UNL     1      -9.233  14.029  66.689  1.00  0.00    -0.263 NA 
BRANCH   5   6
HETATM    6  C   UNL     1     -10.044  14.472  67.847  1.00  0.00    -0.227 C  
BRANCH   6   7
HETATM    7  C   UNL     1      -9.960  13.614  69.125  1.00  0.00     0.210 C  
BRANCH   7   8
HETATM    8  C   UNL     1     -11.184  13.713  70.038  1.00  0.00     0.054 C  
HETATM    9  C   UNL     1     -12.439  14.010  69.227  1.00  0.00    -0.046 C  
ENDBRANCH   7   8
ENDBRANCH   6   7
ENDBRANCH   5   6
BRANCH   5  10
HETATM   10  C   UNL     1      -9.516  12.608  66.364  1.00  0.00    -0.231 C  
BRANCH  10  11
HETATM   11  C   UNL     1      -9.352  12.230  64.884  1.00  0.00     0.302 C  
BRANCH  11  12
HETATM   12  C   UNL     1      -7.880  12.083  64.514  1.00  0.00     3.088 C  
BRANCH  12  13
HETATM   13  O   UNL     1      -7.375  10.856  65.047  1.00  0.00     0.118 OA 
BRANCH  13  14
HETATM   14  C   UNL     1      -8.296  10.047  65.658  1.00  0.00    -0.145 A  
HETATM   15  C   UNL     1      -9.662  10.311  65.789  1.00  0.00    -0.297 A  
HETATM   16  C   UNL     1     -10.489   9.438  66.510  1.00  0.00    -0.199 A  
HETATM   17  C   UNL     1      -9.958   8.285  67.101  1.00  0.00    -0.307 A  
HETATM   18  C   UNL     1      -8.612   7.970  66.878  1.00  0.00    -0.130 A  
HETATM   19  C   UNL     1      -7.781   8.865  66.194  1.00  0.00    -0.098 A  
BRANCH  17  20
HETATM   20  C   UNL     1     -10.833   7.449  67.984  1.00  0.00    -0.061 C  
HETATM   21  O   UNL     1     -12.051   7.545  67.859  1.00  0.00     2.191 OA 
BRANCH  20  22
HETATM   22  C   UNL     1     -10.212   6.587  68.994  1.00  0.00    -0.204 A  
HETATM   23  C   UNL     1     -10.338   6.735  70.375  1.00  0.00    -0.198 A  
HETATM   24  C   UNL     1      -7.801   3.777  67.958  1.00  0.00    -0.073 A  
HETATM   25  O   UNL     1      -9.643   5.749  71.015  1.00  0.00    -0.163 OA 
HETATM   26  C   UNL     1      -7.536   3.335  69.252  1.00  0.00    -0.048 A  
HETATM   27  C   UNL     1      -8.997   5.019  70.078  1.00  0.00    -0.110 A  
HETATM   28  C   UNL     1      -9.283   5.499  68.807  1.00  0.00    -0.142 A  
HETATM   29  C   UNL     1      -8.130   3.964  70.350  1.00  0.00    -0.059 A  
HETATM   30  C   UNL     1      -8.630   4.879  67.722  1.00  0.00    -0.103 A  
BRANCH  23  31
HETATM   31  C   UNL     1     -10.900   7.750  71.313  1.00  0.00    -0.255 C  
BRANCH  31  32
HETATM   32  C   UNL     1     -11.862   8.795  70.749  1.00  0.00    -0.209 C  
BRANCH  32  33
HETATM   33  C   UNL     1     -12.929   9.081  71.820  1.00  0.00    -0.436 C  
HETATM   34  C   UNL     1     -14.117   8.137  71.786  1.00  0.00    -0.516 C  
ENDBRANCH  32  33
ENDBRANCH  31  32
ENDBRANCH  23  31
BRANCH  24  35
HETATM   35  N   UNL     1      -7.219   3.120  66.834  1.00  0.00    -0.058 N  
HETATM   36  H   UNL     1      -6.940   2.140  66.885  1.00  0.00     0.000 HD 
BRANCH  35  37
HETATM   37  S   UNL     1      -7.006   4.011  65.416  1.00  0.00    -0.063 S  
HETATM   38  C   UNL     1      -5.745   3.059  64.594  1.00  0.00    -0.014 C  
HETATM   39  O   UNL     1      -8.217   3.987  64.628  1.00  0.00    -0.095 OA 
HETATM   40  O   UNL     1      -6.407   5.261  65.836  1.00  0.00    -0.033 OA 
ENDBRANCH  35  37
ENDBRANCH  24  35
ENDBRANCH  20  22
ENDBRANCH  17  20
ENDBRANCH  13  14
ENDBRANCH  12  13
ENDBRANCH  11  12
ENDBRANCH  10  11
ENDBRANCH   5  10
ENDBRANCH   4   5
ENDBRANCH   3   4
ENDBRANCH   2   3
TORSDOF 18
ENDMDL
MODEL      262
REMARK 921   NORMALIZED FREE ENERGY PREDICTED BY IDOCK:   16.13 KCAL/MOL
REMARK 922        TOTAL FREE ENERGY PREDICTED BY IDOCK:   30.38 KCAL/MOL
REMARK 923 INTER-LIGAND FREE ENERGY PREDICTED BY IDOCK:   32.19 KCAL/MOL
REMARK 924 INTRA-LIGAND FREE ENERGY PREDICTED BY IDOCK:   -1.81 KCAL/MOL
REMARK 927      BINDING AFFINITY PREDICTED BY RF-SCORE:    0.00 PKD
ROOT
HETATM    1  C   UNL     1     -10.920   4.583  63.840  1.00  0.00     0.570 C  
HETATM    2  C   UNL     1     -10.631   6.078  63.790  1.00  0.00     5.561 C  
ENDROOT
BRANCH   2   3
HETATM    3  C   UNL     1      -9.624   6.459  64.875  1.00  0.00     1.421 C  
BRANCH   3   4
HETATM    4  C   UNL     1     -10.143   7.480  65.899  1.00  0.00     0.814 C  
BRANCH   4   5
HETATM    5  N   UNL     1     -11.356   7.137  66.684  1.00  0.00     0.553 NA 
BRANCH   5   6
HETATM    6  C   UNL     1     -11.147   7.404  68.127  1.00  0.00     0.173 C  
BRANCH   6   7
HETATM    7  C   UNL     1     -11.674   6.343  69.114  1.00  0.00     0.144 C  
BRANCH   7   8
HETATM    8  C   UNL     1     -10.610   5.762  70.047  1.00  0.00    -0.380 C  
HETATM    9  C   UNL     1      -9.218   5.936  69.453  1.00  0.00    -0.144 C  
ENDBRANCH   7   8
ENDBRANCH   6   7
ENDBRANCH   5   6
BRANCH   5  10
HETATM   10  C   UNL     1     -12.510   7.917  66.168  1.00  0.00    11.441 C  
BRANCH  10  11
HETATM   11  C   UNL     1     -12.151   9.248  65.493  1.00  0.00     9.946 C  
BRANCH  11  12
HETATM   12  C   UNL     1     -11.898  10.340  66.527  1.00  0.00     2.618 C  
BRANCH  12  13
HETATM   13  O   UNL     1     -10.616  10.929  66.295  1.00  0.00    -0.252 OA 
BRANCH  13  14
HETATM   14  C   UNL     1      -9.569  10.366  66.976  1.00  0.00    -0.166 A  
HETATM   15  C   UNL     1      -9.617   9.846  68.273  1.00  0.00    -0.151 A  
HETATM   16  C   UNL     1      -8.453   9.370  68.892  1.00  0.00    -0.122 A  
HETATM   17  C   UNL     1      -7.228   9.401  68.215  1.00  0.00    -0.077 A  
HETATM   18  C   UNL     1      -7.202   9.824  66.881  1.00  0.00    -0.090 A  
HETATM   19  C   UNL     1      -8.359  10.338  66.281  1.00  0.00    -0.134 A  
BRANCH  17  20
HETATM   20  C   UNL     1      -5.978   9.021  68.951  1.00  0.00    -0.044 C  
HETATM   21  O   UNL     1      -5.126   8.368  68.355  1.00  0.00    -0.031 OA 
BRANCH  20  22
HETATM   22  C   UNL     1      -5.838   9.398  70.359  1.00  0.00    -0.044 A  
HETATM   23  C   UNL     1      -5.967   8.535  71.447  1.00  0.00    -0.043 A  
HETATM   24  C   UNL     1      -5.310  13.073  71.363  1.00  0.00    -0.147 A  
HETATM   25  O   UNL     1      -5.756   9.216  72.612  1.00  0.00    -0.125 OA 
HETATM   26  C   UNL     1      -5.261  12.838  72.735  1.00  0.00     0.316 A  
HETATM   27  C   UNL     1      -5.582  10.521  72.305  1.00  0.00     0.532 A  
HETATM   28  C   UNL     1      -5.647  10.710  70.931  1.00  0.00    -0.098 A  
HETATM   29  C   UNL     1      -5.409  11.541  73.237  1.00  0.00     0.908 A  
HETATM   30  C   UNL     1      -5.546  12.033  70.457  1.00  0.00    -0.165 A  
BRANCH  23  31
HETATM   31  C   UNL     1      -6.408   7.127  71.672  1.00  0.00    -0.037 C  
BRANCH  31  32
HETATM   32  C   UNL     1      -6.772   6.706  73.095  1.00  0.00    -0.068 C  
BRANCH  32  33
HETATM   33  C   UNL     1      -8.300   6.540  73.162  1.00  0.00    -0.120 C  
HETATM   34  C   UNL     1      -8.983   7.441  74.175  1.00  0.00    -0.270 C  
ENDBRANCH  32  33
ENDBRANCH  31  32
ENDBRANCH  23  31
BRANCH  24  35
HETATM   35  N   UNL     1      -5.131  14.389  70.846  1.00  0.00    -0.109 N  
HETATM   36  H   UNL     1      -4.315  14.947  71.099  1.00  0.00     0.000 HD 
BRANCH  35  37
HETATM   37  S   UNL     1      -6.310  14.999  69.803  1.00  0.00    -0.162 S  
HETATM   38  C   UNL     1      -5.909  16.734  69.801  1.00  0.00    -0.214 C  
HETATM   39  O   UNL     1      -6.124  14.461  68.475  1.00  0.00    -0.081 OA 
HETATM   40  O   UNL     1      -7.565  14.841  70.508  1.00  0.00     0.466 OA 
ENDBRANCH  35  37
ENDBRANCH  24  35
ENDBRANCH  20  22
ENDBRANCH  17  20
ENDBRANCH  13  14
ENDBRANCH  12  13
ENDBRANCH  11  12
ENDBRANCH  10  11
ENDBRANCH   5  10
ENDBRANCH   4   5
ENDBRANCH   3   4
ENDBRANCH   2   3
TORSDOF 18
ENDMDL
MODEL      263
REMARK 921   NORMALIZED FREE ENERGY PREDICTED BY IDOCK:   18.12 KCAL/MOL
REMARK 922        TOTAL FREE ENERGY PREDICTED BY IDOCK:   34.48 KCAL/MOL
REMARK 923 INTER-LIGAND FREE ENERGY PREDICTED BY IDOCK:   12.44 KCAL/MOL
REMARK 924 INTRA-LIGAND FREE ENERGY PREDICTED BY IDOCK:   22.04 KCAL/MOL
REMARK 927      BINDING AFFINITY PREDICTED BY RF-SCORE:    0.00 PKD
ROOT
HETATM    1  C   UNL     1     -14.035  11.732  65.083  1.00  0.00     6.418 C  
HETATM    2  C   UNL     1     -13.521  12.316  63.773  1.00  0.00     0.632 C  
ENDROOT
BRANCH   2   3
HETATM    3  C   UNL     1     -12.058  11.932  63.560  1.00  0.00    -0.575 C  
BRANCH   3   4
HETATM    4  C   UNL     1     -11.127  13.112  63.242  1.00  0.00     0.395 C  
BRANCH   4   5
HETATM    5  N   UNL     1     -11.105  14.266  64.176  1.00  0.00    -0.060 NA 
BRANCH   5   6
HETATM    6  C   UNL     1     -11.642  13.886  65.503  1.00  0.00    -0.327 C  
BRANCH   6   7
HETATM    7  C   UNL     1     -12.306  12.499  65.614  1.00  0.00    -0.296 C  
BRANCH   7   8
HETATM    8  C   UNL     1     -11.366  11.380  66.069  1.00  0.00    -0.097 C  
HETATM    9  C   UNL     1     -10.147  11.297  65.158  1.00  0.00    -0.326 C  
ENDBRANCH   7   8
ENDBRANCH   6   7
ENDBRANCH   5   6
BRANCH   5  10
HETATM   10  C   UNL     1      -9.714  14.772  64.298  1.00  0.00     2.547 C  
BRANCH  10  11
HETATM   11  C   UNL     1      -9.561  16.080  65.087  1.00  0.00     0.527 C  
BRANCH  11  12
HETATM   12  C   UNL     1     -10.883  16.837  65.161  1.00  0.00    -0.138 C  
BRANCH  12  13
HETATM   13  O   UNL     1     -11.630  16.381  66.292  1.00  0.00     0.584 OA 
BRANCH  13  14
HETATM   14  C   UNL     1     -11.019  15.432  67.068  1.00  0.00    -0.306 A  
HETATM   15  C   UNL     1     -11.522  14.894  68.256  1.00  0.00    -0.343 A  
HETATM   16  C   UNL     1     -10.761  13.985  69.004  1.00  0.00    -0.232 A  
HETATM   17  C   UNL     1      -9.490  13.596  68.564  1.00  0.00    -0.143 A  
HETATM   18  C   UNL     1      -9.034  14.055  67.322  1.00  0.00    -0.223 A  
HETATM   19  C   UNL     1      -9.779  14.995  66.600  1.00  0.00    -0.273 A  
BRANCH  17  20
HETATM   20  C   UNL     1      -8.642  12.738  69.453  1.00  0.00     1.240 C  
HETATM   21  O   UNL     1      -8.727  12.893  70.668  1.00  0.00     5.522 OA 
BRANCH  20  22
HETATM   22  C   UNL     1      -7.712  11.782  68.845  1.00  0.00    -0.041 A  
HETATM   23  C   UNL     1      -6.576  12.113  68.107  1.00  0.00    -0.061 A  
HETATM   24  C   UNL     1      -8.419   8.004  68.974  1.00  0.00    -0.130 A  
HETATM   25  O   UNL     1      -5.931  10.977  67.707  1.00  0.00    -0.046 OA 
HETATM   26  C   UNL     1      -7.277   7.624  68.273  1.00  0.00    -0.093 A  
HETATM   27  C   UNL     1      -6.677   9.918  68.094  1.00  0.00    -0.060 A  
HETATM   28  C   UNL     1      -7.806  10.343  68.780  1.00  0.00    -0.108 A  
HETATM   29  C   UNL     1      -6.380   8.588  67.806  1.00  0.00    -0.057 A  
HETATM   30  C   UNL     1      -8.720   9.353  69.195  1.00  0.00    -0.142 A  
BRANCH  23  31
HETATM   31  C   UNL     1      -5.975  13.352  67.533  1.00  0.00    -0.050 C  
BRANCH  31  32
HETATM   32  C   UNL     1      -5.406  14.389  68.500  1.00  0.00    -0.099 C  
BRANCH  32  33
HETATM   33  C   UNL     1      -6.028  15.753  68.150  1.00  0.00    -0.135 C  
HETATM   34  C   UNL     1      -6.330  16.629  69.352  1.00  0.00    -0.215 C  
ENDBRANCH  32  33
ENDBRANCH  31  32
ENDBRANCH  23  31
BRANCH  24  35
HETATM   35  N   UNL     1      -9.322   7.022  69.477  1.00  0.00    -0.148 N  
HETATM   36  H   UNL     1      -9.862   6.432  68.844  1.00  0.00     0.000 HD 
BRANCH  35  37
HETATM   37  S   UNL     1      -9.473   6.865  71.152  1.00  0.00    -0.165 S  
HETATM   38  C   UNL     1     -10.991   5.945  71.279  1.00  0.00    -0.259 C  
HETATM   39  O   UNL     1      -8.384   6.072  71.675  1.00  0.00    -0.124 OA 
HETATM   40  O   UNL     1      -9.730   8.204  71.640  1.00  0.00    -0.158 OA 
ENDBRANCH  35  37
ENDBRANCH  24  35
ENDBRANCH  20  22
ENDBRANCH  17  20
ENDBRANCH  13  14
ENDBRANCH  12  13
ENDBRANCH  11  12
ENDBRANCH  10  11
ENDBRANCH   5  10
ENDBRANCH   4   5
ENDBRANCH   3   4
ENDBRANCH   2   3
TORSDOF 18
ENDMDL
MODEL      264
REMARK 921   NORMALIZED FREE ENERGY PREDICTED BY IDOCK:   19.33 KCAL/MOL
REMARK 922        TOTAL FREE ENERGY PREDICTED BY IDOCK:   36.96 KCAL/MOL
REMARK 923 INTER-LIGAND FREE ENERGY PREDICTED BY IDOCK:    2.58 KCAL/MOL
REMARK 924 INTRA-LIGAND FREE ENERGY PREDICTED BY IDOCK:   34.37 KCAL/MOL
REMARK 927      BINDING AFFINITY PREDICTED BY RF-SCORE:    0.00 PKD
ROOT
HETATM    1  C   UNL     1      -9.879   9.456  72.358  1.00  0.00     1.413 C  
HETATM    2  C   UNL     1     -10.923   8.529  72.967  1.00  0.00     0.388 C  
ENDROOT
BRANCH   2   3
HETATM    3  C   UNL     1     -11.448   7.557  71.911  1.00  0.00    -0.307 C  
BRANCH   3   4
HETATM    4  C   UNL     1     -11.257   6.073  72.258  1.00  0.00    -0.293 C  
BRANCH   4   5
HETATM    5  N   UNL     1      -9.874   5.558  72.419  1.00  0.00    -0.161 NA 
BRANCH   5   6
HETATM    6  C   UNL     1      -9.010   6.557  73.089  1.00  0.00    -0.128 C  
BRANCH   6   7
HETATM    7  C   UNL     1      -7.743   6.025  73.789  1.00  0.00    -0.095 C  
BRANCH   7   8
HETATM    8  C   UNL     1      -6.437   6.328  73.051  1.00  0.00    -0.068 C  
HETATM    9  C   UNL     1      -5.345   6.734  74.033  1.00  0.00    -0.046 C  
ENDBRANCH   7   8
ENDBRANCH   6   7
ENDBRANCH   5   6
BRANCH   5  10
HETATM   10  C   UNL     1      -9.909   4.292  73.195  1.00  0.00    -0.134 C  
BRANCH  10  11
HETATM   11  C   UNL     1     -11.070   3.346  72.852  1.00  0.00     0.009 C  
BRANCH  11  12
HETATM   12  C   UNL     1     -12.032   3.993  71.861  1.00  0.00     3.318 C  
BRANCH  12  13
HETATM   13  O   UNL     1     -11.971   5.415  71.996  1.00  0.00     0.144 OA 
BRANCH  13  14
HETATM   14  C   UNL     1     -11.519   6.099  70.898  1.00  0.00    -0.248 A  
HETATM   15  C   UNL     1     -12.312   6.780  69.971  1.00  0.00     0.299 A  
HETATM   16  C   UNL     1     -11.733   7.375  68.840  1.00  0.00     0.964 A  
HETATM   17  C   UNL     1     -10.350   7.303  68.633  1.00  0.00    -0.208 A  
HETATM   18  C   UNL     1      -9.548   6.712  69.616  1.00  0.00    -0.156 A  
HETATM   19  C   UNL     1     -10.134   6.083  70.721  1.00  0.00    -0.248 A  
BRANCH  17  20
HETATM   20  C   UNL     1      -9.778   7.820  67.347  1.00  0.00    -0.163 C  
HETATM   21  O   UNL     1     -10.547   8.298  66.517  1.00  0.00    -0.193 OA 
BRANCH  20  22
HETATM   22  C   UNL     1      -8.339   7.696  67.106  1.00  0.00    -0.121 A  
HETATM   23  C   UNL     1      -7.347   8.480  67.694  1.00  0.00    -0.089 A  
HETATM   24  C   UNL     1      -6.996   5.225  64.483  1.00  0.00    -0.049 A  
HETATM   25  O   UNL     1      -6.116   8.081  67.258  1.00  0.00    -0.050 OA 
HETATM   26  C   UNL     1      -5.651   5.535  64.674  1.00  0.00    -0.017 A  
HETATM   27  C   UNL     1      -6.297   7.114  66.331  1.00  0.00    -0.047 A  
HETATM   28  C   UNL     1      -7.648   6.844  66.168  1.00  0.00    -0.092 A  
HETATM   29  C   UNL     1      -5.274   6.505  65.607  1.00  0.00    -0.017 A  
HETATM   30  C   UNL     1      -8.003   5.898  65.184  1.00  0.00    -0.121 A  
BRANCH  23  31
HETATM   31  C   UNL     1      -7.291   9.706  68.543  1.00  0.00    -0.078 C  
BRANCH  31  32
HETATM   32  C   UNL     1      -6.975  11.037  67.863  1.00  0.00    -0.073 C  
BRANCH  32  33
HETATM   33  C   UNL     1      -7.700  12.149  68.641  1.00  0.00    -0.089 C  
HETATM   34  C   UNL     1      -8.934  12.696  67.947  1.00  0.00    -0.189 C  
ENDBRANCH  32  33
ENDBRANCH  31  32
ENDBRANCH  23  31
BRANCH  24  35
HETATM   35  N   UNL     1      -7.382   4.216  63.553  1.00  0.00    -0.050 N  
HETATM   36  H   UNL     1      -6.907   4.118  62.656  1.00  0.00     0.000 HD 
BRANCH  35  37
HETATM   37  S   UNL     1      -8.651   3.186  63.981  1.00  0.00    -0.089 S  
HETATM   38  C   UNL     1      -8.255   2.833  65.680  1.00  0.00    -0.089 C  
HETATM   39  O   UNL     1      -9.908   3.896  63.917  1.00  0.00    -0.161 OA 
HETATM   40  O   UNL     1      -8.433   1.974  63.219  1.00  0.00    -0.081 OA 
ENDBRANCH  35  37
ENDBRANCH  24  35
ENDBRANCH  20  22
ENDBRANCH  17  20
ENDBRANCH  13  14
ENDBRANCH  12  13
ENDBRANCH  11  12
ENDBRANCH  10  11
ENDBRANCH   5  10
ENDBRANCH   4   5
ENDBRANCH   3   4
ENDBRANCH   2   3
TORSDOF 18
ENDMDL
MODEL      265
REMARK 921   NORMALIZED FREE ENERGY PREDICTED BY IDOCK:   29.49 KCAL/MOL
REMARK 922        TOTAL FREE ENERGY PREDICTED BY IDOCK:   57.80 KCAL/MOL
REMARK 923 INTER-LIGAND FREE ENERGY PREDICTED BY IDOCK:   -3.42 KCAL/MOL
REMARK 924 INTRA-LIGAND FREE ENERGY PREDICTED BY IDOCK:   61.22 KCAL/MOL
REMARK 927      BINDING AFFINITY PREDICTED BY RF-SCORE:    0.00 PKD
ROOT
HETATM    1  C   UNL     1     -11.034   9.391  72.090  1.00  0.00     0.265 C  
HETATM    2  C   UNL     1     -11.884   9.969  70.965  1.00  0.00    -0.476 C  
ENDROOT
BRANCH   2   3
HETATM    3  C   UNL     1     -11.598   9.237  69.655  1.00  0.00     0.234 C  
BRANCH   3   4
HETATM    4  C   UNL     1     -11.902   7.731  69.686  1.00  0.00     0.734 C  
BRANCH   4   5
HETATM    5  N   UNL     1     -10.943   6.831  70.375  1.00  0.00    -0.264 NA 
BRANCH   5   6
HETATM    6  C   UNL     1     -10.141   6.059  69.397  1.00  0.00    -0.192 C  
BRANCH   6   7
HETATM    7  C   UNL     1     -10.904   5.428  68.214  1.00  0.00     0.059 C  
BRANCH   7   8
HETATM    8  C   UNL     1     -10.370   5.820  66.835  1.00  0.00    -0.306 C  
HETATM    9  C   UNL     1     -10.846   7.215  66.448  1.00  0.00     0.593 C  
ENDBRANCH   7   8
ENDBRANCH   6   7
ENDBRANCH   5   6
BRANCH   5  10
HETATM   10  C   UNL     1     -10.061   7.637  71.256  1.00  0.00    -0.186 C  
BRANCH  10  11
HETATM   11  C   UNL     1     -10.764   8.753  72.042  1.00  0.00    -0.417 C  
BRANCH  11  12
HETATM   12  C   UNL     1     -11.547   9.673  71.111  1.00  0.00    -0.381 C  
BRANCH  12  13
HETATM   13  O   UNL     1     -11.191   9.393  69.755  1.00  0.00    -0.211 OA 
BRANCH  13  14
HETATM   14  C   UNL     1     -10.264  10.233  69.196  1.00  0.00    -0.218 A  
HETATM   15  C   UNL     1      -9.263  10.925  69.883  1.00  0.00     0.779 A  
HETATM   16  C   UNL     1      -8.425  11.822  69.206  1.00  0.00     0.525 A  
HETATM   17  C   UNL     1      -8.574  12.029  67.829  1.00  0.00    -0.157 A  
HETATM   18  C   UNL     1      -9.507  11.257  67.126  1.00  0.00    -0.183 A  
HETATM   19  C   UNL     1     -10.370  10.394  67.813  1.00  0.00    -0.245 A  
BRANCH  17  20
HETATM   20  C   UNL     1      -7.763  13.096  67.159  1.00  0.00    -0.019 C  
HETATM   21  O   UNL     1      -6.773  12.760  66.516  1.00  0.00     0.461 OA 
BRANCH  20  22
HETATM   22  C   UNL     1      -8.149  14.499  67.333  1.00  0.00    -0.219 A  
HETATM   23  C   UNL     1      -7.346  15.603  67.047  1.00  0.00    -0.168 A  
HETATM   24  C   UNL     1     -11.526  15.422  68.924  1.00  0.00    -0.342 A  
HETATM   25  O   UNL     1      -8.027  16.757  67.309  1.00  0.00    -0.160 OA 
HETATM   26  C   UNL     1     -11.346  16.801  68.844  1.00  0.00    -0.016 A  
HETATM   27  C   UNL     1      -9.223  16.422  67.844  1.00  0.00    -0.202 A  
HETATM   28  C   UNL     1      -9.355  15.042  67.912  1.00  0.00    -0.183 A  
HETATM   29  C   UNL     1     -10.171  17.332  68.304  1.00  0.00    -0.348 A  
HETATM   30  C   UNL     1     -10.527  14.535  68.508  1.00  0.00    -0.250 A  
BRANCH  23  31
HETATM   31  C   UNL     1      -5.920  15.843  66.677  1.00  0.00     0.924 C  
BRANCH  31  32
HETATM   32  C   UNL     1      -5.351  17.246  66.885  1.00  0.00    -0.202 C  
BRANCH  32  33
HETATM   33  C   UNL     1      -6.299  18.246  66.200  1.00  0.00    -0.252 C  
HETATM   34  C   UNL     1      -5.708  18.934  64.983  1.00  0.00    -0.285 C  
ENDBRANCH  32  33
ENDBRANCH  31  32
ENDBRANCH  23  31
BRANCH  24  35
HETATM   35  N   UNL     1     -12.735  14.878  69.448  1.00  0.00    -0.502 N  
HETATM   36  H   UNL     1     -13.487  14.578  68.828  1.00  0.00     0.000 HD 
BRANCH  35  37
HETATM   37  S   UNL     1     -12.885  14.744  71.124  1.00  0.00    -0.368 S  
HETATM   38  C   UNL     1     -11.665  15.917  71.677  1.00  0.00    -0.485 C  
HETATM   39  O   UNL     1     -14.197  15.183  71.541  1.00  0.00    -0.478 OA 
HETATM   40  O   UNL     1     -12.397  13.420  71.448  1.00  0.00    -0.279 OA 
ENDBRANCH  35  37
ENDBRANCH  24  35
ENDBRANCH  20  22
ENDBRANCH  17  20
ENDBRANCH  13  14
ENDBRANCH  12  13
ENDBRANCH  11  12
ENDBRANCH  10  11
ENDBRANCH   5  10
ENDBRANCH   4   5
ENDBRANCH   3   4
ENDBRANCH   2   3
TORSDOF 18
ENDMDL
MODEL      266
REMARK 921   NORMALIZED FREE ENERGY PREDICTED BY IDOCK:   31.91 KCAL/MOL
REMARK 922        TOTAL FREE ENERGY PREDICTED BY IDOCK:   62.78 KCAL/MOL
REMARK 923 INTER-LIGAND FREE ENERGY PREDICTED BY IDOCK:   28.72 KCAL/MOL
REMARK 924 INTRA-LIGAND FREE ENERGY PREDICTED BY IDOCK:   34.06 KCAL/MOL
REMARK 927      BINDING AFFINITY PREDICTED BY RF-SCORE:    0.00 PKD
ROOT
HETATM    1  C   UNL     1     -14.042  11.742  65.079  1.00  0.00     6.516 C  
HETATM    2  C   UNL     1     -13.532  12.258  63.739  1.00  0.00     0.632 C  
ENDROOT
BRANCH   2   3
HETATM    3  C   UNL     1     -12.065  11.878  63.548  1.00  0.00    -0.575 C  
BRANCH   3   4
HETATM    4  C   UNL     1     -11.159  13.033  63.095  1.00  0.00     0.533 C  
BRANCH   4   5
HETATM    5  N   UNL     1     -11.244  14.325  63.823  1.00  0.00     0.446 NA 
BRANCH   5   6
HETATM    6  C   UNL     1     -11.991  14.170  65.094  1.00  0.00    -0.388 C  
BRANCH   6   7
HETATM    7  C   UNL     1     -12.776  12.858  65.285  1.00  0.00    -0.389 C  
BRANCH   7   8
HETATM    8  C   UNL     1     -11.989  11.742  65.975  1.00  0.00     0.215 C  
HETATM    9  C   UNL     1     -10.693  11.455  65.228  1.00  0.00    -0.326 C  
ENDBRANCH   7   8
ENDBRANCH   6   7
ENDBRANCH   5   6
BRANCH   5  10
HETATM   10  C   UNL     1      -9.873  14.835  64.079  1.00  0.00     3.420 C  
BRANCH  10  11
HETATM   11  C   UNL     1      -9.799  16.273  64.614  1.00  0.00     1.809 C  
BRANCH  11  12
HETATM   12  C   UNL     1     -11.030  17.076  64.206  1.00  0.00     1.441 C  
BRANCH  12  13
HETATM   13  O   UNL     1     -12.098  16.807  65.118  1.00  0.00     1.176 OA 
BRANCH  13  14
HETATM   14  C   UNL     1     -11.808  15.938  66.137  1.00  0.00     0.895 A  
HETATM   15  C   UNL     1     -12.677  15.559  67.165  1.00  0.00     2.127 A  
HETATM   16  C   UNL     1     -12.233  14.723  68.199  1.00  0.00    -0.047 A  
HETATM   17  C   UNL     1     -10.915  14.249  68.210  1.00  0.00    -0.261 A  
HETATM   18  C   UNL     1     -10.080  14.546  67.126  1.00  0.00    -0.252 A  
HETATM   19  C   UNL     1     -10.515  15.415  66.118  1.00  0.00    -0.325 A  
BRANCH  17  20
HETATM   20  C   UNL     1     -10.428  13.478  69.399  1.00  0.00     0.255 C  
HETATM   21  O   UNL     1     -11.095  12.524  69.790  1.00  0.00    -0.028 OA 
BRANCH  20  22
HETATM   22  C   UNL     1      -9.205  13.913  70.079  1.00  0.00     2.076 A  
HETATM   23  C   UNL     1      -9.068  15.077  70.835  1.00  0.00     2.301 A  
HETATM   24  C   UNL     1      -5.926  11.947  69.668  1.00  0.00    -0.114 A  
HETATM   25  O   UNL     1      -7.801  15.161  71.338  1.00  0.00     2.301 OA 
HETATM   26  C   UNL     1      -5.160  12.781  70.480  1.00  0.00    -0.111 A  
HETATM   27  C   UNL     1      -7.090  14.120  70.849  1.00  0.00     1.336 A  
HETATM   28  C   UNL     1      -7.889  13.323  70.042  1.00  0.00     2.011 A  
HETATM   29  C   UNL     1      -5.734  13.903  71.084  1.00  0.00    -0.220 A  
HETATM   30  C   UNL     1      -7.271  12.228  69.404  1.00  0.00     0.211 A  
BRANCH  23  31
HETATM   31  C   UNL     1      -9.882  16.297  71.110  1.00  0.00     2.752 C  
BRANCH  31  32
HETATM   32  C   UNL     1     -11.158  16.138  71.935  1.00  0.00     0.301 C  
BRANCH  32  33
HETATM   33  C   UNL     1     -11.705  14.721  71.690  1.00  0.00    -0.334 C  
HETATM   34  C   UNL     1     -12.813  14.306  72.641  1.00  0.00    -0.468 C  
ENDBRANCH  32  33
ENDBRANCH  31  32
ENDBRANCH  23  31
BRANCH  24  35
HETATM   35  N   UNL     1      -5.350  10.787  69.073  1.00  0.00    -0.041 N  
HETATM   36  H   UNL     1      -4.618  10.866  68.367  1.00  0.00     0.000 HD 
BRANCH  35  37
HETATM   37  S   UNL     1      -5.917   9.276  69.570  1.00  0.00    -0.033 S  
HETATM   38  C   UNL     1      -5.589   8.289  68.124  1.00  0.00    -0.034 C  
HETATM   39  O   UNL     1      -5.125   8.788  70.675  1.00  0.00    -0.021 OA 
HETATM   40  O   UNL     1      -7.354   9.424  69.682  1.00  0.00    -0.065 OA 
ENDBRANCH  35  37
ENDBRANCH  24  35
ENDBRANCH  20  22
ENDBRANCH  17  20
ENDBRANCH  13  14
ENDBRANCH  12  13
ENDBRANCH  11  12
ENDBRANCH  10  11
ENDBRANCH   5  10
ENDBRANCH   4   5
ENDBRANCH   3   4
ENDBRANCH   2   3
TORSDOF 18
ENDMDL
