MODEL        1
REMARK 921   NORMALIZED FREE ENERGY PREDICTED BY IDOCK:   -6.57 KCAL/MOL
REMARK 922        TOTAL FREE ENERGY PREDICTED BY IDOCK:  -10.90 KCAL/MOL
REMARK 923 INTER-LIGAND FREE ENERGY PREDICTED BY IDOCK:  -10.02 KCAL/MOL
REMARK 924 INTRA-LIGAND FREE ENERGY PREDICTED BY IDOCK:   -0.88 KCAL/MOL
REMARK 927      BINDING AFFINITY PREDICTED BY RF-SCORE:    0.00 PKD
ROOT
HETATM    1  C   UNL     1      -6.249  20.631  64.201  1.00  0.00    -0.342 C  
HETATM    2  C   UNL     1      -6.699  19.635  65.258  1.00  0.00    -0.268 C  
ENDROOT
BRANCH   2   3
HETATM    3  O   UNL     1      -7.950  20.059  65.793  1.00  0.00    -0.326 OA 
BRANCH   3   4
HETATM    4  C   UNL     1      -8.600  19.239  66.684  1.00  0.00    -0.322 A  
HETATM    5  C   UNL     1      -8.273  18.950  68.023  1.00  0.00    -0.293 A  
HETATM    6  C   UNL     1      -9.733  18.640  66.126  1.00  0.00    -0.256 A  
HETATM    7  C   UNL     1      -9.075  18.044  68.752  1.00  0.00    -0.224 A  
HETATM    8  C   UNL     1     -10.519  17.749  66.864  1.00  0.00    -0.308 A  
HETATM    9  C   UNL     1     -10.180  17.398  68.174  1.00  0.00    -0.350 A  
BRANCH   5  10
HETATM   10  O   UNL     1      -7.172  19.560  68.560  1.00  0.00    -0.300 OA 
BRANCH  10  11
HETATM   11  C   UNL     1      -6.263  18.791  69.331  1.00  0.00    -0.270 C  
HETATM   12  C   UNL     1      -5.312  18.104  68.368  1.00  0.00    -0.163 C  
ENDBRANCH  10  11
ENDBRANCH   5  10
BRANCH   9  13
HETATM   13  C   UNL     1     -10.944  16.399  68.976  1.00  0.00    -0.325 C  
HETATM   14  C   UNL     1     -10.771  15.058  68.925  1.00  0.00    -0.240 C  
HETATM   15  N   UNL     1      -9.833  14.494  68.058  1.00  0.00    -0.218 NA 
HETATM   16  C   UNL     1     -10.233  13.321  67.293  1.00  0.00    -0.240 C  
HETATM   17  H   UNL     1      -8.898  14.891  67.964  1.00  0.00     0.000 HD 
HETATM   18  C   UNL     1     -10.578  12.201  68.254  1.00  0.00    -0.236 C  
HETATM   19  C   UNL     1     -11.452  12.682  69.394  1.00  0.00    -0.330 A  
HETATM   20  C   UNL     1     -12.107  11.694  70.148  1.00  0.00    -0.414 A  
HETATM   21  C   UNL     1     -12.885  12.016  71.260  1.00  0.00    -0.265 A  
HETATM   22  C   UNL     1     -13.005  13.370  71.624  1.00  0.00    -0.355 A  
HETATM   23  C   UNL     1     -12.338  14.365  70.862  1.00  0.00    -0.419 A  
HETATM   24  C   UNL     1     -11.551  14.049  69.738  1.00  0.00    -0.344 A  
BRANCH  21  25
HETATM   25  O   UNL     1     -13.521  11.061  72.004  1.00  0.00    -0.378 OA 
BRANCH  25  26
HETATM   26  C   UNL     1     -13.047   9.717  71.962  1.00  0.00    -0.452 C  
HETATM   27  C   UNL     1     -14.240   8.795  72.141  1.00  0.00    -0.504 C  
ENDBRANCH  25  26
ENDBRANCH  21  25
BRANCH  22  28
HETATM   28  O   UNL     1     -13.713  13.891  72.689  1.00  0.00    -0.627 OA 
BRANCH  28  29
HETATM   29  C   UNL     1     -13.600  15.290  72.955  1.00  0.00    -0.487 C  
HETATM   30  C   UNL     1     -12.562  15.528  74.039  1.00  0.00    -0.766 C  
ENDBRANCH  28  29
ENDBRANCH  22  28
ENDBRANCH   9  13
ENDBRANCH   3   4
ENDBRANCH   2   3
TORSDOF 9
ENDMDL
MODEL        2
REMARK 921   NORMALIZED FREE ENERGY PREDICTED BY IDOCK:   -6.46 KCAL/MOL
REMARK 922        TOTAL FREE ENERGY PREDICTED BY IDOCK:  -10.74 KCAL/MOL
REMARK 923 INTER-LIGAND FREE ENERGY PREDICTED BY IDOCK:   -9.73 KCAL/MOL
REMARK 924 INTRA-LIGAND FREE ENERGY PREDICTED BY IDOCK:   -1.01 KCAL/MOL
REMARK 927      BINDING AFFINITY PREDICTED BY RF-SCORE:    0.00 PKD
ROOT
HETATM    1  C   UNL     1     -10.685   3.594  73.148  1.00  0.00    -0.268 C  
HETATM    2  C   UNL     1     -11.385   4.915  73.425  1.00  0.00    -0.298 C  
ENDROOT
BRANCH   2   3
HETATM    3  O   UNL     1     -12.033   5.357  72.234  1.00  0.00    -0.041 OA 
BRANCH   3   4
HETATM    4  C   UNL     1     -11.816   6.643  71.802  1.00  0.00    -0.335 A  
HETATM    5  C   UNL     1     -10.650   7.207  71.249  1.00  0.00    -0.213 A  
HETATM    6  C   UNL     1     -12.945   7.453  71.958  1.00  0.00    -0.200 A  
HETATM    7  C   UNL     1     -10.643   8.576  70.898  1.00  0.00    -0.252 A  
HETATM    8  C   UNL     1     -12.921   8.804  71.600  1.00  0.00    -0.390 A  
HETATM    9  C   UNL     1     -11.758   9.403  71.107  1.00  0.00    -0.418 A  
BRANCH   5  10
HETATM   10  O   UNL     1      -9.561   6.395  71.085  1.00  0.00    -0.173 OA 
BRANCH  10  11
HETATM   11  C   UNL     1      -9.222   5.952  69.780  1.00  0.00    -0.145 C  
HETATM   12  C   UNL     1      -9.800   4.559  69.605  1.00  0.00    -0.288 C  
ENDBRANCH  10  11
ENDBRANCH   5  10
BRANCH   9  13
HETATM   13  C   UNL     1     -11.661  10.856  70.781  1.00  0.00    -0.355 C  
HETATM   14  C   UNL     1     -11.752  11.388  69.541  1.00  0.00    -0.348 C  
HETATM   15  N   UNL     1     -11.931  10.566  68.426  1.00  0.00    -0.788 NA 
HETATM   16  C   UNL     1     -11.129  10.844  67.242  1.00  0.00    -0.283 C  
HETATM   17  H   UNL     1     -12.600   9.797  68.440  1.00  0.00     0.000 HD 
HETATM   18  C   UNL     1     -11.457  12.236  66.740  1.00  0.00    -0.421 C  
HETATM   19  C   UNL     1     -11.500  13.248  67.866  1.00  0.00    -0.341 A  
HETATM   20  C   UNL     1     -11.458  14.603  67.499  1.00  0.00    -0.378 A  
HETATM   21  C   UNL     1     -11.557  15.623  68.446  1.00  0.00    -0.350 A  
HETATM   22  C   UNL     1     -11.704  15.268  69.799  1.00  0.00    -0.323 A  
HETATM   23  C   UNL     1     -11.750  13.897  70.166  1.00  0.00    -0.314 A  
HETATM   24  C   UNL     1     -11.651  12.862  69.217  1.00  0.00    -0.368 A  
BRANCH  21  25
HETATM   25  O   UNL     1     -11.523  16.945  68.097  1.00  0.00    -0.103 OA 
BRANCH  25  26
HETATM   26  C   UNL     1     -10.264  17.606  67.999  1.00  0.00    -0.362 C  
HETATM   27  C   UNL     1     -10.526  19.056  67.631  1.00  0.00    -0.523 C  
ENDBRANCH  25  26
ENDBRANCH  21  25
BRANCH  22  28
HETATM   28  O   UNL     1     -11.829  16.120  70.879  1.00  0.00    -0.384 OA 
BRANCH  28  29
HETATM   29  C   UNL     1     -12.692  15.730  71.949  1.00  0.00    -0.451 C  
HETATM   30  C   UNL     1     -12.189  16.316  73.257  1.00  0.00    -0.616 C  
ENDBRANCH  28  29
ENDBRANCH  22  28
ENDBRANCH   9  13
ENDBRANCH   3   4
ENDBRANCH   2   3
TORSDOF 9
ENDMDL
MODEL        3
REMARK 921   NORMALIZED FREE ENERGY PREDICTED BY IDOCK:   -6.27 KCAL/MOL
REMARK 922        TOTAL FREE ENERGY PREDICTED BY IDOCK:  -10.44 KCAL/MOL
REMARK 923 INTER-LIGAND FREE ENERGY PREDICTED BY IDOCK:   -9.41 KCAL/MOL
REMARK 924 INTRA-LIGAND FREE ENERGY PREDICTED BY IDOCK:   -1.04 KCAL/MOL
REMARK 927      BINDING AFFINITY PREDICTED BY RF-SCORE:    0.00 PKD
ROOT
HETATM    1  C   UNL     1      -9.662  20.703  67.107  1.00  0.00    -0.530 C  
HETATM    2  C   UNL     1     -10.155  19.772  66.011  1.00  0.00    -0.477 C  
ENDROOT
BRANCH   2   3
HETATM    3  O   UNL     1      -9.302  18.632  65.950  1.00  0.00    -0.475 OA 
BRANCH   3   4
HETATM    4  C   UNL     1      -9.566  17.564  66.772  1.00  0.00    -0.282 A  
HETATM    5  C   UNL     1      -9.024  17.264  68.037  1.00  0.00    -0.242 A  
HETATM    6  C   UNL     1     -10.511  16.691  66.224  1.00  0.00    -0.272 A  
HETATM    7  C   UNL     1      -9.423  16.082  68.699  1.00  0.00    -0.224 A  
HETATM    8  C   UNL     1     -10.898  15.528  66.896  1.00  0.00    -0.301 A  
HETATM    9  C   UNL     1     -10.329  15.176  68.124  1.00  0.00    -0.239 A  
BRANCH   5  10
HETATM   10  O   UNL     1      -8.116  18.139  68.569  1.00  0.00    -0.294 OA 
BRANCH  10  11
HETATM   11  C   UNL     1      -6.753  18.032  68.191  1.00  0.00    -0.201 C  
HETATM   12  C   UNL     1      -5.916  18.579  69.335  1.00  0.00    -0.257 C  
ENDBRANCH  10  11
ENDBRANCH   5  10
BRANCH   9  13
HETATM   13  C   UNL     1     -10.655  13.911  68.843  1.00  0.00    -0.228 C  
HETATM   14  C   UNL     1     -11.672  13.747  69.718  1.00  0.00    -0.302 C  
HETATM   15  N   UNL     1     -12.514  14.815  70.038  1.00  0.00    -0.495 NA 
HETATM   16  C   UNL     1     -12.856  15.015  71.439  1.00  0.00    -0.359 C  
HETATM   17  H   UNL     1     -12.878  15.434  69.314  1.00  0.00     0.000 HD 
HETATM   18  C   UNL     1     -13.592  13.791  71.946  1.00  0.00    -0.514 C  
HETATM   19  C   UNL     1     -12.913  12.506  71.521  1.00  0.00    -0.379 A  
HETATM   20  C   UNL     1     -13.296  11.335  72.197  1.00  0.00    -0.263 A  
HETATM   21  C   UNL     1     -12.785  10.085  71.845  1.00  0.00    -0.398 A  
HETATM   22  C   UNL     1     -11.867  10.012  70.782  1.00  0.00    -0.346 A  
HETATM   23  C   UNL     1     -11.486  11.196  70.098  1.00  0.00    -0.361 A  
HETATM   24  C   UNL     1     -11.996  12.462  70.446  1.00  0.00    -0.342 A  
BRANCH  21  25
HETATM   25  O   UNL     1     -13.157   8.939  72.493  1.00  0.00    -0.422 OA 
BRANCH  25  26
HETATM   26  C   UNL     1     -14.364   8.284  72.110  1.00  0.00    -0.404 C  
HETATM   27  C   UNL     1     -14.004   6.898  71.608  1.00  0.00    -0.298 C  
ENDBRANCH  25  26
ENDBRANCH  21  25
BRANCH  22  28
HETATM   28  O   UNL     1     -11.260   8.879  70.277  1.00  0.00    -0.248 OA 
BRANCH  28  29
HETATM   29  C   UNL     1     -10.722   8.935  68.955  1.00  0.00    -0.106 C  
HETATM   30  C   UNL     1      -9.320   8.349  68.942  1.00  0.00    -0.147 C  
ENDBRANCH  28  29
ENDBRANCH  22  28
ENDBRANCH   9  13
ENDBRANCH   3   4
ENDBRANCH   2   3
TORSDOF 9
ENDMDL
MODEL        4
REMARK 921   NORMALIZED FREE ENERGY PREDICTED BY IDOCK:   -6.21 KCAL/MOL
REMARK 922        TOTAL FREE ENERGY PREDICTED BY IDOCK:  -10.36 KCAL/MOL
REMARK 923 INTER-LIGAND FREE ENERGY PREDICTED BY IDOCK:   -9.36 KCAL/MOL
REMARK 924 INTRA-LIGAND FREE ENERGY PREDICTED BY IDOCK:   -1.01 KCAL/MOL
REMARK 927      BINDING AFFINITY PREDICTED BY RF-SCORE:    0.00 PKD
ROOT
HETATM    1  C   UNL     1     -10.846   5.491  72.151  1.00  0.00    -0.293 C  
HETATM    2  C   UNL     1     -11.484   6.838  72.452  1.00  0.00    -0.264 C  
ENDROOT
BRANCH   2   3
HETATM    3  O   UNL     1     -12.218   7.271  71.309  1.00  0.00    -0.321 OA 
BRANCH   3   4
HETATM    4  C   UNL     1     -11.808   8.405  70.652  1.00  0.00    -0.092 A  
HETATM    5  C   UNL     1     -10.847   8.539  69.631  1.00  0.00    -0.151 A  
HETATM    6  C   UNL     1     -12.473   9.550  71.101  1.00  0.00    -0.399 A  
HETATM    7  C   UNL     1     -10.560   9.823  69.114  1.00  0.00    -0.237 A  
HETATM    8  C   UNL     1     -12.179  10.811  70.575  1.00  0.00    -0.457 A  
HETATM    9  C   UNL     1     -11.187  10.979  69.605  1.00  0.00    -0.345 A  
BRANCH   5  10
HETATM   10  O   UNL     1     -10.220   7.406  69.188  1.00  0.00    -0.185 OA 
BRANCH  10  11
HETATM   11  C   UNL     1     -10.962   6.454  68.441  1.00  0.00    -0.309 C  
HETATM   12  C   UNL     1     -10.775   6.779  66.970  1.00  0.00    -0.435 C  
ENDBRANCH  10  11
ENDBRANCH   5  10
BRANCH   9  13
HETATM   13  C   UNL     1     -10.787  12.312  69.066  1.00  0.00    -0.197 C  
HETATM   14  C   UNL     1     -11.171  12.821  67.873  1.00  0.00    -0.274 C  
HETATM   15  N   UNL     1     -11.991  12.084  67.016  1.00  0.00    -0.606 NA 
HETATM   16  C   UNL     1     -11.646  12.059  65.601  1.00  0.00    -0.296 C  
HETATM   17  H   UNL     1     -12.804  11.581  67.369  1.00  0.00     0.000 HD 
HETATM   18  C   UNL     1     -11.704  13.472  65.055  1.00  0.00    -0.354 C  
HETATM   19  C   UNL     1     -11.016  14.461  65.972  1.00  0.00    -0.316 A  
HETATM   20  C   UNL     1     -10.709  15.719  65.427  1.00  0.00    -0.420 A  
HETATM   21  C   UNL     1     -10.135  16.731  66.197  1.00  0.00    -0.345 A  
HETATM   22  C   UNL     1      -9.865  16.470  67.553  1.00  0.00    -0.248 A  
HETATM   23  C   UNL     1     -10.181  15.199  68.101  1.00  0.00    -0.227 A  
HETATM   24  C   UNL     1     -10.760  14.172  67.331  1.00  0.00    -0.284 A  
BRANCH  21  25
HETATM   25  O   UNL     1      -9.839  17.962  65.677  1.00  0.00    -0.512 OA 
BRANCH  25  26
HETATM   26  C   UNL     1     -10.736  19.046  65.904  1.00  0.00    -0.327 C  
HETATM   27  C   UNL     1      -9.954  20.168  66.565  1.00  0.00    -0.586 C  
ENDBRANCH  25  26
ENDBRANCH  21  25
BRANCH  22  28
HETATM   28  O   UNL     1      -9.315  17.335  68.479  1.00  0.00    -0.262 OA 
BRANCH  28  29
HETATM   29  C   UNL     1      -7.901  17.302  68.675  1.00  0.00    -0.272 C  
HETATM   30  C   UNL     1      -7.361  18.717  68.783  1.00  0.00    -0.342 C  
ENDBRANCH  28  29
ENDBRANCH  22  28
ENDBRANCH   9  13
ENDBRANCH   3   4
ENDBRANCH   2   3
TORSDOF 9
ENDMDL
MODEL        5
REMARK 921   NORMALIZED FREE ENERGY PREDICTED BY IDOCK:   -6.21 KCAL/MOL
REMARK 922        TOTAL FREE ENERGY PREDICTED BY IDOCK:  -10.35 KCAL/MOL
REMARK 923 INTER-LIGAND FREE ENERGY PREDICTED BY IDOCK:   -9.23 KCAL/MOL
REMARK 924 INTRA-LIGAND FREE ENERGY PREDICTED BY IDOCK:   -1.12 KCAL/MOL
REMARK 927      BINDING AFFINITY PREDICTED BY RF-SCORE:    0.00 PKD
ROOT
HETATM    1  C   UNL     1     -10.001  20.415  66.952  1.00  0.00    -0.549 C  
HETATM    2  C   UNL     1     -10.695  19.405  66.052  1.00  0.00    -0.417 C  
ENDROOT
BRANCH   2   3
HETATM    3  O   UNL     1      -9.817  18.308  65.820  1.00  0.00    -0.516 OA 
BRANCH   3   4
HETATM    4  C   UNL     1      -9.956  17.176  66.587  1.00  0.00    -0.295 A  
HETATM    5  C   UNL     1      -9.389  16.881  67.842  1.00  0.00    -0.238 A  
HETATM    6  C   UNL     1     -10.785  16.225  65.985  1.00  0.00    -0.217 A  
HETATM    7  C   UNL     1      -9.647  15.628  68.441  1.00  0.00    -0.199 A  
HETATM    8  C   UNL     1     -11.034  14.991  66.596  1.00  0.00    -0.325 A  
HETATM    9  C   UNL     1     -10.434  14.650  67.812  1.00  0.00    -0.246 A  
BRANCH   5  10
HETATM   10  O   UNL     1      -8.596  17.831  68.426  1.00  0.00    -0.278 OA 
BRANCH  10  11
HETATM   11  C   UNL     1      -7.254  17.505  68.750  1.00  0.00    -0.257 C  
HETATM   12  C   UNL     1      -6.392  17.874  67.556  1.00  0.00    -0.179 C  
ENDBRANCH  10  11
ENDBRANCH   5  10
BRANCH   9  13
HETATM   13  C   UNL     1     -10.610  13.321  68.465  1.00  0.00    -0.270 C  
HETATM   14  C   UNL     1     -11.551  13.020  69.388  1.00  0.00    -0.299 C  
HETATM   15  N   UNL     1     -12.453  13.992  69.827  1.00  0.00    -0.400 NA 
HETATM   16  C   UNL     1     -12.717  14.078  71.257  1.00  0.00    -0.365 C  
HETATM   17  H   UNL     1     -12.911  14.621  69.168  1.00  0.00     0.000 HD 
HETATM   18  C   UNL     1     -13.318  12.768  71.726  1.00  0.00    -0.436 C  
HETATM   19  C   UNL     1     -12.568  11.572  71.177  1.00  0.00    -0.463 A  
HETATM   20  C   UNL     1     -12.810  10.335  71.797  1.00  0.00    -0.565 A  
HETATM   21  C   UNL     1     -12.226   9.156  71.334  1.00  0.00    -0.335 A  
HETATM   22  C   UNL     1     -11.376   9.224  70.214  1.00  0.00    -0.203 A  
HETATM   23  C   UNL     1     -11.137  10.475  69.588  1.00  0.00    -0.338 A  
HETATM   24  C   UNL     1     -11.722  11.670  70.049  1.00  0.00    -0.402 A  
BRANCH  21  25
HETATM   25  O   UNL     1     -12.461   7.946  71.927  1.00  0.00    -0.304 OA 
BRANCH  25  26
HETATM   26  C   UNL     1     -11.466   7.385  72.779  1.00  0.00    -0.265 C  
HETATM   27  C   UNL     1     -11.267   5.935  72.373  1.00  0.00    -0.340 C  
ENDBRANCH  25  26
ENDBRANCH  21  25
BRANCH  22  28
HETATM   28  O   UNL     1     -10.716   8.178  69.600  1.00  0.00    -0.229 OA 
BRANCH  28  29
HETATM   29  C   UNL     1      -9.304   8.071  69.787  1.00  0.00    -0.159 C  
HETATM   30  C   UNL     1      -8.860   6.637  69.557  1.00  0.00    -0.139 C  
ENDBRANCH  28  29
ENDBRANCH  22  28
ENDBRANCH   9  13
ENDBRANCH   3   4
ENDBRANCH   2   3
TORSDOF 9
ENDMDL
MODEL        6
REMARK 921   NORMALIZED FREE ENERGY PREDICTED BY IDOCK:   -6.14 KCAL/MOL
REMARK 922        TOTAL FREE ENERGY PREDICTED BY IDOCK:  -10.25 KCAL/MOL
REMARK 923 INTER-LIGAND FREE ENERGY PREDICTED BY IDOCK:   -9.67 KCAL/MOL
REMARK 924 INTRA-LIGAND FREE ENERGY PREDICTED BY IDOCK:   -0.57 KCAL/MOL
REMARK 927      BINDING AFFINITY PREDICTED BY RF-SCORE:    0.00 PKD
ROOT
HETATM    1  C   UNL     1     -10.541  19.575  65.847  1.00  0.00    -0.572 C  
HETATM    2  C   UNL     1     -10.261  18.367  66.727  1.00  0.00    -0.388 C  
ENDROOT
BRANCH   2   3
HETATM    3  O   UNL     1      -9.848  17.279  65.906  1.00  0.00    -0.494 OA 
BRANCH   3   4
HETATM    4  C   UNL     1      -9.997  15.999  66.380  1.00  0.00    -0.295 A  
HETATM    5  C   UNL     1     -10.631  14.897  65.772  1.00  0.00    -0.331 A  
HETATM    6  C   UNL     1      -9.420  15.828  67.642  1.00  0.00    -0.218 A  
HETATM    7  C   UNL     1     -10.693  13.666  66.463  1.00  0.00    -0.284 A  
HETATM    8  C   UNL     1      -9.487  14.601  68.309  1.00  0.00    -0.211 A  
HETATM    9  C   UNL     1     -10.163  13.510  67.754  1.00  0.00    -0.242 A  
BRANCH   5  10
HETATM   10  O   UNL     1     -11.173  15.076  64.529  1.00  0.00    -0.343 OA 
BRANCH  10  11
HETATM   11  C   UNL     1     -12.396  14.430  64.210  1.00  0.00    -0.373 C  
HETATM   12  C   UNL     1     -12.062  13.183  63.411  1.00  0.00    -0.558 C  
ENDBRANCH  10  11
ENDBRANCH   5  10
BRANCH   9  13
HETATM   13  C   UNL     1     -10.325  12.205  68.458  1.00  0.00    -0.233 C  
HETATM   14  C   UNL     1     -11.289  11.917  69.361  1.00  0.00    -0.261 C  
HETATM   15  N   UNL     1     -12.232  12.880  69.728  1.00  0.00    -0.216 NA 
HETATM   16  C   UNL     1     -12.547  13.019  71.143  1.00  0.00    -0.297 C  
HETATM   17  H   UNL     1     -12.684  13.467  69.027  1.00  0.00     0.000 HD 
HETATM   18  C   UNL     1     -13.128  11.714  71.648  1.00  0.00    -0.456 C  
HETATM   19  C   UNL     1     -12.328  10.518  71.177  1.00  0.00    -0.510 A  
HETATM   20  C   UNL     1     -12.557   9.302  71.841  1.00  0.00    -0.468 A  
HETATM   21  C   UNL     1     -11.926   8.121  71.449  1.00  0.00    -0.298 A  
HETATM   22  C   UNL     1     -11.040   8.166  70.357  1.00  0.00    -0.239 A  
HETATM   23  C   UNL     1     -10.813   9.396  69.685  1.00  0.00    -0.245 A  
HETATM   24  C   UNL     1     -11.447  10.592  70.074  1.00  0.00    -0.393 A  
BRANCH  21  25
HETATM   25  O   UNL     1     -12.148   6.931  72.086  1.00  0.00    -0.291 OA 
BRANCH  25  26
HETATM   26  C   UNL     1     -11.043   6.222  72.640  1.00  0.00    -0.263 C  
HETATM   27  C   UNL     1     -10.384   7.117  73.674  1.00  0.00    -0.411 C  
ENDBRANCH  25  26
ENDBRANCH  21  25
BRANCH  22  28
HETATM   28  O   UNL     1     -10.331   7.114  69.811  1.00  0.00    -0.202 OA 
BRANCH  28  29
HETATM   29  C   UNL     1     -10.979   6.299  68.834  1.00  0.00    -0.368 C  
HETATM   30  C   UNL     1     -10.036   5.204  68.365  1.00  0.00    -0.214 C  
ENDBRANCH  28  29
ENDBRANCH  22  28
ENDBRANCH   9  13
ENDBRANCH   3   4
ENDBRANCH   2   3
TORSDOF 9
ENDMDL
MODEL        7
REMARK 921   NORMALIZED FREE ENERGY PREDICTED BY IDOCK:   -6.08 KCAL/MOL
REMARK 922        TOTAL FREE ENERGY PREDICTED BY IDOCK:  -10.16 KCAL/MOL
REMARK 923 INTER-LIGAND FREE ENERGY PREDICTED BY IDOCK:   -9.32 KCAL/MOL
REMARK 924 INTRA-LIGAND FREE ENERGY PREDICTED BY IDOCK:   -0.84 KCAL/MOL
REMARK 927      BINDING AFFINITY PREDICTED BY RF-SCORE:    0.00 PKD
ROOT
HETATM    1  C   UNL     1     -10.970  15.769  64.878  1.00  0.00    -0.443 C  
HETATM    2  C   UNL     1     -12.000  14.944  64.124  1.00  0.00    -0.235 C  
ENDROOT
BRANCH   2   3
HETATM    3  O   UNL     1     -12.795  14.224  65.061  1.00  0.00    -0.674 OA 
BRANCH   3   4
HETATM    4  C   UNL     1     -12.180  13.322  65.895  1.00  0.00    -0.441 A  
HETATM    5  C   UNL     1     -11.548  12.105  65.572  1.00  0.00    -0.343 A  
HETATM    6  C   UNL     1     -12.219  13.723  67.234  1.00  0.00    -0.315 A  
HETATM    7  C   UNL     1     -11.001  11.313  66.607  1.00  0.00    -0.326 A  
HETATM    8  C   UNL     1     -11.668  12.928  68.244  1.00  0.00    -0.390 A  
HETATM    9  C   UNL     1     -11.090  11.688  67.957  1.00  0.00    -0.299 A  
BRANCH   5  10
HETATM   10  O   UNL     1     -11.501  11.737  64.255  1.00  0.00    -0.343 OA 
BRANCH  10  11
HETATM   11  C   UNL     1     -10.279  11.868  63.545  1.00  0.00    -0.457 C  
HETATM   12  C   UNL     1      -9.782  10.468  63.228  1.00  0.00    -0.361 C  
ENDBRANCH  10  11
ENDBRANCH   5  10
BRANCH   9  13
HETATM   13  C   UNL     1     -10.556  10.773  69.006  1.00  0.00    -0.250 C  
HETATM   14  C   UNL     1     -11.296  10.147  69.949  1.00  0.00    -0.275 C  
HETATM   15  N   UNL     1     -12.677  10.344  70.017  1.00  0.00    -0.549 NA 
HETATM   16  C   UNL     1     -13.269  10.559  71.330  1.00  0.00    -0.345 C  
HETATM   17  H   UNL     1     -13.252  10.339  69.175  1.00  0.00     0.000 HD 
HETATM   18  C   UNL     1     -13.023   9.334  72.188  1.00  0.00    -0.503 C  
HETATM   19  C   UNL     1     -11.591   8.851  72.086  1.00  0.00    -0.400 A  
HETATM   20  C   UNL     1     -11.156   7.949  73.072  1.00  0.00    -0.379 A  
HETATM   21  C   UNL     1      -9.880   7.388  73.041  1.00  0.00    -0.230 A  
HETATM   22  C   UNL     1      -9.017   7.742  71.987  1.00  0.00    -0.134 A  
HETATM   23  C   UNL     1      -9.462   8.650  70.990  1.00  0.00    -0.261 A  
HETATM   24  C   UNL     1     -10.748   9.221  71.013  1.00  0.00    -0.387 A  
BRANCH  21  25
HETATM   25  O   UNL     1      -9.450   6.505  73.993  1.00  0.00    -0.163 OA 
BRANCH  25  26
HETATM   26  C   UNL     1     -10.379   5.580  74.553  1.00  0.00    -0.239 C  
HETATM   27  C   UNL     1     -10.590   4.462  73.547  1.00  0.00    -0.299 C  
ENDBRANCH  25  26
ENDBRANCH  21  25
BRANCH  22  28
HETATM   28  O   UNL     1      -7.730   7.292  71.771  1.00  0.00    -0.085 OA 
BRANCH  28  29
HETATM   29  C   UNL     1      -7.465   6.554  70.577  1.00  0.00    -0.090 C  
HETATM   30  C   UNL     1      -8.057   5.159  70.690  1.00  0.00    -0.106 C  
ENDBRANCH  28  29
ENDBRANCH  22  28
ENDBRANCH   9  13
ENDBRANCH   3   4
ENDBRANCH   2   3
TORSDOF 9
ENDMDL
MODEL        8
REMARK 921   NORMALIZED FREE ENERGY PREDICTED BY IDOCK:   -6.08 KCAL/MOL
REMARK 922        TOTAL FREE ENERGY PREDICTED BY IDOCK:  -10.16 KCAL/MOL
REMARK 923 INTER-LIGAND FREE ENERGY PREDICTED BY IDOCK:   -8.91 KCAL/MOL
REMARK 924 INTRA-LIGAND FREE ENERGY PREDICTED BY IDOCK:   -1.25 KCAL/MOL
REMARK 927      BINDING AFFINITY PREDICTED BY RF-SCORE:    0.00 PKD
ROOT
HETATM    1  C   UNL     1      -9.744   4.738  69.609  1.00  0.00    -0.272 C  
HETATM    2  C   UNL     1      -9.970   5.133  68.158  1.00  0.00    -0.145 C  
ENDROOT
BRANCH   2   3
HETATM    3  O   UNL     1     -11.005   6.110  68.098  1.00  0.00    -0.311 OA 
BRANCH   3   4
HETATM    4  C   UNL     1     -10.658   7.437  68.022  1.00  0.00    -0.175 A  
HETATM    5  C   UNL     1     -10.658   8.413  69.038  1.00  0.00    -0.154 A  
HETATM    6  C   UNL     1     -10.258   7.809  66.735  1.00  0.00    -0.346 A  
HETATM    7  C   UNL     1     -10.287   9.740  68.723  1.00  0.00    -0.227 A  
HETATM    8  C   UNL     1      -9.889   9.126  66.444  1.00  0.00    -0.350 A  
HETATM    9  C   UNL     1      -9.940  10.126  67.419  1.00  0.00    -0.238 A  
BRANCH   5  10
HETATM   10  O   UNL     1     -11.033   8.028  70.296  1.00  0.00    -0.248 OA 
BRANCH  10  11
HETATM   11  C   UNL     1     -10.916   8.954  71.365  1.00  0.00    -0.310 C  
HETATM   12  C   UNL     1      -9.747   8.512  72.227  1.00  0.00    -0.380 C  
ENDBRANCH  10  11
ENDBRANCH   5  10
BRANCH   9  13
HETATM   13  C   UNL     1      -9.627  11.557  67.139  1.00  0.00    -0.189 C  
HETATM   14  C   UNL     1     -10.505  12.474  66.672  1.00  0.00    -0.233 C  
HETATM   15  N   UNL     1     -11.824  12.114  66.386  1.00  0.00    -0.607 NA 
HETATM   16  C   UNL     1     -12.408  12.604  65.145  1.00  0.00    -0.484 C  
HETATM   17  H   UNL     1     -12.360  11.528  67.025  1.00  0.00     0.000 HD 
HETATM   18  C   UNL     1     -12.430  14.120  65.176  1.00  0.00    -0.453 C  
HETATM   19  C   UNL     1     -11.115  14.694  65.658  1.00  0.00    -0.338 A  
HETATM   20  C   UNL     1     -10.894  16.060  65.414  1.00  0.00    -0.340 A  
HETATM   21  C   UNL     1      -9.748  16.711  65.870  1.00  0.00    -0.237 A  
HETATM   22  C   UNL     1      -8.799  15.968  66.595  1.00  0.00    -0.272 A  
HETATM   23  C   UNL     1      -9.027  14.589  66.844  1.00  0.00    -0.267 A  
HETATM   24  C   UNL     1     -10.180  13.924  66.387  1.00  0.00    -0.292 A  
BRANCH  21  25
HETATM   25  O   UNL     1      -9.528  18.042  65.642  1.00  0.00    -0.396 OA 
BRANCH  25  26
HETATM   26  C   UNL     1     -10.562  18.978  65.938  1.00  0.00    -0.393 C  
HETATM   27  C   UNL     1     -10.558  19.220  67.437  1.00  0.00    -0.594 C  
ENDBRANCH  25  26
ENDBRANCH  21  25
BRANCH  22  28
HETATM   28  O   UNL     1      -7.615  16.426  67.139  1.00  0.00    -0.152 OA 
BRANCH  28  29
HETATM   29  C   UNL     1      -7.588  16.735  68.533  1.00  0.00    -0.217 C  
HETATM   30  C   UNL     1      -7.292  18.212  68.729  1.00  0.00    -0.286 C  
ENDBRANCH  28  29
ENDBRANCH  22  28
ENDBRANCH   9  13
ENDBRANCH   3   4
ENDBRANCH   2   3
TORSDOF 9
ENDMDL
MODEL        9
REMARK 921   NORMALIZED FREE ENERGY PREDICTED BY IDOCK:   -6.06 KCAL/MOL
REMARK 922        TOTAL FREE ENERGY PREDICTED BY IDOCK:  -10.13 KCAL/MOL
REMARK 923 INTER-LIGAND FREE ENERGY PREDICTED BY IDOCK:   -9.32 KCAL/MOL
REMARK 924 INTRA-LIGAND FREE ENERGY PREDICTED BY IDOCK:   -0.80 KCAL/MOL
REMARK 927      BINDING AFFINITY PREDICTED BY RF-SCORE:    0.00 PKD
ROOT
HETATM    1  C   UNL     1      -9.918  20.084  65.994  1.00  0.00    -0.542 C  
HETATM    2  C   UNL     1     -10.625  18.738  66.033  1.00  0.00    -0.386 C  
ENDROOT
BRANCH   2   3
HETATM    3  O   UNL     1      -9.662  17.702  65.861  1.00  0.00    -0.521 OA 
BRANCH   3   4
HETATM    4  C   UNL     1      -9.801  16.544  66.586  1.00  0.00    -0.268 A  
HETATM    5  C   UNL     1      -9.478  16.300  67.936  1.00  0.00    -0.218 A  
HETATM    6  C   UNL     1     -10.342  15.502  65.827  1.00  0.00    -0.384 A  
HETATM    7  C   UNL     1      -9.679  15.009  68.473  1.00  0.00    -0.217 A  
HETATM    8  C   UNL     1     -10.539  14.232  66.378  1.00  0.00    -0.286 A  
HETATM    9  C   UNL     1     -10.169  13.947  67.696  1.00  0.00    -0.242 A  
BRANCH   5  10
HETATM   10  O   UNL     1      -8.969  17.336  68.670  1.00  0.00    -0.269 OA 
BRANCH  10  11
HETATM   11  C   UNL     1      -7.590  17.650  68.556  1.00  0.00    -0.272 C  
HETATM   12  C   UNL     1      -7.449  19.155  68.698  1.00  0.00    -0.370 C  
ENDBRANCH  10  11
ENDBRANCH   5  10
BRANCH   9  13
HETATM   13  C   UNL     1     -10.291  12.591  68.304  1.00  0.00    -0.241 C  
HETATM   14  C   UNL     1     -11.229  12.218  69.205  1.00  0.00    -0.242 C  
HETATM   15  N   UNL     1     -12.180  13.133  69.662  1.00  0.00    -0.234 NA 
HETATM   16  C   UNL     1     -12.464  13.161  71.090  1.00  0.00    -0.287 C  
HETATM   17  H   UNL     1     -12.659  13.761  69.017  1.00  0.00     0.000 HD 
HETATM   18  C   UNL     1     -13.010  11.810  71.510  1.00  0.00    -0.446 C  
HETATM   19  C   UNL     1     -12.199  10.669  70.933  1.00  0.00    -0.497 A  
HETATM   20  C   UNL     1     -12.392   9.403  71.511  1.00  0.00    -0.452 A  
HETATM   21  C   UNL     1     -11.748   8.267  71.019  1.00  0.00    -0.270 A  
HETATM   22  C   UNL     1     -10.889   8.409  69.913  1.00  0.00    -0.207 A  
HETATM   23  C   UNL     1     -10.700   9.690  69.330  1.00  0.00    -0.248 A  
HETATM   24  C   UNL     1     -11.345  10.841  69.820  1.00  0.00    -0.372 A  
BRANCH  21  25
HETATM   25  O   UNL     1     -11.934   7.029  71.570  1.00  0.00    -0.294 OA 
BRANCH  25  26
HETATM   26  C   UNL     1     -10.862   6.417  72.283  1.00  0.00    -0.239 C  
HETATM   27  C   UNL     1     -10.659   7.189  73.575  1.00  0.00    -0.416 C  
ENDBRANCH  25  26
ENDBRANCH  21  25
BRANCH  22  28
HETATM   28  O   UNL     1     -10.173   7.415  69.276  1.00  0.00    -0.188 OA 
BRANCH  28  29
HETATM   29  C   UNL     1     -10.895   6.459  68.498  1.00  0.00    -0.314 C  
HETATM   30  C   UNL     1     -10.657   6.711  67.019  1.00  0.00    -0.404 C  
ENDBRANCH  28  29
ENDBRANCH  22  28
ENDBRANCH   9  13
ENDBRANCH   3   4
ENDBRANCH   2   3
TORSDOF 9
ENDMDL
MODEL       10
REMARK 921   NORMALIZED FREE ENERGY PREDICTED BY IDOCK:   -6.00 KCAL/MOL
REMARK 922        TOTAL FREE ENERGY PREDICTED BY IDOCK:  -10.04 KCAL/MOL
REMARK 923 INTER-LIGAND FREE ENERGY PREDICTED BY IDOCK:   -9.07 KCAL/MOL
REMARK 924 INTRA-LIGAND FREE ENERGY PREDICTED BY IDOCK:   -0.97 KCAL/MOL
REMARK 927      BINDING AFFINITY PREDICTED BY RF-SCORE:    0.00 PKD
ROOT
HETATM    1  C   UNL     1      -9.995   4.760  69.428  1.00  0.00    -0.269 C  
HETATM    2  C   UNL     1     -10.441   5.783  70.460  1.00  0.00    -0.263 C  
ENDROOT
BRANCH   2   3
HETATM    3  O   UNL     1     -11.417   6.640  69.874  1.00  0.00    -0.358 OA 
BRANCH   3   4
HETATM    4  C   UNL     1     -11.099   7.961  69.670  1.00  0.00    -0.026 A  
HETATM    5  C   UNL     1     -11.379   9.076  70.485  1.00  0.00    -0.243 A  
HETATM    6  C   UNL     1     -10.402   8.163  68.475  1.00  0.00    -0.230 A  
HETATM    7  C   UNL     1     -10.979  10.362  70.059  1.00  0.00    -0.370 A  
HETATM    8  C   UNL     1     -10.009   9.443  68.073  1.00  0.00    -0.209 A  
HETATM    9  C   UNL     1     -10.329  10.572  68.833  1.00  0.00    -0.226 A  
BRANCH   5  10
HETATM   10  O   UNL     1     -12.045   8.859  71.661  1.00  0.00    -0.304 OA 
BRANCH  10  11
HETATM   11  C   UNL     1     -13.335   9.421  71.837  1.00  0.00    -0.434 C  
HETATM   12  C   UNL     1     -14.352   8.321  71.586  1.00  0.00    -0.561 C  
ENDBRANCH  10  11
ENDBRANCH   5  10
BRANCH   9  13
HETATM   13  C   UNL     1      -9.997  11.963  68.409  1.00  0.00    -0.203 C  
HETATM   14  C   UNL     1     -10.704  12.702  67.524  1.00  0.00    -0.225 C  
HETATM   15  N   UNL     1     -11.838  12.174  66.902  1.00  0.00    -0.601 NA 
HETATM   16  C   UNL     1     -11.994  12.399  65.472  1.00  0.00    -0.391 C  
HETATM   17  H   UNL     1     -12.532  11.649  67.432  1.00  0.00     0.000 HD 
HETATM   18  C   UNL     1     -12.084  13.890  65.214  1.00  0.00    -0.422 C  
HETATM   19  C   UNL     1     -11.028  14.660  65.978  1.00  0.00    -0.325 A  
HETATM   20  C   UNL     1     -10.792  15.984  65.570  1.00  0.00    -0.301 A  
HETATM   21  C   UNL     1      -9.889  16.809  66.242  1.00  0.00    -0.309 A  
HETATM   22  C   UNL     1      -9.207  16.288  67.357  1.00  0.00    -0.211 A  
HETATM   23  C   UNL     1      -9.451  14.951  67.769  1.00  0.00    -0.203 A  
HETATM   24  C   UNL     1     -10.360  14.112  67.097  1.00  0.00    -0.265 A  
BRANCH  21  25
HETATM   25  O   UNL     1      -9.658  18.100  65.856  1.00  0.00    -0.519 OA 
BRANCH  25  26
HETATM   26  C   UNL     1     -10.602  19.110  66.205  1.00  0.00    -0.439 C  
HETATM   27  C   UNL     1     -10.048  19.877  67.392  1.00  0.00    -0.567 C  
ENDBRANCH  25  26
ENDBRANCH  21  25
BRANCH  22  28
HETATM   28  O   UNL     1      -8.290  16.940  68.157  1.00  0.00    -0.199 OA 
BRANCH  28  29
HETATM   29  C   UNL     1      -7.065  17.373  67.563  1.00  0.00    -0.163 C  
HETATM   30  C   UNL     1      -6.654  18.713  68.147  1.00  0.00    -0.231 C  
ENDBRANCH  28  29
ENDBRANCH  22  28
ENDBRANCH   9  13
ENDBRANCH   3   4
ENDBRANCH   2   3
TORSDOF 9
ENDMDL
MODEL       11
REMARK 921   NORMALIZED FREE ENERGY PREDICTED BY IDOCK:   -5.99 KCAL/MOL
REMARK 922        TOTAL FREE ENERGY PREDICTED BY IDOCK:  -10.03 KCAL/MOL
REMARK 923 INTER-LIGAND FREE ENERGY PREDICTED BY IDOCK:   -8.79 KCAL/MOL
REMARK 924 INTRA-LIGAND FREE ENERGY PREDICTED BY IDOCK:   -1.23 KCAL/MOL
REMARK 927      BINDING AFFINITY PREDICTED BY RF-SCORE:    0.00 PKD
ROOT
HETATM    1  C   UNL     1     -10.323  15.515  65.181  1.00  0.00    -0.388 C  
HETATM    2  C   UNL     1     -11.471  14.694  64.614  1.00  0.00    -0.388 C  
ENDROOT
BRANCH   2   3
HETATM    3  O   UNL     1     -12.396  14.405  65.658  1.00  0.00    -0.390 OA 
BRANCH   3   4
HETATM    4  C   UNL     1     -12.014  13.551  66.663  1.00  0.00    -0.404 A  
HETATM    5  C   UNL     1     -11.896  13.803  68.043  1.00  0.00    -0.373 A  
HETATM    6  C   UNL     1     -11.714  12.270  66.187  1.00  0.00    -0.440 A  
HETATM    7  C   UNL     1     -11.451  12.772  68.900  1.00  0.00    -0.352 A  
HETATM    8  C   UNL     1     -11.280  11.260  67.051  1.00  0.00    -0.324 A  
HETATM    9  C   UNL     1     -11.096  11.503  68.416  1.00  0.00    -0.288 A  
BRANCH   5  10
HETATM   10  O   UNL     1     -12.213  15.056  68.495  1.00  0.00    -0.189 OA 
BRANCH  10  11
HETATM   11  C   UNL     1     -11.166  15.963  68.802  1.00  0.00    -0.359 C  
HETATM   12  C   UNL     1     -11.140  16.140  70.310  1.00  0.00    -0.375 C  
ENDBRANCH  10  11
ENDBRANCH   5  10
BRANCH   9  13
HETATM   13  C   UNL     1     -10.565  10.480  69.363  1.00  0.00    -0.269 C  
HETATM   14  C   UNL     1     -11.297   9.810  70.282  1.00  0.00    -0.272 C  
HETATM   15  N   UNL     1     -12.664  10.061  70.424  1.00  0.00    -0.539 NA 
HETATM   16  C   UNL     1     -13.194  10.190  71.774  1.00  0.00    -0.438 C  
HETATM   17  H   UNL     1     -13.270  10.151  69.609  1.00  0.00     0.000 HD 
HETATM   18  C   UNL     1     -12.972   8.888  72.517  1.00  0.00    -0.415 C  
HETATM   19  C   UNL     1     -11.570   8.353  72.315  1.00  0.00    -0.453 A  
HETATM   20  C   UNL     1     -11.140   7.354  73.205  1.00  0.00    -0.357 A  
HETATM   21  C   UNL     1      -9.893   6.743  73.074  1.00  0.00    -0.171 A  
HETATM   22  C   UNL     1      -9.056   7.147  72.017  1.00  0.00    -0.130 A  
HETATM   23  C   UNL     1      -9.496   8.154  71.118  1.00  0.00    -0.192 A  
HETATM   24  C   UNL     1     -10.753   8.776  71.242  1.00  0.00    -0.339 A  
BRANCH  21  25
HETATM   25  O   UNL     1      -9.469   5.765  73.931  1.00  0.00    -0.133 OA 
BRANCH  25  26
HETATM   26  C   UNL     1     -10.403   4.791  74.391  1.00  0.00    -0.281 C  
HETATM   27  C   UNL     1     -10.470   3.683  73.354  1.00  0.00    -0.262 C  
ENDBRANCH  25  26
ENDBRANCH  21  25
BRANCH  22  28
HETATM   28  O   UNL     1      -7.800   6.661  71.711  1.00  0.00    -0.100 OA 
BRANCH  28  29
HETATM   29  C   UNL     1      -7.607   6.047  70.436  1.00  0.00    -0.095 C  
HETATM   30  C   UNL     1      -8.203   4.650  70.440  1.00  0.00    -0.075 C  
ENDBRANCH  28  29
ENDBRANCH  22  28
ENDBRANCH   9  13
ENDBRANCH   3   4
ENDBRANCH   2   3
TORSDOF 9
ENDMDL
MODEL       12
REMARK 921   NORMALIZED FREE ENERGY PREDICTED BY IDOCK:   -5.99 KCAL/MOL
REMARK 922        TOTAL FREE ENERGY PREDICTED BY IDOCK:  -10.02 KCAL/MOL
REMARK 923 INTER-LIGAND FREE ENERGY PREDICTED BY IDOCK:   -9.19 KCAL/MOL
REMARK 924 INTRA-LIGAND FREE ENERGY PREDICTED BY IDOCK:   -0.83 KCAL/MOL
REMARK 927      BINDING AFFINITY PREDICTED BY RF-SCORE:    0.00 PKD
ROOT
HETATM    1  C   UNL     1     -10.430  17.084  65.619  1.00  0.00    -0.229 C  
HETATM    2  C   UNL     1     -10.893  15.836  64.885  1.00  0.00    -0.413 C  
ENDROOT
BRANCH   2   3
HETATM    3  O   UNL     1     -11.901  15.189  65.656  1.00  0.00    -0.141 OA 
BRANCH   3   4
HETATM    4  C   UNL     1     -11.590  14.017  66.302  1.00  0.00    -0.369 A  
HETATM    5  C   UNL     1     -11.934  12.696  65.954  1.00  0.00    -0.438 A  
HETATM    6  C   UNL     1     -10.824  14.230  67.452  1.00  0.00    -0.288 A  
HETATM    7  C   UNL     1     -11.526  11.632  66.790  1.00  0.00    -0.299 A  
HETATM    8  C   UNL     1     -10.425  13.165  68.264  1.00  0.00    -0.258 A  
HETATM    9  C   UNL     1     -10.806  11.851  67.975  1.00  0.00    -0.256 A  
BRANCH   5  10
HETATM   10  O   UNL     1     -12.666  12.503  64.814  1.00  0.00    -0.640 OA 
BRANCH  10  11
HETATM   11  C   UNL     1     -12.022  12.611  63.555  1.00  0.00    -0.548 C  
HETATM   12  C   UNL     1     -10.814  11.691  63.577  1.00  0.00    -0.497 C  
ENDBRANCH  10  11
ENDBRANCH   5  10
BRANCH   9  13
HETATM   13  C   UNL     1     -10.468  10.691  68.849  1.00  0.00    -0.232 C  
HETATM   14  C   UNL     1     -11.286  10.145  69.778  1.00  0.00    -0.256 C  
HETATM   15  N   UNL     1     -12.559  10.674  70.003  1.00  0.00    -0.484 NA 
HETATM   16  C   UNL     1     -12.990  10.843  71.384  1.00  0.00    -0.424 C  
HETATM   17  H   UNL     1     -13.166  10.934  69.226  1.00  0.00     0.000 HD 
HETATM   18  C   UNL     1     -13.022   9.487  72.059  1.00  0.00    -0.514 C  
HETATM   19  C   UNL     1     -11.778   8.677  71.761  1.00  0.00    -0.400 A  
HETATM   20  C   UNL     1     -11.536   7.564  72.584  1.00  0.00    -0.369 A  
HETATM   21  C   UNL     1     -10.457   6.708  72.361  1.00  0.00    -0.207 A  
HETATM   22  C   UNL     1      -9.600   6.978  71.278  1.00  0.00    -0.164 A  
HETATM   23  C   UNL     1      -9.850   8.101  70.446  1.00  0.00    -0.188 A  
HETATM   24  C   UNL     1     -10.936   8.970  70.664  1.00  0.00    -0.308 A  
BRANCH  21  25
HETATM   25  O   UNL     1     -10.217   5.619  73.153  1.00  0.00    -0.175 OA 
BRANCH  25  26
HETATM   26  C   UNL     1     -11.238   4.637  73.312  1.00  0.00    -0.325 C  
HETATM   27  C   UNL     1     -10.608   3.271  73.105  1.00  0.00    -0.260 C  
ENDBRANCH  25  26
ENDBRANCH  21  25
BRANCH  22  28
HETATM   28  O   UNL     1      -8.493   6.252  70.886  1.00  0.00    -0.128 OA 
BRANCH  28  29
HETATM   29  C   UNL     1      -8.531   5.598  69.616  1.00  0.00    -0.110 C  
HETATM   30  C   UNL     1      -9.547   4.469  69.648  1.00  0.00    -0.270 C  
ENDBRANCH  28  29
ENDBRANCH  22  28
ENDBRANCH   9  13
ENDBRANCH   3   4
ENDBRANCH   2   3
TORSDOF 9
ENDMDL
MODEL       13
REMARK 921   NORMALIZED FREE ENERGY PREDICTED BY IDOCK:   -5.92 KCAL/MOL
REMARK 922        TOTAL FREE ENERGY PREDICTED BY IDOCK:   -9.92 KCAL/MOL
REMARK 923 INTER-LIGAND FREE ENERGY PREDICTED BY IDOCK:   -8.99 KCAL/MOL
REMARK 924 INTRA-LIGAND FREE ENERGY PREDICTED BY IDOCK:   -0.93 KCAL/MOL
REMARK 927      BINDING AFFINITY PREDICTED BY RF-SCORE:    0.00 PKD
ROOT
HETATM    1  C   UNL     1     -10.695   2.352  73.723  1.00  0.00    -0.260 C  
HETATM    2  C   UNL     1     -10.655   3.616  72.878  1.00  0.00    -0.137 C  
ENDROOT
BRANCH   2   3
HETATM    3  O   UNL     1     -11.382   4.644  73.544  1.00  0.00    -0.321 OA 
BRANCH   3   4
HETATM    4  C   UNL     1     -11.283   5.933  73.078  1.00  0.00    -0.221 A  
HETATM    5  C   UNL     1     -10.338   6.924  73.408  1.00  0.00    -0.308 A  
HETATM    6  C   UNL     1     -12.284   6.242  72.152  1.00  0.00    -0.255 A  
HETATM    7  C   UNL     1     -10.445   8.205  72.822  1.00  0.00    -0.385 A  
HETATM    8  C   UNL     1     -12.372   7.514  71.579  1.00  0.00    -0.367 A  
HETATM    9  C   UNL     1     -11.484   8.533  71.936  1.00  0.00    -0.405 A  
BRANCH   5  10
HETATM   10  O   UNL     1      -9.353   6.598  74.300  1.00  0.00    -0.185 OA 
BRANCH  10  11
HETATM   11  C   UNL     1      -7.996   6.708  73.900  1.00  0.00    -0.106 C  
HETATM   12  C   UNL     1      -7.465   5.301  73.689  1.00  0.00    -0.095 C  
ENDBRANCH  10  11
ENDBRANCH   5  10
BRANCH   9  13
HETATM   13  C   UNL     1     -11.582   9.925  71.407  1.00  0.00    -0.428 C  
HETATM   14  C   UNL     1     -11.453  10.280  70.109  1.00  0.00    -0.309 C  
HETATM   15  N   UNL     1     -11.184   9.319  69.131  1.00  0.00    -0.442 NA 
HETATM   16  C   UNL     1     -10.175   9.632  68.130  1.00  0.00    -0.190 C  
HETATM   17  H   UNL     1     -11.679   8.428  69.120  1.00  0.00     0.000 HD 
HETATM   18  C   UNL     1     -10.619  10.851  67.346  1.00  0.00    -0.285 C  
HETATM   19  C   UNL     1     -11.136  11.949  68.252  1.00  0.00    -0.289 A  
HETATM   20  C   UNL     1     -11.257  13.229  67.688  1.00  0.00    -0.307 A  
HETATM   21  C   UNL     1     -11.783  14.302  68.409  1.00  0.00    -0.338 A  
HETATM   22  C   UNL     1     -12.200  14.078  69.734  1.00  0.00    -0.341 A  
HETATM   23  C   UNL     1     -12.080  12.781  70.300  1.00  0.00    -0.373 A  
HETATM   24  C   UNL     1     -11.550  11.694  69.579  1.00  0.00    -0.397 A  
BRANCH  21  25
HETATM   25  O   UNL     1     -11.910  15.551  67.866  1.00  0.00    -0.240 OA 
BRANCH  25  26
HETATM   26  C   UNL     1     -10.806  16.451  67.925  1.00  0.00    -0.328 C  
HETATM   27  C   UNL     1     -10.258  16.610  66.518  1.00  0.00    -0.314 C  
ENDBRANCH  25  26
ENDBRANCH  21  25
BRANCH  22  28
HETATM   28  O   UNL     1     -12.753  14.997  70.604  1.00  0.00    -0.344 OA 
BRANCH  28  29
HETATM   29  C   UNL     1     -13.608  14.514  71.641  1.00  0.00    -0.391 C  
HETATM   30  C   UNL     1     -13.568  15.462  72.827  1.00  0.00    -0.628 C  
ENDBRANCH  28  29
ENDBRANCH  22  28
ENDBRANCH   9  13
ENDBRANCH   3   4
ENDBRANCH   2   3
TORSDOF 9
ENDMDL
MODEL       14
REMARK 921   NORMALIZED FREE ENERGY PREDICTED BY IDOCK:   -5.80 KCAL/MOL
REMARK 922        TOTAL FREE ENERGY PREDICTED BY IDOCK:   -9.73 KCAL/MOL
REMARK 923 INTER-LIGAND FREE ENERGY PREDICTED BY IDOCK:   -9.44 KCAL/MOL
REMARK 924 INTRA-LIGAND FREE ENERGY PREDICTED BY IDOCK:   -0.29 KCAL/MOL
REMARK 927      BINDING AFFINITY PREDICTED BY RF-SCORE:    0.00 PKD
ROOT
HETATM    1  C   UNL     1     -10.944   5.546  73.338  1.00  0.00    -0.324 C  
HETATM    2  C   UNL     1     -11.035   7.062  73.415  1.00  0.00    -0.216 C  
ENDROOT
BRANCH   2   3
HETATM    3  O   UNL     1     -12.151   7.501  72.645  1.00  0.00    -0.180 OA 
BRANCH   3   4
HETATM    4  C   UNL     1     -11.938   8.394  71.623  1.00  0.00    -0.307 A  
HETATM    5  C   UNL     1     -11.122   8.258  70.483  1.00  0.00    -0.249 A  
HETATM    6  C   UNL     1     -12.659   9.580  71.795  1.00  0.00    -0.490 A  
HETATM    7  C   UNL     1     -11.030   9.329  69.566  1.00  0.00    -0.169 A  
HETATM    8  C   UNL     1     -12.559  10.628  70.874  1.00  0.00    -0.503 A  
HETATM    9  C   UNL     1     -11.709  10.542  69.767  1.00  0.00    -0.354 A  
BRANCH   5  10
HETATM   10  O   UNL     1     -10.440   7.083  70.320  1.00  0.00    -0.201 OA 
BRANCH  10  11
HETATM   11  C   UNL     1     -11.132   5.946  69.830  1.00  0.00    -0.347 C  
HETATM   12  C   UNL     1     -10.126   4.816  69.704  1.00  0.00    -0.275 C  
ENDBRANCH  10  11
ENDBRANCH   5  10
BRANCH   9  13
HETATM   13  C   UNL     1     -11.513  11.659  68.799  1.00  0.00    -0.346 C  
HETATM   14  C   UNL     1     -11.376  12.964  69.127  1.00  0.00    -0.273 C  
HETATM   15  N   UNL     1     -11.435  13.373  70.461  1.00  0.00    -0.449 NA 
HETATM   16  C   UNL     1     -12.221  14.558  70.775  1.00  0.00    -0.333 C  
HETATM   17  H   UNL     1     -10.943  12.858  71.191  1.00  0.00     0.000 HD 
HETATM   18  C   UNL     1     -11.632  15.747  70.043  1.00  0.00    -0.361 C  
HETATM   19  C   UNL     1     -11.317  15.423  68.598  1.00  0.00    -0.337 A  
HETATM   20  C   UNL     1     -11.091  16.513  67.741  1.00  0.00    -0.179 A  
HETATM   21  C   UNL     1     -10.729  16.333  66.406  1.00  0.00    -0.182 A  
HETATM   22  C   UNL     1     -10.589  15.020  65.921  1.00  0.00    -0.329 A  
HETATM   23  C   UNL     1     -10.815  13.921  66.791  1.00  0.00    -0.286 A  
HETATM   24  C   UNL     1     -11.180  14.093  68.139  1.00  0.00    -0.299 A  
BRANCH  21  25
HETATM   25  O   UNL     1     -10.499  17.388  65.566  1.00  0.00    -0.624 OA 
BRANCH  25  26
HETATM   26  C   UNL     1     -10.410  18.703  66.110  1.00  0.00    -0.443 C  
HETATM   27  C   UNL     1      -8.943  19.088  66.164  1.00  0.00    -0.202 C  
ENDBRANCH  25  26
ENDBRANCH  21  25
BRANCH  22  28
HETATM   28  O   UNL     1     -10.230  14.633  64.645  1.00  0.00    -0.298 OA 
BRANCH  28  29
HETATM   29  C   UNL     1     -10.607  13.327  64.205  1.00  0.00    -0.384 C  
HETATM   30  C   UNL     1     -12.005  13.366  63.612  1.00  0.00    -0.504 C  
ENDBRANCH  28  29
ENDBRANCH  22  28
ENDBRANCH   9  13
ENDBRANCH   3   4
ENDBRANCH   2   3
TORSDOF 9
ENDMDL
MODEL       15
REMARK 921   NORMALIZED FREE ENERGY PREDICTED BY IDOCK:   -5.67 KCAL/MOL
REMARK 922        TOTAL FREE ENERGY PREDICTED BY IDOCK:   -9.53 KCAL/MOL
REMARK 923 INTER-LIGAND FREE ENERGY PREDICTED BY IDOCK:   -8.57 KCAL/MOL
REMARK 924 INTRA-LIGAND FREE ENERGY PREDICTED BY IDOCK:   -0.96 KCAL/MOL
REMARK 927      BINDING AFFINITY PREDICTED BY RF-SCORE:    0.00 PKD
ROOT
HETATM    1  C   UNL     1      -9.916  20.449  67.075  1.00  0.00    -0.568 C  
HETATM    2  C   UNL     1     -10.549  19.428  66.142  1.00  0.00    -0.477 C  
ENDROOT
BRANCH   2   3
HETATM    3  O   UNL     1      -9.605  18.395  65.874  1.00  0.00    -0.499 OA 
BRANCH   3   4
HETATM    4  C   UNL     1      -9.787  17.166  66.461  1.00  0.00    -0.296 A  
HETATM    5  C   UNL     1      -9.373  16.721  67.732  1.00  0.00    -0.233 A  
HETATM    6  C   UNL     1     -10.484  16.280  65.634  1.00  0.00    -0.386 A  
HETATM    7  C   UNL     1      -9.645  15.391  68.122  1.00  0.00    -0.203 A  
HETATM    8  C   UNL     1     -10.748  14.968  66.039  1.00  0.00    -0.329 A  
HETATM    9  C   UNL     1     -10.295  14.484  67.270  1.00  0.00    -0.260 A  
BRANCH   5  10
HETATM   10  O   UNL     1      -8.710  17.607  68.536  1.00  0.00    -0.280 OA 
BRANCH  10  11
HETATM   11  C   UNL     1      -7.297  17.696  68.447  1.00  0.00    -0.243 C  
HETATM   12  C   UNL     1      -6.899  19.103  68.855  1.00  0.00    -0.357 C  
ENDBRANCH  10  11
ENDBRANCH   5  10
BRANCH   9  13
HETATM   13  C   UNL     1     -10.488  13.073  67.714  1.00  0.00    -0.232 C  
HETATM   14  C   UNL     1     -10.036  11.978  67.062  1.00  0.00    -0.203 C  
HETATM   15  N   UNL     1      -9.342  12.104  65.856  1.00  0.00    -0.390 NA 
HETATM   16  C   UNL     1      -9.693  11.197  64.772  1.00  0.00    -0.257 C  
HETATM   17  H   UNL     1      -8.614  12.808  65.739  1.00  0.00     0.000 HD 
HETATM   18  C   UNL     1      -9.422   9.772  65.215  1.00  0.00    -0.343 C  
HETATM   19  C   UNL     1      -9.946   9.504  66.610  1.00  0.00    -0.314 A  
HETATM   20  C   UNL     1     -10.059   8.158  66.995  1.00  0.00    -0.350 A  
HETATM   21  C   UNL     1     -10.468   7.794  68.278  1.00  0.00    -0.168 A  
HETATM   22  C   UNL     1     -10.769   8.813  69.200  1.00  0.00    -0.131 A  
HETATM   23  C   UNL     1     -10.650  10.172  68.809  1.00  0.00    -0.236 A  
HETATM   24  C   UNL     1     -10.238  10.549  67.516  1.00  0.00    -0.245 A  
BRANCH  21  25
HETATM   25  O   UNL     1     -10.574   6.485  68.663  1.00  0.00    -0.199 OA 
BRANCH  25  26
HETATM   26  C   UNL     1      -9.394   5.764  69.007  1.00  0.00    -0.123 C  
HETATM   27  C   UNL     1      -9.701   4.922  70.232  1.00  0.00    -0.287 C  
ENDBRANCH  25  26
ENDBRANCH  21  25
BRANCH  22  28
HETATM   28  O   UNL     1     -11.176   8.662  70.511  1.00  0.00    -0.253 OA 
BRANCH  28  29
HETATM   29  C   UNL     1     -10.172   8.605  71.526  1.00  0.00    -0.274 C  
HETATM   30  C   UNL     1     -10.729   7.927  72.765  1.00  0.00    -0.435 C  
ENDBRANCH  28  29
ENDBRANCH  22  28
ENDBRANCH   9  13
ENDBRANCH   3   4
ENDBRANCH   2   3
TORSDOF 9
ENDMDL
MODEL       16
REMARK 921   NORMALIZED FREE ENERGY PREDICTED BY IDOCK:   -5.67 KCAL/MOL
REMARK 922        TOTAL FREE ENERGY PREDICTED BY IDOCK:   -9.53 KCAL/MOL
REMARK 923 INTER-LIGAND FREE ENERGY PREDICTED BY IDOCK:   -8.56 KCAL/MOL
REMARK 924 INTRA-LIGAND FREE ENERGY PREDICTED BY IDOCK:   -0.97 KCAL/MOL
REMARK 927      BINDING AFFINITY PREDICTED BY RF-SCORE:    0.00 PKD
ROOT
HETATM    1  C   UNL     1     -11.255   5.809  72.558  1.00  0.00    -0.347 C  
HETATM    2  C   UNL     1     -11.915   6.733  71.546  1.00  0.00    -0.350 C  
ENDROOT
BRANCH   2   3
HETATM    3  O   UNL     1     -11.209   6.649  70.311  1.00  0.00    -0.297 OA 
BRANCH   3   4
HETATM    4  C   UNL     1     -10.823   7.812  69.690  1.00  0.00    -0.184 A  
HETATM    5  C   UNL     1     -10.204   7.983  68.436  1.00  0.00    -0.207 A  
HETATM    6  C   UNL     1     -11.112   8.946  70.455  1.00  0.00    -0.288 A  
HETATM    7  C   UNL     1      -9.865   9.285  68.003  1.00  0.00    -0.191 A  
HETATM    8  C   UNL     1     -10.774  10.227  70.008  1.00  0.00    -0.345 A  
HETATM    9  C   UNL     1     -10.104  10.418  68.797  1.00  0.00    -0.198 A  
BRANCH   5  10
HETATM   10  O   UNL     1      -9.946   6.865  67.691  1.00  0.00    -0.132 OA 
BRANCH  10  11
HETATM   11  C   UNL     1     -10.969   6.339  66.860  1.00  0.00    -0.329 C  
HETATM   12  C   UNL     1     -10.500   4.986  66.355  1.00  0.00    -0.349 C  
ENDBRANCH  10  11
ENDBRANCH   5  10
BRANCH   9  13
HETATM   13  C   UNL     1      -9.657  11.757  68.313  1.00  0.00    -0.199 C  
HETATM   14  C   UNL     1     -10.401  12.610  67.573  1.00  0.00    -0.218 C  
HETATM   15  N   UNL     1     -11.696  12.266  67.177  1.00  0.00    -0.502 NA 
HETATM   16  C   UNL     1     -12.082  12.544  65.801  1.00  0.00    -0.378 C  
HETATM   17  H   UNL     1     -12.349  11.834  67.830  1.00  0.00     0.000 HD 
HETATM   18  C   UNL     1     -11.999  14.038  65.558  1.00  0.00    -0.393 C  
HETATM   19  C   UNL     1     -10.719  14.630  66.107  1.00  0.00    -0.314 A  
HETATM   20  C   UNL     1     -10.373  15.915  65.657  1.00  0.00    -0.413 A  
HETATM   21  C   UNL     1      -9.250  16.586  66.144  1.00  0.00    -0.303 A  
HETATM   22  C   UNL     1      -8.456  15.946  67.113  1.00  0.00    -0.199 A  
HETATM   23  C   UNL     1      -8.811  14.650  67.569  1.00  0.00    -0.191 A  
HETATM   24  C   UNL     1      -9.942  13.965  67.083  1.00  0.00    -0.239 A  
BRANCH  21  25
HETATM   25  O   UNL     1      -8.909  17.840  65.716  1.00  0.00    -0.501 OA 
BRANCH  25  26
HETATM   26  C   UNL     1      -9.234  18.964  66.530  1.00  0.00    -0.331 C  
HETATM   27  C   UNL     1     -10.483  19.610  65.958  1.00  0.00    -0.622 C  
ENDBRANCH  25  26
ENDBRANCH  21  25
BRANCH  22  28
HETATM   28  O   UNL     1      -7.321  16.441  67.724  1.00  0.00    -0.128 OA 
BRANCH  28  29
HETATM   29  C   UNL     1      -7.330  16.587  69.146  1.00  0.00    -0.220 C  
HETATM   30  C   UNL     1      -5.911  16.504  69.682  1.00  0.00    -0.191 C  
ENDBRANCH  28  29
ENDBRANCH  22  28
ENDBRANCH   9  13
ENDBRANCH   3   4
ENDBRANCH   2   3
TORSDOF 9
ENDMDL
MODEL       17
REMARK 921   NORMALIZED FREE ENERGY PREDICTED BY IDOCK:   -5.60 KCAL/MOL
REMARK 922        TOTAL FREE ENERGY PREDICTED BY IDOCK:   -9.43 KCAL/MOL
REMARK 923 INTER-LIGAND FREE ENERGY PREDICTED BY IDOCK:   -8.79 KCAL/MOL
REMARK 924 INTRA-LIGAND FREE ENERGY PREDICTED BY IDOCK:   -0.64 KCAL/MOL
REMARK 927      BINDING AFFINITY PREDICTED BY RF-SCORE:    0.00 PKD
ROOT
HETATM    1  C   UNL     1      -6.630  20.584  67.652  1.00  0.00    -0.336 C  
HETATM    2  C   UNL     1      -6.009  19.647  66.627  1.00  0.00    -0.164 C  
ENDROOT
BRANCH   2   3
HETATM    3  O   UNL     1      -7.038  19.128  65.789  1.00  0.00    -0.272 OA 
BRANCH   3   4
HETATM    4  C   UNL     1      -7.772  18.055  66.232  1.00  0.00    -0.258 A  
HETATM    5  C   UNL     1      -9.170  17.929  66.356  1.00  0.00    -0.242 A  
HETATM    6  C   UNL     1      -6.966  16.971  66.594  1.00  0.00    -0.284 A  
HETATM    7  C   UNL     1      -9.714  16.730  66.869  1.00  0.00    -0.263 A  
HETATM    8  C   UNL     1      -7.523  15.790  67.095  1.00  0.00    -0.259 A  
HETATM    9  C   UNL     1      -8.902  15.662  67.285  1.00  0.00    -0.215 A  
BRANCH   5  10
HETATM   10  O   UNL     1      -9.945  18.991  65.978  1.00  0.00    -0.433 OA 
BRANCH  10  11
HETATM   11  C   UNL     1     -10.909  19.499  66.887  1.00  0.00    -0.411 C  
HETATM   12  C   UNL     1     -10.162  20.050  68.088  1.00  0.00    -0.535 C  
ENDBRANCH  10  11
ENDBRANCH   5  10
BRANCH   9  13
HETATM   13  C   UNL     1      -9.536  14.452  67.884  1.00  0.00    -0.214 C  
HETATM   14  C   UNL     1     -10.570  14.460  68.756  1.00  0.00    -0.254 C  
HETATM   15  N   UNL     1     -11.125  15.666  69.190  1.00  0.00    -0.263 NA 
HETATM   16  C   UNL     1     -11.419  15.807  70.609  1.00  0.00    -0.390 C  
HETATM   17  H   UNL     1     -11.319  16.422  68.534  1.00  0.00     0.000 HD 
HETATM   18  C   UNL     1     -12.438  14.758  71.008  1.00  0.00    -0.400 C  
HETATM   19  C   UNL     1     -12.094  13.393  70.450  1.00  0.00    -0.405 A  
HETATM   20  C   UNL     1     -12.759  12.293  71.016  1.00  0.00    -0.319 A  
HETATM   21  C   UNL     1     -12.570  10.996  70.537  1.00  0.00    -0.304 A  
HETATM   22  C   UNL     1     -11.689  10.802  69.458  1.00  0.00    -0.312 A  
HETATM   23  C   UNL     1     -11.022  11.917  68.886  1.00  0.00    -0.285 A  
HETATM   24  C   UNL     1     -11.207  13.229  69.362  1.00  0.00    -0.220 A  
BRANCH  21  25
HETATM   25  O   UNL     1     -13.218   9.920  71.078  1.00  0.00    -0.373 OA 
BRANCH  25  26
HETATM   26  C   UNL     1     -12.552   9.130  72.061  1.00  0.00    -0.390 C  
HETATM   27  C   UNL     1     -12.625   7.678  71.622  1.00  0.00    -0.365 C  
ENDBRANCH  25  26
ENDBRANCH  21  25
BRANCH  22  28
HETATM   28  O   UNL     1     -11.376   9.609  68.836  1.00  0.00    -0.044 OA 
BRANCH  28  29
HETATM   29  C   UNL     1     -10.865   9.657  67.503  1.00  0.00    -0.198 C  
HETATM   30  C   UNL     1     -10.327   8.293  67.106  1.00  0.00    -0.387 C  
ENDBRANCH  28  29
ENDBRANCH  22  28
ENDBRANCH   9  13
ENDBRANCH   3   4
ENDBRANCH   2   3
TORSDOF 9
ENDMDL
MODEL       18
REMARK 921   NORMALIZED FREE ENERGY PREDICTED BY IDOCK:   -5.60 KCAL/MOL
REMARK 922        TOTAL FREE ENERGY PREDICTED BY IDOCK:   -9.43 KCAL/MOL
REMARK 923 INTER-LIGAND FREE ENERGY PREDICTED BY IDOCK:   -8.50 KCAL/MOL
REMARK 924 INTRA-LIGAND FREE ENERGY PREDICTED BY IDOCK:   -0.92 KCAL/MOL
REMARK 927      BINDING AFFINITY PREDICTED BY RF-SCORE:    0.00 PKD
ROOT
HETATM    1  C   UNL     1     -12.650  15.696  73.886  1.00  0.00    -0.767 C  
HETATM    2  C   UNL     1     -13.640  15.406  72.768  1.00  0.00    -0.531 C  
ENDROOT
BRANCH   2   3
HETATM    3  O   UNL     1     -13.142  15.956  71.552  1.00  0.00    -0.464 OA 
BRANCH   3   4
HETATM    4  C   UNL     1     -12.409  15.151  70.714  1.00  0.00    -0.360 A  
HETATM    5  C   UNL     1     -11.325  15.494  69.881  1.00  0.00    -0.314 A  
HETATM    6  C   UNL     1     -12.845  13.823  70.735  1.00  0.00    -0.302 A  
HETATM    7  C   UNL     1     -10.733  14.499  69.072  1.00  0.00    -0.258 A  
HETATM    8  C   UNL     1     -12.244  12.851  69.931  1.00  0.00    -0.258 A  
HETATM    9  C   UNL     1     -11.208  13.177  69.050  1.00  0.00    -0.309 A  
BRANCH   5  10
HETATM   10  O   UNL     1     -10.898  16.794  69.888  1.00  0.00    -0.309 OA 
BRANCH  10  11
HETATM   11  C   UNL     1      -9.918  17.202  68.946  1.00  0.00    -0.304 C  
HETATM   12  C   UNL     1     -10.619  18.039  67.890  1.00  0.00    -0.387 C  
ENDBRANCH  10  11
ENDBRANCH   5  10
BRANCH   9  13
HETATM   13  C   UNL     1     -10.585  12.192  68.120  1.00  0.00    -0.236 C  
HETATM   14  C   UNL     1     -10.676  12.222  66.771  1.00  0.00    -0.240 C  
HETATM   15  N   UNL     1     -11.416  13.219  66.130  1.00  0.00    -0.317 NA 
HETATM   16  C   UNL     1     -12.292  12.819  65.037  1.00  0.00    -0.499 C  
HETATM   17  H   UNL     1     -11.346  14.194  66.419  1.00  0.00     0.000 HD 
HETATM   18  C   UNL     1     -11.453  12.206  63.934  1.00  0.00    -0.519 C  
HETATM   19  C   UNL     1     -10.439  11.220  64.475  1.00  0.00    -0.396 A  
HETATM   20  C   UNL     1      -9.845  10.350  63.546  1.00  0.00    -0.268 A  
HETATM   21  C   UNL     1      -8.851   9.446  63.920  1.00  0.00    -0.173 A  
HETATM   22  C   UNL     1      -8.441   9.418  65.266  1.00  0.00    -0.149 A  
HETATM   23  C   UNL     1      -9.040  10.302  66.201  1.00  0.00    -0.181 A  
HETATM   24  C   UNL     1     -10.044  11.218  65.833  1.00  0.00    -0.291 A  
BRANCH  21  25
HETATM   25  O   UNL     1      -8.262   8.599  63.021  1.00  0.00    -0.177 OA 
BRANCH  25  26
HETATM   26  C   UNL     1      -6.914   8.837  62.621  1.00  0.00    -0.093 C  
HETATM   27  C   UNL     1      -6.164   7.519  62.700  1.00  0.00    -0.066 C  
ENDBRANCH  25  26
ENDBRANCH  21  25
BRANCH  22  28
HETATM   28  O   UNL     1      -7.472   8.612  65.830  1.00  0.00    -0.083 OA 
BRANCH  28  29
HETATM   29  C   UNL     1      -7.865   7.712  66.867  1.00  0.00    -0.111 C  
HETATM   30  C   UNL     1      -8.656   6.557  66.277  1.00  0.00    -0.141 C  
ENDBRANCH  28  29
ENDBRANCH  22  28
ENDBRANCH   9  13
ENDBRANCH   3   4
ENDBRANCH   2   3
TORSDOF 9
ENDMDL
MODEL       19
REMARK 921   NORMALIZED FREE ENERGY PREDICTED BY IDOCK:   -5.55 KCAL/MOL
REMARK 922        TOTAL FREE ENERGY PREDICTED BY IDOCK:   -9.36 KCAL/MOL
REMARK 923 INTER-LIGAND FREE ENERGY PREDICTED BY IDOCK:   -8.27 KCAL/MOL
REMARK 924 INTRA-LIGAND FREE ENERGY PREDICTED BY IDOCK:   -1.08 KCAL/MOL
REMARK 927      BINDING AFFINITY PREDICTED BY RF-SCORE:    0.00 PKD
ROOT
HETATM    1  C   UNL     1      -8.414   4.697  64.535  1.00  0.00    -0.136 C  
HETATM    2  C   UNL     1      -9.309   4.025  65.564  1.00  0.00    -0.159 C  
ENDROOT
BRANCH   2   3
HETATM    3  O   UNL     1      -8.963   4.500  66.862  1.00  0.00    -0.111 OA 
BRANCH   3   4
HETATM    4  C   UNL     1      -9.236   5.808  67.182  1.00  0.00    -0.115 A  
HETATM    5  C   UNL     1      -8.393   6.770  67.772  1.00  0.00    -0.119 A  
HETATM    6  C   UNL     1     -10.544   6.174  66.852  1.00  0.00    -0.380 A  
HETATM    7  C   UNL     1      -8.899   8.061  68.042  1.00  0.00    -0.128 A  
HETATM    8  C   UNL     1     -11.026   7.459  67.122  1.00  0.00    -0.225 A  
HETATM    9  C   UNL     1     -10.229   8.412  67.762  1.00  0.00    -0.283 A  
BRANCH   5  10
HETATM   10  O   UNL     1      -7.110   6.400  68.071  1.00  0.00    -0.077 OA 
BRANCH  10  11
HETATM   11  C   UNL     1      -6.035   7.192  67.590  1.00  0.00    -0.033 C  
HETATM   12  C   UNL     1      -5.906   6.933  66.099  1.00  0.00    -0.034 C  
ENDBRANCH  10  11
ENDBRANCH   5  10
BRANCH   9  13
HETATM   13  C   UNL     1     -10.721   9.770  68.137  1.00  0.00    -0.280 C  
HETATM   14  C   UNL     1     -11.243  10.110  69.337  1.00  0.00    -0.215 C  
HETATM   15  N   UNL     1     -11.381   9.157  70.349  1.00  0.00    -0.323 NA 
HETATM   16  C   UNL     1     -12.631   9.135  71.096  1.00  0.00    -0.233 C  
HETATM   17  H   UNL     1     -10.632   8.497  70.557  1.00  0.00     0.000 HD 
HETATM   18  C   UNL     1     -12.803  10.463  71.806  1.00  0.00    -0.561 C  
HETATM   19  C   UNL     1     -12.499  11.635  70.895  1.00  0.00    -0.440 A  
HETATM   20  C   UNL     1     -12.941  12.898  71.322  1.00  0.00    -0.317 A  
HETATM   21  C   UNL     1     -12.660  14.057  70.597  1.00  0.00    -0.344 A  
HETATM   22  C   UNL     1     -11.912  13.940  69.411  1.00  0.00    -0.354 A  
HETATM   23  C   UNL     1     -11.464  12.662  68.985  1.00  0.00    -0.354 A  
HETATM   24  C   UNL     1     -11.743  11.488  69.710  1.00  0.00    -0.426 A  
BRANCH  21  25
HETATM   25  O   UNL     1     -13.080  15.292  71.009  1.00  0.00    -0.423 OA 
BRANCH  25  26
HETATM   26  C   UNL     1     -14.013  15.386  72.082  1.00  0.00    -0.549 C  
HETATM   27  C   UNL     1     -13.282  15.947  73.289  1.00  0.00    -0.698 C  
ENDBRANCH  25  26
ENDBRANCH  21  25
BRANCH  22  28
HETATM   28  O   UNL     1     -11.523  14.959  68.564  1.00  0.00    -0.286 OA 
BRANCH  28  29
HETATM   29  C   UNL     1     -11.595  14.729  67.156  1.00  0.00    -0.359 C  
HETATM   30  C   UNL     1     -10.518  15.530  66.445  1.00  0.00    -0.310 C  
ENDBRANCH  28  29
ENDBRANCH  22  28
ENDBRANCH   9  13
ENDBRANCH   3   4
ENDBRANCH   2   3
TORSDOF 9
ENDMDL
MODEL       20
REMARK 921   NORMALIZED FREE ENERGY PREDICTED BY IDOCK:   -5.53 KCAL/MOL
REMARK 922        TOTAL FREE ENERGY PREDICTED BY IDOCK:   -9.32 KCAL/MOL
REMARK 923 INTER-LIGAND FREE ENERGY PREDICTED BY IDOCK:   -8.41 KCAL/MOL
REMARK 924 INTRA-LIGAND FREE ENERGY PREDICTED BY IDOCK:   -0.92 KCAL/MOL
REMARK 927      BINDING AFFINITY PREDICTED BY RF-SCORE:    0.00 PKD
ROOT
HETATM    1  C   UNL     1      -8.834   2.958  65.818  1.00  0.00    -0.140 C  
HETATM    2  C   UNL     1      -9.278   4.398  66.023  1.00  0.00    -0.139 C  
ENDROOT
BRANCH   2   3
HETATM    3  O   UNL     1      -9.108   4.746  67.394  1.00  0.00    -0.111 OA 
BRANCH   3   4
HETATM    4  C   UNL     1      -9.407   6.026  67.793  1.00  0.00    -0.106 A  
HETATM    5  C   UNL     1      -8.863   6.773  68.856  1.00  0.00    -0.128 A  
HETATM    6  C   UNL     1     -10.393   6.616  66.995  1.00  0.00    -0.330 A  
HETATM    7  C   UNL     1      -9.347   8.076  69.106  1.00  0.00    -0.151 A  
HETATM    8  C   UNL     1     -10.855   7.909  67.254  1.00  0.00    -0.189 A  
HETATM    9  C   UNL     1     -10.376   8.647  68.340  1.00  0.00    -0.239 A  
BRANCH   5  10
HETATM   10  O   UNL     1      -7.885   6.188  69.615  1.00  0.00    -0.098 OA 
BRANCH  10  11
HETATM   11  C   UNL     1      -8.048   6.128  71.023  1.00  0.00    -0.121 C  
HETATM   12  C   UNL     1      -9.097   5.070  71.318  1.00  0.00    -0.176 C  
ENDBRANCH  10  11
ENDBRANCH   5  10
BRANCH   9  13
HETATM   13  C   UNL     1     -10.891  10.000  68.700  1.00  0.00    -0.265 C  
HETATM   14  C   UNL     1     -11.534  10.313  69.848  1.00  0.00    -0.273 C  
HETATM   15  N   UNL     1     -11.789   9.334  70.811  1.00  0.00    -0.371 NA 
HETATM   16  C   UNL     1     -13.112   9.308  71.420  1.00  0.00    -0.322 C  
HETATM   17  H   UNL     1     -11.073   8.659  71.077  1.00  0.00     0.000 HD 
HETATM   18  C   UNL     1     -13.345  10.618  72.146  1.00  0.00    -0.335 C  
HETATM   19  C   UNL     1     -12.933  11.810  71.308  1.00  0.00    -0.353 A  
HETATM   20  C   UNL     1     -13.405  13.067  71.723  1.00  0.00    -0.468 A  
HETATM   21  C   UNL     1     -13.036  14.241  71.066  1.00  0.00    -0.328 A  
HETATM   22  C   UNL     1     -12.167  14.148  69.963  1.00  0.00    -0.357 A  
HETATM   23  C   UNL     1     -11.690  12.877  69.550  1.00  0.00    -0.387 A  
HETATM   24  C   UNL     1     -12.056  11.687  70.206  1.00  0.00    -0.443 A  
BRANCH  21  25
HETATM   25  O   UNL     1     -13.485  15.470  71.467  1.00  0.00    -0.479 OA 
BRANCH  25  26
HETATM   26  C   UNL     1     -13.614  15.743  72.860  1.00  0.00    -0.577 C  
HETATM   27  C   UNL     1     -12.265  16.217  73.370  1.00  0.00    -0.635 C  
ENDBRANCH  25  26
ENDBRANCH  21  25
BRANCH  22  28
HETATM   28  O   UNL     1     -11.679  15.185  69.192  1.00  0.00    -0.295 OA 
BRANCH  28  29
HETATM   29  C   UNL     1     -10.673  16.028  69.756  1.00  0.00    -0.331 C  
HETATM   30  C   UNL     1      -9.337  15.757  69.086  1.00  0.00    -0.258 C  
ENDBRANCH  28  29
ENDBRANCH  22  28
ENDBRANCH   9  13
ENDBRANCH   3   4
ENDBRANCH   2   3
TORSDOF 9
ENDMDL
MODEL       21
REMARK 921   NORMALIZED FREE ENERGY PREDICTED BY IDOCK:   -5.52 KCAL/MOL
REMARK 922        TOTAL FREE ENERGY PREDICTED BY IDOCK:   -9.31 KCAL/MOL
REMARK 923 INTER-LIGAND FREE ENERGY PREDICTED BY IDOCK:   -8.66 KCAL/MOL
REMARK 924 INTRA-LIGAND FREE ENERGY PREDICTED BY IDOCK:   -0.65 KCAL/MOL
REMARK 927      BINDING AFFINITY PREDICTED BY RF-SCORE:    0.00 PKD
ROOT
HETATM    1  C   UNL     1     -12.195  16.337  73.210  1.00  0.00    -0.616 C  
HETATM    2  C   UNL     1     -13.654  15.915  73.150  1.00  0.00    -0.499 C  
ENDROOT
BRANCH   2   3
HETATM    3  O   UNL     1     -13.956  15.468  71.832  1.00  0.00    -0.483 OA 
BRANCH   3   4
HETATM    4  C   UNL     1     -13.329  14.343  71.355  1.00  0.00    -0.349 A  
HETATM    5  C   UNL     1     -12.520  14.197  70.211  1.00  0.00    -0.353 A  
HETATM    6  C   UNL     1     -13.561  13.223  72.160  1.00  0.00    -0.655 A  
HETATM    7  C   UNL     1     -11.995  12.925  69.892  1.00  0.00    -0.377 A  
HETATM    8  C   UNL     1     -13.029  11.973  71.831  1.00  0.00    -0.428 A  
HETATM    9  C   UNL     1     -12.275  11.788  70.668  1.00  0.00    -0.443 A  
BRANCH   5  10
HETATM   10  O   UNL     1     -12.286  15.307  69.446  1.00  0.00    -0.288 OA 
BRANCH  10  11
HETATM   11  C   UNL     1     -11.067  16.014  69.611  1.00  0.00    -0.331 C  
HETATM   12  C   UNL     1     -10.788  16.755  68.315  1.00  0.00    -0.366 C  
ENDBRANCH  10  11
ENDBRANCH   5  10
BRANCH   9  13
HETATM   13  C   UNL     1     -11.749  10.461  70.237  1.00  0.00    -0.406 C  
HETATM   14  C   UNL     1     -10.555  10.249  69.638  1.00  0.00    -0.256 C  
HETATM   15  N   UNL     1      -9.703  11.317  69.351  1.00  0.00    -0.398 NA 
HETATM   16  C   UNL     1      -9.063  11.344  68.043  1.00  0.00    -0.171 C  
HETATM   17  H   UNL     1      -9.536  12.055  70.034  1.00  0.00     0.000 HD 
HETATM   18  C   UNL     1      -8.186  10.116  67.899  1.00  0.00    -0.109 C  
HETATM   19  C   UNL     1      -8.895   8.858  68.357  1.00  0.00    -0.134 A  
HETATM   20  C   UNL     1      -8.327   7.635  67.965  1.00  0.00    -0.124 A  
HETATM   21  C   UNL     1      -8.856   6.413  68.383  1.00  0.00    -0.119 A  
HETATM   22  C   UNL     1      -9.987   6.424  69.220  1.00  0.00    -0.153 A  
HETATM   23  C   UNL     1     -10.556   7.663  69.617  1.00  0.00    -0.243 A  
HETATM   24  C   UNL     1     -10.029   8.900  69.200  1.00  0.00    -0.192 A  
BRANCH  21  25
HETATM   25  O   UNL     1      -8.306   5.217  68.012  1.00  0.00    -0.098 OA 
BRANCH  25  26
HETATM   26  C   UNL     1      -8.790   4.563  66.840  1.00  0.00    -0.112 C  
HETATM   27  C   UNL     1      -9.294   3.190  67.246  1.00  0.00    -0.217 C  
ENDBRANCH  25  26
ENDBRANCH  21  25
BRANCH  22  28
HETATM   28  O   UNL     1     -10.649   5.333  69.747  1.00  0.00    -0.307 OA 
BRANCH  28  29
HETATM   29  C   UNL     1     -10.265   4.874  71.044  1.00  0.00    -0.192 C  
HETATM   30  C   UNL     1      -9.629   3.498  70.938  1.00  0.00    -0.242 C  
ENDBRANCH  28  29
ENDBRANCH  22  28
ENDBRANCH   9  13
ENDBRANCH   3   4
ENDBRANCH   2   3
TORSDOF 9
ENDMDL
MODEL       22
REMARK 921   NORMALIZED FREE ENERGY PREDICTED BY IDOCK:   -5.52 KCAL/MOL
REMARK 922        TOTAL FREE ENERGY PREDICTED BY IDOCK:   -9.30 KCAL/MOL
REMARK 923 INTER-LIGAND FREE ENERGY PREDICTED BY IDOCK:   -9.27 KCAL/MOL
REMARK 924 INTRA-LIGAND FREE ENERGY PREDICTED BY IDOCK:   -0.03 KCAL/MOL
REMARK 927      BINDING AFFINITY PREDICTED BY RF-SCORE:    0.00 PKD
ROOT
HETATM    1  C   UNL     1     -12.522  15.392  74.130  1.00  0.00    -0.785 C  
HETATM    2  C   UNL     1     -13.485  16.044  73.150  1.00  0.00    -0.504 C  
ENDROOT
BRANCH   2   3
HETATM    3  O   UNL     1     -14.193  15.027  72.447  1.00  0.00    -0.477 OA 
BRANCH   3   4
HETATM    4  C   UNL     1     -13.477  14.097  71.732  1.00  0.00    -0.390 A  
HETATM    5  C   UNL     1     -12.645  14.289  70.612  1.00  0.00    -0.355 A  
HETATM    6  C   UNL     1     -13.635  12.803  72.236  1.00  0.00    -0.563 A  
HETATM    7  C   UNL     1     -12.023  13.172  70.011  1.00  0.00    -0.391 A  
HETATM    8  C   UNL     1     -13.008  11.709  71.632  1.00  0.00    -0.483 A  
HETATM    9  C   UNL     1     -12.228  11.865  70.482  1.00  0.00    -0.426 A  
BRANCH   5  10
HETATM   10  O   UNL     1     -12.485  15.565  70.144  1.00  0.00    -0.387 OA 
BRANCH  10  11
HETATM   11  C   UNL     1     -11.793  15.770  68.922  1.00  0.00    -0.341 C  
HETATM   12  C   UNL     1     -10.573  16.623  69.223  1.00  0.00    -0.343 C  
ENDBRANCH  10  11
ENDBRANCH   5  10
BRANCH   9  13
HETATM   13  C   UNL     1     -11.599  10.721  69.760  1.00  0.00    -0.393 C  
HETATM   14  C   UNL     1     -11.049  10.781  68.526  1.00  0.00    -0.262 C  
HETATM   15  N   UNL     1     -11.054  11.976  67.802  1.00  0.00    -0.234 NA 
HETATM   16  C   UNL     1     -11.410  11.915  66.391  1.00  0.00    -0.339 C  
HETATM   17  H   UNL     1     -10.817  12.862  68.247  1.00  0.00     0.000 HD 
HETATM   18  C   UNL     1     -10.404  11.042  65.667  1.00  0.00    -0.311 C  
HETATM   19  C   UNL     1     -10.123   9.759  66.422  1.00  0.00    -0.313 A  
HETATM   20  C   UNL     1      -9.482   8.733  65.707  1.00  0.00    -0.239 A  
HETATM   21  C   UNL     1      -9.114   7.534  66.317  1.00  0.00    -0.157 A  
HETATM   22  C   UNL     1      -9.397   7.363  67.684  1.00  0.00    -0.133 A  
HETATM   23  C   UNL     1     -10.041   8.403  68.404  1.00  0.00    -0.224 A  
HETATM   24  C   UNL     1     -10.415   9.617  67.797  1.00  0.00    -0.309 A  
BRANCH  21  25
HETATM   25  O   UNL     1      -8.484   6.532  65.630  1.00  0.00    -0.144 OA 
BRANCH  25  26
HETATM   26  C   UNL     1      -7.900   6.819  64.362  1.00  0.00    -0.113 C  
HETATM   27  C   UNL     1      -6.397   6.915  64.551  1.00  0.00    -0.036 C  
ENDBRANCH  25  26
ENDBRANCH  21  25
BRANCH  22  28
HETATM   28  O   UNL     1      -9.106   6.264  68.468  1.00  0.00    -0.126 OA 
BRANCH  28  29
HETATM   29  C   UNL     1      -9.414   6.330  69.862  1.00  0.00    -0.149 C  
HETATM   30  C   UNL     1     -10.284   5.148  70.255  1.00  0.00    -0.342 C  
ENDBRANCH  28  29
ENDBRANCH  22  28
ENDBRANCH   9  13
ENDBRANCH   3   4
ENDBRANCH   2   3
TORSDOF 9
ENDMDL
MODEL       23
REMARK 921   NORMALIZED FREE ENERGY PREDICTED BY IDOCK:   -5.51 KCAL/MOL
REMARK 922        TOTAL FREE ENERGY PREDICTED BY IDOCK:   -9.30 KCAL/MOL
REMARK 923 INTER-LIGAND FREE ENERGY PREDICTED BY IDOCK:   -8.23 KCAL/MOL
REMARK 924 INTRA-LIGAND FREE ENERGY PREDICTED BY IDOCK:   -1.06 KCAL/MOL
REMARK 927      BINDING AFFINITY PREDICTED BY RF-SCORE:    0.00 PKD
ROOT
HETATM    1  C   UNL     1     -10.079  20.238  66.524  1.00  0.00    -0.518 C  
HETATM    2  C   UNL     1     -10.799  19.087  65.838  1.00  0.00    -0.192 C  
ENDROOT
BRANCH   2   3
HETATM    3  O   UNL     1      -9.906  17.983  65.724  1.00  0.00    -0.539 OA 
BRANCH   3   4
HETATM    4  C   UNL     1     -10.134  16.867  66.492  1.00  0.00    -0.315 A  
HETATM    5  C   UNL     1      -9.756  16.617  67.826  1.00  0.00    -0.240 A  
HETATM    6  C   UNL     1     -10.843  15.880  65.801  1.00  0.00    -0.260 A  
HETATM    7  C   UNL     1     -10.074  15.372  68.414  1.00  0.00    -0.215 A  
HETATM    8  C   UNL     1     -11.154  14.656  66.401  1.00  0.00    -0.334 A  
HETATM    9  C   UNL     1     -10.736  14.360  67.702  1.00  0.00    -0.263 A  
BRANCH   5  10
HETATM   10  O   UNL     1      -9.080  17.601  68.496  1.00  0.00    -0.273 OA 
BRANCH  10  11
HETATM   11  C   UNL     1      -7.662  17.573  68.514  1.00  0.00    -0.272 C  
HETATM   12  C   UNL     1      -7.178  18.994  68.744  1.00  0.00    -0.358 C  
ENDBRANCH  10  11
ENDBRANCH   5  10
BRANCH   9  13
HETATM   13  C   UNL     1     -10.978  13.042  68.358  1.00  0.00    -0.288 C  
HETATM   14  C   UNL     1     -10.322  11.894  68.074  1.00  0.00    -0.196 C  
HETATM   15  N   UNL     1      -9.339  11.862  67.083  1.00  0.00    -0.177 NA 
HETATM   16  C   UNL     1      -9.350  10.743  66.151  1.00  0.00    -0.183 C  
HETATM   17  H   UNL     1      -8.638  12.599  67.013  1.00  0.00     0.000 HD 
HETATM   18  C   UNL     1      -9.144   9.456  66.925  1.00  0.00    -0.160 C  
HETATM   19  C   UNL     1     -10.008   9.400  68.168  1.00  0.00    -0.202 A  
HETATM   20  C   UNL     1     -10.160   8.142  68.774  1.00  0.00    -0.211 A  
HETATM   21  C   UNL     1     -10.878   7.982  69.960  1.00  0.00    -0.235 A  
HETATM   22  C   UNL     1     -11.457   9.119  70.552  1.00  0.00    -0.229 A  
HETATM   23  C   UNL     1     -11.298  10.389  69.937  1.00  0.00    -0.370 A  
HETATM   24  C   UNL     1     -10.575  10.560  68.742  1.00  0.00    -0.233 A  
BRANCH  21  25
HETATM   25  O   UNL     1     -11.026   6.762  70.561  1.00  0.00    -0.249 OA 
BRANCH  25  26
HETATM   26  C   UNL     1      -9.873   6.087  71.057  1.00  0.00    -0.183 C  
HETATM   27  C   UNL     1      -9.928   4.649  70.574  1.00  0.00    -0.295 C  
ENDBRANCH  25  26
ENDBRANCH  21  25
BRANCH  22  28
HETATM   28  O   UNL     1     -12.190   9.173  71.720  1.00  0.00    -0.325 OA 
BRANCH  28  29
HETATM   29  C   UNL     1     -13.581   9.486  71.629  1.00  0.00    -0.350 C  
HETATM   30  C   UNL     1     -14.401   8.207  71.642  1.00  0.00    -0.570 C  
ENDBRANCH  28  29
ENDBRANCH  22  28
ENDBRANCH   9  13
ENDBRANCH   3   4
ENDBRANCH   2   3
TORSDOF 9
ENDMDL
MODEL       24
REMARK 921   NORMALIZED FREE ENERGY PREDICTED BY IDOCK:   -5.50 KCAL/MOL
REMARK 922        TOTAL FREE ENERGY PREDICTED BY IDOCK:   -9.27 KCAL/MOL
REMARK 923 INTER-LIGAND FREE ENERGY PREDICTED BY IDOCK:   -8.49 KCAL/MOL
REMARK 924 INTRA-LIGAND FREE ENERGY PREDICTED BY IDOCK:   -0.78 KCAL/MOL
REMARK 927      BINDING AFFINITY PREDICTED BY RF-SCORE:    0.00 PKD
ROOT
HETATM    1  C   UNL     1      -9.241   3.798  63.726  1.00  0.00    -0.123 C  
HETATM    2  C   UNL     1      -9.695   3.758  65.176  1.00  0.00    -0.176 C  
ENDROOT
BRANCH   2   3
HETATM    3  O   UNL     1      -8.829   4.575  65.957  1.00  0.00    -0.116 OA 
BRANCH   3   4
HETATM    4  C   UNL     1      -9.200   5.872  66.217  1.00  0.00    -0.158 A  
HETATM    5  C   UNL     1      -8.522   7.067  65.905  1.00  0.00    -0.147 A  
HETATM    6  C   UNL     1     -10.426   5.952  66.884  1.00  0.00    -0.349 A  
HETATM    7  C   UNL     1      -9.082   8.303  66.299  1.00  0.00    -0.235 A  
HETATM    8  C   UNL     1     -10.967   7.184  67.261  1.00  0.00    -0.333 A  
HETATM    9  C   UNL     1     -10.285   8.380  67.018  1.00  0.00    -0.377 A  
BRANCH   5  10
HETATM   10  O   UNL     1      -7.333   6.973  65.234  1.00  0.00    -0.070 OA 
BRANCH  10  11
HETATM   11  C   UNL     1      -7.310   7.204  63.835  1.00  0.00    -0.088 C  
HETATM   12  C   UNL     1      -6.047   7.985  63.519  1.00  0.00    -0.067 C  
ENDBRANCH  10  11
ENDBRANCH   5  10
BRANCH   9  13
HETATM   13  C   UNL     1     -10.785   9.712  67.466  1.00  0.00    -0.321 C  
HETATM   14  C   UNL     1     -11.108  10.040  68.738  1.00  0.00    -0.173 C  
HETATM   15  N   UNL     1     -11.008   9.096  69.763  1.00  0.00    -0.334 NA 
HETATM   16  C   UNL     1     -12.103   9.013  70.719  1.00  0.00    -0.125 C  
HETATM   17  H   UNL     1     -10.195   8.485  69.839  1.00  0.00     0.000 HD 
HETATM   18  C   UNL     1     -12.229  10.340  71.441  1.00  0.00    -0.481 C  
HETATM   19  C   UNL     1     -12.161  11.512  70.485  1.00  0.00    -0.469 A  
HETATM   20  C   UNL     1     -12.597  12.754  70.977  1.00  0.00    -0.362 A  
HETATM   21  C   UNL     1     -12.519  13.915  70.208  1.00  0.00    -0.314 A  
HETATM   22  C   UNL     1     -11.986  13.825  68.909  1.00  0.00    -0.359 A  
HETATM   23  C   UNL     1     -11.543  12.569  68.417  1.00  0.00    -0.368 A  
HETATM   24  C   UNL     1     -11.617  11.392  69.186  1.00  0.00    -0.381 A  
BRANCH  21  25
HETATM   25  O   UNL     1     -12.935  15.130  70.680  1.00  0.00    -0.385 OA 
BRANCH  25  26
HETATM   26  C   UNL     1     -13.947  15.176  71.684  1.00  0.00    -0.523 C  
HETATM   27  C   UNL     1     -13.304  15.654  72.973  1.00  0.00    -0.668 C  
ENDBRANCH  25  26
ENDBRANCH  21  25
BRANCH  22  28
HETATM   28  O   UNL     1     -11.814  14.851  68.001  1.00  0.00    -0.333 OA 
BRANCH  28  29
HETATM   29  C   UNL     1     -11.248  14.536  66.727  1.00  0.00    -0.334 C  
HETATM   30  C   UNL     1     -10.308  15.647  66.291  1.00  0.00    -0.316 C  
ENDBRANCH  28  29
ENDBRANCH  22  28
ENDBRANCH   9  13
ENDBRANCH   3   4
ENDBRANCH   2   3
TORSDOF 9
ENDMDL
MODEL       25
REMARK 921   NORMALIZED FREE ENERGY PREDICTED BY IDOCK:   -5.49 KCAL/MOL
REMARK 922        TOTAL FREE ENERGY PREDICTED BY IDOCK:   -9.26 KCAL/MOL
REMARK 923 INTER-LIGAND FREE ENERGY PREDICTED BY IDOCK:   -8.44 KCAL/MOL
REMARK 924 INTRA-LIGAND FREE ENERGY PREDICTED BY IDOCK:   -0.82 KCAL/MOL
REMARK 927      BINDING AFFINITY PREDICTED BY RF-SCORE:    0.00 PKD
ROOT
HETATM    1  C   UNL     1     -10.685  18.476  65.820  1.00  0.00    -0.193 C  
HETATM    2  C   UNL     1      -9.483  17.559  65.986  1.00  0.00    -0.070 C  
ENDROOT
BRANCH   2   3
HETATM    3  O   UNL     1      -9.727  16.342  65.287  1.00  0.00    -0.433 OA 
BRANCH   3   4
HETATM    4  C   UNL     1      -9.987  15.204  66.012  1.00  0.00    -0.311 A  
HETATM    5  C   UNL     1     -10.552  13.989  65.579  1.00  0.00    -0.318 A  
HETATM    6  C   UNL     1      -9.618  15.332  67.354  1.00  0.00    -0.207 A  
HETATM    7  C   UNL     1     -10.758  12.950  66.514  1.00  0.00    -0.285 A  
HETATM    8  C   UNL     1      -9.825  14.291  68.264  1.00  0.00    -0.235 A  
HETATM    9  C   UNL     1     -10.440  13.098  67.873  1.00  0.00    -0.245 A  
BRANCH   5  10
HETATM   10  O   UNL     1     -10.889  13.873  64.258  1.00  0.00    -0.343 OA 
BRANCH  10  11
HETATM   11  C   UNL     1     -10.989  12.580  63.682  1.00  0.00    -0.456 C  
HETATM   12  C   UNL     1     -12.459  12.201  63.657  1.00  0.00    -0.658 C  
ENDBRANCH  10  11
ENDBRANCH   5  10
BRANCH   9  13
HETATM   13  C   UNL     1     -10.749  11.989  68.822  1.00  0.00    -0.252 C  
HETATM   14  C   UNL     1      -9.833  11.205  69.435  1.00  0.00     0.130 C  
HETATM   15  N   UNL     1      -8.469  11.380  69.189  1.00  0.00    -0.377 NA 
HETATM   16  C   UNL     1      -7.660  10.188  68.972  1.00  0.00    -0.096 C  
HETATM   17  H   UNL     1      -8.054  12.310  69.162  1.00  0.00     0.000 HD 
HETATM   18  C   UNL     1      -7.710   9.326  70.218  1.00  0.00    -0.133 C  
HETATM   19  C   UNL     1      -9.121   9.182  70.749  1.00  0.00    -0.313 A  
HETATM   20  C   UNL     1      -9.343   8.153  71.679  1.00  0.00    -0.228 A  
HETATM   21  C   UNL     1     -10.587   7.968  72.285  1.00  0.00    -0.291 A  
HETATM   22  C   UNL     1     -11.634   8.845  71.947  1.00  0.00    -0.371 A  
HETATM   23  C   UNL     1     -11.404   9.886  71.010  1.00  0.00    -0.460 A  
HETATM   24  C   UNL     1     -10.152  10.080  70.394  1.00  0.00    -0.170 A  
BRANCH  21  25
HETATM   25  O   UNL     1     -10.811   6.973  73.197  1.00  0.00    -0.290 OA 
BRANCH  25  26
HETATM   26  C   UNL     1     -10.355   5.653  72.911  1.00  0.00    -0.195 C  
HETATM   27  C   UNL     1     -11.384   4.676  73.451  1.00  0.00    -0.394 C  
ENDBRANCH  25  26
ENDBRANCH  21  25
BRANCH  22  28
HETATM   28  O   UNL     1     -12.924   8.838  72.440  1.00  0.00    -0.392 OA 
BRANCH  28  29
HETATM   29  C   UNL     1     -13.994   8.604  71.522  1.00  0.00    -0.348 C  
HETATM   30  C   UNL     1     -14.350   7.127  71.509  1.00  0.00    -0.503 C  
ENDBRANCH  28  29
ENDBRANCH  22  28
ENDBRANCH   9  13
ENDBRANCH   3   4
ENDBRANCH   2   3
TORSDOF 9
ENDMDL
MODEL       26
REMARK 921   NORMALIZED FREE ENERGY PREDICTED BY IDOCK:   -5.49 KCAL/MOL
REMARK 922        TOTAL FREE ENERGY PREDICTED BY IDOCK:   -9.25 KCAL/MOL
REMARK 923 INTER-LIGAND FREE ENERGY PREDICTED BY IDOCK:   -8.81 KCAL/MOL
REMARK 924 INTRA-LIGAND FREE ENERGY PREDICTED BY IDOCK:   -0.45 KCAL/MOL
REMARK 927      BINDING AFFINITY PREDICTED BY RF-SCORE:    0.00 PKD
ROOT
HETATM    1  C   UNL     1      -9.572   4.435  70.817  1.00  0.00    -0.259 C  
HETATM    2  C   UNL     1      -9.814   4.846  69.373  1.00  0.00    -0.211 C  
ENDROOT
BRANCH   2   3
HETATM    3  O   UNL     1     -11.024   5.594  69.299  1.00  0.00    -0.304 OA 
BRANCH   3   4
HETATM    4  C   UNL     1     -10.969   6.957  69.461  1.00  0.00    -0.250 A  
HETATM    5  C   UNL     1     -11.298   7.728  70.594  1.00  0.00    -0.264 A  
HETATM    6  C   UNL     1     -10.516   7.613  68.312  1.00  0.00    -0.219 A  
HETATM    7  C   UNL     1     -11.192   9.135  70.527  1.00  0.00    -0.309 A  
HETATM    8  C   UNL     1     -10.413   9.006  68.267  1.00  0.00    -0.247 A  
HETATM    9  C   UNL     1     -10.792   9.797  69.356  1.00  0.00    -0.256 A  
BRANCH   5  10
HETATM   10  O   UNL     1     -11.720   7.070  71.717  1.00  0.00    -0.271 OA 
BRANCH  10  11
HETATM   11  C   UNL     1     -11.428   7.621  72.991  1.00  0.00    -0.213 C  
HETATM   12  C   UNL     1      -9.999   7.242  73.338  1.00  0.00    -0.343 C  
ENDBRANCH  10  11
ENDBRANCH   5  10
BRANCH   9  13
HETATM   13  C   UNL     1     -10.770  11.288  69.329  1.00  0.00    -0.221 C  
HETATM   14  C   UNL     1     -10.755  12.051  68.213  1.00  0.00    -0.224 C  
HETATM   15  N   UNL     1     -10.736  11.461  66.947  1.00  0.00    -0.252 NA 
HETATM   16  C   UNL     1      -9.824  12.010  65.954  1.00  0.00    -0.238 C  
HETATM   17  H   UNL     1     -11.341  10.670  66.726  1.00  0.00     0.000 HD 
HETATM   18  C   UNL     1     -10.197  13.455  65.688  1.00  0.00    -0.300 C  
HETATM   19  C   UNL     1     -10.450  14.219  66.971  1.00  0.00    -0.271 A  
HETATM   20  C   UNL     1     -10.470  15.620  66.879  1.00  0.00    -0.307 A  
HETATM   21  C   UNL     1     -10.758  16.424  67.982  1.00  0.00    -0.334 A  
HETATM   22  C   UNL     1     -11.037  15.799  69.212  1.00  0.00    -0.297 A  
HETATM   23  C   UNL     1     -11.020  14.383  69.300  1.00  0.00    -0.281 A  
HETATM   24  C   UNL     1     -10.730  13.564  68.192  1.00  0.00    -0.265 A  
BRANCH  21  25
HETATM   25  O   UNL     1     -10.786  17.789  67.900  1.00  0.00    -0.365 OA 
BRANCH  25  26
HETATM   26  C   UNL     1     -10.588  18.414  66.634  1.00  0.00    -0.325 C  
HETATM   27  C   UNL     1     -10.388  19.900  66.872  1.00  0.00    -0.596 C  
ENDBRANCH  25  26
ENDBRANCH  21  25
BRANCH  22  28
HETATM   28  O   UNL     1     -11.354  16.411  70.408  1.00  0.00    -0.349 OA 
BRANCH  28  29
HETATM   29  C   UNL     1     -12.312  15.776  71.256  1.00  0.00    -0.438 C  
HETATM   30  C   UNL     1     -11.813  15.777  72.691  1.00  0.00    -0.596 C  
ENDBRANCH  28  29
ENDBRANCH  22  28
ENDBRANCH   9  13
ENDBRANCH   3   4
ENDBRANCH   2   3
TORSDOF 9
ENDMDL
MODEL       27
REMARK 921   NORMALIZED FREE ENERGY PREDICTED BY IDOCK:   -5.48 KCAL/MOL
REMARK 922        TOTAL FREE ENERGY PREDICTED BY IDOCK:   -9.24 KCAL/MOL
REMARK 923 INTER-LIGAND FREE ENERGY PREDICTED BY IDOCK:   -8.42 KCAL/MOL
REMARK 924 INTRA-LIGAND FREE ENERGY PREDICTED BY IDOCK:   -0.82 KCAL/MOL
REMARK 927      BINDING AFFINITY PREDICTED BY RF-SCORE:    0.00 PKD
ROOT
HETATM    1  C   UNL     1      -5.883  21.300  67.565  1.00  0.00    -0.427 C  
HETATM    2  C   UNL     1      -6.131  20.147  68.525  1.00  0.00    -0.282 C  
ENDROOT
BRANCH   2   3
HETATM    3  O   UNL     1      -7.535  19.982  68.699  1.00  0.00    -0.275 OA 
BRANCH   3   4
HETATM    4  C   UNL     1      -8.069  18.719  68.602  1.00  0.00    -0.333 A  
HETATM    5  C   UNL     1      -9.413  18.337  68.425  1.00  0.00    -0.323 A  
HETATM    6  C   UNL     1      -7.095  17.721  68.699  1.00  0.00    -0.257 A  
HETATM    7  C   UNL     1      -9.743  16.964  68.382  1.00  0.00    -0.263 A  
HETATM    8  C   UNL     1      -7.439  16.367  68.648  1.00  0.00    -0.194 A  
HETATM    9  C   UNL     1      -8.772  15.961  68.536  1.00  0.00    -0.194 A  
BRANCH   5  10
HETATM   10  O   UNL     1     -10.351  19.327  68.313  1.00  0.00    -0.404 OA 
BRANCH  10  11
HETATM   11  C   UNL     1     -10.966  19.555  67.055  1.00  0.00    -0.330 C  
HETATM   12  C   UNL     1      -9.888  20.027  66.096  1.00  0.00    -0.553 C  
ENDBRANCH  10  11
ENDBRANCH   5  10
BRANCH   9  13
HETATM   13  C   UNL     1      -9.196  14.531  68.552  1.00  0.00    -0.195 C  
HETATM   14  C   UNL     1      -9.391  13.760  67.458  1.00  0.00    -0.222 C  
HETATM   15  N   UNL     1      -9.220  14.287  66.176  1.00  0.00    -0.510 NA 
HETATM   16  C   UNL     1     -10.224  13.967  65.171  1.00  0.00    -0.371 C  
HETATM   17  H   UNL     1      -8.419  14.876  65.952  1.00  0.00     0.000 HD 
HETATM   18  C   UNL     1     -10.249  12.466  64.959  1.00  0.00    -0.306 C  
HETATM   19  C   UNL     1     -10.241  11.710  66.271  1.00  0.00    -0.262 A  
HETATM   20  C   UNL     1     -10.598  10.353  66.220  1.00  0.00    -0.180 A  
HETATM   21  C   UNL     1     -10.563   9.542  67.355  1.00  0.00    -0.271 A  
HETATM   22  C   UNL     1     -10.154  10.113  68.574  1.00  0.00    -0.169 A  
HETATM   23  C   UNL     1      -9.790  11.485  68.621  1.00  0.00    -0.184 A  
HETATM   24  C   UNL     1      -9.823  12.310  67.481  1.00  0.00    -0.193 A  
BRANCH  21  25
HETATM   25  O   UNL     1     -10.903   8.217  67.314  1.00  0.00    -0.232 OA 
BRANCH  25  26
HETATM   26  C   UNL     1      -9.902   7.253  66.996  1.00  0.00    -0.203 C  
HETATM   27  C   UNL     1     -10.565   5.887  66.960  1.00  0.00    -0.376 C  
ENDBRANCH  25  26
ENDBRANCH  21  25
BRANCH  22  28
HETATM   28  O   UNL     1     -10.042   9.483  69.798  1.00  0.00    -0.189 OA 
BRANCH  28  29
HETATM   29  C   UNL     1     -11.239   9.053  70.447  1.00  0.00    -0.241 C  
HETATM   30  C   UNL     1     -12.006  10.257  70.968  1.00  0.00    -0.483 C  
ENDBRANCH  28  29
ENDBRANCH  22  28
ENDBRANCH   9  13
ENDBRANCH   3   4
ENDBRANCH   2   3
TORSDOF 9
ENDMDL
MODEL       28
REMARK 921   NORMALIZED FREE ENERGY PREDICTED BY IDOCK:   -5.45 KCAL/MOL
REMARK 922        TOTAL FREE ENERGY PREDICTED BY IDOCK:   -9.20 KCAL/MOL
REMARK 923 INTER-LIGAND FREE ENERGY PREDICTED BY IDOCK:   -8.26 KCAL/MOL
REMARK 924 INTRA-LIGAND FREE ENERGY PREDICTED BY IDOCK:   -0.93 KCAL/MOL
REMARK 927      BINDING AFFINITY PREDICTED BY RF-SCORE:    0.00 PKD
ROOT
HETATM    1  C   UNL     1      -5.302  19.527  65.893  1.00  0.00    -0.168 C  
HETATM    2  C   UNL     1      -6.164  18.384  65.380  1.00  0.00    -0.251 C  
ENDROOT
BRANCH   2   3
HETATM    3  O   UNL     1      -7.413  18.400  66.065  1.00  0.00    -0.344 OA 
BRANCH   3   4
HETATM    4  C   UNL     1      -7.978  17.205  66.438  1.00  0.00    -0.311 A  
HETATM    5  C   UNL     1      -9.325  16.800  66.365  1.00  0.00    -0.278 A  
HETATM    6  C   UNL     1      -7.036  16.309  66.953  1.00  0.00    -0.246 A  
HETATM    7  C   UNL     1      -9.691  15.521  66.839  1.00  0.00    -0.243 A  
HETATM    8  C   UNL     1      -7.415  15.044  67.413  1.00  0.00    -0.234 A  
HETATM    9  C   UNL     1      -8.755  14.643  67.408  1.00  0.00    -0.209 A  
BRANCH   5  10
HETATM   10  O   UNL     1     -10.231  17.682  65.839  1.00  0.00    -0.517 OA 
BRANCH  10  11
HETATM   11  C   UNL     1     -10.720  18.735  66.654  1.00  0.00    -0.285 C  
HETATM   12  C   UNL     1     -10.408  20.043  65.949  1.00  0.00    -0.529 C  
ENDBRANCH  10  11
ENDBRANCH   5  10
BRANCH   9  13
HETATM   13  C   UNL     1      -9.217  13.334  67.955  1.00  0.00    -0.217 C  
HETATM   14  C   UNL     1      -9.315  12.183  67.253  1.00  0.00    -0.183 C  
HETATM   15  N   UNL     1      -8.992  12.148  65.894  1.00  0.00    -0.425 NA 
HETATM   16  C   UNL     1      -9.890  11.430  65.001  1.00  0.00    -0.261 C  
HETATM   17  H   UNL     1      -8.155  12.610  65.541  1.00  0.00     0.000 HD 
HETATM   18  C   UNL     1      -9.934   9.972  65.414  1.00  0.00    -0.364 C  
HETATM   19  C   UNL     1     -10.090   9.813  66.911  1.00  0.00    -0.287 A  
HETATM   20  C   UNL     1     -10.478   8.546  67.376  1.00  0.00    -0.351 A  
HETATM   21  C   UNL     1     -10.588   8.265  68.738  1.00  0.00    -0.123 A  
HETATM   22  C   UNL     1     -10.298   9.289  69.658  1.00  0.00    -0.217 A  
HETATM   23  C   UNL     1      -9.902  10.568  69.186  1.00  0.00    -0.233 A  
HETATM   24  C   UNL     1      -9.788  10.860  67.813  1.00  0.00    -0.194 A  
BRANCH  21  25
HETATM   25  O   UNL     1     -10.959   7.032  69.199  1.00  0.00    -0.219 OA 
BRANCH  25  26
HETATM   26  C   UNL     1     -10.784   5.894  68.358  1.00  0.00    -0.250 C  
HETATM   27  C   UNL     1      -9.787   4.966  69.030  1.00  0.00    -0.250 C  
ENDBRANCH  25  26
ENDBRANCH  21  25
BRANCH  22  28
HETATM   28  O   UNL     1     -10.336   9.211  71.036  1.00  0.00    -0.242 OA 
BRANCH  28  29
HETATM   29  C   UNL     1     -11.602   9.346  71.684  1.00  0.00    -0.396 C  
HETATM   30  C   UNL     1     -11.894   8.106  72.512  1.00  0.00    -0.438 C  
ENDBRANCH  28  29
ENDBRANCH  22  28
ENDBRANCH   9  13
ENDBRANCH   3   4
ENDBRANCH   2   3
TORSDOF 9
ENDMDL
MODEL       29
REMARK 921   NORMALIZED FREE ENERGY PREDICTED BY IDOCK:   -5.42 KCAL/MOL
REMARK 922        TOTAL FREE ENERGY PREDICTED BY IDOCK:   -9.15 KCAL/MOL
REMARK 923 INTER-LIGAND FREE ENERGY PREDICTED BY IDOCK:   -7.93 KCAL/MOL
REMARK 924 INTRA-LIGAND FREE ENERGY PREDICTED BY IDOCK:   -1.21 KCAL/MOL
REMARK 927      BINDING AFFINITY PREDICTED BY RF-SCORE:    0.00 PKD
ROOT
HETATM    1  C   UNL     1     -10.190   6.054  74.464  1.00  0.00    -0.307 C  
HETATM    2  C   UNL     1     -10.904   5.103  73.517  1.00  0.00    -0.303 C  
ENDROOT
BRANCH   2   3
HETATM    3  O   UNL     1     -10.107   4.923  72.350  1.00  0.00    -0.173 OA 
BRANCH   3   4
HETATM    4  C   UNL     1     -10.064   5.931  71.417  1.00  0.00    -0.197 A  
HETATM    5  C   UNL     1      -8.950   6.647  70.937  1.00  0.00    -0.147 A  
HETATM    6  C   UNL     1     -11.330   6.242  70.911  1.00  0.00    -0.389 A  
HETATM    7  C   UNL     1      -9.145   7.675  69.987  1.00  0.00    -0.151 A  
HETATM    8  C   UNL     1     -11.503   7.259  69.967  1.00  0.00    -0.142 A  
HETATM    9  C   UNL     1     -10.422   8.026  69.522  1.00  0.00    -0.226 A  
BRANCH   5  10
HETATM   10  O   UNL     1      -7.716   6.316  71.427  1.00  0.00    -0.097 OA 
BRANCH  10  11
HETATM   11  C   UNL     1      -7.163   7.088  72.482  1.00  0.00    -0.080 C  
HETATM   12  C   UNL     1      -6.620   6.122  73.520  1.00  0.00    -0.074 C  
ENDBRANCH  10  11
ENDBRANCH   5  10
BRANCH   9  13
HETATM   13  C   UNL     1     -10.566   9.168  68.573  1.00  0.00    -0.209 C  
HETATM   14  C   UNL     1     -10.844  10.445  68.922  1.00  0.00    -0.236 C  
HETATM   15  N   UNL     1     -11.046  10.789  70.260  1.00  0.00    -0.454 NA 
HETATM   16  C   UNL     1     -12.164  11.667  70.575  1.00  0.00    -0.361 C  
HETATM   17  H   UNL     1     -10.430  10.437  70.993  1.00  0.00     0.000 HD 
HETATM   18  C   UNL     1     -11.960  12.995  69.872  1.00  0.00    -0.381 C  
HETATM   19  C   UNL     1     -11.540  12.812  68.429  1.00  0.00    -0.365 A  
HETATM   20  C   UNL     1     -11.648  13.935  67.593  1.00  0.00    -0.381 A  
HETATM   21  C   UNL     1     -11.228  13.902  66.262  1.00  0.00    -0.309 A  
HETATM   22  C   UNL     1     -10.683  12.706  65.762  1.00  0.00    -0.268 A  
HETATM   23  C   UNL     1     -10.571  11.574  66.611  1.00  0.00    -0.294 A  
HETATM   24  C   UNL     1     -10.992  11.599  67.955  1.00  0.00    -0.277 A  
BRANCH  21  25
HETATM   25  O   UNL     1     -11.324  14.993  65.442  1.00  0.00    -0.347 OA 
BRANCH  25  26
HETATM   26  C   UNL     1     -10.651  16.196  65.805  1.00  0.00    -0.334 C  
HETATM   27  C   UNL     1      -9.173  15.880  65.948  1.00  0.00    -0.332 C  
ENDBRANCH  25  26
ENDBRANCH  21  25
BRANCH  22  28
HETATM   28  O   UNL     1     -10.203  12.473  64.488  1.00  0.00    -0.317 OA 
BRANCH  28  29
HETATM   29  C   UNL     1     -10.751  11.380  63.750  1.00  0.00    -0.403 C  
HETATM   30  C   UNL     1      -9.635  10.596  63.082  1.00  0.00    -0.382 C  
ENDBRANCH  28  29
ENDBRANCH  22  28
ENDBRANCH   9  13
ENDBRANCH   3   4
ENDBRANCH   2   3
TORSDOF 9
ENDMDL
MODEL       30
REMARK 921   NORMALIZED FREE ENERGY PREDICTED BY IDOCK:   -5.40 KCAL/MOL
REMARK 922        TOTAL FREE ENERGY PREDICTED BY IDOCK:   -9.12 KCAL/MOL
REMARK 923 INTER-LIGAND FREE ENERGY PREDICTED BY IDOCK:   -8.37 KCAL/MOL
REMARK 924 INTRA-LIGAND FREE ENERGY PREDICTED BY IDOCK:   -0.75 KCAL/MOL
REMARK 927      BINDING AFFINITY PREDICTED BY RF-SCORE:    0.00 PKD
ROOT
HETATM    1  C   UNL     1     -10.727  18.979  67.322  1.00  0.00    -0.556 C  
HETATM    2  C   UNL     1     -10.445  17.543  67.735  1.00  0.00    -0.381 C  
ENDROOT
BRANCH   2   3
HETATM    3  O   UNL     1     -11.646  16.955  68.224  1.00  0.00     0.007 OA 
BRANCH   3   4
HETATM    4  C   UNL     1     -11.640  15.624  68.566  1.00  0.00    -0.370 A  
HETATM    5  C   UNL     1     -12.118  15.009  69.740  1.00  0.00    -0.314 A  
HETATM    6  C   UNL     1     -11.070  14.822  67.573  1.00  0.00    -0.323 A  
HETATM    7  C   UNL     1     -11.980  13.612  69.894  1.00  0.00    -0.415 A  
HETATM    8  C   UNL     1     -10.947  13.440  67.741  1.00  0.00    -0.281 A  
HETATM    9  C   UNL     1     -11.356  12.814  68.922  1.00  0.00    -0.344 A  
BRANCH   5  10
HETATM   10  O   UNL     1     -12.691  15.806  70.693  1.00  0.00    -0.439 OA 
BRANCH  10  11
HETATM   11  C   UNL     1     -13.823  15.328  71.403  1.00  0.00    -0.515 C  
HETATM   12  C   UNL     1     -13.633  15.687  72.866  1.00  0.00    -0.658 C  
ENDBRANCH  10  11
ENDBRANCH   5  10
BRANCH   9  13
HETATM   13  C   UNL     1     -11.178  11.355  69.177  1.00  0.00    -0.335 C  
HETATM   14  C   UNL     1      -9.990  10.717  69.279  1.00  0.00    -0.193 C  
HETATM   15  N   UNL     1      -8.791  11.416  69.121  1.00  0.00    -0.376 NA 
HETATM   16  C   UNL     1      -7.752  10.807  68.304  1.00  0.00    -0.109 C  
HETATM   17  H   UNL     1      -8.650  12.324  69.563  1.00  0.00     0.000 HD 
HETATM   18  C   UNL     1      -7.339   9.491  68.933  1.00  0.00    -0.073 C  
HETATM   19  C   UNL     1      -8.536   8.665  69.354  1.00  0.00    -0.127 A  
HETATM   20  C   UNL     1      -8.302   7.308  69.632  1.00  0.00    -0.132 A  
HETATM   21  C   UNL     1      -9.316   6.467  70.090  1.00  0.00    -0.158 A  
HETATM   22  C   UNL     1     -10.602   7.008  70.276  1.00  0.00    -0.226 A  
HETATM   23  C   UNL     1     -10.834   8.381  69.998  1.00  0.00    -0.225 A  
HETATM   24  C   UNL     1      -9.816   9.236  69.535  1.00  0.00    -0.188 A  
BRANCH  21  25
HETATM   25  O   UNL     1      -9.095   5.147  70.370  1.00  0.00    -0.127 OA 
BRANCH  25  26
HETATM   26  C   UNL     1      -9.339   4.172  69.359  1.00  0.00    -0.168 C  
HETATM   27  C   UNL     1      -9.285   2.801  70.008  1.00  0.00    -0.205 C  
ENDBRANCH  25  26
ENDBRANCH  21  25
BRANCH  22  28
HETATM   28  O   UNL     1     -11.728   6.351  70.730  1.00  0.00    -0.366 OA 
BRANCH  28  29
HETATM   29  C   UNL     1     -12.411   6.888  71.864  1.00  0.00    -0.311 C  
HETATM   30  C   UNL     1     -13.846   7.222  71.493  1.00  0.00    -0.463 C  
ENDBRANCH  28  29
ENDBRANCH  22  28
ENDBRANCH   9  13
ENDBRANCH   3   4
ENDBRANCH   2   3
TORSDOF 9
ENDMDL
MODEL       31
REMARK 921   NORMALIZED FREE ENERGY PREDICTED BY IDOCK:   -5.36 KCAL/MOL
REMARK 922        TOTAL FREE ENERGY PREDICTED BY IDOCK:   -9.06 KCAL/MOL
REMARK 923 INTER-LIGAND FREE ENERGY PREDICTED BY IDOCK:   -8.66 KCAL/MOL
REMARK 924 INTRA-LIGAND FREE ENERGY PREDICTED BY IDOCK:   -0.40 KCAL/MOL
REMARK 927      BINDING AFFINITY PREDICTED BY RF-SCORE:    0.00 PKD
ROOT
HETATM    1  C   UNL     1     -12.288  16.274  73.124  1.00  0.00    -0.598 C  
HETATM    2  C   UNL     1     -13.754  15.913  72.949  1.00  0.00    -0.511 C  
ENDROOT
BRANCH   2   3
HETATM    3  O   UNL     1     -13.970  15.481  71.608  1.00  0.00    -0.488 OA 
BRANCH   3   4
HETATM    4  C   UNL     1     -13.247  14.414  71.132  1.00  0.00    -0.350 A  
HETATM    5  C   UNL     1     -12.387  14.353  70.018  1.00  0.00    -0.336 A  
HETATM    6  C   UNL     1     -13.431  13.262  71.902  1.00  0.00    -0.525 A  
HETATM    7  C   UNL     1     -11.763  13.128  69.693  1.00  0.00    -0.370 A  
HETATM    8  C   UNL     1     -12.801  12.059  71.567  1.00  0.00    -0.403 A  
HETATM    9  C   UNL     1     -11.992  11.956  70.432  1.00  0.00    -0.400 A  
BRANCH   5  10
HETATM   10  O   UNL     1     -12.203  15.495  69.288  1.00  0.00    -0.301 OA 
BRANCH  10  11
HETATM   11  C   UNL     1     -11.049  16.286  69.524  1.00  0.00    -0.330 C  
HETATM   12  C   UNL     1     -10.616  16.876  68.194  1.00  0.00    -0.360 C  
ENDBRANCH  10  11
ENDBRANCH   5  10
BRANCH   9  13
HETATM   13  C   UNL     1     -11.358  10.679  69.993  1.00  0.00    -0.400 C  
HETATM   14  C   UNL     1     -11.778   9.440  70.333  1.00  0.00    -0.144 C  
HETATM   15  N   UNL     1     -12.877   9.267  71.178  1.00  0.00    -0.480 NA 
HETATM   16  C   UNL     1     -12.768   8.278  72.241  1.00  0.00    -0.298 C  
HETATM   17  H   UNL     1     -13.727   9.817  71.055  1.00  0.00     0.000 HD 
HETATM   18  C   UNL     1     -12.552   6.912  71.622  1.00  0.00    -0.410 C  
HETATM   19  C   UNL     1     -11.508   6.945  70.526  1.00  0.00    -0.390 A  
HETATM   20  C   UNL     1     -10.983   5.709  70.115  1.00  0.00    -0.303 A  
HETATM   21  C   UNL     1     -10.064   5.614  69.070  1.00  0.00    -0.195 A  
HETATM   22  C   UNL     1      -9.666   6.795  68.418  1.00  0.00    -0.128 A  
HETATM   23  C   UNL     1     -10.202   8.042  68.833  1.00  0.00    -0.220 A  
HETATM   24  C   UNL     1     -11.130   8.148  69.887  1.00  0.00    -0.102 A  
BRANCH  21  25
HETATM   25  O   UNL     1      -9.552   4.413  68.659  1.00  0.00    -0.150 OA 
BRANCH  25  26
HETATM   26  C   UNL     1      -8.374   3.910  69.285  1.00  0.00    -0.060 C  
HETATM   27  C   UNL     1      -7.287   3.817  68.229  1.00  0.00    -0.055 C  
ENDBRANCH  25  26
ENDBRANCH  21  25
BRANCH  22  28
HETATM   28  O   UNL     1      -8.783   6.912  67.362  1.00  0.00    -0.120 OA 
BRANCH  28  29
HETATM   29  C   UNL     1      -8.824   8.106  66.578  1.00  0.00    -0.149 C  
HETATM   30  C   UNL     1      -7.421   8.477  66.130  1.00  0.00    -0.089 C  
ENDBRANCH  28  29
ENDBRANCH  22  28
ENDBRANCH   9  13
ENDBRANCH   3   4
ENDBRANCH   2   3
TORSDOF 9
ENDMDL
MODEL       32
REMARK 921   NORMALIZED FREE ENERGY PREDICTED BY IDOCK:   -5.31 KCAL/MOL
REMARK 922        TOTAL FREE ENERGY PREDICTED BY IDOCK:   -8.98 KCAL/MOL
REMARK 923 INTER-LIGAND FREE ENERGY PREDICTED BY IDOCK:   -7.97 KCAL/MOL
REMARK 924 INTRA-LIGAND FREE ENERGY PREDICTED BY IDOCK:   -1.01 KCAL/MOL
REMARK 927      BINDING AFFINITY PREDICTED BY RF-SCORE:    0.00 PKD
ROOT
HETATM    1  C   UNL     1      -9.795   4.262  74.302  1.00  0.00    -0.169 C  
HETATM    2  C   UNL     1     -11.028   5.014  73.827  1.00  0.00    -0.269 C  
ENDROOT
BRANCH   2   3
HETATM    3  O   UNL     1     -11.008   5.086  72.404  1.00  0.00    -0.201 OA 
BRANCH   3   4
HETATM    4  C   UNL     1     -10.864   6.315  71.806  1.00  0.00    -0.248 A  
HETATM    5  C   UNL     1      -9.717   6.887  71.222  1.00  0.00    -0.172 A  
HETATM    6  C   UNL     1     -12.053   7.051  71.809  1.00  0.00    -0.371 A  
HETATM    7  C   UNL     1      -9.790   8.192  70.686  1.00  0.00    -0.196 A  
HETATM    8  C   UNL     1     -12.108   8.339  71.269  1.00  0.00    -0.307 A  
HETATM    9  C   UNL     1     -10.969   8.953  70.739  1.00  0.00    -0.305 A  
BRANCH   5  10
HETATM   10  O   UNL     1      -8.567   6.145  71.210  1.00  0.00    -0.127 OA 
BRANCH  10  11
HETATM   11  C   UNL     1      -7.970   5.819  69.965  1.00  0.00    -0.099 C  
HETATM   12  C   UNL     1      -8.700   4.609  69.409  1.00  0.00    -0.111 C  
ENDBRANCH  10  11
ENDBRANCH   5  10
BRANCH   9  13
HETATM   13  C   UNL     1     -10.961  10.351  70.220  1.00  0.00    -0.353 C  
HETATM   14  C   UNL     1     -11.047  10.703  68.917  1.00  0.00    -0.261 C  
HETATM   15  N   UNL     1     -11.133   9.728  67.921  1.00  0.00    -0.504 NA 
HETATM   16  C   UNL     1     -10.314   9.899  66.729  1.00  0.00    -0.217 C  
HETATM   17  H   UNL     1     -11.749   8.922  68.025  1.00  0.00     0.000 HD 
HETATM   18  C   UNL     1     -10.719  11.183  66.034  1.00  0.00    -0.272 C  
HETATM   19  C   UNL     1     -10.867  12.333  67.009  1.00  0.00    -0.288 A  
HETATM   20  C   UNL     1     -10.905  13.625  66.461  1.00  0.00    -0.283 A  
HETATM   21  C   UNL     1     -11.104  14.754  67.256  1.00  0.00    -0.332 A  
HETATM   22  C   UNL     1     -11.271  14.576  68.642  1.00  0.00    -0.261 A  
HETATM   23  C   UNL     1     -11.235  13.267  69.192  1.00  0.00    -0.305 A  
HETATM   24  C   UNL     1     -11.035  12.123  68.396  1.00  0.00    -0.271 A  
BRANCH  21  25
HETATM   25  O   UNL     1     -11.149  16.016  66.731  1.00  0.00    -0.190 OA 
BRANCH  25  26
HETATM   26  C   UNL     1     -10.355  16.321  65.586  1.00  0.00    -0.363 C  
HETATM   27  C   UNL     1      -8.910  16.435  66.037  1.00  0.00    -0.296 C  
ENDBRANCH  25  26
ENDBRANCH  21  25
BRANCH  22  28
HETATM   28  O   UNL     1     -11.488  15.554  69.592  1.00  0.00    -0.281 OA 
BRANCH  28  29
HETATM   29  C   UNL     1     -11.697  15.146  70.945  1.00  0.00    -0.332 C  
HETATM   30  C   UNL     1     -13.116  15.482  71.372  1.00  0.00    -0.580 C  
ENDBRANCH  28  29
ENDBRANCH  22  28
ENDBRANCH   9  13
ENDBRANCH   3   4
ENDBRANCH   2   3
TORSDOF 9
ENDMDL
MODEL       33
REMARK 921   NORMALIZED FREE ENERGY PREDICTED BY IDOCK:   -5.30 KCAL/MOL
REMARK 922        TOTAL FREE ENERGY PREDICTED BY IDOCK:   -8.97 KCAL/MOL
REMARK 923 INTER-LIGAND FREE ENERGY PREDICTED BY IDOCK:   -8.33 KCAL/MOL
REMARK 924 INTRA-LIGAND FREE ENERGY PREDICTED BY IDOCK:   -0.64 KCAL/MOL
REMARK 927      BINDING AFFINITY PREDICTED BY RF-SCORE:    0.00 PKD
ROOT
HETATM    1  C   UNL     1     -10.203  18.126  66.473  1.00  0.00    -0.398 C  
HETATM    2  C   UNL     1     -10.243  16.635  66.177  1.00  0.00    -0.348 C  
ENDROOT
BRANCH   2   3
HETATM    3  O   UNL     1     -11.401  16.071  66.787  1.00  0.00     0.002 OA 
BRANCH   3   4
HETATM    4  C   UNL     1     -11.285  14.866  67.438  1.00  0.00    -0.338 A  
HETATM    5  C   UNL     1     -11.608  14.545  68.771  1.00  0.00    -0.312 A  
HETATM    6  C   UNL     1     -10.773  13.862  66.611  1.00  0.00    -0.281 A  
HETATM    7  C   UNL     1     -11.376  13.234  69.242  1.00  0.00    -0.311 A  
HETATM    8  C   UNL     1     -10.555  12.568  67.094  1.00  0.00    -0.247 A  
HETATM    9  C   UNL     1     -10.809  12.240  68.429  1.00  0.00    -0.257 A  
BRANCH   5  10
HETATM   10  O   UNL     1     -12.128  15.535  69.561  1.00  0.00    -0.344 OA 
BRANCH  10  11
HETATM   11  C   UNL     1     -11.283  16.187  70.495  1.00  0.00    -0.363 C  
HETATM   12  C   UNL     1     -11.893  16.000  71.873  1.00  0.00    -0.619 C  
ENDBRANCH  10  11
ENDBRANCH   5  10
BRANCH   9  13
HETATM   13  C   UNL     1     -10.524  10.895  69.009  1.00  0.00    -0.244 C  
HETATM   14  C   UNL     1     -11.376  10.177  69.775  1.00  0.00    -0.256 C  
HETATM   15  N   UNL     1     -12.634  10.683  70.107  1.00  0.00    -0.454 NA 
HETATM   16  C   UNL     1     -13.083  10.538  71.485  1.00  0.00    -0.430 C  
HETATM   17  H   UNL     1     -13.219  11.140  69.408  1.00  0.00     0.000 HD 
HETATM   18  C   UNL     1     -13.171   9.063  71.821  1.00  0.00    -0.445 C  
HETATM   19  C   UNL     1     -11.950   8.302  71.351  1.00  0.00    -0.333 A  
HETATM   20  C   UNL     1     -11.758   7.019  71.891  1.00  0.00    -0.333 A  
HETATM   21  C   UNL     1     -10.704   6.201  71.483  1.00  0.00    -0.252 A  
HETATM   22  C   UNL     1      -9.820   6.687  70.502  1.00  0.00    -0.176 A  
HETATM   23  C   UNL     1     -10.019   7.983  69.956  1.00  0.00    -0.191 A  
HETATM   24  C   UNL     1     -11.080   8.814  70.362  1.00  0.00    -0.261 A  
BRANCH  21  25
HETATM   25  O   UNL     1     -10.514   4.948  71.998  1.00  0.00    -0.205 OA 
BRANCH  25  26
HETATM   26  C   UNL     1     -10.399   4.788  73.410  1.00  0.00    -0.190 C  
HETATM   27  C   UNL     1     -10.969   3.428  73.773  1.00  0.00    -0.307 C  
ENDBRANCH  25  26
ENDBRANCH  21  25
BRANCH  22  28
HETATM   28  O   UNL     1      -8.731   6.034  69.959  1.00  0.00    -0.132 OA 
BRANCH  28  29
HETATM   29  C   UNL     1      -8.825   5.574  68.610  1.00  0.00    -0.107 C  
HETATM   30  C   UNL     1      -9.582   4.259  68.564  1.00  0.00    -0.202 C  
ENDBRANCH  28  29
ENDBRANCH  22  28
ENDBRANCH   9  13
ENDBRANCH   3   4
ENDBRANCH   2   3
TORSDOF 9
ENDMDL
MODEL       34
REMARK 921   NORMALIZED FREE ENERGY PREDICTED BY IDOCK:   -5.30 KCAL/MOL
REMARK 922        TOTAL FREE ENERGY PREDICTED BY IDOCK:   -8.97 KCAL/MOL
REMARK 923 INTER-LIGAND FREE ENERGY PREDICTED BY IDOCK:   -7.92 KCAL/MOL
REMARK 924 INTRA-LIGAND FREE ENERGY PREDICTED BY IDOCK:   -1.05 KCAL/MOL
REMARK 927      BINDING AFFINITY PREDICTED BY RF-SCORE:    0.00 PKD
ROOT
HETATM    1  C   UNL     1      -9.295  20.188  66.033  1.00  0.00    -0.304 C  
HETATM    2  C   UNL     1     -10.304  20.408  67.149  1.00  0.00    -0.181 C  
ENDROOT
BRANCH   2   3
HETATM    3  O   UNL     1      -9.819  19.798  68.342  1.00  0.00    -0.387 OA 
BRANCH   3   4
HETATM    4  C   UNL     1      -9.692  18.431  68.380  1.00  0.00    -0.356 A  
HETATM    5  C   UNL     1      -8.542  17.655  68.623  1.00  0.00    -0.264 A  
HETATM    6  C   UNL     1     -10.903  17.777  68.138  1.00  0.00    -0.193 A  
HETATM    7  C   UNL     1      -8.637  16.245  68.585  1.00  0.00    -0.222 A  
HETATM    8  C   UNL     1     -10.980  16.381  68.109  1.00  0.00    -0.339 A  
HETATM    9  C   UNL     1      -9.841  15.589  68.286  1.00  0.00    -0.213 A  
BRANCH   5  10
HETATM   10  O   UNL     1      -7.368  18.310  68.878  1.00  0.00    -0.285 OA 
BRANCH  10  11
HETATM   11  C   UNL     1      -6.514  18.644  67.795  1.00  0.00    -0.210 C  
HETATM   12  C   UNL     1      -6.067  20.082  67.990  1.00  0.00    -0.269 C  
ENDBRANCH  10  11
ENDBRANCH   5  10
BRANCH   9  13
HETATM   13  C   UNL     1      -9.858  14.100  68.191  1.00  0.00    -0.229 C  
HETATM   14  C   UNL     1      -9.823  13.389  67.042  1.00  0.00    -0.250 C  
HETATM   15  N   UNL     1      -9.787  14.036  65.805  1.00  0.00    -0.452 NA 
HETATM   16  C   UNL     1     -10.654  13.532  64.749  1.00  0.00    -0.417 C  
HETATM   17  H   UNL     1      -9.175  14.836  65.647  1.00  0.00     0.000 HD 
HETATM   18  C   UNL     1     -10.266  12.101  64.434  1.00  0.00    -0.333 C  
HETATM   19  C   UNL     1     -10.068  11.280  65.691  1.00  0.00    -0.295 A  
HETATM   20  C   UNL     1     -10.041   9.884  65.536  1.00  0.00    -0.297 A  
HETATM   21  C   UNL     1      -9.799   9.031  66.614  1.00  0.00    -0.248 A  
HETATM   22  C   UNL     1      -9.577   9.599  67.881  1.00  0.00    -0.139 A  
HETATM   23  C   UNL     1      -9.601  11.011  68.033  1.00  0.00    -0.175 A  
HETATM   24  C   UNL     1      -9.844  11.879  66.952  1.00  0.00    -0.217 A  
BRANCH  21  25
HETATM   25  O   UNL     1      -9.765   7.671  66.471  1.00  0.00    -0.208 OA 
BRANCH  25  26
HETATM   26  C   UNL     1     -10.840   6.890  66.988  1.00  0.00    -0.366 C  
HETATM   27  C   UNL     1     -10.509   5.427  66.755  1.00  0.00    -0.347 C  
ENDBRANCH  25  26
ENDBRANCH  21  25
BRANCH  22  28
HETATM   28  O   UNL     1      -9.311   8.934  69.062  1.00  0.00    -0.144 OA 
BRANCH  28  29
HETATM   29  C   UNL     1      -9.616   9.595  70.291  1.00  0.00    -0.254 C  
HETATM   30  C   UNL     1     -10.950   9.102  70.825  1.00  0.00    -0.332 C  
ENDBRANCH  28  29
ENDBRANCH  22  28
ENDBRANCH   9  13
ENDBRANCH   3   4
ENDBRANCH   2   3
TORSDOF 9
ENDMDL
MODEL       35
REMARK 921   NORMALIZED FREE ENERGY PREDICTED BY IDOCK:   -5.29 KCAL/MOL
REMARK 922        TOTAL FREE ENERGY PREDICTED BY IDOCK:   -8.96 KCAL/MOL
REMARK 923 INTER-LIGAND FREE ENERGY PREDICTED BY IDOCK:   -8.39 KCAL/MOL
REMARK 924 INTRA-LIGAND FREE ENERGY PREDICTED BY IDOCK:   -0.57 KCAL/MOL
REMARK 927      BINDING AFFINITY PREDICTED BY RF-SCORE:    0.00 PKD
ROOT
HETATM    1  C   UNL     1      -9.592   4.357  69.411  1.00  0.00    -0.269 C  
HETATM    2  C   UNL     1      -9.591   5.336  68.248  1.00  0.00    -0.130 C  
ENDROOT
BRANCH   2   3
HETATM    3  O   UNL     1     -10.696   6.225  68.388  1.00  0.00    -0.230 OA 
BRANCH   3   4
HETATM    4  C   UNL     1     -10.465   7.578  68.351  1.00  0.00    -0.175 A  
HETATM    5  C   UNL     1     -10.176   8.457  69.413  1.00  0.00    -0.208 A  
HETATM    6  C   UNL     1     -10.539   8.096  67.054  1.00  0.00    -0.346 A  
HETATM    7  C   UNL     1     -10.002   9.833  69.145  1.00  0.00    -0.195 A  
HETATM    8  C   UNL     1     -10.359   9.460  66.807  1.00  0.00    -0.303 A  
HETATM    9  C   UNL     1     -10.132  10.362  67.851  1.00  0.00    -0.200 A  
BRANCH   5  10
HETATM   10  O   UNL     1     -10.087   7.931  70.674  1.00  0.00    -0.193 OA 
BRANCH  10  11
HETATM   11  C   UNL     1     -10.409   8.749  71.787  1.00  0.00    -0.343 C  
HETATM   12  C   UNL     1     -11.854   8.469  72.159  1.00  0.00    -0.448 C  
ENDBRANCH  10  11
ENDBRANCH   5  10
BRANCH   9  13
HETATM   13  C   UNL     1     -10.007  11.834  67.647  1.00  0.00    -0.204 C  
HETATM   14  C   UNL     1     -10.423  12.783  68.516  1.00  0.00    -0.238 C  
HETATM   15  N   UNL     1     -11.049  12.428  69.713  1.00  0.00    -0.464 NA 
HETATM   16  C   UNL     1     -12.237  13.171  70.106  1.00  0.00    -0.290 C  
HETATM   17  H   UNL     1     -10.685  11.672  70.292  1.00  0.00     0.000 HD 
HETATM   18  C   UNL     1     -11.866  14.629  70.294  1.00  0.00    -0.363 C  
HETATM   19  C   UNL     1     -11.005  15.145  69.161  1.00  0.00    -0.260 A  
HETATM   20  C   UNL     1     -10.880  16.539  69.046  1.00  0.00    -0.329 A  
HETATM   21  C   UNL     1     -10.061  17.125  68.081  1.00  0.00    -0.311 A  
HETATM   22  C   UNL     1      -9.346  16.284  67.208  1.00  0.00    -0.224 A  
HETATM   23  C   UNL     1      -9.471  14.875  67.330  1.00  0.00    -0.206 A  
HETATM   24  C   UNL     1     -10.296  14.275  68.301  1.00  0.00    -0.242 A  
BRANCH  21  25
HETATM   25  O   UNL     1      -9.928  18.482  67.966  1.00  0.00    -0.321 OA 
BRANCH  25  26
HETATM   26  C   UNL     1     -10.860  19.206  67.166  1.00  0.00    -0.410 C  
HETATM   27  C   UNL     1     -10.079  19.957  66.102  1.00  0.00    -0.611 C  
ENDBRANCH  25  26
ENDBRANCH  21  25
BRANCH  22  28
HETATM   28  O   UNL     1      -8.481  16.664  66.202  1.00  0.00    -0.318 OA 
BRANCH  28  29
HETATM   29  C   UNL     1      -7.126  16.955  66.551  1.00  0.00    -0.246 C  
HETATM   30  C   UNL     1      -6.703  18.272  65.923  1.00  0.00    -0.315 C  
ENDBRANCH  28  29
ENDBRANCH  22  28
ENDBRANCH   9  13
ENDBRANCH   3   4
ENDBRANCH   2   3
TORSDOF 9
ENDMDL
MODEL       36
REMARK 921   NORMALIZED FREE ENERGY PREDICTED BY IDOCK:   -5.29 KCAL/MOL
REMARK 922        TOTAL FREE ENERGY PREDICTED BY IDOCK:   -8.95 KCAL/MOL
REMARK 923 INTER-LIGAND FREE ENERGY PREDICTED BY IDOCK:   -8.31 KCAL/MOL
REMARK 924 INTRA-LIGAND FREE ENERGY PREDICTED BY IDOCK:   -0.64 KCAL/MOL
REMARK 927      BINDING AFFINITY PREDICTED BY RF-SCORE:    0.00 PKD
ROOT
HETATM    1  C   UNL     1     -10.436  18.097  66.857  1.00  0.00    -0.372 C  
HETATM    2  C   UNL     1     -10.429  17.358  68.186  1.00  0.00    -0.389 C  
ENDROOT
BRANCH   2   3
HETATM    3  O   UNL     1     -11.659  16.655  68.334  1.00  0.00    -0.170 OA 
BRANCH   3   4
HETATM    4  C   UNL     1     -11.625  15.293  68.507  1.00  0.00    -0.352 A  
HETATM    5  C   UNL     1     -11.445  14.555  69.693  1.00  0.00    -0.288 A  
HETATM    6  C   UNL     1     -11.801  14.599  67.306  1.00  0.00    -0.375 A  
HETATM    7  C   UNL     1     -11.414  13.143  69.632  1.00  0.00    -0.261 A  
HETATM    8  C   UNL     1     -11.774  13.202  67.266  1.00  0.00    -0.425 A  
HETATM    9  C   UNL     1     -11.534  12.448  68.419  1.00  0.00    -0.356 A  
BRANCH   5  10
HETATM   10  O   UNL     1     -11.294  15.249  70.863  1.00  0.00    -0.301 OA 
BRANCH  10  11
HETATM   11  C   UNL     1     -12.443  15.786  71.499  1.00  0.00    -0.455 C  
HETATM   12  C   UNL     1     -12.094  16.018  72.958  1.00  0.00    -0.628 C  
ENDBRANCH  10  11
ENDBRANCH   5  10
BRANCH   9  13
HETATM   13  C   UNL     1     -11.422  10.961  68.414  1.00  0.00    -0.374 C  
HETATM   14  C   UNL     1     -10.627  10.238  67.592  1.00  0.00    -0.263 C  
HETATM   15  N   UNL     1      -9.834  10.871  66.632  1.00  0.00    -0.192 NA 
HETATM   16  C   UNL     1      -9.799  10.296  65.294  1.00  0.00    -0.306 C  
HETATM   17  H   UNL     1      -9.298  11.708  66.860  1.00  0.00     0.000 HD 
HETATM   18  C   UNL     1      -9.239   8.890  65.377  1.00  0.00    -0.202 C  
HETATM   19  C   UNL     1      -9.857   8.100  66.512  1.00  0.00    -0.309 A  
HETATM   20  C   UNL     1      -9.677   6.708  66.484  1.00  0.00    -0.176 A  
HETATM   21  C   UNL     1     -10.146   5.887  67.510  1.00  0.00    -0.165 A  
HETATM   22  C   UNL     1     -10.813   6.485  68.595  1.00  0.00    -0.295 A  
HETATM   23  C   UNL     1     -10.990   7.894  68.621  1.00  0.00     0.140 A  
HETATM   24  C   UNL     1     -10.520   8.729  67.590  1.00  0.00    -0.310 A  
BRANCH  21  25
HETATM   25  O   UNL     1      -9.970   4.530  67.495  1.00  0.00    -0.163 OA 
BRANCH  25  26
HETATM   26  C   UNL     1      -9.644   3.886  66.266  1.00  0.00    -0.185 C  
HETATM   27  C   UNL     1      -8.917   2.594  66.594  1.00  0.00    -0.156 C  
ENDBRANCH  25  26
ENDBRANCH  21  25
BRANCH  22  28
HETATM   28  O   UNL     1     -11.338   5.855  69.706  1.00  0.00    -0.371 OA 
BRANCH  28  29
HETATM   29  C   UNL     1     -11.028   6.389  70.994  1.00  0.00    -0.274 C  
HETATM   30  C   UNL     1     -12.289   6.470  71.837  1.00  0.00    -0.339 C  
ENDBRANCH  28  29
ENDBRANCH  22  28
ENDBRANCH   9  13
ENDBRANCH   3   4
ENDBRANCH   2   3
TORSDOF 9
ENDMDL
MODEL       37
REMARK 921   NORMALIZED FREE ENERGY PREDICTED BY IDOCK:   -5.21 KCAL/MOL
REMARK 922        TOTAL FREE ENERGY PREDICTED BY IDOCK:   -8.84 KCAL/MOL
REMARK 923 INTER-LIGAND FREE ENERGY PREDICTED BY IDOCK:   -7.71 KCAL/MOL
REMARK 924 INTRA-LIGAND FREE ENERGY PREDICTED BY IDOCK:   -1.12 KCAL/MOL
REMARK 927      BINDING AFFINITY PREDICTED BY RF-SCORE:    0.00 PKD
ROOT
HETATM    1  C   UNL     1     -10.677   5.992  68.475  1.00  0.00    -0.354 C  
HETATM    2  C   UNL     1      -9.958   6.900  67.490  1.00  0.00    -0.149 C  
ENDROOT
BRANCH   2   3
HETATM    3  O   UNL     1     -10.866   7.896  67.027  1.00  0.00    -0.305 OA 
BRANCH   3   4
HETATM    4  C   UNL     1     -10.514   9.218  67.147  1.00  0.00    -0.249 A  
HETATM    5  C   UNL     1     -10.609  10.061  68.272  1.00  0.00    -0.226 A  
HETATM    6  C   UNL     1      -9.997   9.742  65.959  1.00  0.00    -0.342 A  
HETATM    7  C   UNL     1     -10.212  11.413  68.159  1.00  0.00    -0.200 A  
HETATM    8  C   UNL     1      -9.604  11.080  65.867  1.00  0.00    -0.255 A  
HETATM    9  C   UNL     1      -9.746  11.953  66.950  1.00  0.00    -0.212 A  
BRANCH   5  10
HETATM   10  O   UNL     1     -11.098   9.528  69.433  1.00  0.00    -0.206 OA 
BRANCH  10  11
HETATM   11  C   UNL     1     -11.375  10.390  70.525  1.00  0.00    -0.341 C  
HETATM   12  C   UNL     1     -12.866  10.314  70.804  1.00  0.00    -0.427 C  
ENDBRANCH  10  11
ENDBRANCH   5  10
BRANCH   9  13
HETATM   13  C   UNL     1      -9.410  13.405  66.880  1.00  0.00    -0.253 C  
HETATM   14  C   UNL     1      -8.190  13.938  67.119  1.00  0.00    -0.109 C  
HETATM   15  N   UNL     1      -7.117  13.124  67.487  1.00  0.00    -0.195 NA 
HETATM   16  C   UNL     1      -6.264  13.576  68.577  1.00  0.00    -0.090 C  
HETATM   17  H   UNL     1      -6.937  12.242  67.008  1.00  0.00     0.000 HD 
HETATM   18  C   UNL     1      -5.621  14.892  68.186  1.00  0.00    -0.132 C  
HETATM   19  C   UNL     1      -6.621  15.851  67.576  1.00  0.00    -0.212 A  
HETATM   20  C   UNL     1      -6.232  17.198  67.487  1.00  0.00    -0.167 A  
HETATM   21  C   UNL     1      -7.045  18.158  66.883  1.00  0.00    -0.192 A  
HETATM   22  C   UNL     1      -8.283  17.750  66.353  1.00  0.00    -0.255 A  
HETATM   23  C   UNL     1      -8.671  16.388  66.441  1.00  0.00    -0.355 A  
HETATM   24  C   UNL     1      -7.856  15.412  67.048  1.00  0.00    -0.244 A  
BRANCH  21  25
HETATM   25  O   UNL     1      -6.671  19.471  66.786  1.00  0.00    -0.194 OA 
BRANCH  25  26
HETATM   26  C   UNL     1      -7.125  20.397  67.771  1.00  0.00    -0.309 C  
HETATM   27  C   UNL     1      -5.954  20.721  68.681  1.00  0.00    -0.381 C  
ENDBRANCH  25  26
ENDBRANCH  21  25
BRANCH  22  28
HETATM   28  O   UNL     1      -9.218  18.538  65.712  1.00  0.00    -0.418 OA 
BRANCH  28  29
HETATM   29  C   UNL     1     -10.563  18.513  66.193  1.00  0.00    -0.338 C  
HETATM   30  C   UNL     1     -10.731  19.531  67.309  1.00  0.00    -0.604 C  
ENDBRANCH  28  29
ENDBRANCH  22  28
ENDBRANCH   9  13
ENDBRANCH   3   4
ENDBRANCH   2   3
TORSDOF 9
ENDMDL
MODEL       38
REMARK 921   NORMALIZED FREE ENERGY PREDICTED BY IDOCK:   -5.17 KCAL/MOL
REMARK 922        TOTAL FREE ENERGY PREDICTED BY IDOCK:   -8.77 KCAL/MOL
REMARK 923 INTER-LIGAND FREE ENERGY PREDICTED BY IDOCK:   -7.60 KCAL/MOL
REMARK 924 INTRA-LIGAND FREE ENERGY PREDICTED BY IDOCK:   -1.17 KCAL/MOL
REMARK 927      BINDING AFFINITY PREDICTED BY RF-SCORE:    0.00 PKD
ROOT
HETATM    1  C   UNL     1     -10.809  15.647  64.925  1.00  0.00    -0.438 C  
HETATM    2  C   UNL     1     -11.558  14.340  65.133  1.00  0.00    -0.355 C  
ENDROOT
BRANCH   2   3
HETATM    3  O   UNL     1     -12.266  14.401  66.367  1.00  0.00    -0.417 OA 
BRANCH   3   4
HETATM    4  C   UNL     1     -12.014  13.446  67.322  1.00  0.00    -0.347 A  
HETATM    5  C   UNL     1     -12.020  13.573  68.725  1.00  0.00    -0.339 A  
HETATM    6  C   UNL     1     -11.718  12.200  66.763  1.00  0.00    -0.377 A  
HETATM    7  C   UNL     1     -11.698  12.452  69.523  1.00  0.00    -0.388 A  
HETATM    8  C   UNL     1     -11.407  11.100  67.568  1.00  0.00    -0.351 A  
HETATM    9  C   UNL     1     -11.345  11.215  68.960  1.00  0.00    -0.343 A  
BRANCH   5  10
HETATM   10  O   UNL     1     -12.331  14.795  69.257  1.00  0.00    -0.225 OA 
BRANCH  10  11
HETATM   11  C   UNL     1     -11.906  15.102  70.575  1.00  0.00    -0.318 C  
HETATM   12  C   UNL     1     -13.139  15.478  71.378  1.00  0.00    -0.580 C  
ENDBRANCH  10  11
ENDBRANCH   5  10
BRANCH   9  13
HETATM   13  C   UNL     1     -10.947  10.091  69.857  1.00  0.00    -0.339 C  
HETATM   14  C   UNL     1      -9.680   9.800  70.231  1.00  0.00    -0.223 C  
HETATM   15  N   UNL     1      -8.606  10.560  69.761  1.00  0.00    -0.381 NA 
HETATM   16  C   UNL     1      -7.418   9.850  69.308  1.00  0.00    -0.096 C  
HETATM   17  H   UNL     1      -8.654  11.578  69.735  1.00  0.00     0.000 HD 
HETATM   18  C   UNL     1      -6.842   9.064  70.469  1.00  0.00    -0.061 C  
HETATM   19  C   UNL     1      -7.914   8.313  71.230  1.00  0.00    -0.125 A  
HETATM   20  C   UNL     1      -7.478   7.299  72.099  1.00  0.00    -0.080 A  
HETATM   21  C   UNL     1      -8.371   6.586  72.901  1.00  0.00    -0.115 A  
HETATM   22  C   UNL     1      -9.739   6.905  72.826  1.00  0.00    -0.150 A  
HETATM   23  C   UNL     1     -10.175   7.933  71.950  1.00  0.00    -0.258 A  
HETATM   24  C   UNL     1      -9.281   8.657  71.138  1.00  0.00    -0.269 A  
BRANCH  21  25
HETATM   25  O   UNL     1      -7.955   5.602  73.755  1.00  0.00    -0.107 OA 
BRANCH  25  26
HETATM   26  C   UNL     1      -7.020   4.629  73.292  1.00  0.00    -0.073 C  
HETATM   27  C   UNL     1      -7.798   3.531  72.589  1.00  0.00    -0.068 C  
ENDBRANCH  25  26
ENDBRANCH  21  25
BRANCH  22  28
HETATM   28  O   UNL     1     -10.772   6.329  73.539  1.00  0.00    -0.262 OA 
BRANCH  28  29
HETATM   29  C   UNL     1     -11.599   5.372  72.873  1.00  0.00    -0.228 C  
HETATM   30  C   UNL     1     -11.407   4.001  73.498  1.00  0.00    -0.280 C  
ENDBRANCH  28  29
ENDBRANCH  22  28
ENDBRANCH   9  13
ENDBRANCH   3   4
ENDBRANCH   2   3
TORSDOF 9
ENDMDL
MODEL       39
REMARK 921   NORMALIZED FREE ENERGY PREDICTED BY IDOCK:   -5.16 KCAL/MOL
REMARK 922        TOTAL FREE ENERGY PREDICTED BY IDOCK:   -8.76 KCAL/MOL
REMARK 923 INTER-LIGAND FREE ENERGY PREDICTED BY IDOCK:   -7.59 KCAL/MOL
REMARK 924 INTRA-LIGAND FREE ENERGY PREDICTED BY IDOCK:   -1.17 KCAL/MOL
REMARK 927      BINDING AFFINITY PREDICTED BY RF-SCORE:    0.00 PKD
ROOT
HETATM    1  C   UNL     1      -9.367   3.852  67.676  1.00  0.00    -0.232 C  
HETATM    2  C   UNL     1      -9.276   5.346  67.943  1.00  0.00    -0.110 C  
ENDROOT
BRANCH   2   3
HETATM    3  O   UNL     1     -10.146   6.032  67.048  1.00  0.00    -0.146 OA 
BRANCH   3   4
HETATM    4  C   UNL     1      -9.915   7.362  66.791  1.00  0.00    -0.230 A  
HETATM    5  C   UNL     1      -9.060   7.944  65.834  1.00  0.00    -0.087 A  
HETATM    6  C   UNL     1     -10.659   8.202  67.624  1.00  0.00    -0.258 A  
HETATM    7  C   UNL     1      -8.955   9.351  65.764  1.00  0.00    -0.227 A  
HETATM    8  C   UNL     1     -10.546   9.593  67.537  1.00  0.00    -0.339 A  
HETATM    9  C   UNL     1      -9.659  10.194  66.639  1.00  0.00    -0.230 A  
BRANCH   5  10
HETATM   10  O   UNL     1      -8.354   7.108  65.013  1.00  0.00    -0.125 OA 
BRANCH  10  11
HETATM   11  C   UNL     1      -6.936   7.160  65.029  1.00  0.00    -0.052 C  
HETATM   12  C   UNL     1      -6.442   5.960  65.817  1.00  0.00    -0.043 C  
ENDBRANCH  10  11
ENDBRANCH   5  10
BRANCH   9  13
HETATM   13  C   UNL     1      -9.450  11.669  66.560  1.00  0.00    -0.219 C  
HETATM   14  C   UNL     1     -10.297  12.550  65.983  1.00  0.00    -0.256 C  
HETATM   15  N   UNL     1     -11.474  12.111  65.372  1.00  0.00    -0.344 NA 
HETATM   16  C   UNL     1     -11.821  12.678  64.077  1.00  0.00    -0.431 C  
HETATM   17  H   UNL     1     -12.071  11.415  65.819  1.00  0.00     0.000 HD 
HETATM   18  C   UNL     1     -12.013  14.174  64.229  1.00  0.00    -0.460 C  
HETATM   19  C   UNL     1     -10.907  14.805  65.048  1.00  0.00    -0.440 A  
HETATM   20  C   UNL     1     -10.788  16.203  64.976  1.00  0.00    -0.380 A  
HETATM   21  C   UNL     1      -9.848  16.899  65.738  1.00  0.00    -0.137 A  
HETATM   22  C   UNL     1      -9.006  16.167  66.596  1.00  0.00    -0.255 A  
HETATM   23  C   UNL     1      -9.132  14.755  66.668  1.00  0.00    -0.300 A  
HETATM   24  C   UNL     1     -10.078  14.045  65.904  1.00  0.00    -0.336 A  
BRANCH  21  25
HETATM   25  O   UNL     1      -9.729  18.261  65.680  1.00  0.00    -0.428 OA 
BRANCH  25  26
HETATM   26  C   UNL     1     -10.779  19.073  66.198  1.00  0.00    -0.323 C  
HETATM   27  C   UNL     1     -10.418  19.449  67.624  1.00  0.00    -0.573 C  
ENDBRANCH  25  26
ENDBRANCH  21  25
BRANCH  22  28
HETATM   28  O   UNL     1      -8.028  16.665  67.433  1.00  0.00    -0.155 OA 
BRANCH  28  29
HETATM   29  C   UNL     1      -6.662  16.491  67.052  1.00  0.00    -0.205 C  
HETATM   30  C   UNL     1      -6.226  17.636  66.154  1.00  0.00    -0.268 C  
ENDBRANCH  28  29
ENDBRANCH  22  28
ENDBRANCH   9  13
ENDBRANCH   3   4
ENDBRANCH   2   3
TORSDOF 9
ENDMDL
MODEL       40
REMARK 921   NORMALIZED FREE ENERGY PREDICTED BY IDOCK:   -5.14 KCAL/MOL
REMARK 922        TOTAL FREE ENERGY PREDICTED BY IDOCK:   -8.72 KCAL/MOL
REMARK 923 INTER-LIGAND FREE ENERGY PREDICTED BY IDOCK:   -7.87 KCAL/MOL
REMARK 924 INTRA-LIGAND FREE ENERGY PREDICTED BY IDOCK:   -0.85 KCAL/MOL
REMARK 927      BINDING AFFINITY PREDICTED BY RF-SCORE:    0.00 PKD
ROOT
HETATM    1  C   UNL     1     -12.042   6.745  70.932  1.00  0.00    -0.421 C  
HETATM    2  C   UNL     1     -11.526   6.271  69.583  1.00  0.00    -0.355 C  
ENDROOT
BRANCH   2   3
HETATM    3  O   UNL     1     -10.176   6.699  69.425  1.00  0.00    -0.171 OA 
BRANCH   3   4
HETATM    4  C   UNL     1      -9.930   8.023  69.154  1.00  0.00    -0.188 A  
HETATM    5  C   UNL     1      -9.498   9.040  70.027  1.00  0.00    -0.187 A  
HETATM    6  C   UNL     1     -10.155   8.342  67.812  1.00  0.00    -0.263 A  
HETATM    7  C   UNL     1      -9.336  10.354  69.533  1.00  0.00    -0.150 A  
HETATM    8  C   UNL     1      -9.984   9.647  67.339  1.00  0.00    -0.237 A  
HETATM    9  C   UNL     1      -9.616  10.687  68.199  1.00  0.00    -0.165 A  
BRANCH   5  10
HETATM   10  O   UNL     1      -9.262   8.706  71.333  1.00  0.00    -0.190 OA 
BRANCH  10  11
HETATM   11  C   UNL     1      -7.961   8.289  71.715  1.00  0.00    -0.128 C  
HETATM   12  C   UNL     1      -8.101   6.974  72.461  1.00  0.00    -0.107 C  
ENDBRANCH  10  11
ENDBRANCH   5  10
BRANCH   9  13
HETATM   13  C   UNL     1      -9.494  12.107  67.758  1.00  0.00    -0.192 C  
HETATM   14  C   UNL     1     -10.464  12.823  67.146  1.00  0.00    -0.233 C  
HETATM   15  N   UNL     1     -11.700  12.242  66.853  1.00  0.00    -0.521 NA 
HETATM   16  C   UNL     1     -12.275  12.494  65.539  1.00  0.00    -0.377 C  
HETATM   17  H   UNL     1     -12.184  11.661  67.537  1.00  0.00     0.000 HD 
HETATM   18  C   UNL     1     -12.513  13.982  65.382  1.00  0.00    -0.520 C  
HETATM   19  C   UNL     1     -11.322  14.797  65.843  1.00  0.00    -0.331 A  
HETATM   20  C   UNL     1     -11.284  16.142  65.441  1.00  0.00    -0.006 A  
HETATM   21  C   UNL     1     -10.270  17.004  65.861  1.00  0.00    -0.296 A  
HETATM   22  C   UNL     1      -9.269  16.498  66.710  1.00  0.00    -0.234 A  
HETATM   23  C   UNL     1      -9.313  15.139  67.116  1.00  0.00    -0.223 A  
HETATM   24  C   UNL     1     -10.332  14.262  66.698  1.00  0.00    -0.279 A  
BRANCH  21  25
HETATM   25  O   UNL     1     -10.228  18.318  65.480  1.00  0.00    -0.530 OA 
BRANCH  25  26
HETATM   26  C   UNL     1     -10.657  19.321  66.397  1.00  0.00    -0.450 C  
HETATM   27  C   UNL     1      -9.515  20.304  66.582  1.00  0.00    -0.487 C  
ENDBRANCH  25  26
ENDBRANCH  21  25
BRANCH  22  28
HETATM   28  O   UNL     1      -8.195  17.185  67.240  1.00  0.00    -0.181 OA 
BRANCH  28  29
HETATM   29  C   UNL     1      -6.975  17.208  66.496  1.00  0.00    -0.261 C  
HETATM   30  C   UNL     1      -5.827  16.738  67.372  1.00  0.00    -0.190 C  
ENDBRANCH  28  29
ENDBRANCH  22  28
ENDBRANCH   9  13
ENDBRANCH   3   4
ENDBRANCH   2   3
TORSDOF 9
ENDMDL
MODEL       41
REMARK 921   NORMALIZED FREE ENERGY PREDICTED BY IDOCK:   -5.14 KCAL/MOL
REMARK 922        TOTAL FREE ENERGY PREDICTED BY IDOCK:   -8.72 KCAL/MOL
REMARK 923 INTER-LIGAND FREE ENERGY PREDICTED BY IDOCK:   -7.83 KCAL/MOL
REMARK 924 INTRA-LIGAND FREE ENERGY PREDICTED BY IDOCK:   -0.89 KCAL/MOL
REMARK 927      BINDING AFFINITY PREDICTED BY RF-SCORE:    0.00 PKD
ROOT
HETATM    1  C   UNL     1     -10.534  17.940  67.666  1.00  0.00    -0.406 C  
HETATM    2  C   UNL     1     -10.086  16.690  66.925  1.00  0.00    -0.280 C  
ENDROOT
BRANCH   2   3
HETATM    3  O   UNL     1     -11.211  15.838  66.729  1.00  0.00    -0.188 OA 
BRANCH   3   4
HETATM    4  C   UNL     1     -11.055  14.485  66.912  1.00  0.00    -0.325 A  
HETATM    5  C   UNL     1     -11.755  13.423  66.307  1.00  0.00    -0.366 A  
HETATM    6  C   UNL     1     -10.049  14.186  67.835  1.00  0.00    -0.235 A  
HETATM    7  C   UNL     1     -11.445  12.093  66.672  1.00  0.00    -0.426 A  
HETATM    8  C   UNL     1      -9.752  12.864  68.180  1.00  0.00    -0.227 A  
HETATM    9  C   UNL     1     -10.474  11.794  67.641  1.00  0.00    -0.223 A  
BRANCH   5  10
HETATM   10  O   UNL     1     -12.723  13.733  65.391  1.00  0.00    -0.559 OA 
BRANCH  10  11
HETATM   11  C   UNL     1     -13.031  12.797  64.370  1.00  0.00    -0.090 C  
HETATM   12  C   UNL     1     -11.922  12.866  63.335  1.00  0.00    -0.612 C  
ENDBRANCH  10  11
ENDBRANCH   5  10
BRANCH   9  13
HETATM   13  C   UNL     1     -10.245  10.373  68.032  1.00  0.00    -0.199 C  
HETATM   14  C   UNL     1     -10.898   9.718  69.019  1.00  0.00    -0.199 C  
HETATM   15  N   UNL     1     -11.864  10.370  69.788  1.00  0.00    -0.412 NA 
HETATM   16  C   UNL     1     -11.839  10.162  71.229  1.00  0.00    -0.360 C  
HETATM   17  H   UNL     1     -12.563  10.973  69.355  1.00  0.00     0.000 HD 
HETATM   18  C   UNL     1     -12.059   8.690  71.518  1.00  0.00    -0.369 C  
HETATM   19  C   UNL     1     -11.217   7.806  70.623  1.00  0.00    -0.278 A  
HETATM   20  C   UNL     1     -11.077   6.464  71.012  1.00  0.00    -0.349 A  
HETATM   21  C   UNL     1     -10.379   5.542  70.230  1.00  0.00    -0.279 A  
HETATM   22  C   UNL     1      -9.809   5.985  69.022  1.00  0.00    -0.148 A  
HETATM   23  C   UNL     1      -9.956   7.341  68.630  1.00  0.00    -0.169 A  
HETATM   24  C   UNL     1     -10.658   8.277  69.413  1.00  0.00    -0.203 A  
BRANCH  21  25
HETATM   25  O   UNL     1     -10.243   4.232  70.598  1.00  0.00    -0.140 OA 
BRANCH  25  26
HETATM   26  C   UNL     1     -10.135   3.906  71.981  1.00  0.00    -0.149 C  
HETATM   27  C   UNL     1     -10.159   2.393  72.108  1.00  0.00    -0.220 C  
ENDBRANCH  25  26
ENDBRANCH  21  25
BRANCH  22  28
HETATM   28  O   UNL     1      -9.095   5.233  68.109  1.00  0.00    -0.108 OA 
BRANCH  28  29
HETATM   29  C   UNL     1      -9.825   4.501  67.123  1.00  0.00    -0.189 C  
HETATM   30  C   UNL     1      -9.716   5.197  65.777  1.00  0.00    -0.124 C  
ENDBRANCH  28  29
ENDBRANCH  22  28
ENDBRANCH   9  13
ENDBRANCH   3   4
ENDBRANCH   2   3
TORSDOF 9
ENDMDL
MODEL       42
REMARK 921   NORMALIZED FREE ENERGY PREDICTED BY IDOCK:   -5.12 KCAL/MOL
REMARK 922        TOTAL FREE ENERGY PREDICTED BY IDOCK:   -8.70 KCAL/MOL
REMARK 923 INTER-LIGAND FREE ENERGY PREDICTED BY IDOCK:   -7.81 KCAL/MOL
REMARK 924 INTRA-LIGAND FREE ENERGY PREDICTED BY IDOCK:   -0.89 KCAL/MOL
REMARK 927      BINDING AFFINITY PREDICTED BY RF-SCORE:    0.00 PKD
ROOT
HETATM    1  C   UNL     1      -6.003  20.295  70.764  1.00  0.00    -0.331 C  
HETATM    2  C   UNL     1      -5.999  19.939  69.286  1.00  0.00    -0.283 C  
ENDROOT
BRANCH   2   3
HETATM    3  O   UNL     1      -7.344  19.783  68.842  1.00  0.00    -0.338 OA 
BRANCH   3   4
HETATM    4  C   UNL     1      -7.846  18.514  68.689  1.00  0.00    -0.314 A  
HETATM    5  C   UNL     1      -9.184  18.105  68.517  1.00  0.00    -0.314 A  
HETATM    6  C   UNL     1      -6.845  17.538  68.715  1.00  0.00    -0.233 A  
HETATM    7  C   UNL     1      -9.478  16.727  68.408  1.00  0.00    -0.241 A  
HETATM    8  C   UNL     1      -7.155  16.180  68.601  1.00  0.00    -0.147 A  
HETATM    9  C   UNL     1      -8.479  15.744  68.491  1.00  0.00    -0.181 A  
BRANCH   5  10
HETATM   10  O   UNL     1     -10.149  19.074  68.473  1.00  0.00    -0.378 OA 
BRANCH  10  11
HETATM   11  C   UNL     1     -11.031  19.119  67.363  1.00  0.00    -0.320 C  
HETATM   12  C   UNL     1     -10.260  19.690  66.187  1.00  0.00    -0.604 C  
ENDBRANCH  10  11
ENDBRANCH   5  10
BRANCH   9  13
HETATM   13  C   UNL     1      -8.864  14.304  68.441  1.00  0.00    -0.187 C  
HETATM   14  C   UNL     1      -9.197  13.621  67.322  1.00  0.00    -0.232 C  
HETATM   15  N   UNL     1      -9.222  14.260  66.080  1.00  0.00    -0.521 NA 
HETATM   16  C   UNL     1     -10.352  13.992  65.201  1.00  0.00    -0.400 C  
HETATM   17  H   UNL     1      -8.474  14.893  65.798  1.00  0.00     0.000 HD 
HETATM   18  C   UNL     1     -10.374  12.515  64.864  1.00  0.00    -0.323 C  
HETATM   19  C   UNL     1     -10.163  11.652  66.090  1.00  0.00    -0.263 A  
HETATM   20  C   UNL     1     -10.494  10.292  65.970  1.00  0.00    -0.181 A  
HETATM   21  C   UNL     1     -10.279   9.390  67.013  1.00  0.00    -0.255 A  
HETATM   22  C   UNL     1      -9.714   9.870  68.209  1.00  0.00    -0.144 A  
HETATM   23  C   UNL     1      -9.377  11.245  68.324  1.00  0.00    -0.180 A  
HETATM   24  C   UNL     1      -9.589  12.161  67.277  1.00  0.00    -0.185 A  
BRANCH  21  25
HETATM   25  O   UNL     1     -10.593   8.063  66.904  1.00  0.00    -0.338 OA 
BRANCH  25  26
HETATM   26  C   UNL     1      -9.552   7.121  66.653  1.00  0.00    -0.170 C  
HETATM   27  C   UNL     1     -10.076   5.741  67.007  1.00  0.00    -0.224 C  
ENDBRANCH  25  26
ENDBRANCH  21  25
BRANCH  22  28
HETATM   28  O   UNL     1      -9.414   9.144  69.344  1.00  0.00    -0.154 OA 
BRANCH  28  29
HETATM   29  C   UNL     1      -8.453   9.681  70.254  1.00  0.00    -0.188 C  
HETATM   30  C   UNL     1      -8.482   8.900  71.557  1.00  0.00    -0.182 C  
ENDBRANCH  28  29
ENDBRANCH  22  28
ENDBRANCH   9  13
ENDBRANCH   3   4
ENDBRANCH   2   3
TORSDOF 9
ENDMDL
MODEL       43
REMARK 921   NORMALIZED FREE ENERGY PREDICTED BY IDOCK:   -5.08 KCAL/MOL
REMARK 922        TOTAL FREE ENERGY PREDICTED BY IDOCK:   -8.63 KCAL/MOL
REMARK 923 INTER-LIGAND FREE ENERGY PREDICTED BY IDOCK:   -7.82 KCAL/MOL
REMARK 924 INTRA-LIGAND FREE ENERGY PREDICTED BY IDOCK:   -0.81 KCAL/MOL
REMARK 927      BINDING AFFINITY PREDICTED BY RF-SCORE:    0.00 PKD
ROOT
HETATM    1  C   UNL     1     -10.894  17.338  68.093  1.00  0.00    -0.294 C  
HETATM    2  C   UNL     1      -9.891  16.736  67.122  1.00  0.00    -0.259 C  
ENDROOT
BRANCH   2   3
HETATM    3  O   UNL     1     -10.566  15.821  66.264  1.00  0.00    -0.306 OA 
BRANCH   3   4
HETATM    4  C   UNL     1     -10.754  14.529  66.692  1.00  0.00    -0.305 A  
HETATM    5  C   UNL     1     -11.753  13.609  66.320  1.00  0.00    -0.367 A  
HETATM    6  C   UNL     1      -9.790  14.131  67.623  1.00  0.00    -0.229 A  
HETATM    7  C   UNL     1     -11.773  12.328  66.917  1.00  0.00    -0.404 A  
HETATM    8  C   UNL     1      -9.822  12.858  68.200  1.00  0.00    -0.227 A  
HETATM    9  C   UNL     1     -10.838  11.949  67.893  1.00  0.00    -0.254 A  
BRANCH   5  10
HETATM   10  O   UNL     1     -12.678  14.007  65.392  1.00  0.00    -0.561 OA 
BRANCH  10  11
HETATM   11  C   UNL     1     -12.303  14.062  64.025  1.00  0.00    -0.298 C  
HETATM   12  C   UNL     1     -12.226  12.635  63.513  1.00  0.00    -0.638 C  
ENDBRANCH  10  11
ENDBRANCH   5  10
BRANCH   9  13
HETATM   13  C   UNL     1     -10.957  10.608  68.536  1.00  0.00    -0.296 C  
HETATM   14  C   UNL     1     -10.263   9.504  68.178  1.00  0.00    -0.193 C  
HETATM   15  N   UNL     1      -9.360   9.545  67.113  1.00  0.00    -0.140 NA 
HETATM   16  C   UNL     1      -9.382   8.444  66.160  1.00  0.00    -0.201 C  
HETATM   17  H   UNL     1      -8.707  10.321  67.007  1.00  0.00     0.000 HD 
HETATM   18  C   UNL     1      -9.048   7.157  66.887  1.00  0.00    -0.159 C  
HETATM   19  C   UNL     1      -9.807   7.029  68.191  1.00  0.00    -0.151 A  
HETATM   20  C   UNL     1      -9.843   5.754  68.779  1.00  0.00    -0.181 A  
HETATM   21  C   UNL     1     -10.457   5.532  70.012  1.00  0.00    -0.303 A  
HETATM   22  C   UNL     1     -11.049   6.625  70.672  1.00  0.00    -0.298 A  
HETATM   23  C   UNL     1     -11.008   7.913  70.076  1.00  0.00    -0.208 A  
HETATM   24  C   UNL     1     -10.390   8.146  68.832  1.00  0.00    -0.225 A  
BRANCH  21  25
HETATM   25  O   UNL     1     -10.491   4.296  70.596  1.00  0.00     0.074 OA 
BRANCH  25  26
HETATM   26  C   UNL     1      -9.302   3.770  71.180  1.00  0.00    -0.149 C  
HETATM   27  C   UNL     1      -9.664   2.482  71.898  1.00  0.00    -0.221 C  
ENDBRANCH  25  26
ENDBRANCH  21  25
BRANCH  22  28
HETATM   28  O   UNL     1     -11.691   6.617  71.895  1.00  0.00    -0.283 OA 
BRANCH  28  29
HETATM   29  C   UNL     1     -11.334   7.617  72.850  1.00  0.00    -0.341 C  
HETATM   30  C   UNL     1     -10.267   7.078  73.788  1.00  0.00    -0.401 C  
ENDBRANCH  28  29
ENDBRANCH  22  28
ENDBRANCH   9  13
ENDBRANCH   3   4
ENDBRANCH   2   3
TORSDOF 9
ENDMDL
MODEL       44
REMARK 921   NORMALIZED FREE ENERGY PREDICTED BY IDOCK:   -5.08 KCAL/MOL
REMARK 922        TOTAL FREE ENERGY PREDICTED BY IDOCK:   -8.63 KCAL/MOL
REMARK 923 INTER-LIGAND FREE ENERGY PREDICTED BY IDOCK:   -8.13 KCAL/MOL
REMARK 924 INTRA-LIGAND FREE ENERGY PREDICTED BY IDOCK:   -0.50 KCAL/MOL
REMARK 927      BINDING AFFINITY PREDICTED BY RF-SCORE:    0.00 PKD
ROOT
HETATM    1  C   UNL     1     -10.702   3.630  73.927  1.00  0.00    -0.303 C  
HETATM    2  C   UNL     1     -10.947   5.126  73.805  1.00  0.00    -0.234 C  
ENDROOT
BRANCH   2   3
HETATM    3  O   UNL     1     -11.773   5.371  72.670  1.00  0.00    -0.271 OA 
BRANCH   3   4
HETATM    4  C   UNL     1     -11.477   6.438  71.856  1.00  0.00    -0.304 A  
HETATM    5  C   UNL     1     -10.411   6.590  70.948  1.00  0.00    -0.223 A  
HETATM    6  C   UNL     1     -12.397   7.482  71.992  1.00  0.00    -0.305 A  
HETATM    7  C   UNL     1     -10.283   7.799  70.227  1.00  0.00    -0.199 A  
HETATM    8  C   UNL     1     -12.257   8.669  71.267  1.00  0.00    -0.320 A  
HETATM    9  C   UNL     1     -11.174   8.869  70.406  1.00  0.00    -0.259 A  
BRANCH   5  10
HETATM   10  O   UNL     1      -9.532   5.550  70.812  1.00  0.00    -0.158 OA 
BRANCH  10  11
HETATM   11  C   UNL     1      -9.824   4.517  69.885  1.00  0.00    -0.227 C  
HETATM   12  C   UNL     1      -9.175   3.244  70.399  1.00  0.00    -0.218 C  
ENDBRANCH  10  11
ENDBRANCH   5  10
BRANCH   9  13
HETATM   13  C   UNL     1     -10.942  10.144  69.667  1.00  0.00    -0.305 C  
HETATM   14  C   UNL     1     -10.877  10.270  68.322  1.00  0.00    -0.255 C  
HETATM   15  N   UNL     1     -11.010   9.151  67.496  1.00  0.00    -0.449 NA 
HETATM   16  C   UNL     1     -10.082   9.016  66.382  1.00  0.00    -0.281 C  
HETATM   17  H   UNL     1     -11.732   8.452  67.668  1.00  0.00     0.000 HD 
HETATM   18  C   UNL     1     -10.260  10.196  65.447  1.00  0.00    -0.281 C  
HETATM   19  C   UNL     1     -10.333  11.507  66.200  1.00  0.00    -0.287 A  
HETATM   20  C   UNL     1     -10.159  12.680  65.446  1.00  0.00    -0.277 A  
HETATM   21  C   UNL     1     -10.271  13.946  66.022  1.00  0.00    -0.310 A  
HETATM   22  C   UNL     1     -10.570  14.034  67.394  1.00  0.00    -0.278 A  
HETATM   23  C   UNL     1     -10.750  12.847  68.152  1.00  0.00    -0.258 A  
HETATM   24  C   UNL     1     -10.639  11.565  67.579  1.00  0.00    -0.243 A  
BRANCH  21  25
HETATM   25  O   UNL     1     -10.109  15.093  65.294  1.00  0.00    -0.348 OA 
BRANCH  25  26
HETATM   26  C   UNL     1     -11.256  15.728  64.734  1.00  0.00    -0.366 C  
HETATM   27  C   UNL     1     -12.192  14.644  64.232  1.00  0.00    -0.432 C  
ENDBRANCH  25  26
ENDBRANCH  21  25
BRANCH  22  28
HETATM   28  O   UNL     1     -10.734  15.182  68.143  1.00  0.00    -0.244 OA 
BRANCH  28  29
HETATM   29  C   UNL     1      -9.961  15.324  69.336  1.00  0.00    -0.255 C  
HETATM   30  C   UNL     1      -8.564  15.813  68.991  1.00  0.00    -0.236 C  
ENDBRANCH  28  29
ENDBRANCH  22  28
ENDBRANCH   9  13
ENDBRANCH   3   4
ENDBRANCH   2   3
TORSDOF 9
ENDMDL
MODEL       45
REMARK 921   NORMALIZED FREE ENERGY PREDICTED BY IDOCK:   -5.07 KCAL/MOL
REMARK 922        TOTAL FREE ENERGY PREDICTED BY IDOCK:   -8.62 KCAL/MOL
REMARK 923 INTER-LIGAND FREE ENERGY PREDICTED BY IDOCK:   -7.89 KCAL/MOL
REMARK 924 INTRA-LIGAND FREE ENERGY PREDICTED BY IDOCK:   -0.73 KCAL/MOL
REMARK 927      BINDING AFFINITY PREDICTED BY RF-SCORE:    0.00 PKD
ROOT
HETATM    1  C   UNL     1      -9.511   4.123  68.754  1.00  0.00    -0.231 C  
HETATM    2  C   UNL     1      -8.816   5.156  67.881  1.00  0.00    -0.102 C  
ENDROOT
BRANCH   2   3
HETATM    3  O   UNL     1      -9.779   5.765  67.025  1.00  0.00    -0.127 OA 
BRANCH   3   4
HETATM    4  C   UNL     1      -9.676   7.110  66.767  1.00  0.00    -0.192 A  
HETATM    5  C   UNL     1      -8.922   7.766  65.774  1.00  0.00    -0.066 A  
HETATM    6  C   UNL     1     -10.448   7.881  67.640  1.00  0.00    -0.303 A  
HETATM    7  C   UNL     1      -8.942   9.177  65.709  1.00  0.00    -0.237 A  
HETATM    8  C   UNL     1     -10.460   9.277  67.558  1.00  0.00    -0.338 A  
HETATM    9  C   UNL     1      -9.673   9.954  66.622  1.00  0.00    -0.252 A  
BRANCH   5  10
HETATM   10  O   UNL     1      -8.187   6.996  64.913  1.00  0.00    -0.132 OA 
BRANCH  10  11
HETATM   11  C   UNL     1      -6.800   6.823  65.155  1.00  0.00    -0.051 C  
HETATM   12  C   UNL     1      -6.498   5.338  65.052  1.00  0.00    -0.039 C  
ENDBRANCH  10  11
ENDBRANCH   5  10
BRANCH   9  13
HETATM   13  C   UNL     1      -9.595  11.442  66.543  1.00  0.00    -0.220 C  
HETATM   14  C   UNL     1     -10.443  12.234  65.850  1.00  0.00    -0.256 C  
HETATM   15  N   UNL     1     -11.489  11.680  65.108  1.00  0.00    -0.178 NA 
HETATM   16  C   UNL     1     -11.724  12.204  63.769  1.00  0.00    -0.485 C  
HETATM   17  H   UNL     1     -12.068  10.934  65.490  1.00  0.00     0.000 HD 
HETATM   18  C   UNL     1     -12.073  13.675  63.870  1.00  0.00    -0.462 C  
HETATM   19  C   UNL     1     -11.141  14.415  64.807  1.00  0.00    -0.402 A  
HETATM   20  C   UNL     1     -11.146  15.817  64.726  1.00  0.00    -0.413 A  
HETATM   21  C   UNL     1     -10.378  16.604  65.584  1.00  0.00    -0.290 A  
HETATM   22  C   UNL     1      -9.585  15.962  66.553  1.00  0.00    -0.268 A  
HETATM   23  C   UNL     1      -9.585  14.545  66.634  1.00  0.00    -0.291 A  
HETATM   24  C   UNL     1     -10.357  13.743  65.772  1.00  0.00    -0.315 A  
BRANCH  21  25
HETATM   25  O   UNL     1     -10.382  17.971  65.517  1.00  0.00    -0.606 OA 
BRANCH  25  26
HETATM   26  C   UNL     1     -10.758  18.722  66.669  1.00  0.00    -0.285 C  
HETATM   27  C   UNL     1     -10.098  20.087  66.572  1.00  0.00    -0.606 C  
ENDBRANCH  25  26
ENDBRANCH  21  25
BRANCH  22  28
HETATM   28  O   UNL     1      -8.769  16.556  67.495  1.00  0.00    -0.181 OA 
BRANCH  28  29
HETATM   29  C   UNL     1      -8.958  16.206  68.867  1.00  0.00    -0.247 C  
HETATM   30  C   UNL     1     -10.379  16.532  69.292  1.00  0.00    -0.318 C  
ENDBRANCH  28  29
ENDBRANCH  22  28
ENDBRANCH   9  13
ENDBRANCH   3   4
ENDBRANCH   2   3
TORSDOF 9
ENDMDL
MODEL       46
REMARK 921   NORMALIZED FREE ENERGY PREDICTED BY IDOCK:   -5.03 KCAL/MOL
REMARK 922        TOTAL FREE ENERGY PREDICTED BY IDOCK:   -8.56 KCAL/MOL
REMARK 923 INTER-LIGAND FREE ENERGY PREDICTED BY IDOCK:   -7.61 KCAL/MOL
REMARK 924 INTRA-LIGAND FREE ENERGY PREDICTED BY IDOCK:   -0.95 KCAL/MOL
REMARK 927      BINDING AFFINITY PREDICTED BY RF-SCORE:    0.00 PKD
ROOT
HETATM    1  C   UNL     1     -10.349  19.327  65.848  1.00  0.00    -0.499 C  
HETATM    2  C   UNL     1     -10.782  17.929  66.262  1.00  0.00    -0.116 C  
ENDROOT
BRANCH   2   3
HETATM    3  O   UNL     1     -10.161  16.977  65.403  1.00  0.00    -0.605 OA 
BRANCH   3   4
HETATM    4  C   UNL     1     -10.188  15.650  65.758  1.00  0.00    -0.367 A  
HETATM    5  C   UNL     1      -9.656  15.029  66.905  1.00  0.00    -0.239 A  
HETATM    6  C   UNL     1     -10.849  14.860  64.813  1.00  0.00    -0.382 A  
HETATM    7  C   UNL     1      -9.776  13.629  67.053  1.00  0.00    -0.251 A  
HETATM    8  C   UNL     1     -10.962  13.476  64.978  1.00  0.00    -0.342 A  
HETATM    9  C   UNL     1     -10.389  12.828  66.076  1.00  0.00    -0.291 A  
BRANCH   5  10
HETATM   10  O   UNL     1      -9.031  15.820  67.831  1.00  0.00    -0.179 OA 
BRANCH  10  11
HETATM   11  C   UNL     1      -9.340  15.650  69.205  1.00  0.00    -0.252 C  
HETATM   12  C   UNL     1     -10.699  16.282  69.451  1.00  0.00    -0.318 C  
ENDBRANCH  10  11
ENDBRANCH   5  10
BRANCH   9  13
HETATM   13  C   UNL     1     -10.420  11.347  66.259  1.00  0.00    -0.301 C  
HETATM   14  C   UNL     1      -9.467  10.487  65.835  1.00  0.00    -0.190 C  
HETATM   15  N   UNL     1      -8.345  10.951  65.145  1.00  0.00    -0.363 NA 
HETATM   16  C   UNL     1      -7.919  10.212  63.964  1.00  0.00    -0.154 C  
HETATM   17  H   UNL     1      -7.841  11.780  65.457  1.00  0.00     0.000 HD 
HETATM   18  C   UNL     1      -7.551   8.800  64.374  1.00  0.00    -0.116 C  
HETATM   19  C   UNL     1      -8.582   8.193  65.301  1.00  0.00    -0.132 A  
HETATM   20  C   UNL     1      -8.532   6.800  65.476  1.00  0.00    -0.124 A  
HETATM   21  C   UNL     1      -9.390   6.140  66.357  1.00  0.00    -0.152 A  
HETATM   22  C   UNL     1     -10.322   6.904  67.083  1.00  0.00    -0.269 A  
HETATM   23  C   UNL     1     -10.367   8.312  66.906  1.00  0.00    -0.391 A  
HETATM   24  C   UNL     1      -9.505   8.986  66.020  1.00  0.00    -0.323 A  
BRANCH  21  25
HETATM   25  O   UNL     1      -9.344   4.785  66.539  1.00  0.00    -0.129 OA 
BRANCH  25  26
HETATM   26  C   UNL     1      -8.179   4.200  67.115  1.00  0.00    -0.100 C  
HETATM   27  C   UNL     1      -7.629   3.186  66.128  1.00  0.00    -0.077 C  
ENDBRANCH  25  26
ENDBRANCH  21  25
BRANCH  22  28
HETATM   28  O   UNL     1     -11.243   6.446  68.005  1.00  0.00    -0.311 OA 
BRANCH  28  29
HETATM   29  C   UNL     1     -11.004   6.717  69.387  1.00  0.00    -0.276 C  
HETATM   30  C   UNL     1     -10.516   5.458  70.083  1.00  0.00    -0.361 C  
ENDBRANCH  28  29
ENDBRANCH  22  28
ENDBRANCH   9  13
ENDBRANCH   3   4
ENDBRANCH   2   3
TORSDOF 9
ENDMDL
MODEL       47
REMARK 921   NORMALIZED FREE ENERGY PREDICTED BY IDOCK:   -5.03 KCAL/MOL
REMARK 922        TOTAL FREE ENERGY PREDICTED BY IDOCK:   -8.56 KCAL/MOL
REMARK 923 INTER-LIGAND FREE ENERGY PREDICTED BY IDOCK:   -8.28 KCAL/MOL
REMARK 924 INTRA-LIGAND FREE ENERGY PREDICTED BY IDOCK:   -0.29 KCAL/MOL
REMARK 927      BINDING AFFINITY PREDICTED BY RF-SCORE:    0.00 PKD
ROOT
HETATM    1  C   UNL     1     -12.213  16.169  73.144  1.00  0.00    -0.643 C  
HETATM    2  C   UNL     1     -13.192  15.019  73.327  1.00  0.00    -0.422 C  
ENDROOT
BRANCH   2   3
HETATM    3  O   UNL     1     -13.719  14.651  72.055  1.00  0.00    -0.357 OA 
BRANCH   3   4
HETATM    4  C   UNL     1     -12.947  13.883  71.217  1.00  0.00    -0.341 A  
HETATM    5  C   UNL     1     -12.178  14.284  70.107  1.00  0.00    -0.345 A  
HETATM    6  C   UNL     1     -12.967  12.530  71.565  1.00  0.00    -0.379 A  
HETATM    7  C   UNL     1     -11.478  13.309  69.361  1.00  0.00    -0.323 A  
HETATM    8  C   UNL     1     -12.264  11.579  70.819  1.00  0.00    -0.463 A  
HETATM    9  C   UNL     1     -11.543  11.943  69.677  1.00  0.00    -0.387 A  
BRANCH   5  10
HETATM   10  O   UNL     1     -12.152  15.616  69.792  1.00  0.00    -0.361 OA 
BRANCH  10  11
HETATM   11  C   UNL     1     -11.465  16.035  68.624  1.00  0.00    -0.377 C  
HETATM   12  C   UNL     1     -10.440  17.075  69.043  1.00  0.00    -0.337 C  
ENDBRANCH  10  11
ENDBRANCH   5  10
BRANCH   9  13
HETATM   13  C   UNL     1     -10.839  10.957  68.807  1.00  0.00    -0.251 C  
HETATM   14  C   UNL     1     -10.951   9.612  68.898  1.00  0.00    -0.121 C  
HETATM   15  N   UNL     1     -11.760   9.030  69.877  1.00  0.00    -0.413 NA 
HETATM   16  C   UNL     1     -11.227   7.888  70.607  1.00  0.00    -0.263 C  
HETATM   17  H   UNL     1     -12.692   9.393  70.073  1.00  0.00     0.000 HD 
HETATM   18  C   UNL     1     -10.952   6.763  69.629  1.00  0.00    -0.336 C  
HETATM   19  C   UNL     1     -10.235   7.254  68.389  1.00  0.00    -0.203 A  
HETATM   20  C   UNL     1      -9.633   6.278  67.579  1.00  0.00    -0.122 A  
HETATM   21  C   UNL     1      -9.003   6.607  66.379  1.00  0.00    -0.148 A  
HETATM   22  C   UNL     1      -8.980   7.957  65.982  1.00  0.00    -0.154 A  
HETATM   23  C   UNL     1      -9.593   8.941  66.802  1.00  0.00    -0.262 A  
HETATM   24  C   UNL     1     -10.231   8.617  68.015  1.00  0.00    -0.261 A  
BRANCH  21  25
HETATM   25  O   UNL     1      -8.420   5.662  65.580  1.00  0.00    -0.135 OA 
BRANCH  25  26
HETATM   26  C   UNL     1      -8.011   4.423  66.154  1.00  0.00    -0.099 C  
HETATM   27  C   UNL     1      -8.619   3.302  65.330  1.00  0.00    -0.107 C  
ENDBRANCH  25  26
ENDBRANCH  21  25
BRANCH  22  28
HETATM   28  O   UNL     1      -8.421   8.483  64.834  1.00  0.00    -0.173 OA 
BRANCH  28  29
HETATM   29  C   UNL     1      -8.440   9.901  64.665  1.00  0.00    -0.172 C  
HETATM   30  C   UNL     1      -9.240  10.263  63.425  1.00  0.00    -0.321 C  
ENDBRANCH  28  29
ENDBRANCH  22  28
ENDBRANCH   9  13
ENDBRANCH   3   4
ENDBRANCH   2   3
TORSDOF 9
ENDMDL
MODEL       48
REMARK 921   NORMALIZED FREE ENERGY PREDICTED BY IDOCK:   -4.99 KCAL/MOL
REMARK 922        TOTAL FREE ENERGY PREDICTED BY IDOCK:   -8.50 KCAL/MOL
REMARK 923 INTER-LIGAND FREE ENERGY PREDICTED BY IDOCK:   -7.72 KCAL/MOL
REMARK 924 INTRA-LIGAND FREE ENERGY PREDICTED BY IDOCK:   -0.78 KCAL/MOL
REMARK 927      BINDING AFFINITY PREDICTED BY RF-SCORE:    0.00 PKD
ROOT
HETATM    1  C   UNL     1      -9.975   3.692  64.261  1.00  0.00    -0.193 C  
HETATM    2  C   UNL     1      -8.849   4.536  64.838  1.00  0.00    -0.148 C  
ENDROOT
BRANCH   2   3
HETATM    3  O   UNL     1      -9.234   5.007  66.126  1.00  0.00    -0.137 OA 
BRANCH   3   4
HETATM    4  C   UNL     1      -9.272   6.362  66.351  1.00  0.00    -0.155 A  
HETATM    5  C   UNL     1     -10.175   7.105  67.136  1.00  0.00    -0.257 A  
HETATM    6  C   UNL     1      -8.249   7.041  65.682  1.00  0.00    -0.134 A  
HETATM    7  C   UNL     1     -10.042   8.510  67.201  1.00  0.00    -0.331 A  
HETATM    8  C   UNL     1      -8.130   8.431  65.762  1.00  0.00    -0.117 A  
HETATM    9  C   UNL     1      -9.050   9.197  66.485  1.00  0.00    -0.194 A  
BRANCH   5  10
HETATM   10  O   UNL     1     -11.158   6.423  67.801  1.00  0.00    -0.328 OA 
BRANCH  10  11
HETATM   11  C   UNL     1     -11.202   6.483  69.217  1.00  0.00    -0.328 C  
HETATM   12  C   UNL     1     -10.284   5.398  69.751  1.00  0.00    -0.348 C  
ENDBRANCH  10  11
ENDBRANCH   5  10
BRANCH   9  13
HETATM   13  C   UNL     1      -9.008  10.688  66.539  1.00  0.00    -0.169 C  
HETATM   14  C   UNL     1      -9.820  11.519  65.848  1.00  0.00    -0.231 C  
HETATM   15  N   UNL     1     -10.786  11.010  64.977  1.00  0.00    -0.185 NA 
HETATM   16  C   UNL     1     -10.927  11.642  63.674  1.00  0.00    -0.431 C  
HETATM   17  H   UNL     1     -11.373  10.220  65.246  1.00  0.00     0.000 HD 
HETATM   18  C   UNL     1     -11.325  13.092  63.870  1.00  0.00    -0.460 C  
HETATM   19  C   UNL     1     -10.493  13.767  64.940  1.00  0.00    -0.437 A  
HETATM   20  C   UNL     1     -10.532  15.171  64.978  1.00  0.00    -0.418 A  
HETATM   21  C   UNL     1      -9.858  15.896  65.961  1.00  0.00    -0.337 A  
HETATM   22  C   UNL     1      -9.127  15.189  66.933  1.00  0.00    -0.247 A  
HETATM   23  C   UNL     1      -9.094  13.770  66.894  1.00  0.00    -0.253 A  
HETATM   24  C   UNL     1      -9.771  13.030  65.906  1.00  0.00    -0.187 A  
BRANCH  21  25
HETATM   25  O   UNL     1      -9.895  17.263  66.010  1.00  0.00    -0.435 OA 
BRANCH  25  26
HETATM   26  C   UNL     1     -10.373  17.903  67.190  1.00  0.00    -0.367 C  
HETATM   27  C   UNL     1      -9.670  19.244  67.312  1.00  0.00    -0.409 C  
ENDBRANCH  25  26
ENDBRANCH  21  25
BRANCH  22  28
HETATM   28  O   UNL     1      -8.407  15.717  67.987  1.00  0.00    -0.143 OA 
BRANCH  28  29
HETATM   29  C   UNL     1      -7.007  15.933  67.805  1.00  0.00    -0.149 C  
HETATM   30  C   UNL     1      -6.445  16.703  68.987  1.00  0.00    -0.190 C  
ENDBRANCH  28  29
ENDBRANCH  22  28
ENDBRANCH   9  13
ENDBRANCH   3   4
ENDBRANCH   2   3
TORSDOF 9
ENDMDL
MODEL       49
REMARK 921   NORMALIZED FREE ENERGY PREDICTED BY IDOCK:   -4.99 KCAL/MOL
REMARK 922        TOTAL FREE ENERGY PREDICTED BY IDOCK:   -8.49 KCAL/MOL
REMARK 923 INTER-LIGAND FREE ENERGY PREDICTED BY IDOCK:   -8.44 KCAL/MOL
REMARK 924 INTRA-LIGAND FREE ENERGY PREDICTED BY IDOCK:   -0.05 KCAL/MOL
REMARK 927      BINDING AFFINITY PREDICTED BY RF-SCORE:    0.00 PKD
ROOT
HETATM    1  C   UNL     1     -10.940   6.049  69.164  1.00  0.00    -0.429 C  
HETATM    2  C   UNL     1     -10.273   7.305  69.703  1.00  0.00    -0.211 C  
ENDROOT
BRANCH   2   3
HETATM    3  O   UNL     1     -11.279   8.253  70.050  1.00  0.00    -0.203 OA 
BRANCH   3   4
HETATM    4  C   UNL     1     -11.107   9.565  69.679  1.00  0.00    -0.171 A  
HETATM    5  C   UNL     1     -11.964  10.663  69.886  1.00  0.00    -0.310 A  
HETATM    6  C   UNL     1      -9.898   9.775  69.010  1.00  0.00    -0.183 A  
HETATM    7  C   UNL     1     -11.595  11.933  69.387  1.00  0.00    -0.388 A  
HETATM    8  C   UNL     1      -9.547  11.039  68.527  1.00  0.00    -0.187 A  
HETATM    9  C   UNL     1     -10.408  12.132  68.666  1.00  0.00    -0.211 A  
BRANCH   5  10
HETATM   10  O   UNL     1     -13.135  10.445  70.560  1.00  0.00    -0.328 OA 
BRANCH  10  11
HETATM   11  C   UNL     1     -13.094  10.233  71.962  1.00  0.00    -0.425 C  
HETATM   12  C   UNL     1     -13.890   8.974  72.259  1.00  0.00    -0.547 C  
ENDBRANCH  10  11
ENDBRANCH   5  10
BRANCH   9  13
HETATM   13  C   UNL     1     -10.111  13.482  68.104  1.00  0.00    -0.250 C  
HETATM   14  C   UNL     1      -8.878  13.955  67.812  1.00  0.00    -0.189 C  
HETATM   15  N   UNL     1      -7.743  13.176  68.050  1.00  0.00    -0.131 NA 
HETATM   16  C   UNL     1      -6.593  13.822  68.668  1.00  0.00    -0.096 C  
HETATM   17  H   UNL     1      -7.720  12.188  67.799  1.00  0.00     0.000 HD 
HETATM   18  C   UNL     1      -6.104  14.932  67.759  1.00  0.00    -0.149 C  
HETATM   19  C   UNL     1      -7.245  15.781  67.238  1.00  0.00    -0.254 A  
HETATM   20  C   UNL     1      -6.903  17.021  66.673  1.00  0.00    -0.279 A  
HETATM   21  C   UNL     1      -7.864  17.856  66.103  1.00  0.00    -0.222 A  
HETATM   22  C   UNL     1      -9.205  17.431  66.099  1.00  0.00    -0.142 A  
HETATM   23  C   UNL     1      -9.546  16.176  66.668  1.00  0.00    -0.263 A  
HETATM   24  C   UNL     1      -8.583  15.326  67.245  1.00  0.00    -0.210 A  
BRANCH  21  25
HETATM   25  O   UNL     1      -7.540  19.062  65.544  1.00  0.00    -0.460 OA 
BRANCH  25  26
HETATM   26  C   UNL     1      -6.265  19.222  64.926  1.00  0.00    -0.273 C  
HETATM   27  C   UNL     1      -6.267  20.547  64.186  1.00  0.00    -0.321 C  
ENDBRANCH  25  26
ENDBRANCH  21  25
BRANCH  22  28
HETATM   28  O   UNL     1     -10.294  18.101  65.578  1.00  0.00    -0.589 OA 
BRANCH  28  29
HETATM   29  C   UNL     1     -10.532  19.441  66.012  1.00  0.00    -0.505 C  
HETATM   30  C   UNL     1     -10.888  19.450  67.489  1.00  0.00    -0.521 C  
ENDBRANCH  28  29
ENDBRANCH  22  28
ENDBRANCH   9  13
ENDBRANCH   3   4
ENDBRANCH   2   3
TORSDOF 9
ENDMDL
MODEL       50
REMARK 921   NORMALIZED FREE ENERGY PREDICTED BY IDOCK:   -4.95 KCAL/MOL
REMARK 922        TOTAL FREE ENERGY PREDICTED BY IDOCK:   -8.43 KCAL/MOL
REMARK 923 INTER-LIGAND FREE ENERGY PREDICTED BY IDOCK:   -8.23 KCAL/MOL
REMARK 924 INTRA-LIGAND FREE ENERGY PREDICTED BY IDOCK:   -0.21 KCAL/MOL
REMARK 927      BINDING AFFINITY PREDICTED BY RF-SCORE:    0.00 PKD
ROOT
HETATM    1  C   UNL     1     -11.137   5.083  73.103  1.00  0.00    -0.395 C  
HETATM    2  C   UNL     1     -11.209   6.583  72.859  1.00  0.00    -0.180 C  
ENDROOT
BRANCH   2   3
HETATM    3  O   UNL     1     -11.944   6.824  71.663  1.00  0.00    -0.311 OA 
BRANCH   3   4
HETATM    4  C   UNL     1     -11.641   7.936  70.914  1.00  0.00    -0.273 A  
HETATM    5  C   UNL     1     -10.781   8.048  69.804  1.00  0.00    -0.231 A  
HETATM    6  C   UNL     1     -12.308   9.079  71.363  1.00  0.00    -0.380 A  
HETATM    7  C   UNL     1     -10.594   9.311  69.198  1.00  0.00    -0.228 A  
HETATM    8  C   UNL     1     -12.114  10.319  70.749  1.00  0.00    -0.451 A  
HETATM    9  C   UNL     1     -11.220  10.469  69.685  1.00  0.00    -0.342 A  
BRANCH   5  10
HETATM   10  O   UNL     1     -10.151   6.915  69.364  1.00  0.00    -0.161 OA 
BRANCH  10  11
HETATM   11  C   UNL     1     -10.907   5.925  68.686  1.00  0.00    -0.261 C  
HETATM   12  C   UNL     1     -11.003   6.338  67.228  1.00  0.00    -0.455 C  
ENDBRANCH  10  11
ENDBRANCH   5  10
BRANCH   9  13
HETATM   13  C   UNL     1     -10.924  11.784  69.045  1.00  0.00    -0.276 C  
HETATM   14  C   UNL     1     -11.248  12.994  69.556  1.00  0.00    -0.077 C  
HETATM   15  N   UNL     1     -11.935  13.094  70.768  1.00  0.00    -0.506 NA 
HETATM   16  C   UNL     1     -13.039  14.039  70.847  1.00  0.00    -0.228 C  
HETATM   17  H   UNL     1     -11.671  12.523  71.570  1.00  0.00     0.000 HD 
HETATM   18  C   UNL     1     -12.509  15.438  70.599  1.00  0.00    -0.478 C  
HETATM   19  C   UNL     1     -11.571  15.485  69.411  1.00  0.00    -0.366 A  
HETATM   20  C   UNL     1     -11.287  16.754  68.880  1.00  0.00    -0.016 A  
HETATM   21  C   UNL     1     -10.386  16.924  67.829  1.00  0.00    -0.327 A  
HETATM   22  C   UNL     1      -9.752  15.785  67.298  1.00  0.00    -0.223 A  
HETATM   23  C   UNL     1     -10.040  14.505  67.839  1.00  0.00    -0.227 A  
HETATM   24  C   UNL     1     -10.947  14.324  68.901  1.00  0.00    -0.275 A  
BRANCH  21  25
HETATM   25  O   UNL     1     -10.098  18.157  67.310  1.00  0.00    -0.317 OA 
BRANCH  25  26
HETATM   26  C   UNL     1     -10.992  19.240  67.553  1.00  0.00    -0.316 C  
HETATM   27  C   UNL     1     -10.288  20.232  68.461  1.00  0.00    -0.262 C  
ENDBRANCH  25  26
ENDBRANCH  21  25
BRANCH  22  28
HETATM   28  O   UNL     1      -8.829  15.743  66.273  1.00  0.00    -0.304 OA 
BRANCH  28  29
HETATM   29  C   UNL     1      -7.445  15.859  66.607  1.00  0.00    -0.058 C  
HETATM   30  C   UNL     1      -6.935  17.239  66.227  1.00  0.00    -0.299 C  
ENDBRANCH  28  29
ENDBRANCH  22  28
ENDBRANCH   9  13
ENDBRANCH   3   4
ENDBRANCH   2   3
TORSDOF 9
ENDMDL
MODEL       51
REMARK 921   NORMALIZED FREE ENERGY PREDICTED BY IDOCK:   -4.94 KCAL/MOL
REMARK 922        TOTAL FREE ENERGY PREDICTED BY IDOCK:   -8.42 KCAL/MOL
REMARK 923 INTER-LIGAND FREE ENERGY PREDICTED BY IDOCK:   -7.64 KCAL/MOL
REMARK 924 INTRA-LIGAND FREE ENERGY PREDICTED BY IDOCK:   -0.77 KCAL/MOL
REMARK 927      BINDING AFFINITY PREDICTED BY RF-SCORE:    0.00 PKD
ROOT
HETATM    1  C   UNL     1      -9.661   3.940  69.913  1.00  0.00    -0.270 C  
HETATM    2  C   UNL     1     -10.332   5.122  69.231  1.00  0.00    -0.178 C  
ENDROOT
BRANCH   2   3
HETATM    3  O   UNL     1     -10.700   6.081  70.218  1.00  0.00    -0.249 OA 
BRANCH   3   4
HETATM    4  C   UNL     1     -10.643   7.416  69.897  1.00  0.00    -0.236 A  
HETATM    5  C   UNL     1     -11.145   8.521  70.611  1.00  0.00    -0.252 A  
HETATM    6  C   UNL     1      -9.985   7.644  68.685  1.00  0.00    -0.181 A  
HETATM    7  C   UNL     1     -10.998   9.819  70.072  1.00  0.00    -0.319 A  
HETATM    8  C   UNL     1      -9.844   8.935  68.169  1.00  0.00    -0.193 A  
HETATM    9  C   UNL     1     -10.387  10.042  68.828  1.00  0.00    -0.216 A  
BRANCH   5  10
HETATM   10  O   UNL     1     -11.769   8.282  71.806  1.00  0.00    -0.270 OA 
BRANCH  10  11
HETATM   11  C   UNL     1     -12.702   9.231  72.299  1.00  0.00    -0.363 C  
HETATM   12  C   UNL     1     -14.081   8.601  72.221  1.00  0.00    -0.491 C  
ENDBRANCH  10  11
ENDBRANCH   5  10
BRANCH   9  13
HETATM   13  C   UNL     1     -10.327  11.429  68.282  1.00  0.00    -0.209 C  
HETATM   14  C   UNL     1      -9.193  12.122  68.028  1.00  0.00    -0.194 C  
HETATM   15  N   UNL     1      -7.942  11.563  68.296  1.00  0.00    -0.134 NA 
HETATM   16  C   UNL     1      -6.948  12.402  68.950  1.00  0.00    -0.091 C  
HETATM   17  H   UNL     1      -7.732  10.598  68.041  1.00  0.00     0.000 HD 
HETATM   18  C   UNL     1      -6.645  13.591  68.061  1.00  0.00    -0.137 C  
HETATM   19  C   UNL     1      -7.907  14.222  67.511  1.00  0.00    -0.209 A  
HETATM   20  C   UNL     1      -7.783  15.509  66.962  1.00  0.00    -0.246 A  
HETATM   21  C   UNL     1      -8.864  16.160  66.367  1.00  0.00    -0.320 A  
HETATM   22  C   UNL     1     -10.104  15.497  66.323  1.00  0.00    -0.295 A  
HETATM   23  C   UNL     1     -10.225  14.195  66.875  1.00  0.00    -0.267 A  
HETATM   24  C   UNL     1      -9.139  13.530  67.477  1.00  0.00    -0.214 A  
BRANCH  21  25
HETATM   25  O   UNL     1      -8.750  17.411  65.824  1.00  0.00    -0.522 OA 
BRANCH  25  26
HETATM   26  C   UNL     1      -8.836  18.549  66.677  1.00  0.00    -0.294 C  
HETATM   27  C   UNL     1     -10.073  19.337  66.284  1.00  0.00    -0.519 C  
ENDBRANCH  25  26
ENDBRANCH  21  25
BRANCH  22  28
HETATM   28  O   UNL     1     -11.282  15.961  65.773  1.00  0.00    -0.139 OA 
BRANCH  28  29
HETATM   29  C   UNL     1     -11.481  15.797  64.368  1.00  0.00    -0.263 C  
HETATM   30  C   UNL     1     -12.236  14.507  64.100  1.00  0.00    -0.372 C  
ENDBRANCH  28  29
ENDBRANCH  22  28
ENDBRANCH   9  13
ENDBRANCH   3   4
ENDBRANCH   2   3
TORSDOF 9
ENDMDL
MODEL       52
REMARK 921   NORMALIZED FREE ENERGY PREDICTED BY IDOCK:   -4.92 KCAL/MOL
REMARK 922        TOTAL FREE ENERGY PREDICTED BY IDOCK:   -8.38 KCAL/MOL
REMARK 923 INTER-LIGAND FREE ENERGY PREDICTED BY IDOCK:   -7.59 KCAL/MOL
REMARK 924 INTRA-LIGAND FREE ENERGY PREDICTED BY IDOCK:   -0.79 KCAL/MOL
REMARK 927      BINDING AFFINITY PREDICTED BY RF-SCORE:    0.00 PKD
ROOT
HETATM    1  C   UNL     1      -9.341   3.517  68.266  1.00  0.00    -0.235 C  
HETATM    2  C   UNL     1      -9.137   4.764  67.420  1.00  0.00    -0.117 C  
ENDROOT
BRANCH   2   3
HETATM    3  O   UNL     1     -10.363   5.488  67.357  1.00  0.00    -0.197 OA 
BRANCH   3   4
HETATM    4  C   UNL     1     -10.391   6.782  67.816  1.00  0.00    -0.198 A  
HETATM    5  C   UNL     1     -10.357   7.251  69.144  1.00  0.00    -0.205 A  
HETATM    6  C   UNL     1     -10.461   7.715  66.777  1.00  0.00    -0.319 A  
HETATM    7  C   UNL     1     -10.427   8.641  69.389  1.00  0.00    -0.224 A  
HETATM    8  C   UNL     1     -10.524   9.087  67.039  1.00  0.00    -0.316 A  
HETATM    9  C   UNL     1     -10.555   9.574  68.349  1.00  0.00    -0.261 A  
BRANCH   5  10
HETATM   10  O   UNL     1     -10.268   6.326  70.149  1.00  0.00    -0.177 OA 
BRANCH  10  11
HETATM   11  C   UNL     1     -11.395   6.098  70.979  1.00  0.00    -0.282 C  
HETATM   12  C   UNL     1     -10.892   5.938  72.403  1.00  0.00    -0.288 C  
ENDBRANCH  10  11
ENDBRANCH   5  10
BRANCH   9  13
HETATM   13  C   UNL     1     -10.696  11.022  68.679  1.00  0.00    -0.234 C  
HETATM   14  C   UNL     1      -9.864  12.004  68.263  1.00  0.00    -0.204 C  
HETATM   15  N   UNL     1      -8.750  11.707  67.476  1.00  0.00    -0.151 NA 
HETATM   16  C   UNL     1      -7.488  12.351  67.813  1.00  0.00    -0.126 C  
HETATM   17  H   UNL     1      -8.817  11.060  66.691  1.00  0.00     0.000 HD 
HETATM   18  C   UNL     1      -7.651  13.852  67.683  1.00  0.00    -0.188 C  
HETATM   19  C   UNL     1      -8.932  14.341  68.326  1.00  0.00    -0.187 A  
HETATM   20  C   UNL     1      -9.032  15.721  68.567  1.00  0.00    -0.194 A  
HETATM   21  C   UNL     1     -10.191  16.291  69.094  1.00  0.00    -0.266 A  
HETATM   22  C   UNL     1     -11.280  15.449  69.384  1.00  0.00    -0.296 A  
HETATM   23  C   UNL     1     -11.176  14.055  69.135  1.00  0.00    -0.308 A  
HETATM   24  C   UNL     1     -10.011  13.471  68.604  1.00  0.00    -0.149 A  
BRANCH  21  25
HETATM   25  O   UNL     1     -10.300  17.635  69.326  1.00  0.00    -0.319 OA 
BRANCH  25  26
HETATM   26  C   UNL     1      -9.804  18.551  68.352  1.00  0.00    -0.372 C  
HETATM   27  C   UNL     1     -10.829  18.646  67.236  1.00  0.00    -0.369 C  
ENDBRANCH  25  26
ENDBRANCH  21  25
BRANCH  22  28
HETATM   28  O   UNL     1     -12.509  15.816  69.895  1.00  0.00    -0.300 OA 
BRANCH  28  29
HETATM   29  C   UNL     1     -12.744  15.621  71.291  1.00  0.00    -0.475 C  
HETATM   30  C   UNL     1     -14.156  15.105  71.510  1.00  0.00    -0.636 C  
ENDBRANCH  28  29
ENDBRANCH  22  28
ENDBRANCH   9  13
ENDBRANCH   3   4
ENDBRANCH   2   3
TORSDOF 9
ENDMDL
MODEL       53
REMARK 921   NORMALIZED FREE ENERGY PREDICTED BY IDOCK:   -4.89 KCAL/MOL
REMARK 922        TOTAL FREE ENERGY PREDICTED BY IDOCK:   -8.35 KCAL/MOL
REMARK 923 INTER-LIGAND FREE ENERGY PREDICTED BY IDOCK:   -7.49 KCAL/MOL
REMARK 924 INTRA-LIGAND FREE ENERGY PREDICTED BY IDOCK:   -0.86 KCAL/MOL
REMARK 927      BINDING AFFINITY PREDICTED BY RF-SCORE:    0.00 PKD
ROOT
HETATM    1  C   UNL     1      -9.440   3.333  67.815  1.00  0.00    -0.217 C  
HETATM    2  C   UNL     1      -8.631   4.373  67.056  1.00  0.00    -0.104 C  
ENDROOT
BRANCH   2   3
HETATM    3  O   UNL     1      -9.512   5.146  66.246  1.00  0.00    -0.142 OA 
BRANCH   3   4
HETATM    4  C   UNL     1      -9.519   6.512  66.395  1.00  0.00    -0.126 A  
HETATM    5  C   UNL     1      -8.639   7.467  65.849  1.00  0.00    -0.151 A  
HETATM    6  C   UNL     1     -10.567   6.953  67.208  1.00  0.00    -0.393 A  
HETATM    7  C   UNL     1      -8.819   8.833  66.163  1.00  0.00    -0.201 A  
HETATM    8  C   UNL     1     -10.733   8.309  67.503  1.00  0.00    -0.217 A  
HETATM    9  C   UNL     1      -9.837   9.270  67.025  1.00  0.00    -0.257 A  
BRANCH   5  10
HETATM   10  O   UNL     1      -7.631   7.021  65.039  1.00  0.00    -0.089 OA 
BRANCH  10  11
HETATM   11  C   UNL     1      -7.316   7.751  63.864  1.00  0.00    -0.096 C  
HETATM   12  C   UNL     1      -5.852   8.147  63.949  1.00  0.00    -0.065 C  
ENDBRANCH  10  11
ENDBRANCH   5  10
BRANCH   9  13
HETATM   13  C   UNL     1      -9.929  10.718  67.373  1.00  0.00    -0.214 C  
HETATM   14  C   UNL     1     -10.418  11.687  66.566  1.00  0.00    -0.239 C  
HETATM   15  N   UNL     1     -10.872  11.382  65.281  1.00  0.00    -0.265 NA 
HETATM   16  C   UNL     1     -10.478  12.266  64.193  1.00  0.00    -0.375 C  
HETATM   17  H   UNL     1     -11.459  10.566  65.110  1.00  0.00     0.000 HD 
HETATM   18  C   UNL     1     -11.024  13.654  64.464  1.00  0.00    -0.405 C  
HETATM   19  C   UNL     1     -10.789  14.084  65.897  1.00  0.00    -0.288 A  
HETATM   20  C   UNL     1     -10.939  15.452  66.178  1.00  0.00    -0.279 A  
HETATM   21  C   UNL     1     -10.812  15.952  67.474  1.00  0.00    -0.305 A  
HETATM   22  C   UNL     1     -10.527  15.050  68.516  1.00  0.00    -0.232 A  
HETATM   23  C   UNL     1     -10.379  13.668  68.228  1.00  0.00    -0.251 A  
HETATM   24  C   UNL     1     -10.507  13.154  66.923  1.00  0.00    -0.256 A  
BRANCH  21  25
HETATM   25  O   UNL     1     -10.964  17.282  67.759  1.00  0.00    -0.318 OA 
BRANCH  25  26
HETATM   26  C   UNL     1      -9.952  18.200  67.351  1.00  0.00    -0.323 C  
HETATM   27  C   UNL     1     -10.626  19.516  67.007  1.00  0.00    -0.607 C  
ENDBRANCH  25  26
ENDBRANCH  21  25
BRANCH  22  28
HETATM   28  O   UNL     1     -10.375  15.342  69.857  1.00  0.00    -0.269 OA 
BRANCH  28  29
HETATM   29  C   UNL     1     -11.527  15.762  70.590  1.00  0.00    -0.390 C  
HETATM   30  C   UNL     1     -12.113  14.584  71.350  1.00  0.00    -0.420 C  
ENDBRANCH  28  29
ENDBRANCH  22  28
ENDBRANCH   9  13
ENDBRANCH   3   4
ENDBRANCH   2   3
TORSDOF 9
ENDMDL
MODEL       54
REMARK 921   NORMALIZED FREE ENERGY PREDICTED BY IDOCK:   -4.89 KCAL/MOL
REMARK 922        TOTAL FREE ENERGY PREDICTED BY IDOCK:   -8.34 KCAL/MOL
REMARK 923 INTER-LIGAND FREE ENERGY PREDICTED BY IDOCK:   -8.16 KCAL/MOL
REMARK 924 INTRA-LIGAND FREE ENERGY PREDICTED BY IDOCK:   -0.18 KCAL/MOL
REMARK 927      BINDING AFFINITY PREDICTED BY RF-SCORE:    0.00 PKD
ROOT
HETATM    1  C   UNL     1      -9.103   5.007  74.475  1.00  0.00    -0.114 C  
HETATM    2  C   UNL     1      -9.337   6.389  73.886  1.00  0.00    -0.147 C  
ENDROOT
BRANCH   2   3
HETATM    3  O   UNL     1     -10.581   6.394  73.191  1.00  0.00    -0.225 OA 
BRANCH   3   4
HETATM    4  C   UNL     1     -10.694   7.140  72.043  1.00  0.00    -0.214 A  
HETATM    5  C   UNL     1     -10.067   6.948  70.796  1.00  0.00    -0.194 A  
HETATM    6  C   UNL     1     -11.563   8.224  72.196  1.00  0.00    -0.428 A  
HETATM    7  C   UNL     1     -10.309   7.867  69.750  1.00  0.00    -0.219 A  
HETATM    8  C   UNL     1     -11.795   9.121  71.149  1.00  0.00    -0.374 A  
HETATM    9  C   UNL     1     -11.138   8.987  69.921  1.00  0.00    -0.155 A  
BRANCH   5  10
HETATM   10  O   UNL     1      -9.235   5.870  70.656  1.00  0.00    -0.150 OA 
BRANCH  10  11
HETATM   11  C   UNL     1      -9.798   4.590  70.420  1.00  0.00    -0.232 C  
HETATM   12  C   UNL     1      -9.607   4.269  68.948  1.00  0.00    -0.227 C  
ENDBRANCH  10  11
ENDBRANCH   5  10
BRANCH   9  13
HETATM   13  C   UNL     1     -11.295   9.958  68.800  1.00  0.00    -0.049 C  
HETATM   14  C   UNL     1     -11.378  11.302  68.934  1.00  0.00    -0.275 C  
HETATM   15  N   UNL     1     -11.342  11.894  70.199  1.00  0.00    -0.496 NA 
HETATM   16  C   UNL     1     -12.299  12.955  70.480  1.00  0.00    -0.283 C  
HETATM   17  H   UNL     1     -10.667  11.594  70.901  1.00  0.00     0.000 HD 
HETATM   18  C   UNL     1     -12.058  14.103  69.520  1.00  0.00    -0.388 C  
HETATM   19  C   UNL     1     -11.877  13.621  68.096  1.00  0.00    -0.407 A  
HETATM   20  C   UNL     1     -11.984  14.588  67.083  1.00  0.00    -0.373 A  
HETATM   21  C   UNL     1     -11.771  14.271  65.741  1.00  0.00    -0.359 A  
HETATM   22  C   UNL     1     -11.439  12.945  65.410  1.00  0.00    -0.324 A  
HETATM   23  C   UNL     1     -11.327  11.971  66.437  1.00  0.00    -0.411 A  
HETATM   24  C   UNL     1     -11.540  12.282  67.794  1.00  0.00    -0.416 A  
BRANCH  21  25
HETATM   25  O   UNL     1     -11.867  15.208  64.748  1.00  0.00    -0.362 OA 
BRANCH  25  26
HETATM   26  C   UNL     1     -11.089  16.399  64.839  1.00  0.00    -0.239 C  
HETATM   27  C   UNL     1      -9.729  16.026  65.401  1.00  0.00    -0.033 C  
ENDBRANCH  25  26
ENDBRANCH  21  25
BRANCH  22  28
HETATM   28  O   UNL     1     -11.180  12.435  64.153  1.00  0.00    -0.323 OA 
BRANCH  28  29
HETATM   29  C   UNL     1     -10.637  11.117  64.059  1.00  0.00    -0.368 C  
HETATM   30  C   UNL     1      -9.465  11.110  63.092  1.00  0.00    -0.371 C  
ENDBRANCH  28  29
ENDBRANCH  22  28
ENDBRANCH   9  13
ENDBRANCH   3   4
ENDBRANCH   2   3
TORSDOF 9
ENDMDL
MODEL       55
REMARK 921   NORMALIZED FREE ENERGY PREDICTED BY IDOCK:   -4.87 KCAL/MOL
REMARK 922        TOTAL FREE ENERGY PREDICTED BY IDOCK:   -8.30 KCAL/MOL
REMARK 923 INTER-LIGAND FREE ENERGY PREDICTED BY IDOCK:   -7.30 KCAL/MOL
REMARK 924 INTRA-LIGAND FREE ENERGY PREDICTED BY IDOCK:   -1.00 KCAL/MOL
REMARK 927      BINDING AFFINITY PREDICTED BY RF-SCORE:    0.00 PKD
ROOT
HETATM    1  C   UNL     1      -5.937   4.517  74.104  1.00  0.00    -0.025 C  
HETATM    2  C   UNL     1      -7.389   4.964  74.051  1.00  0.00    -0.082 C  
ENDROOT
BRANCH   2   3
HETATM    3  O   UNL     1      -7.849   4.891  72.705  1.00  0.00    -0.091 OA 
BRANCH   3   4
HETATM    4  C   UNL     1      -8.505   5.973  72.170  1.00  0.00    -0.124 A  
HETATM    5  C   UNL     1      -9.854   6.088  71.780  1.00  0.00    -0.165 A  
HETATM    6  C   UNL     1      -7.667   7.082  72.019  1.00  0.00    -0.092 A  
HETATM    7  C   UNL     1     -10.311   7.301  71.220  1.00  0.00    -0.204 A  
HETATM    8  C   UNL     1      -8.138   8.276  71.467  1.00  0.00    -0.158 A  
HETATM    9  C   UNL     1      -9.456   8.396  71.015  1.00  0.00    -0.212 A  
BRANCH   5  10
HETATM   10  O   UNL     1     -10.666   5.000  71.954  1.00  0.00    -0.195 OA 
BRANCH  10  11
HETATM   11  C   UNL     1     -11.222   4.753  73.235  1.00  0.00    -0.340 C  
HETATM   12  C   UNL     1     -10.971   3.293  73.570  1.00  0.00    -0.324 C  
ENDBRANCH  10  11
ENDBRANCH   5  10
BRANCH   9  13
HETATM   13  C   UNL     1      -9.985   9.624  70.353  1.00  0.00    -0.330 C  
HETATM   14  C   UNL     1     -10.156   9.783  69.021  1.00  0.00    -0.187 C  
HETATM   15  N   UNL     1      -9.811   8.762  68.132  1.00  0.00    -0.162 NA 
HETATM   16  C   UNL     1      -9.084   9.130  66.925  1.00  0.00    -0.135 C  
HETATM   17  H   UNL     1     -10.059   7.792  68.323  1.00  0.00     0.000 HD 
HETATM   18  C   UNL     1      -9.941  10.071  66.102  1.00  0.00    -0.322 C  
HETATM   19  C   UNL     1     -10.568  11.155  66.953  1.00  0.00    -0.304 A  
HETATM   20  C   UNL     1     -11.097  12.265  66.274  1.00  0.00    -0.342 A  
HETATM   21  C   UNL     1     -11.756  13.293  66.949  1.00  0.00    -0.388 A  
HETATM   22  C   UNL     1     -11.889  13.198  68.347  1.00  0.00    -0.351 A  
HETATM   23  C   UNL     1     -11.357  12.073  69.029  1.00  0.00    -0.331 A  
HETATM   24  C   UNL     1     -10.690  11.032  68.356  1.00  0.00    -0.240 A  
BRANCH  21  25
HETATM   25  O   UNL     1     -12.280  14.374  66.295  1.00  0.00    -0.412 OA 
BRANCH  25  26
HETATM   26  C   UNL     1     -11.746  14.745  65.027  1.00  0.00    -0.364 C  
HETATM   27  C   UNL     1     -11.015  16.065  65.195  1.00  0.00    -0.360 C  
ENDBRANCH  25  26
ENDBRANCH  21  25
BRANCH  22  28
HETATM   28  O   UNL     1     -12.512  14.096  69.191  1.00  0.00    -0.231 OA 
BRANCH  28  29
HETATM   29  C   UNL     1     -12.460  13.848  70.596  1.00  0.00    -0.366 C  
HETATM   30  C   UNL     1     -13.176  14.959  71.344  1.00  0.00    -0.462 C  
ENDBRANCH  28  29
ENDBRANCH  22  28
ENDBRANCH   9  13
ENDBRANCH   3   4
ENDBRANCH   2   3
TORSDOF 9
ENDMDL
MODEL       56
REMARK 921   NORMALIZED FREE ENERGY PREDICTED BY IDOCK:   -4.86 KCAL/MOL
REMARK 922        TOTAL FREE ENERGY PREDICTED BY IDOCK:   -8.29 KCAL/MOL
REMARK 923 INTER-LIGAND FREE ENERGY PREDICTED BY IDOCK:   -7.49 KCAL/MOL
REMARK 924 INTRA-LIGAND FREE ENERGY PREDICTED BY IDOCK:   -0.80 KCAL/MOL
REMARK 927      BINDING AFFINITY PREDICTED BY RF-SCORE:    0.00 PKD
ROOT
HETATM    1  C   UNL     1      -5.250  19.346  71.305  1.00  0.00    -0.317 C  
HETATM    2  C   UNL     1      -6.383  20.011  70.539  1.00  0.00    -0.262 C  
ENDROOT
BRANCH   2   3
HETATM    3  O   UNL     1      -6.220  19.749  69.148  1.00  0.00    -0.271 OA 
BRANCH   3   4
HETATM    4  C   UNL     1      -6.834  18.646  68.607  1.00  0.00    -0.275 A  
HETATM    5  C   UNL     1      -8.204  18.425  68.361  1.00  0.00    -0.312 A  
HETATM    6  C   UNL     1      -5.923  17.639  68.276  1.00  0.00    -0.161 A  
HETATM    7  C   UNL     1      -8.619  17.189  67.819  1.00  0.00    -0.216 A  
HETATM    8  C   UNL     1      -6.352  16.423  67.735  1.00  0.00    -0.160 A  
HETATM    9  C   UNL     1      -7.710  16.156  67.539  1.00  0.00    -0.170 A  
BRANCH   5  10
HETATM   10  O   UNL     1      -9.080  19.429  68.672  1.00  0.00    -0.361 OA 
BRANCH  10  11
HETATM   11  C   UNL     1     -10.342  19.469  68.024  1.00  0.00    -0.445 C  
HETATM   12  C   UNL     1     -10.159  20.206  66.709  1.00  0.00    -0.591 C  
ENDBRANCH  10  11
ENDBRANCH   5  10
BRANCH   9  13
HETATM   13  C   UNL     1      -8.222  14.849  67.034  1.00  0.00    -0.228 C  
HETATM   14  C   UNL     1      -8.211  13.685  67.724  1.00  0.00    -0.179 C  
HETATM   15  N   UNL     1      -7.674  13.626  69.012  1.00  0.00    -0.325 NA 
HETATM   16  C   UNL     1      -6.809  12.501  69.336  1.00  0.00     0.033 C  
HETATM   17  H   UNL     1      -7.880  14.348  69.702  1.00  0.00     0.000 HD 
HETATM   18  C   UNL     1      -7.601  11.216  69.201  1.00  0.00    -0.098 C  
HETATM   19  C   UNL     1      -8.416  11.186  67.925  1.00  0.00    -0.131 A  
HETATM   20  C   UNL     1      -8.917   9.936  67.524  1.00  0.00    -0.141 A  
HETATM   21  C   UNL     1      -9.735   9.799  66.402  1.00  0.00    -0.216 A  
HETATM   22  C   UNL     1     -10.059  10.953  65.665  1.00  0.00    -0.261 A  
HETATM   23  C   UNL     1      -9.555  12.214  66.075  1.00  0.00    -0.242 A  
HETATM   24  C   UNL     1      -8.729  12.362  67.206  1.00  0.00    -0.191 A  
BRANCH  21  25
HETATM   25  O   UNL     1     -10.232   8.587  66.008  1.00  0.00    -0.068 OA 
BRANCH  25  26
HETATM   26  C   UNL     1     -10.483   7.586  66.992  1.00  0.00    -0.338 C  
HETATM   27  C   UNL     1      -9.655   6.364  66.636  1.00  0.00    -0.194 C  
ENDBRANCH  25  26
ENDBRANCH  21  25
BRANCH  22  28
HETATM   28  O   UNL     1     -10.856  11.030  64.540  1.00  0.00    -0.313 OA 
BRANCH  28  29
HETATM   29  C   UNL     1     -10.748  12.192  63.716  1.00  0.00    -0.437 C  
HETATM   30  C   UNL     1     -12.128  12.768  63.450  1.00  0.00    -0.619 C  
ENDBRANCH  28  29
ENDBRANCH  22  28
ENDBRANCH   9  13
ENDBRANCH   3   4
ENDBRANCH   2   3
TORSDOF 9
ENDMDL
MODEL       57
REMARK 921   NORMALIZED FREE ENERGY PREDICTED BY IDOCK:   -4.83 KCAL/MOL
REMARK 922        TOTAL FREE ENERGY PREDICTED BY IDOCK:   -8.25 KCAL/MOL
REMARK 923 INTER-LIGAND FREE ENERGY PREDICTED BY IDOCK:   -8.21 KCAL/MOL
REMARK 924 INTRA-LIGAND FREE ENERGY PREDICTED BY IDOCK:   -0.05 KCAL/MOL
REMARK 927      BINDING AFFINITY PREDICTED BY RF-SCORE:    0.00 PKD
ROOT
HETATM    1  C   UNL     1      -7.739   4.437  71.360  1.00  0.00    -0.080 C  
HETATM    2  C   UNL     1      -9.074   3.945  71.895  1.00  0.00    -0.117 C  
ENDROOT
BRANCH   2   3
HETATM    3  O   UNL     1     -10.058   4.063  70.871  1.00  0.00    -0.149 OA 
BRANCH   3   4
HETATM    4  C   UNL     1     -10.210   5.272  70.237  1.00  0.00    -0.275 A  
HETATM    5  C   UNL     1     -10.821   6.450  70.711  1.00  0.00    -0.267 A  
HETATM    6  C   UNL     1      -9.664   5.271  68.950  1.00  0.00    -0.207 A  
HETATM    7  C   UNL     1     -10.892   7.581  69.867  1.00  0.00    -0.250 A  
HETATM    8  C   UNL     1      -9.739   6.402  68.131  1.00  0.00    -0.122 A  
HETATM    9  C   UNL     1     -10.394   7.562  68.555  1.00  0.00    -0.224 A  
BRANCH   5  10
HETATM   10  O   UNL     1     -11.332   6.440  71.981  1.00  0.00    -0.263 OA 
BRANCH  10  11
HETATM   11  C   UNL     1     -11.208   7.603  72.783  1.00  0.00    -0.377 C  
HETATM   12  C   UNL     1      -9.861   7.538  73.480  1.00  0.00    -0.372 C  
ENDBRANCH  10  11
ENDBRANCH   5  10
BRANCH   9  13
HETATM   13  C   UNL     1     -10.564   8.766  67.691  1.00  0.00    -0.281 C  
HETATM   14  C   UNL     1     -10.843  10.014  68.133  1.00  0.00    -0.255 C  
HETATM   15  N   UNL     1     -11.019  10.263  69.496  1.00  0.00    -0.241 NA 
HETATM   16  C   UNL     1     -12.136  11.109  69.893  1.00  0.00    -0.344 C  
HETATM   17  H   UNL     1     -10.387   9.865  70.190  1.00  0.00     0.000 HD 
HETATM   18  C   UNL     1     -11.955  12.483  69.280  1.00  0.00    -0.304 C  
HETATM   19  C   UNL     1     -11.563  12.404  67.820  1.00  0.00    -0.413 A  
HETATM   20  C   UNL     1     -11.695  13.582  67.066  1.00  0.00    -0.424 A  
HETATM   21  C   UNL     1     -11.302  13.644  65.728  1.00  0.00    -0.306 A  
HETATM   22  C   UNL     1     -10.759  12.489  65.135  1.00  0.00    -0.292 A  
HETATM   23  C   UNL     1     -10.624  11.302  65.902  1.00  0.00    -0.309 A  
HETATM   24  C   UNL     1     -11.017  11.230  67.252  1.00  0.00    -0.342 A  
BRANCH  21  25
HETATM   25  O   UNL     1     -11.421  14.788  64.988  1.00  0.00    -0.361 OA 
BRANCH  25  26
HETATM   26  C   UNL     1     -10.849  15.997  65.481  1.00  0.00    -0.292 C  
HETATM   27  C   UNL     1      -9.371  15.751  65.723  1.00  0.00    -0.298 C  
ENDBRANCH  25  26
ENDBRANCH  21  25
BRANCH  22  28
HETATM   28  O   UNL     1     -10.304  12.349  63.839  1.00  0.00    -0.384 OA 
BRANCH  28  29
HETATM   29  C   UNL     1     -10.176  11.029  63.308  1.00  0.00    -0.303 C  
HETATM   30  C   UNL     1      -8.973  10.959  62.383  1.00  0.00    -0.353 C  
ENDBRANCH  28  29
ENDBRANCH  22  28
ENDBRANCH   9  13
ENDBRANCH   3   4
ENDBRANCH   2   3
TORSDOF 9
ENDMDL
MODEL       58
REMARK 921   NORMALIZED FREE ENERGY PREDICTED BY IDOCK:   -4.83 KCAL/MOL
REMARK 922        TOTAL FREE ENERGY PREDICTED BY IDOCK:   -8.25 KCAL/MOL
REMARK 923 INTER-LIGAND FREE ENERGY PREDICTED BY IDOCK:   -7.42 KCAL/MOL
REMARK 924 INTRA-LIGAND FREE ENERGY PREDICTED BY IDOCK:   -0.83 KCAL/MOL
REMARK 927      BINDING AFFINITY PREDICTED BY RF-SCORE:    0.00 PKD
ROOT
HETATM    1  C   UNL     1      -9.500  17.555  66.531  1.00  0.00    -0.285 C  
HETATM    2  C   UNL     1      -9.725  16.249  65.786  1.00  0.00    -0.264 C  
ENDROOT
BRANCH   2   3
HETATM    3  O   UNL     1     -10.998  15.721  66.147  1.00  0.00    -0.280 OA 
BRANCH   3   4
HETATM    4  C   UNL     1     -11.053  14.501  66.776  1.00  0.00    -0.325 A  
HETATM    5  C   UNL     1     -10.884  14.200  68.142  1.00  0.00    -0.248 A  
HETATM    6  C   UNL     1     -11.316  13.455  65.887  1.00  0.00    -0.327 A  
HETATM    7  C   UNL     1     -10.954  12.855  68.568  1.00  0.00    -0.288 A  
HETATM    8  C   UNL     1     -11.387  12.130  66.328  1.00  0.00    -0.411 A  
HETATM    9  C   UNL     1     -11.162  11.799  67.667  1.00  0.00    -0.345 A  
BRANCH   5  10
HETATM   10  O   UNL     1     -10.647  15.238  69.002  1.00  0.00    -0.227 OA 
BRANCH  10  11
HETATM   11  C   UNL     1     -11.727  16.071  69.391  1.00  0.00    -0.284 C  
HETATM   12  C   UNL     1     -12.141  15.660  70.793  1.00  0.00    -0.454 C  
ENDBRANCH  10  11
ENDBRANCH   5  10
BRANCH   9  13
HETATM   13  C   UNL     1     -11.153  10.395  68.172  1.00  0.00    -0.344 C  
HETATM   14  C   UNL     1     -10.263   9.441  67.817  1.00  0.00    -0.222 C  
HETATM   15  N   UNL     1      -9.254   9.718  66.892  1.00  0.00    -0.145 NA 
HETATM   16  C   UNL     1      -8.993   8.730  65.854  1.00  0.00    -0.195 C  
HETATM   17  H   UNL     1      -8.717  10.584  66.941  1.00  0.00     0.000 HD 
HETATM   18  C   UNL     1      -8.558   7.433  66.507  1.00  0.00    -0.134 C  
HETATM   19  C   UNL     1      -9.443   7.066  67.680  1.00  0.00    -0.134 A  
HETATM   20  C   UNL     1      -9.356   5.744  68.147  1.00  0.00    -0.114 A  
HETATM   21  C   UNL     1     -10.075   5.312  69.262  1.00  0.00    -0.230 A  
HETATM   22  C   UNL     1     -10.901   6.237  69.927  1.00  0.00    -0.335 A  
HETATM   23  C   UNL     1     -10.982   7.573  69.454  1.00  0.00    -0.099 A  
HETATM   24  C   UNL     1     -10.261   8.018  68.330  1.00  0.00    -0.239 A  
BRANCH  21  25
HETATM   25  O   UNL     1      -9.992   4.028  69.728  1.00  0.00    -0.180 OA 
BRANCH  25  26
HETATM   26  C   UNL     1      -9.067   3.725  70.770  1.00  0.00    -0.109 C  
HETATM   27  C   UNL     1      -9.850   3.153  71.938  1.00  0.00    -0.238 C  
ENDBRANCH  25  26
ENDBRANCH  21  25
BRANCH  22  28
HETATM   28  O   UNL     1     -11.677   6.012  71.046  1.00  0.00    -0.209 OA 
BRANCH  28  29
HETATM   29  C   UNL     1     -12.253   7.142  71.705  1.00  0.00    -0.344 C  
HETATM   30  C   UNL     1     -13.762   7.125  71.535  1.00  0.00    -0.413 C  
ENDBRANCH  28  29
ENDBRANCH  22  28
ENDBRANCH   9  13
ENDBRANCH   3   4
ENDBRANCH   2   3
TORSDOF 9
ENDMDL
MODEL       59
REMARK 921   NORMALIZED FREE ENERGY PREDICTED BY IDOCK:   -4.81 KCAL/MOL
REMARK 922        TOTAL FREE ENERGY PREDICTED BY IDOCK:   -8.23 KCAL/MOL
REMARK 923 INTER-LIGAND FREE ENERGY PREDICTED BY IDOCK:   -7.70 KCAL/MOL
REMARK 924 INTRA-LIGAND FREE ENERGY PREDICTED BY IDOCK:   -0.53 KCAL/MOL
REMARK 927      BINDING AFFINITY PREDICTED BY RF-SCORE:    0.00 PKD
ROOT
HETATM    1  C   UNL     1     -10.961   3.509  73.479  1.00  0.00    -0.330 C  
HETATM    2  C   UNL     1      -9.603   4.152  73.713  1.00  0.00    -0.105 C  
ENDROOT
BRANCH   2   3
HETATM    3  O   UNL     1      -8.916   4.253  72.469  1.00  0.00    -0.109 OA 
BRANCH   3   4
HETATM    4  C   UNL     1      -9.304   5.224  71.577  1.00  0.00    -0.148 A  
HETATM    5  C   UNL     1      -9.780   5.076  70.260  1.00  0.00    -0.215 A  
HETATM    6  C   UNL     1      -9.188   6.512  72.108  1.00  0.00    -0.139 A  
HETATM    7  C   UNL     1     -10.096   6.228  69.505  1.00  0.00    -0.217 A  
HETATM    8  C   UNL     1      -9.510   7.640  71.348  1.00  0.00    -0.166 A  
HETATM    9  C   UNL     1      -9.926   7.524  70.018  1.00  0.00    -0.186 A  
BRANCH   5  10
HETATM   10  O   UNL     1      -9.907   3.808  69.763  1.00  0.00    -0.176 OA 
BRANCH  10  11
HETATM   11  C   UNL     1      -9.457   3.535  68.445  1.00  0.00    -0.145 C  
HETATM   12  C   UNL     1      -9.444   2.027  68.268  1.00  0.00    -0.231 C  
ENDBRANCH  10  11
ENDBRANCH   5  10
BRANCH   9  13
HETATM   13  C   UNL     1     -10.209   8.699  69.145  1.00  0.00    -0.215 C  
HETATM   14  C   UNL     1     -10.749   9.869  69.557  1.00  0.00    -0.242 C  
HETATM   15  N   UNL     1     -11.114  10.052  70.893  1.00  0.00    -0.339 NA 
HETATM   16  C   UNL     1     -12.399  10.681  71.166  1.00  0.00    -0.400 C  
HETATM   17  H   UNL     1     -10.502   9.755  71.652  1.00  0.00     0.000 HD 
HETATM   18  C   UNL     1     -12.396  12.080  70.582  1.00  0.00    -0.394 C  
HETATM   19  C   UNL     1     -11.839  12.104  69.174  1.00  0.00    -0.361 A  
HETATM   20  C   UNL     1     -12.093  13.258  68.414  1.00  0.00    -0.244 A  
HETATM   21  C   UNL     1     -11.573  13.418  67.129  1.00  0.00    -0.358 A  
HETATM   22  C   UNL     1     -10.775  12.389  66.596  1.00  0.00    -0.235 A  
HETATM   23  C   UNL     1     -10.518  11.227  67.369  1.00  0.00    -0.247 A  
HETATM   24  C   UNL     1     -11.037  11.057  68.666  1.00  0.00    -0.294 A  
BRANCH  21  25
HETATM   25  O   UNL     1     -11.809  14.541  66.384  1.00  0.00    -0.383 OA 
BRANCH  25  26
HETATM   26  C   UNL     1     -10.765  15.496  66.217  1.00  0.00    -0.307 C  
HETATM   27  C   UNL     1     -10.708  16.350  67.471  1.00  0.00    -0.298 C  
ENDBRANCH  25  26
ENDBRANCH  21  25
BRANCH  22  28
HETATM   28  O   UNL     1     -10.163  12.361  65.358  1.00  0.00    -0.271 OA 
BRANCH  28  29
HETATM   29  C   UNL     1     -10.803  11.634  64.307  1.00  0.00    -0.359 C  
HETATM   30  C   UNL     1     -11.633  12.580  63.457  1.00  0.00    -0.584 C  
ENDBRANCH  28  29
ENDBRANCH  22  28
ENDBRANCH   9  13
ENDBRANCH   3   4
ENDBRANCH   2   3
TORSDOF 9
ENDMDL
MODEL       60
REMARK 921   NORMALIZED FREE ENERGY PREDICTED BY IDOCK:   -4.79 KCAL/MOL
REMARK 922        TOTAL FREE ENERGY PREDICTED BY IDOCK:   -8.19 KCAL/MOL
REMARK 923 INTER-LIGAND FREE ENERGY PREDICTED BY IDOCK:   -7.28 KCAL/MOL
REMARK 924 INTRA-LIGAND FREE ENERGY PREDICTED BY IDOCK:   -0.91 KCAL/MOL
REMARK 927      BINDING AFFINITY PREDICTED BY RF-SCORE:    0.00 PKD
ROOT
HETATM    1  C   UNL     1      -6.684  18.675  66.704  1.00  0.00    -0.218 C  
HETATM    2  C   UNL     1      -8.114  18.166  66.795  1.00  0.00    -0.246 C  
ENDROOT
BRANCH   2   3
HETATM    3  O   UNL     1      -8.290  17.107  65.858  1.00  0.00    -0.527 OA 
BRANCH   3   4
HETATM    4  C   UNL     1      -8.805  15.912  66.301  1.00  0.00    -0.351 A  
HETATM    5  C   UNL     1     -10.106  15.396  66.144  1.00  0.00    -0.305 A  
HETATM    6  C   UNL     1      -7.860  15.149  66.993  1.00  0.00    -0.197 A  
HETATM    7  C   UNL     1     -10.428  14.144  66.714  1.00  0.00    -0.277 A  
HETATM    8  C   UNL     1      -8.195  13.910  67.546  1.00  0.00    -0.196 A  
HETATM    9  C   UNL     1      -9.495  13.404  67.458  1.00  0.00    -0.219 A  
BRANCH   5  10
HETATM   10  O   UNL     1     -11.014  16.146  65.446  1.00  0.00    -0.308 OA 
BRANCH  10  11
HETATM   11  C   UNL     1     -11.302  15.804  64.100  1.00  0.00    -0.020 C  
HETATM   12  C   UNL     1     -12.271  14.635  64.122  1.00  0.00    -0.343 C  
ENDBRANCH  10  11
ENDBRANCH   5  10
BRANCH   9  13
HETATM   13  C   UNL     1      -9.919  12.122  68.094  1.00  0.00    -0.201 C  
HETATM   14  C   UNL     1      -9.704  10.888  67.586  1.00  0.00    -0.171 C  
HETATM   15  N   UNL     1      -9.057  10.726  66.359  1.00  0.00    -0.167 NA 
HETATM   16  C   UNL     1      -9.618   9.767  65.417  1.00  0.00    -0.292 C  
HETATM   17  H   UNL     1      -8.220  11.261  66.130  1.00  0.00     0.000 HD 
HETATM   18  C   UNL     1      -9.588   8.387  66.042  1.00  0.00    -0.196 C  
HETATM   19  C   UNL     1     -10.084   8.403  67.472  1.00  0.00    -0.279 A  
HETATM   20  C   UNL     1     -10.420   7.162  68.039  1.00  0.00    -0.251 A  
HETATM   21  C   UNL     1     -10.826   7.049  69.369  1.00  0.00    -0.227 A  
HETATM   22  C   UNL     1     -10.893   8.217  70.151  1.00  0.00    -0.241 A  
HETATM   23  C   UNL     1     -10.549   9.468  69.576  1.00  0.00    -0.238 A  
HETATM   24  C   UNL     1     -10.138   9.592  68.235  1.00  0.00    -0.203 A  
BRANCH  21  25
HETATM   25  O   UNL     1     -11.148   5.844  69.931  1.00  0.00    -0.366 OA 
BRANCH  25  26
HETATM   26  C   UNL     1     -10.229   4.759  69.825  1.00  0.00    -0.148 C  
HETATM   27  C   UNL     1      -9.107   5.000  70.819  1.00  0.00    -0.174 C  
ENDBRANCH  25  26
ENDBRANCH  21  25
BRANCH  22  28
HETATM   28  O   UNL     1     -11.257   8.315  71.479  1.00  0.00    -0.244 OA 
BRANCH  28  29
HETATM   29  C   UNL     1     -10.223   8.283  72.465  1.00  0.00    -0.316 C  
HETATM   30  C   UNL     1     -10.612   7.340  73.591  1.00  0.00    -0.353 C  
ENDBRANCH  28  29
ENDBRANCH  22  28
ENDBRANCH   9  13
ENDBRANCH   3   4
ENDBRANCH   2   3
TORSDOF 9
ENDMDL
MODEL       61
REMARK 921   NORMALIZED FREE ENERGY PREDICTED BY IDOCK:   -4.78 KCAL/MOL
REMARK 922        TOTAL FREE ENERGY PREDICTED BY IDOCK:   -8.18 KCAL/MOL
REMARK 923 INTER-LIGAND FREE ENERGY PREDICTED BY IDOCK:   -7.99 KCAL/MOL
REMARK 924 INTRA-LIGAND FREE ENERGY PREDICTED BY IDOCK:   -0.19 KCAL/MOL
REMARK 927      BINDING AFFINITY PREDICTED BY RF-SCORE:    0.00 PKD
ROOT
HETATM    1  C   UNL     1     -12.274  12.717  63.355  1.00  0.00    -0.610 C  
HETATM    2  C   UNL     1     -12.225  13.800  64.421  1.00  0.00    -0.399 C  
ENDROOT
BRANCH   2   3
HETATM    3  O   UNL     1     -11.052  13.622  65.210  1.00  0.00    -0.291 OA 
BRANCH   3   4
HETATM    4  C   UNL     1     -11.094  12.750  66.270  1.00  0.00    -0.288 A  
HETATM    5  C   UNL     1     -11.662  12.934  67.547  1.00  0.00    -0.367 A  
HETATM    6  C   UNL     1     -10.476  11.530  65.981  1.00  0.00    -0.298 A  
HETATM    7  C   UNL     1     -11.562  11.900  68.504  1.00  0.00    -0.375 A  
HETATM    8  C   UNL     1     -10.391  10.516  66.940  1.00  0.00    -0.293 A  
HETATM    9  C   UNL     1     -10.891  10.697  68.233  1.00  0.00    -0.287 A  
BRANCH   5  10
HETATM   10  O   UNL     1     -12.281  14.126  67.806  1.00  0.00    -0.334 OA 
BRANCH  10  11
HETATM   11  C   UNL     1     -11.801  14.937  68.867  1.00  0.00    -0.301 C  
HETATM   12  C   UNL     1     -11.047  16.101  68.249  1.00  0.00    -0.348 C  
ENDBRANCH  10  11
ENDBRANCH   5  10
BRANCH   9  13
HETATM   13  C   UNL     1     -10.759   9.674  69.311  1.00  0.00    -0.246 C  
HETATM   14  C   UNL     1     -10.526   8.357  69.115  1.00  0.00    -0.206 C  
HETATM   15  N   UNL     1     -10.409   7.839  67.824  1.00  0.00    -0.211 NA 
HETATM   16  C   UNL     1     -11.098   6.591  67.527  1.00  0.00    -0.308 C  
HETATM   17  H   UNL     1      -9.859   8.319  67.112  1.00  0.00     0.000 HD 
HETATM   18  C   UNL     1     -10.546   5.498  68.421  1.00  0.00    -0.210 C  
HETATM   19  C   UNL     1     -10.418   5.955  69.859  1.00  0.00    -0.337 A  
HETATM   20  C   UNL     1     -10.245   4.953  70.827  1.00  0.00    -0.276 A  
HETATM   21  C   UNL     1     -10.050   5.260  72.174  1.00  0.00    -0.190 A  
HETATM   22  C   UNL     1     -10.028   6.614  72.556  1.00  0.00    -0.170 A  
HETATM   23  C   UNL     1     -10.200   7.624  71.574  1.00  0.00    -0.212 A  
HETATM   24  C   UNL     1     -10.397   7.323  70.213  1.00  0.00    -0.219 A  
BRANCH  21  25
HETATM   25  O   UNL     1      -9.874   4.290  73.123  1.00  0.00    -0.129 OA 
BRANCH  25  26
HETATM   26  C   UNL     1     -11.011   3.780  73.815  1.00  0.00    -0.227 C  
HETATM   27  C   UNL     1     -10.849   2.275  73.933  1.00  0.00    -0.265 C  
ENDBRANCH  25  26
ENDBRANCH  21  25
BRANCH  22  28
HETATM   28  O   UNL     1      -9.840   7.122  73.826  1.00  0.00    -0.256 OA 
BRANCH  28  29
HETATM   29  C   UNL     1      -8.543   7.613  74.170  1.00  0.00    -0.247 C  
HETATM   30  C   UNL     1      -7.559   6.458  74.254  1.00  0.00    -0.091 C  
ENDBRANCH  28  29
ENDBRANCH  22  28
ENDBRANCH   9  13
ENDBRANCH   3   4
ENDBRANCH   2   3
TORSDOF 9
ENDMDL
MODEL       62
REMARK 921   NORMALIZED FREE ENERGY PREDICTED BY IDOCK:   -4.75 KCAL/MOL
REMARK 922        TOTAL FREE ENERGY PREDICTED BY IDOCK:   -8.13 KCAL/MOL
REMARK 923 INTER-LIGAND FREE ENERGY PREDICTED BY IDOCK:   -7.08 KCAL/MOL
REMARK 924 INTRA-LIGAND FREE ENERGY PREDICTED BY IDOCK:   -1.06 KCAL/MOL
REMARK 927      BINDING AFFINITY PREDICTED BY RF-SCORE:    0.00 PKD
ROOT
HETATM    1  C   UNL     1     -11.085   5.161  73.208  1.00  0.00    -0.392 C  
HETATM    2  C   UNL     1     -10.513   5.162  71.799  1.00  0.00    -0.200 C  
ENDROOT
BRANCH   2   3
HETATM    3  O   UNL     1      -9.460   6.119  71.726  1.00  0.00    -0.152 OA 
BRANCH   3   4
HETATM    4  C   UNL     1      -9.610   7.205  70.899  1.00  0.00    -0.167 A  
HETATM    5  C   UNL     1      -9.389   7.299  69.510  1.00  0.00    -0.152 A  
HETATM    6  C   UNL     1     -10.044   8.342  71.587  1.00  0.00    -0.308 A  
HETATM    7  C   UNL     1      -9.581   8.539  68.861  1.00  0.00    -0.160 A  
HETATM    8  C   UNL     1     -10.233   9.560  70.927  1.00  0.00    -0.356 A  
HETATM    9  C   UNL     1      -9.962   9.695  69.562  1.00  0.00    -0.223 A  
BRANCH   5  10
HETATM   10  O   UNL     1      -8.984   6.172  68.848  1.00  0.00    -0.124 OA 
BRANCH  10  11
HETATM   11  C   UNL     1      -9.933   5.438  68.091  1.00  0.00    -0.158 C  
HETATM   12  C   UNL     1      -9.602   3.964  68.244  1.00  0.00    -0.178 C  
ENDBRANCH  10  11
ENDBRANCH   5  10
BRANCH   9  13
HETATM   13  C   UNL     1     -10.077  10.989  68.829  1.00  0.00    -0.214 C  
HETATM   14  C   UNL     1      -9.043  11.794  68.494  1.00  0.00    -0.144 C  
HETATM   15  N   UNL     1      -7.735  11.457  68.849  1.00  0.00    -0.218 NA 
HETATM   16  C   UNL     1      -6.886  12.509  69.391  1.00  0.00     0.033 C  
HETATM   17  H   UNL     1      -7.386  10.506  68.733  1.00  0.00     0.000 HD 
HETATM   18  C   UNL     1      -6.724  13.598  68.349  1.00  0.00    -0.100 C  
HETATM   19  C   UNL     1      -8.044  13.964  67.704  1.00  0.00    -0.183 A  
HETATM   20  C   UNL     1      -8.082  15.169  66.983  1.00  0.00    -0.240 A  
HETATM   21  C   UNL     1      -9.225  15.575  66.293  1.00  0.00    -0.329 A  
HETATM   22  C   UNL     1     -10.360  14.743  66.328  1.00  0.00    -0.297 A  
HETATM   23  C   UNL     1     -10.316  13.525  67.054  1.00  0.00    -0.252 A  
HETATM   24  C   UNL     1      -9.167  13.107  67.753  1.00  0.00    -0.203 A  
BRANCH  21  25
HETATM   25  O   UNL     1      -9.269  16.743  65.583  1.00  0.00    -0.503 OA 
BRANCH  25  26
HETATM   26  C   UNL     1      -9.183  17.984  66.280  1.00  0.00    -0.187 C  
HETATM   27  C   UNL     1     -10.514  18.227  66.968  1.00  0.00    -0.407 C  
ENDBRANCH  25  26
ENDBRANCH  21  25
BRANCH  22  28
HETATM   28  O   UNL     1     -11.574  14.958  65.707  1.00  0.00    -0.325 OA 
BRANCH  28  29
HETATM   29  C   UNL     1     -12.293  13.823  65.221  1.00  0.00    -0.464 C  
HETATM   30  C   UNL     1     -11.912  13.551  63.776  1.00  0.00    -0.475 C  
ENDBRANCH  28  29
ENDBRANCH  22  28
ENDBRANCH   9  13
ENDBRANCH   3   4
ENDBRANCH   2   3
TORSDOF 9
ENDMDL
MODEL       63
REMARK 921   NORMALIZED FREE ENERGY PREDICTED BY IDOCK:   -4.75 KCAL/MOL
REMARK 922        TOTAL FREE ENERGY PREDICTED BY IDOCK:   -8.13 KCAL/MOL
REMARK 923 INTER-LIGAND FREE ENERGY PREDICTED BY IDOCK:   -7.59 KCAL/MOL
REMARK 924 INTRA-LIGAND FREE ENERGY PREDICTED BY IDOCK:   -0.54 KCAL/MOL
REMARK 927      BINDING AFFINITY PREDICTED BY RF-SCORE:    0.00 PKD
ROOT
HETATM    1  C   UNL     1      -5.534  20.378  66.661  1.00  0.00    -0.189 C  
HETATM    2  C   UNL     1      -6.900  20.936  67.030  1.00  0.00    -0.333 C  
ENDROOT
BRANCH   2   3
HETATM    3  O   UNL     1      -7.516  20.069  67.978  1.00  0.00    -0.296 OA 
BRANCH   3   4
HETATM    4  C   UNL     1      -7.759  18.765  67.621  1.00  0.00    -0.235 A  
HETATM    5  C   UNL     1      -8.570  18.268  66.583  1.00  0.00    -0.273 A  
HETATM    6  C   UNL     1      -7.079  17.855  68.436  1.00  0.00    -0.245 A  
HETATM    7  C   UNL     1      -8.699  16.871  66.414  1.00  0.00    -0.321 A  
HETATM    8  C   UNL     1      -7.215  16.476  68.251  1.00  0.00    -0.159 A  
HETATM    9  C   UNL     1      -8.062  15.956  67.268  1.00  0.00    -0.213 A  
BRANCH   5  10
HETATM   10  O   UNL     1      -9.212  19.172  65.782  1.00  0.00    -0.383 OA 
BRANCH  10  11
HETATM   11  C   UNL     1     -10.611  19.354  65.930  1.00  0.00    -0.459 C  
HETATM   12  C   UNL     1     -10.889  19.598  67.402  1.00  0.00    -0.497 C  
ENDBRANCH  10  11
ENDBRANCH   5  10
BRANCH   9  13
HETATM   13  C   UNL     1      -8.297  14.495  67.080  1.00  0.00    -0.226 C  
HETATM   14  C   UNL     1      -9.437  13.839  67.393  1.00  0.00    -0.224 C  
HETATM   15  N   UNL     1     -10.517  14.519  67.962  1.00  0.00    -0.234 NA 
HETATM   16  C   UNL     1     -11.200  13.892  69.084  1.00  0.00    -0.269 C  
HETATM   17  H   UNL     1     -10.816  15.425  67.602  1.00  0.00     0.000 HD 
HETATM   18  C   UNL     1     -11.787  12.571  68.628  1.00  0.00    -0.340 C  
HETATM   19  C   UNL     1     -10.798  11.764  67.813  1.00  0.00    -0.258 A  
HETATM   20  C   UNL     1     -11.095  10.404  67.625  1.00  0.00    -0.361 A  
HETATM   21  C   UNL     1     -10.291   9.580  66.837  1.00  0.00    -0.237 A  
HETATM   22  C   UNL     1      -9.157  10.141  66.221  1.00  0.00    -0.154 A  
HETATM   23  C   UNL     1      -8.862  11.517  66.411  1.00  0.00    -0.193 A  
HETATM   24  C   UNL     1      -9.668  12.356  67.203  1.00  0.00    -0.207 A  
BRANCH  21  25
HETATM   25  O   UNL     1     -10.576   8.256  66.643  1.00  0.00    -0.268 OA 
BRANCH  25  26
HETATM   26  C   UNL     1     -10.692   7.397  67.774  1.00  0.00    -0.179 C  
HETATM   27  C   UNL     1     -10.711   5.964  67.273  1.00  0.00    -0.380 C  
ENDBRANCH  25  26
ENDBRANCH  21  25
BRANCH  22  28
HETATM   28  O   UNL     1      -8.248   9.503  65.401  1.00  0.00    -0.119 OA 
BRANCH  28  29
HETATM   29  C   UNL     1      -8.568   9.370  64.015  1.00  0.00    -0.205 C  
HETATM   30  C   UNL     1      -7.424   9.900  63.168  1.00  0.00    -0.132 C  
ENDBRANCH  28  29
ENDBRANCH  22  28
ENDBRANCH   9  13
ENDBRANCH   3   4
ENDBRANCH   2   3
TORSDOF 9
ENDMDL
MODEL       64
REMARK 921   NORMALIZED FREE ENERGY PREDICTED BY IDOCK:   -4.72 KCAL/MOL
REMARK 922        TOTAL FREE ENERGY PREDICTED BY IDOCK:   -8.08 KCAL/MOL
REMARK 923 INTER-LIGAND FREE ENERGY PREDICTED BY IDOCK:   -7.88 KCAL/MOL
REMARK 924 INTRA-LIGAND FREE ENERGY PREDICTED BY IDOCK:   -0.21 KCAL/MOL
REMARK 927      BINDING AFFINITY PREDICTED BY RF-SCORE:    0.00 PKD
ROOT
HETATM    1  C   UNL     1     -12.111  16.101  72.582  1.00  0.00    -0.652 C  
HETATM    2  C   UNL     1     -13.356  15.231  72.520  1.00  0.00    -0.453 C  
ENDROOT
BRANCH   2   3
HETATM    3  O   UNL     1     -13.425  14.609  71.240  1.00  0.00    -0.362 OA 
BRANCH   3   4
HETATM    4  C   UNL     1     -12.913  13.343  71.091  1.00  0.00    -0.236 A  
HETATM    5  C   UNL     1     -11.956  12.878  70.168  1.00  0.00    -0.301 A  
HETATM    6  C   UNL     1     -13.453  12.439  72.011  1.00  0.00    -0.460 A  
HETATM    7  C   UNL     1     -11.593  11.513  70.176  1.00  0.00    -0.336 A  
HETATM    8  C   UNL     1     -13.078  11.092  72.007  1.00  0.00    -0.433 A  
HETATM    9  C   UNL     1     -12.177  10.593  71.062  1.00  0.00    -0.498 A  
BRANCH   5  10
HETATM   10  O   UNL     1     -11.422  13.780  69.289  1.00  0.00    -0.262 OA 
BRANCH  10  11
HETATM   11  C   UNL     1     -12.067  13.994  68.043  1.00  0.00    -0.277 C  
HETATM   12  C   UNL     1     -11.619  12.891  67.100  1.00  0.00    -0.421 C  
ENDBRANCH  10  11
ENDBRANCH   5  10
BRANCH   9  13
HETATM   13  C   UNL     1     -11.803   9.152  70.971  1.00  0.00    -0.354 C  
HETATM   14  C   UNL     1     -11.048   8.599  69.995  1.00  0.00    -0.157 C  
HETATM   15  N   UNL     1     -10.562   9.379  68.943  1.00  0.00    -0.238 NA 
HETATM   16  C   UNL     1     -10.659   8.839  67.594  1.00  0.00    -0.213 C  
HETATM   17  H   UNL     1     -10.153  10.297  69.114  1.00  0.00     0.000 HD 
HETATM   18  C   UNL     1      -9.850   7.559  67.517  1.00  0.00    -0.209 C  
HETATM   19  C   UNL     1     -10.109   6.654  68.704  1.00  0.00    -0.169 A  
HETATM   20  C   UNL     1      -9.690   5.319  68.583  1.00  0.00    -0.199 A  
HETATM   21  C   UNL     1      -9.817   4.412  69.636  1.00  0.00    -0.202 A  
HETATM   22  C   UNL     1     -10.380   4.863  70.844  1.00  0.00    -0.155 A  
HETATM   23  C   UNL     1     -10.799   6.214  70.963  1.00  0.00    -0.338 A  
HETATM   24  C   UNL     1     -10.674   7.136  69.906  1.00  0.00    -0.258 A  
BRANCH  21  25
HETATM   25  O   UNL     1      -9.406   3.112  69.530  1.00  0.00    -0.150 OA 
BRANCH  25  26
HETATM   26  C   UNL     1      -8.024   2.804  69.701  1.00  0.00    -0.041 C  
HETATM   27  C   UNL     1      -7.868   2.079  71.026  1.00  0.00    -0.042 C  
ENDBRANCH  25  26
ENDBRANCH  21  25
BRANCH  22  28
HETATM   28  O   UNL     1     -10.581   4.132  71.998  1.00  0.00    -0.064 OA 
BRANCH  28  29
HETATM   29  C   UNL     1      -9.762   4.424  73.132  1.00  0.00    -0.135 C  
HETATM   30  C   UNL     1     -10.553   4.204  74.410  1.00  0.00    -0.262 C  
ENDBRANCH  28  29
ENDBRANCH  22  28
ENDBRANCH   9  13
ENDBRANCH   3   4
ENDBRANCH   2   3
TORSDOF 9
ENDMDL
MODEL       65
REMARK 921   NORMALIZED FREE ENERGY PREDICTED BY IDOCK:   -4.69 KCAL/MOL
REMARK 922        TOTAL FREE ENERGY PREDICTED BY IDOCK:   -8.03 KCAL/MOL
REMARK 923 INTER-LIGAND FREE ENERGY PREDICTED BY IDOCK:   -7.30 KCAL/MOL
REMARK 924 INTRA-LIGAND FREE ENERGY PREDICTED BY IDOCK:   -0.73 KCAL/MOL
REMARK 927      BINDING AFFINITY PREDICTED BY RF-SCORE:    0.00 PKD
ROOT
HETATM    1  C   UNL     1      -6.511   6.369  71.488  1.00  0.00    -0.050 C  
HETATM    2  C   UNL     1      -7.903   5.845  71.801  1.00  0.00    -0.103 C  
ENDROOT
BRANCH   2   3
HETATM    3  O   UNL     1      -8.736   6.027  70.659  1.00  0.00    -0.135 OA 
BRANCH   3   4
HETATM    4  C   UNL     1      -8.999   7.305  70.229  1.00  0.00    -0.151 A  
HETATM    5  C   UNL     1      -9.670   8.345  70.901  1.00  0.00    -0.174 A  
HETATM    6  C   UNL     1      -8.507   7.546  68.943  1.00  0.00    -0.129 A  
HETATM    7  C   UNL     1      -9.855   9.585  70.250  1.00  0.00    -0.313 A  
HETATM    8  C   UNL     1      -8.694   8.781  68.315  1.00  0.00    -0.135 A  
HETATM    9  C   UNL     1      -9.411   9.808  68.937  1.00  0.00    -0.158 A  
BRANCH   5  10
HETATM   10  O   UNL     1     -10.127   8.099  72.168  1.00  0.00    -0.208 OA 
BRANCH  10  11
HETATM   11  C   UNL     1     -11.515   8.220  72.435  1.00  0.00    -0.394 C  
HETATM   12  C   UNL     1     -12.214   7.041  71.782  1.00  0.00    -0.387 C  
ENDBRANCH  10  11
ENDBRANCH   5  10
BRANCH   9  13
HETATM   13  C   UNL     1      -9.701  11.116  68.280  1.00  0.00    -0.190 C  
HETATM   14  C   UNL     1      -8.802  12.107  68.078  1.00  0.00    -0.181 C  
HETATM   15  N   UNL     1      -7.482  11.970  68.514  1.00  0.00    -0.113 NA 
HETATM   16  C   UNL     1      -6.868  13.106  69.186  1.00  0.00    -0.062 C  
HETATM   17  H   UNL     1      -6.967  11.103  68.366  1.00  0.00     0.000 HD 
HETATM   18  C   UNL     1      -6.828  14.282  68.230  1.00  0.00    -0.109 C  
HETATM   19  C   UNL     1      -8.145  14.467  67.507  1.00  0.00    -0.204 A  
HETATM   20  C   UNL     1      -8.344  15.699  66.861  1.00  0.00    -0.287 A  
HETATM   21  C   UNL     1      -9.491  15.957  66.110  1.00  0.00    -0.340 A  
HETATM   22  C   UNL     1     -10.463  14.946  66.003  1.00  0.00    -0.316 A  
HETATM   23  C   UNL     1     -10.257  13.701  66.653  1.00  0.00    -0.276 A  
HETATM   24  C   UNL     1      -9.103  13.432  67.413  1.00  0.00    -0.216 A  
BRANCH  21  25
HETATM   25  O   UNL     1      -9.690  17.151  65.473  1.00  0.00    -0.532 OA 
BRANCH  25  26
HETATM   26  C   UNL     1     -10.416  18.181  66.139  1.00  0.00    -0.364 C  
HETATM   27  C   UNL     1      -9.476  19.355  66.348  1.00  0.00    -0.432 C  
ENDBRANCH  25  26
ENDBRANCH  21  25
BRANCH  22  28
HETATM   28  O   UNL     1     -11.652  14.999  65.302  1.00  0.00    -0.331 OA 
BRANCH  28  29
HETATM   29  C   UNL     1     -12.398  13.790  65.148  1.00  0.00    -0.448 C  
HETATM   30  C   UNL     1     -12.070  13.148  63.811  1.00  0.00    -0.563 C  
ENDBRANCH  28  29
ENDBRANCH  22  28
ENDBRANCH   9  13
ENDBRANCH   3   4
ENDBRANCH   2   3
TORSDOF 9
ENDMDL
MODEL       66
REMARK 921   NORMALIZED FREE ENERGY PREDICTED BY IDOCK:   -4.67 KCAL/MOL
REMARK 922        TOTAL FREE ENERGY PREDICTED BY IDOCK:   -8.00 KCAL/MOL
REMARK 923 INTER-LIGAND FREE ENERGY PREDICTED BY IDOCK:   -7.39 KCAL/MOL
REMARK 924 INTRA-LIGAND FREE ENERGY PREDICTED BY IDOCK:   -0.61 KCAL/MOL
REMARK 927      BINDING AFFINITY PREDICTED BY RF-SCORE:    0.00 PKD
ROOT
HETATM    1  C   UNL     1      -9.481   3.664  73.544  1.00  0.00    -0.125 C  
HETATM    2  C   UNL     1     -10.817   4.204  74.031  1.00  0.00    -0.221 C  
ENDROOT
BRANCH   2   3
HETATM    3  O   UNL     1     -10.768   5.627  74.041  1.00  0.00    -0.264 OA 
BRANCH   3   4
HETATM    4  C   UNL     1     -10.546   6.289  72.858  1.00  0.00    -0.233 A  
HETATM    5  C   UNL     1      -9.475   7.133  72.502  1.00  0.00    -0.142 A  
HETATM    6  C   UNL     1     -11.554   6.052  71.918  1.00  0.00    -0.312 A  
HETATM    7  C   UNL     1      -9.466   7.738  71.225  1.00  0.00    -0.173 A  
HETATM    8  C   UNL     1     -11.525   6.656  70.657  1.00  0.00    -0.420 A  
HETATM    9  C   UNL     1     -10.506   7.545  70.302  1.00  0.00    -0.227 A  
BRANCH   5  10
HETATM   10  O   UNL     1      -8.487   7.338  73.426  1.00  0.00    -0.123 OA 
BRANCH  10  11
HETATM   11  C   UNL     1      -7.505   6.333  73.620  1.00  0.00    -0.090 C  
HETATM   12  C   UNL     1      -6.648   6.279  72.368  1.00  0.00    -0.067 C  
ENDBRANCH  10  11
ENDBRANCH   5  10
BRANCH   9  13
HETATM   13  C   UNL     1     -10.472   8.270  68.999  1.00  0.00    -0.212 C  
HETATM   14  C   UNL     1     -10.659   9.599  68.837  1.00  0.00    -0.217 C  
HETATM   15  N   UNL     1     -10.932  10.418  69.935  1.00  0.00    -0.286 NA 
HETATM   16  C   UNL     1     -11.987  11.412  69.795  1.00  0.00    -0.353 C  
HETATM   17  H   UNL     1     -10.411  10.323  70.805  1.00  0.00     0.000 HD 
HETATM   18  C   UNL     1     -11.610  12.379  68.690  1.00  0.00    -0.365 C  
HETATM   19  C   UNL     1     -11.096  11.660  67.460  1.00  0.00    -0.333 A  
HETATM   20  C   UNL     1     -11.036  12.405  66.271  1.00  0.00    -0.323 A  
HETATM   21  C   UNL     1     -10.518  11.866  65.093  1.00  0.00    -0.287 A  
HETATM   22  C   UNL     1     -10.046  10.540  65.114  1.00  0.00    -0.314 A  
HETATM   23  C   UNL     1     -10.105   9.792  66.318  1.00  0.00    -0.313 A  
HETATM   24  C   UNL     1     -10.625  10.328  67.512  1.00  0.00    -0.320 A  
BRANCH  21  25
HETATM   25  O   UNL     1     -10.450  12.586  63.932  1.00  0.00    -0.398 OA 
BRANCH  25  26
HETATM   26  C   UNL     1     -11.648  13.118  63.372  1.00  0.00    -0.252 C  
HETATM   27  C   UNL     1     -12.635  11.975  63.211  1.00  0.00    -0.512 C  
ENDBRANCH  25  26
ENDBRANCH  21  25
BRANCH  22  28
HETATM   28  O   UNL     1      -9.491   9.833  64.065  1.00  0.00    -0.242 OA 
BRANCH  28  29
HETATM   29  C   UNL     1      -8.408   8.946  64.349  1.00  0.00    -0.168 C  
HETATM   30  C   UNL     1      -7.329   9.091  63.289  1.00  0.00    -0.097 C  
ENDBRANCH  28  29
ENDBRANCH  22  28
ENDBRANCH   9  13
ENDBRANCH   3   4
ENDBRANCH   2   3
TORSDOF 9
ENDMDL
MODEL       67
REMARK 921   NORMALIZED FREE ENERGY PREDICTED BY IDOCK:   -4.63 KCAL/MOL
REMARK 922        TOTAL FREE ENERGY PREDICTED BY IDOCK:   -7.94 KCAL/MOL
REMARK 923 INTER-LIGAND FREE ENERGY PREDICTED BY IDOCK:   -7.10 KCAL/MOL
REMARK 924 INTRA-LIGAND FREE ENERGY PREDICTED BY IDOCK:   -0.84 KCAL/MOL
REMARK 927      BINDING AFFINITY PREDICTED BY RF-SCORE:    0.00 PKD
ROOT
HETATM    1  C   UNL     1      -8.808   2.097  69.337  1.00  0.00    -0.140 C  
HETATM    2  C   UNL     1      -8.314   3.142  68.348  1.00  0.00    -0.073 C  
ENDROOT
BRANCH   2   3
HETATM    3  O   UNL     1      -9.423   3.648  67.612  1.00  0.00    -0.190 OA 
BRANCH   3   4
HETATM    4  C   UNL     1      -9.708   4.990  67.684  1.00  0.00    -0.154 A  
HETATM    5  C   UNL     1     -10.231   5.728  68.763  1.00  0.00    -0.195 A  
HETATM    6  C   UNL     1      -9.416   5.660  66.492  1.00  0.00    -0.165 A  
HETATM    7  C   UNL     1     -10.474   7.110  68.603  1.00  0.00    -0.218 A  
HETATM    8  C   UNL     1      -9.659   7.030  66.353  1.00  0.00    -0.159 A  
HETATM    9  C   UNL     1     -10.234   7.772  67.389  1.00  0.00    -0.320 A  
BRANCH   5  10
HETATM   10  O   UNL     1     -10.492   5.061  69.929  1.00  0.00    -0.280 OA 
BRANCH  10  11
HETATM   11  C   UNL     1      -9.665   5.295  71.058  1.00  0.00    -0.182 C  
HETATM   12  C   UNL     1     -10.443   4.875  72.292  1.00  0.00    -0.267 C  
ENDBRANCH  10  11
ENDBRANCH   5  10
BRANCH   9  13
HETATM   13  C   UNL     1     -10.580   9.218  67.263  1.00  0.00    -0.303 C  
HETATM   14  C   UNL     1      -9.740  10.248  67.513  1.00  0.00    -0.169 C  
HETATM   15  N   UNL     1      -8.434  10.012  67.948  1.00  0.00    -0.117 NA 
HETATM   16  C   UNL     1      -7.923  10.828  69.041  1.00  0.00    -0.137 C  
HETATM   17  H   UNL     1      -7.857   9.292  67.514  1.00  0.00     0.000 HD 
HETATM   18  C   UNL     1      -7.919  12.281  68.610  1.00  0.00    -0.050 C  
HETATM   19  C   UNL     1      -9.213  12.673  67.929  1.00  0.00    -0.201 A  
HETATM   20  C   UNL     1      -9.464  14.049  67.792  1.00  0.00    -0.209 A  
HETATM   21  C   UNL     1     -10.592  14.526  67.124  1.00  0.00    -0.274 A  
HETATM   22  C   UNL     1     -11.491  13.592  66.576  1.00  0.00    -0.335 A  
HETATM   23  C   UNL     1     -11.233  12.203  66.714  1.00  0.00    -0.375 A  
HETATM   24  C   UNL     1     -10.097  11.713  67.387  1.00  0.00    -0.218 A  
BRANCH  21  25
HETATM   25  O   UNL     1     -10.840  15.863  66.979  1.00  0.00    -0.316 OA 
BRANCH  25  26
HETATM   26  C   UNL     1     -10.026  16.630  66.095  1.00  0.00    -0.337 C  
HETATM   27  C   UNL     1     -10.489  18.074  66.167  1.00  0.00    -0.336 C  
ENDBRANCH  25  26
ENDBRANCH  21  25
BRANCH  22  28
HETATM   28  O   UNL     1     -12.650  13.859  65.874  1.00  0.00    -0.478 OA 
BRANCH  28  29
HETATM   29  C   UNL     1     -12.534  14.246  64.504  1.00  0.00    -0.333 C  
HETATM   30  C   UNL     1     -12.260  13.025  63.643  1.00  0.00    -0.568 C  
ENDBRANCH  28  29
ENDBRANCH  22  28
ENDBRANCH   9  13
ENDBRANCH   3   4
ENDBRANCH   2   3
TORSDOF 9
ENDMDL
MODEL       68
REMARK 921   NORMALIZED FREE ENERGY PREDICTED BY IDOCK:   -4.63 KCAL/MOL
REMARK 922        TOTAL FREE ENERGY PREDICTED BY IDOCK:   -7.94 KCAL/MOL
REMARK 923 INTER-LIGAND FREE ENERGY PREDICTED BY IDOCK:   -7.10 KCAL/MOL
REMARK 924 INTRA-LIGAND FREE ENERGY PREDICTED BY IDOCK:   -0.84 KCAL/MOL
REMARK 927      BINDING AFFINITY PREDICTED BY RF-SCORE:    0.00 PKD
ROOT
HETATM    1  C   UNL     1      -7.090   4.480  74.381  1.00  0.00    -0.072 C  
HETATM    2  C   UNL     1      -7.411   5.966  74.360  1.00  0.00    -0.087 C  
ENDROOT
BRANCH   2   3
HETATM    3  O   UNL     1      -8.786   6.141  74.031  1.00  0.00    -0.125 OA 
BRANCH   3   4
HETATM    4  C   UNL     1      -9.109   6.761  72.849  1.00  0.00    -0.127 A  
HETATM    5  C   UNL     1     -10.025   6.357  71.858  1.00  0.00    -0.175 A  
HETATM    6  C   UNL     1      -8.401   7.952  72.661  1.00  0.00    -0.198 A  
HETATM    7  C   UNL     1     -10.178   7.144  70.694  1.00  0.00    -0.205 A  
HETATM    8  C   UNL     1      -8.569   8.720  71.506  1.00  0.00    -0.253 A  
HETATM    9  C   UNL     1      -9.425   8.309  70.480  1.00  0.00    -0.178 A  
BRANCH   5  10
HETATM   10  O   UNL     1     -10.726   5.200  72.066  1.00  0.00    -0.218 OA 
BRANCH  10  11
HETATM   11  C   UNL     1     -10.023   3.969  72.123  1.00  0.00    -0.172 C  
HETATM   12  C   UNL     1      -9.607   3.613  70.707  1.00  0.00    -0.249 C  
ENDBRANCH  10  11
ENDBRANCH   5  10
BRANCH   9  13
HETATM   13  C   UNL     1      -9.583   9.056  69.198  1.00  0.00    -0.161 C  
HETATM   14  C   UNL     1     -10.202  10.251  69.059  1.00  0.00    -0.210 C  
HETATM   15  N   UNL     1     -10.783  10.884  70.160  1.00  0.00    -0.440 NA 
HETATM   16  C   UNL     1     -12.105  11.469  69.989  1.00  0.00    -0.331 C  
HETATM   17  H   UNL     1     -10.297  10.934  71.055  1.00  0.00     0.000 HD 
HETATM   18  C   UNL     1     -12.031  12.551  68.929  1.00  0.00    -0.282 C  
HETATM   19  C   UNL     1     -11.252  12.098  67.712  1.00  0.00    -0.333 A  
HETATM   20  C   UNL     1     -11.398  12.868  66.547  1.00  0.00    -0.361 A  
HETATM   21  C   UNL     1     -10.679  12.584  65.385  1.00  0.00    -0.280 A  
HETATM   22  C   UNL     1      -9.787  11.496  65.399  1.00  0.00    -0.235 A  
HETATM   23  C   UNL     1      -9.640  10.722  66.580  1.00  0.00    -0.217 A  
HETATM   24  C   UNL     1     -10.361  11.002  67.756  1.00  0.00    -0.218 A  
BRANCH  21  25
HETATM   25  O   UNL     1     -10.809  13.333  64.248  1.00  0.00    -0.384 OA 
BRANCH  25  26
HETATM   26  C   UNL     1     -12.074  13.387  63.592  1.00  0.00    -0.450 C  
HETATM   27  C   UNL     1     -12.504  11.962  63.290  1.00  0.00    -0.506 C  
ENDBRANCH  25  26
ENDBRANCH  21  25
BRANCH  22  28
HETATM   28  O   UNL     1      -8.982  11.062  64.365  1.00  0.00    -0.148 OA 
BRANCH  28  29
HETATM   29  C   UNL     1      -9.071   9.691  63.971  1.00  0.00    -0.200 C  
HETATM   30  C   UNL     1      -9.153   9.592  62.458  1.00  0.00    -0.283 C  
ENDBRANCH  28  29
ENDBRANCH  22  28
ENDBRANCH   9  13
ENDBRANCH   3   4
ENDBRANCH   2   3
TORSDOF 9
ENDMDL
MODEL       69
REMARK 921   NORMALIZED FREE ENERGY PREDICTED BY IDOCK:   -4.62 KCAL/MOL
REMARK 922        TOTAL FREE ENERGY PREDICTED BY IDOCK:   -7.94 KCAL/MOL
REMARK 923 INTER-LIGAND FREE ENERGY PREDICTED BY IDOCK:   -7.92 KCAL/MOL
REMARK 924 INTRA-LIGAND FREE ENERGY PREDICTED BY IDOCK:   -0.02 KCAL/MOL
REMARK 927      BINDING AFFINITY PREDICTED BY RF-SCORE:    0.00 PKD
ROOT
HETATM    1  C   UNL     1      -9.294  15.125  66.208  1.00  0.00    -0.348 C  
HETATM    2  C   UNL     1     -10.646  15.328  65.543  1.00  0.00    -0.373 C  
ENDROOT
BRANCH   2   3
HETATM    3  O   UNL     1     -11.108  14.079  65.037  1.00  0.00    -0.330 OA 
BRANCH   3   4
HETATM    4  C   UNL     1     -11.081  12.981  65.863  1.00  0.00    -0.280 A  
HETATM    5  C   UNL     1     -11.593  12.842  67.168  1.00  0.00    -0.364 A  
HETATM    6  C   UNL     1     -10.448  11.885  65.269  1.00  0.00    -0.317 A  
HETATM    7  C   UNL     1     -11.425  11.615  67.849  1.00  0.00    -0.381 A  
HETATM    8  C   UNL     1     -10.296  10.677  65.957  1.00  0.00    -0.290 A  
HETATM    9  C   UNL     1     -10.739  10.533  67.275  1.00  0.00    -0.333 A  
BRANCH   5  10
HETATM   10  O   UNL     1     -12.227  13.918  67.726  1.00  0.00    -0.338 OA 
BRANCH  10  11
HETATM   11  C   UNL     1     -11.995  14.224  69.091  1.00  0.00    -0.335 C  
HETATM   12  C   UNL     1     -11.742  15.718  69.190  1.00  0.00    -0.398 C  
ENDBRANCH  10  11
ENDBRANCH   5  10
BRANCH   9  13
HETATM   13  C   UNL     1     -10.534   9.290  68.075  1.00  0.00    -0.275 C  
HETATM   14  C   UNL     1     -11.177   8.984  69.225  1.00  0.00     0.176 C  
HETATM   15  N   UNL     1     -12.107   9.868  69.777  1.00  0.00    -0.460 NA 
HETATM   16  C   UNL     1     -12.051  10.105  71.213  1.00  0.00    -0.394 C  
HETATM   17  H   UNL     1     -12.803  10.332  69.194  1.00  0.00     0.000 HD 
HETATM   18  C   UNL     1     -12.299   8.797  71.938  1.00  0.00    -0.429 C  
HETATM   19  C   UNL     1     -11.501   7.658  71.338  1.00  0.00    -0.290 A  
HETATM   20  C   UNL     1     -11.384   6.492  72.113  1.00  0.00    -0.321 A  
HETATM   21  C   UNL     1     -10.728   5.357  71.636  1.00  0.00    -0.198 A  
HETATM   22  C   UNL     1     -10.179   5.395  70.341  1.00  0.00    -0.262 A  
HETATM   23  C   UNL     1     -10.303   6.574  69.559  1.00  0.00    -0.237 A  
HETATM   24  C   UNL     1     -10.963   7.724  70.033  1.00  0.00    -0.218 A  
BRANCH  21  25
HETATM   25  O   UNL     1     -10.614   4.215  72.381  1.00  0.00    -0.146 OA 
BRANCH  25  26
HETATM   26  C   UNL     1     -10.134   4.305  73.720  1.00  0.00    -0.147 C  
HETATM   27  C   UNL     1      -8.627   4.476  73.666  1.00  0.00    -0.103 C  
ENDBRANCH  25  26
ENDBRANCH  21  25
BRANCH  22  28
HETATM   28  O   UNL     1      -9.507   4.382  69.687  1.00  0.00    -0.145 OA 
BRANCH  28  29
HETATM   29  C   UNL     1      -9.555   4.354  68.259  1.00  0.00    -0.138 C  
HETATM   30  C   UNL     1      -9.377   2.929  67.764  1.00  0.00    -0.247 C  
ENDBRANCH  28  29
ENDBRANCH  22  28
ENDBRANCH   9  13
ENDBRANCH   3   4
ENDBRANCH   2   3
TORSDOF 9
ENDMDL
MODEL       70
REMARK 921   NORMALIZED FREE ENERGY PREDICTED BY IDOCK:   -4.62 KCAL/MOL
REMARK 922        TOTAL FREE ENERGY PREDICTED BY IDOCK:   -7.92 KCAL/MOL
REMARK 923 INTER-LIGAND FREE ENERGY PREDICTED BY IDOCK:   -7.14 KCAL/MOL
REMARK 924 INTRA-LIGAND FREE ENERGY PREDICTED BY IDOCK:   -0.78 KCAL/MOL
REMARK 927      BINDING AFFINITY PREDICTED BY RF-SCORE:    0.00 PKD
ROOT
HETATM    1  C   UNL     1      -9.852  19.945  66.093  1.00  0.00    -0.562 C  
HETATM    2  C   UNL     1     -10.817  19.644  67.229  1.00  0.00    -0.395 C  
ENDROOT
BRANCH   2   3
HETATM    3  O   UNL     1     -10.089  19.101  68.327  1.00  0.00    -0.374 OA 
BRANCH   3   4
HETATM    4  C   UNL     1      -9.810  17.756  68.335  1.00  0.00    -0.347 A  
HETATM    5  C   UNL     1      -8.609  17.103  68.672  1.00  0.00    -0.260 A  
HETATM    6  C   UNL     1     -10.909  16.983  67.947  1.00  0.00    -0.302 A  
HETATM    7  C   UNL     1      -8.538  15.695  68.580  1.00  0.00    -0.180 A  
HETATM    8  C   UNL     1     -10.821  15.590  67.866  1.00  0.00    -0.307 A  
HETATM    9  C   UNL     1      -9.622  14.922  68.135  1.00  0.00    -0.210 A  
BRANCH   5  10
HETATM   10  O   UNL     1      -7.550  17.873  69.070  1.00  0.00    -0.243 OA 
BRANCH  10  11
HETATM   11  C   UNL     1      -6.669  18.393  68.087  1.00  0.00    -0.222 C  
HETATM   12  C   UNL     1      -6.498  19.876  68.363  1.00  0.00    -0.313 C  
ENDBRANCH  10  11
ENDBRANCH   5  10
BRANCH   9  13
HETATM   13  C   UNL     1      -9.459  13.446  67.992  1.00  0.00    -0.218 C  
HETATM   14  C   UNL     1     -10.334  12.515  68.434  1.00  0.00    -0.230 C  
HETATM   15  N   UNL     1     -11.497  12.895  69.108  1.00  0.00    -0.291 NA 
HETATM   16  C   UNL     1     -11.862  12.151  70.306  1.00  0.00    -0.254 C  
HETATM   17  H   UNL     1     -12.071  13.667  68.773  1.00  0.00     0.000 HD 
HETATM   18  C   UNL     1     -12.101  10.702  69.932  1.00  0.00    -0.372 C  
HETATM   19  C   UNL     1     -11.014  10.165  69.024  1.00  0.00    -0.265 A  
HETATM   20  C   UNL     1     -10.939   8.770  68.885  1.00  0.00     0.062 A  
HETATM   21  C   UNL     1     -10.021   8.167  68.025  1.00  0.00    -0.184 A  
HETATM   22  C   UNL     1      -9.156   8.992  67.282  1.00  0.00    -0.133 A  
HETATM   23  C   UNL     1      -9.238  10.403  67.422  1.00  0.00    -0.154 A  
HETATM   24  C   UNL     1     -10.162  11.019  68.288  1.00  0.00    -0.192 A  
BRANCH  21  25
HETATM   25  O   UNL     1      -9.945   6.809  67.878  1.00  0.00    -0.133 OA 
BRANCH  25  26
HETATM   26  C   UNL     1     -10.907   6.143  67.063  1.00  0.00    -0.356 C  
HETATM   27  C   UNL     1     -10.211   4.985  66.371  1.00  0.00    -0.307 C  
ENDBRANCH  25  26
ENDBRANCH  21  25
BRANCH  22  28
HETATM   28  O   UNL     1      -8.193   8.595  66.376  1.00  0.00    -0.107 OA 
BRANCH  28  29
HETATM   29  C   UNL     1      -8.467   8.764  64.984  1.00  0.00    -0.175 C  
HETATM   30  C   UNL     1      -7.333   9.529  64.324  1.00  0.00    -0.118 C  
ENDBRANCH  28  29
ENDBRANCH  22  28
ENDBRANCH   9  13
ENDBRANCH   3   4
ENDBRANCH   2   3
TORSDOF 9
ENDMDL
MODEL       71
REMARK 921   NORMALIZED FREE ENERGY PREDICTED BY IDOCK:   -4.61 KCAL/MOL
REMARK 922        TOTAL FREE ENERGY PREDICTED BY IDOCK:   -7.92 KCAL/MOL
REMARK 923 INTER-LIGAND FREE ENERGY PREDICTED BY IDOCK:   -7.31 KCAL/MOL
REMARK 924 INTRA-LIGAND FREE ENERGY PREDICTED BY IDOCK:   -0.61 KCAL/MOL
REMARK 927      BINDING AFFINITY PREDICTED BY RF-SCORE:    0.00 PKD
ROOT
HETATM    1  C   UNL     1     -10.751   4.892  65.831  1.00  0.00    -0.233 C  
HETATM    2  C   UNL     1      -9.884   5.325  67.003  1.00  0.00    -0.167 C  
ENDROOT
BRANCH   2   3
HETATM    3  O   UNL     1     -10.668   6.112  67.896  1.00  0.00    -0.240 OA 
BRANCH   3   4
HETATM    4  C   UNL     1     -10.372   7.446  68.036  1.00  0.00    -0.199 A  
HETATM    5  C   UNL     1     -10.660   8.309  69.111  1.00  0.00    -0.165 A  
HETATM    6  C   UNL     1      -9.690   7.959  66.928  1.00  0.00    -0.285 A  
HETATM    7  C   UNL     1     -10.282   9.668  69.028  1.00  0.00    -0.209 A  
HETATM    8  C   UNL     1      -9.319   9.306  66.866  1.00  0.00    -0.193 A  
HETATM    9  C   UNL     1      -9.648  10.196  67.892  1.00  0.00    -0.166 A  
BRANCH   5  10
HETATM   10  O   UNL     1     -11.310   7.786  70.196  1.00  0.00    -0.225 OA 
BRANCH  10  11
HETATM   11  C   UNL     1     -10.547   7.274  71.277  1.00  0.00    -0.220 C  
HETATM   12  C   UNL     1     -11.191   5.972  71.717  1.00  0.00    -0.333 C  
ENDBRANCH  10  11
ENDBRANCH   5  10
BRANCH   9  13
HETATM   13  C   UNL     1      -9.340  11.655  67.839  1.00  0.00    -0.174 C  
HETATM   14  C   UNL     1      -9.874  12.536  66.962  1.00  0.00    -0.217 C  
HETATM   15  N   UNL     1     -10.778  12.110  65.986  1.00  0.00    -0.264 NA 
HETATM   16  C   UNL     1     -10.605  12.617  64.632  1.00  0.00    -0.333 C  
HETATM   17  H   UNL     1     -11.534  11.464  66.215  1.00  0.00     0.000 HD 
HETATM   18  C   UNL     1     -10.754  14.125  64.648  1.00  0.00    -0.408 C  
HETATM   19  C   UNL     1      -9.979  14.757  65.785  1.00  0.00    -0.375 A  
HETATM   20  C   UNL     1      -9.762  16.143  65.709  1.00  0.00    -0.325 A  
HETATM   21  C   UNL     1      -9.118  16.842  66.730  1.00  0.00    -0.245 A  
HETATM   22  C   UNL     1      -8.682  16.127  67.860  1.00  0.00    -0.174 A  
HETATM   23  C   UNL     1      -8.906  14.727  67.936  1.00  0.00    -0.167 A  
HETATM   24  C   UNL     1      -9.555  14.014  66.910  1.00  0.00    -0.275 A  
BRANCH  21  25
HETATM   25  O   UNL     1      -8.909  18.193  66.667  1.00  0.00    -0.261 OA 
BRANCH  25  26
HETATM   26  C   UNL     1      -9.630  19.050  67.549  1.00  0.00    -0.305 C  
HETATM   27  C   UNL     1     -10.902  19.482  66.843  1.00  0.00    -0.523 C  
ENDBRANCH  25  26
ENDBRANCH  21  25
BRANCH  22  28
HETATM   28  O   UNL     1      -8.041  16.632  68.974  1.00  0.00    -0.239 OA 
BRANCH  28  29
HETATM   29  C   UNL     1      -6.684  17.059  68.835  1.00  0.00    -0.203 C  
HETATM   30  C   UNL     1      -5.793  16.262  69.773  1.00  0.00    -0.182 C  
ENDBRANCH  28  29
ENDBRANCH  22  28
ENDBRANCH   9  13
ENDBRANCH   3   4
ENDBRANCH   2   3
TORSDOF 9
ENDMDL
MODEL       72
REMARK 921   NORMALIZED FREE ENERGY PREDICTED BY IDOCK:   -4.60 KCAL/MOL
REMARK 922        TOTAL FREE ENERGY PREDICTED BY IDOCK:   -7.90 KCAL/MOL
REMARK 923 INTER-LIGAND FREE ENERGY PREDICTED BY IDOCK:   -7.14 KCAL/MOL
REMARK 924 INTRA-LIGAND FREE ENERGY PREDICTED BY IDOCK:   -0.76 KCAL/MOL
REMARK 927      BINDING AFFINITY PREDICTED BY RF-SCORE:    0.00 PKD
ROOT
HETATM    1  C   UNL     1      -9.697   4.079  71.094  1.00  0.00    -0.257 C  
HETATM    2  C   UNL     1      -8.834   3.502  69.983  1.00  0.00    -0.088 C  
ENDROOT
BRANCH   2   3
HETATM    3  O   UNL     1      -9.371   3.899  68.724  1.00  0.00    -0.144 OA 
BRANCH   3   4
HETATM    4  C   UNL     1      -9.449   5.240  68.432  1.00  0.00    -0.124 A  
HETATM    5  C   UNL     1      -8.407   6.176  68.286  1.00  0.00    -0.114 A  
HETATM    6  C   UNL     1     -10.768   5.673  68.267  1.00  0.00    -0.227 A  
HETATM    7  C   UNL     1      -8.723   7.526  68.010  1.00  0.00    -0.121 A  
HETATM    8  C   UNL     1     -11.061   7.011  67.990  1.00  0.00    -0.112 A  
HETATM    9  C   UNL     1     -10.049   7.972  67.901  1.00  0.00    -0.243 A  
BRANCH   5  10
HETATM   10  O   UNL     1      -7.120   5.732  68.430  1.00  0.00    -0.072 OA 
BRANCH  10  11
HETATM   11  C   UNL     1      -6.325   6.251  69.483  1.00  0.00    -0.035 C  
HETATM   12  C   UNL     1      -5.658   5.076  70.176  1.00  0.00    -0.015 C  
ENDBRANCH  10  11
ENDBRANCH   5  10
BRANCH   9  13
HETATM   13  C   UNL     1     -10.317   9.423  67.680  1.00  0.00    -0.303 C  
HETATM   14  C   UNL     1     -10.755  10.290  68.621  1.00  0.00    -0.224 C  
HETATM   15  N   UNL     1     -11.020   9.855  69.922  1.00  0.00    -0.264 NA 
HETATM   16  C   UNL     1     -12.242  10.323  70.560  1.00  0.00    -0.301 C  
HETATM   17  H   UNL     1     -10.378   9.230  70.408  1.00  0.00     0.000 HD 
HETATM   18  C   UNL     1     -12.192  11.834  70.671  1.00  0.00    -0.443 C  
HETATM   19  C   UNL     1     -11.728  12.481  69.383  1.00  0.00    -0.383 A  
HETATM   20  C   UNL     1     -11.960  13.861  69.250  1.00  0.00    -0.402 A  
HETATM   21  C   UNL     1     -11.517  14.574  68.136  1.00  0.00    -0.312 A  
HETATM   22  C   UNL     1     -10.821  13.881  67.129  1.00  0.00    -0.284 A  
HETATM   23  C   UNL     1     -10.585  12.488  67.269  1.00  0.00    -0.246 A  
HETATM   24  C   UNL     1     -11.028  11.760  68.390  1.00  0.00    -0.274 A  
BRANCH  21  25
HETATM   25  O   UNL     1     -11.733  15.919  68.001  1.00  0.00    -0.245 OA 
BRANCH  25  26
HETATM   26  C   UNL     1     -10.779  16.832  68.538  1.00  0.00    -0.358 C  
HETATM   27  C   UNL     1     -10.640  17.988  67.563  1.00  0.00    -0.402 C  
ENDBRANCH  25  26
ENDBRANCH  21  25
BRANCH  22  28
HETATM   28  O   UNL     1     -10.295  14.403  65.964  1.00  0.00    -0.287 OA 
BRANCH  28  29
HETATM   29  C   UNL     1     -11.203  14.897  64.978  1.00  0.00    -0.404 C  
HETATM   30  C   UNL     1     -11.876  13.735  64.267  1.00  0.00    -0.451 C  
ENDBRANCH  28  29
ENDBRANCH  22  28
ENDBRANCH   9  13
ENDBRANCH   3   4
ENDBRANCH   2   3
TORSDOF 9
ENDMDL
MODEL       73
REMARK 921   NORMALIZED FREE ENERGY PREDICTED BY IDOCK:   -4.60 KCAL/MOL
REMARK 922        TOTAL FREE ENERGY PREDICTED BY IDOCK:   -7.89 KCAL/MOL
REMARK 923 INTER-LIGAND FREE ENERGY PREDICTED BY IDOCK:   -7.05 KCAL/MOL
REMARK 924 INTRA-LIGAND FREE ENERGY PREDICTED BY IDOCK:   -0.84 KCAL/MOL
REMARK 927      BINDING AFFINITY PREDICTED BY RF-SCORE:    0.00 PKD
ROOT
HETATM    1  C   UNL     1     -10.439  17.819  67.691  1.00  0.00    -0.393 C  
HETATM    2  C   UNL     1     -11.259  16.577  68.005  1.00  0.00    -0.202 C  
ENDROOT
BRANCH   2   3
HETATM    3  O   UNL     1     -11.011  15.592  67.007  1.00  0.00    -0.321 OA 
BRANCH   3   4
HETATM    4  C   UNL     1     -10.656  14.325  67.402  1.00  0.00    -0.276 A  
HETATM    5  C   UNL     1      -9.419  13.865  67.896  1.00  0.00    -0.212 A  
HETATM    6  C   UNL     1     -11.708  13.413  67.276  1.00  0.00    -0.424 A  
HETATM    7  C   UNL     1      -9.267  12.497  68.217  1.00  0.00    -0.186 A  
HETATM    8  C   UNL     1     -11.541  12.065  67.604  1.00  0.00    -0.392 A  
HETATM    9  C   UNL     1     -10.307  11.571  68.037  1.00  0.00    -0.208 A  
BRANCH   5  10
HETATM   10  O   UNL     1      -8.405  14.774  68.033  1.00  0.00    -0.132 OA 
BRANCH  10  11
HETATM   11  C   UNL     1      -8.096  15.272  69.324  1.00  0.00    -0.236 C  
HETATM   12  C   UNL     1      -7.139  16.438  69.149  1.00  0.00    -0.224 C  
ENDBRANCH  10  11
ENDBRANCH   5  10
BRANCH   9  13
HETATM   13  C   UNL     1     -10.060  10.129  68.327  1.00  0.00    -0.179 C  
HETATM   14  C   UNL     1     -10.729   9.389  69.240  1.00  0.00    -0.211 C  
HETATM   15  N   UNL     1     -11.732   9.962  70.024  1.00  0.00    -0.421 NA 
HETATM   16  C   UNL     1     -11.748   9.646  71.446  1.00  0.00    -0.404 C  
HETATM   17  H   UNL     1     -12.430  10.583  69.615  1.00  0.00     0.000 HD 
HETATM   18  C   UNL     1     -11.946   8.153  71.616  1.00  0.00    -0.340 C  
HETATM   19  C   UNL     1     -11.058   7.355  70.685  1.00  0.00    -0.285 A  
HETATM   20  C   UNL     1     -10.902   5.990  70.976  1.00  0.00    -0.345 A  
HETATM   21  C   UNL     1     -10.161   5.144  70.151  1.00  0.00    -0.272 A  
HETATM   22  C   UNL     1      -9.562   5.687  68.999  1.00  0.00    -0.135 A  
HETATM   23  C   UNL     1      -9.726   7.066  68.705  1.00  0.00    -0.143 A  
HETATM   24  C   UNL     1     -10.472   7.927  69.533  1.00  0.00    -0.226 A  
BRANCH  21  25
HETATM   25  O   UNL     1     -10.008   3.812  70.423  1.00  0.00    -0.137 OA 
BRANCH  25  26
HETATM   26  C   UNL     1      -9.300   3.419  71.596  1.00  0.00    -0.136 C  
HETATM   27  C   UNL     1      -9.536   1.934  71.809  1.00  0.00    -0.183 C  
ENDBRANCH  25  26
ENDBRANCH  21  25
BRANCH  22  28
HETATM   28  O   UNL     1      -8.805   5.020  68.056  1.00  0.00    -0.102 OA 
BRANCH  28  29
HETATM   29  C   UNL     1      -8.906   5.438  66.693  1.00  0.00    -0.115 C  
HETATM   30  C   UNL     1      -9.712   4.423  65.900  1.00  0.00    -0.214 C  
ENDBRANCH  28  29
ENDBRANCH  22  28
ENDBRANCH   9  13
ENDBRANCH   3   4
ENDBRANCH   2   3
TORSDOF 9
ENDMDL
MODEL       74
REMARK 921   NORMALIZED FREE ENERGY PREDICTED BY IDOCK:   -4.58 KCAL/MOL
REMARK 922        TOTAL FREE ENERGY PREDICTED BY IDOCK:   -7.87 KCAL/MOL
REMARK 923 INTER-LIGAND FREE ENERGY PREDICTED BY IDOCK:   -6.98 KCAL/MOL
REMARK 924 INTRA-LIGAND FREE ENERGY PREDICTED BY IDOCK:   -0.89 KCAL/MOL
REMARK 927      BINDING AFFINITY PREDICTED BY RF-SCORE:    0.00 PKD
ROOT
HETATM    1  C   UNL     1     -10.943  15.193  65.267  1.00  0.00    -0.405 C  
HETATM    2  C   UNL     1     -11.290  15.013  66.736  1.00  0.00    -0.293 C  
ENDROOT
BRANCH   2   3
HETATM    3  O   UNL     1     -12.038  13.811  66.894  1.00  0.00    -0.414 OA 
BRANCH   3   4
HETATM    4  C   UNL     1     -11.477  12.770  67.594  1.00  0.00    -0.334 A  
HETATM    5  C   UNL     1     -10.531  11.821  67.162  1.00  0.00    -0.220 A  
HETATM    6  C   UNL     1     -11.949  12.697  68.908  1.00  0.00    -0.284 A  
HETATM    7  C   UNL     1     -10.111  10.807  68.052  1.00  0.00    -0.198 A  
HETATM    8  C   UNL     1     -11.518  11.690  69.777  1.00  0.00    -0.339 A  
HETATM    9  C   UNL     1     -10.627  10.699  69.353  1.00  0.00    -0.270 A  
BRANCH   5  10
HETATM   10  O   UNL     1     -10.065  11.919  65.879  1.00  0.00    -0.221 OA 
BRANCH  10  11
HETATM   11  C   UNL     1     -10.698  11.167  64.855  1.00  0.00    -0.248 C  
HETATM   12  C   UNL     1     -10.436  11.876  63.538  1.00  0.00    -0.505 C  
ENDBRANCH  10  11
ENDBRANCH   5  10
BRANCH   9  13
HETATM   13  C   UNL     1     -10.195   9.564  70.219  1.00  0.00    -0.312 C  
HETATM   14  C   UNL     1     -11.012   8.613  70.727  1.00  0.00    -0.245 C  
HETATM   15  N   UNL     1     -12.385   8.646  70.477  1.00  0.00    -0.423 NA 
HETATM   16  C   UNL     1     -13.285   8.393  71.594  1.00  0.00    -0.339 C  
HETATM   17  H   UNL     1     -12.746   8.842  69.544  1.00  0.00     0.000 HD 
HETATM   18  C   UNL     1     -13.034   6.995  72.122  1.00  0.00    -0.071 C  
HETATM   19  C   UNL     1     -11.555   6.706  72.277  1.00  0.00    -0.313 A  
HETATM   20  C   UNL     1     -11.207   5.594  73.061  1.00  0.00    -0.319 A  
HETATM   21  C   UNL     1      -9.880   5.195  73.219  1.00  0.00    -0.153 A  
HETATM   22  C   UNL     1      -8.875   5.934  72.567  1.00  0.00    -0.132 A  
HETATM   23  C   UNL     1      -9.232   7.055  71.772  1.00  0.00    -0.145 A  
HETATM   24  C   UNL     1     -10.568   7.465  71.607  1.00  0.00    -0.229 A  
BRANCH  21  25
HETATM   25  O   UNL     1      -9.532   4.109  73.976  1.00  0.00    -0.105 OA 
BRANCH  25  26
HETATM   26  C   UNL     1      -9.779   2.800  73.468  1.00  0.00    -0.099 C  
HETATM   27  C   UNL     1     -11.020   2.259  74.155  1.00  0.00    -0.206 C  
ENDBRANCH  25  26
ENDBRANCH  21  25
BRANCH  22  28
HETATM   28  O   UNL     1      -7.515   5.697  72.588  1.00  0.00    -0.093 OA 
BRANCH  28  29
HETATM   29  C   UNL     1      -6.987   4.724  71.684  1.00  0.00    -0.052 C  
HETATM   30  C   UNL     1      -6.094   3.752  72.436  1.00  0.00    -0.009 C  
ENDBRANCH  28  29
ENDBRANCH  22  28
ENDBRANCH   9  13
ENDBRANCH   3   4
ENDBRANCH   2   3
TORSDOF 9
ENDMDL
MODEL       75
REMARK 921   NORMALIZED FREE ENERGY PREDICTED BY IDOCK:   -4.55 KCAL/MOL
REMARK 922        TOTAL FREE ENERGY PREDICTED BY IDOCK:   -7.83 KCAL/MOL
REMARK 923 INTER-LIGAND FREE ENERGY PREDICTED BY IDOCK:   -7.20 KCAL/MOL
REMARK 924 INTRA-LIGAND FREE ENERGY PREDICTED BY IDOCK:   -0.63 KCAL/MOL
REMARK 927      BINDING AFFINITY PREDICTED BY RF-SCORE:    0.00 PKD
ROOT
HETATM    1  C   UNL     1     -10.579  18.275  67.163  1.00  0.00    -0.392 C  
HETATM    2  C   UNL     1      -9.360  18.121  66.266  1.00  0.00    -0.208 C  
ENDROOT
BRANCH   2   3
HETATM    3  O   UNL     1      -9.541  16.983  65.429  1.00  0.00    -0.393 OA 
BRANCH   3   4
HETATM    4  C   UNL     1      -9.404  15.730  65.977  1.00  0.00    -0.349 A  
HETATM    5  C   UNL     1     -10.012  14.521  65.586  1.00  0.00    -0.347 A  
HETATM    6  C   UNL     1      -8.528  15.719  67.067  1.00  0.00    -0.251 A  
HETATM    7  C   UNL     1      -9.747  13.344  66.321  1.00  0.00    -0.280 A  
HETATM    8  C   UNL     1      -8.274  14.543  67.779  1.00  0.00    -0.171 A  
HETATM    9  C   UNL     1      -8.912  13.344  67.450  1.00  0.00    -0.215 A  
BRANCH   5  10
HETATM   10  O   UNL     1     -10.851  14.546  64.505  1.00  0.00    -0.351 OA 
BRANCH  10  11
HETATM   11  C   UNL     1     -11.810  13.512  64.353  1.00  0.00    -0.414 C  
HETATM   12  C   UNL     1     -11.236  12.493  63.383  1.00  0.00    -0.460 C  
ENDBRANCH  10  11
ENDBRANCH   5  10
BRANCH   9  13
HETATM   13  C   UNL     1      -8.730  12.082  68.225  1.00  0.00    -0.178 C  
HETATM   14  C   UNL     1      -9.723  11.368  68.803  1.00  0.00    -0.145 C  
HETATM   15  N   UNL     1     -11.049  11.800  68.725  1.00  0.00    -0.224 NA 
HETATM   16  C   UNL     1     -11.855  11.742  69.937  1.00  0.00    -0.348 C  
HETATM   17  H   UNL     1     -11.439  12.146  67.849  1.00  0.00     0.000 HD 
HETATM   18  C   UNL     1     -11.956  10.299  70.391  1.00  0.00    -0.391 C  
HETATM   19  C   UNL     1     -10.614   9.599  70.354  1.00  0.00    -0.354 A  
HETATM   20  C   UNL     1     -10.514   8.388  71.059  1.00  0.00    -0.251 A  
HETATM   21  C   UNL     1      -9.347   7.623  71.041  1.00  0.00    -0.152 A  
HETATM   22  C   UNL     1      -8.251   8.090  70.291  1.00  0.00    -0.123 A  
HETATM   23  C   UNL     1      -8.358   9.312  69.577  1.00  0.00    -0.131 A  
HETATM   24  C   UNL     1      -9.532  10.090  69.589  1.00  0.00    -0.247 A  
BRANCH  21  25
HETATM   25  O   UNL     1      -9.242   6.439  71.718  1.00  0.00    -0.144 OA 
BRANCH  25  26
HETATM   26  C   UNL     1     -10.211   5.419  71.488  1.00  0.00    -0.219 C  
HETATM   27  C   UNL     1      -9.943   4.821  70.119  1.00  0.00    -0.321 C  
ENDBRANCH  25  26
ENDBRANCH  21  25
BRANCH  22  28
HETATM   28  O   UNL     1      -7.022   7.480  70.137  1.00  0.00    -0.056 OA 
BRANCH  28  29
HETATM   29  C   UNL     1      -6.814   6.666  68.981  1.00  0.00    -0.058 C  
HETATM   30  C   UNL     1      -6.286   5.304  69.398  1.00  0.00    -0.029 C  
ENDBRANCH  28  29
ENDBRANCH  22  28
ENDBRANCH   9  13
ENDBRANCH   3   4
ENDBRANCH   2   3
TORSDOF 9
ENDMDL
MODEL       76
REMARK 921   NORMALIZED FREE ENERGY PREDICTED BY IDOCK:   -4.55 KCAL/MOL
REMARK 922        TOTAL FREE ENERGY PREDICTED BY IDOCK:   -7.83 KCAL/MOL
REMARK 923 INTER-LIGAND FREE ENERGY PREDICTED BY IDOCK:   -7.16 KCAL/MOL
REMARK 924 INTRA-LIGAND FREE ENERGY PREDICTED BY IDOCK:   -0.67 KCAL/MOL
REMARK 927      BINDING AFFINITY PREDICTED BY RF-SCORE:    0.00 PKD
ROOT
HETATM    1  C   UNL     1     -11.162   2.915  73.583  1.00  0.00    -0.305 C  
HETATM    2  C   UNL     1      -9.684   3.089  73.896  1.00  0.00    -0.097 C  
ENDROOT
BRANCH   2   3
HETATM    3  O   UNL     1      -8.987   3.402  72.694  1.00  0.00    -0.087 OA 
BRANCH   3   4
HETATM    4  C   UNL     1      -9.348   4.529  71.995  1.00  0.00    -0.139 A  
HETATM    5  C   UNL     1      -9.787   4.640  70.661  1.00  0.00    -0.226 A  
HETATM    6  C   UNL     1      -9.246   5.690  72.767  1.00  0.00    -0.135 A  
HETATM    7  C   UNL     1     -10.079   5.918  70.133  1.00  0.00    -0.261 A  
HETATM    8  C   UNL     1      -9.545   6.945  72.229  1.00  0.00    -0.159 A  
HETATM    9  C   UNL     1      -9.923   7.090  70.891  1.00  0.00    -0.200 A  
BRANCH   5  10
HETATM   10  O   UNL     1      -9.900   3.492  69.925  1.00  0.00    -0.130 OA 
BRANCH  10  11
HETATM   11  C   UNL     1      -8.824   3.100  69.088  1.00  0.00    -0.099 C  
HETATM   12  C   UNL     1      -9.403   2.758  67.727  1.00  0.00    -0.239 C  
ENDBRANCH  10  11
ENDBRANCH   5  10
BRANCH   9  13
HETATM   13  C   UNL     1     -10.180   8.413  70.252  1.00  0.00    -0.204 C  
HETATM   14  C   UNL     1     -10.969   9.387  70.760  1.00  0.00    -0.304 C  
HETATM   15  N   UNL     1     -11.646   9.197  71.967  1.00  0.00    -0.349 NA 
HETATM   16  C   UNL     1     -13.039   9.615  72.038  1.00  0.00    -0.445 C  
HETATM   17  H   UNL     1     -11.179   8.780  72.772  1.00  0.00     0.000 HD 
HETATM   18  C   UNL     1     -13.119  11.108  71.794  1.00  0.00    -0.536 C  
HETATM   19  C   UNL     1     -12.273  11.534  70.612  1.00  0.00    -0.473 A  
HETATM   20  C   UNL     1     -12.523  12.811  70.083  1.00  0.00    -0.126 A  
HETATM   21  C   UNL     1     -11.761  13.334  69.038  1.00  0.00    -0.322 A  
HETATM   22  C   UNL     1     -10.717  12.550  68.512  1.00  0.00    -0.239 A  
HETATM   23  C   UNL     1     -10.465  11.262  69.052  1.00  0.00    -0.221 A  
HETATM   24  C   UNL     1     -11.229  10.726  70.107  1.00  0.00    -0.345 A  
BRANCH  21  25
HETATM   25  O   UNL     1     -11.993  14.579  68.521  1.00  0.00    -0.327 OA 
BRANCH  25  26
HETATM   26  C   UNL     1     -11.039  15.614  68.747  1.00  0.00    -0.307 C  
HETATM   27  C   UNL     1     -11.136  16.027  70.205  1.00  0.00    -0.372 C  
ENDBRANCH  25  26
ENDBRANCH  21  25
BRANCH  22  28
HETATM   28  O   UNL     1      -9.849  12.888  67.493  1.00  0.00    -0.202 OA 
BRANCH  28  29
HETATM   29  C   UNL     1      -8.452  12.672  67.699  1.00  0.00    -0.173 C  
HETATM   30  C   UNL     1      -7.836  13.883  68.378  1.00  0.00    -0.138 C  
ENDBRANCH  28  29
ENDBRANCH  22  28
ENDBRANCH   9  13
ENDBRANCH   3   4
ENDBRANCH   2   3
TORSDOF 9
ENDMDL
MODEL       77
REMARK 921   NORMALIZED FREE ENERGY PREDICTED BY IDOCK:   -4.52 KCAL/MOL
REMARK 922        TOTAL FREE ENERGY PREDICTED BY IDOCK:   -7.77 KCAL/MOL
REMARK 923 INTER-LIGAND FREE ENERGY PREDICTED BY IDOCK:   -7.08 KCAL/MOL
REMARK 924 INTRA-LIGAND FREE ENERGY PREDICTED BY IDOCK:   -0.69 KCAL/MOL
REMARK 927      BINDING AFFINITY PREDICTED BY RF-SCORE:    0.00 PKD
ROOT
HETATM    1  C   UNL     1      -7.149  21.120  67.310  1.00  0.00    -0.330 C  
HETATM    2  C   UNL     1      -8.514  20.466  67.451  1.00  0.00    -0.321 C  
ENDROOT
BRANCH   2   3
HETATM    3  O   UNL     1      -8.787  19.702  66.280  1.00  0.00    -0.358 OA 
BRANCH   3   4
HETATM    4  C   UNL     1      -8.759  18.331  66.364  1.00  0.00    -0.241 A  
HETATM    5  C   UNL     1      -7.664  17.481  66.619  1.00  0.00    -0.254 A  
HETATM    6  C   UNL     1     -10.019  17.759  66.161  1.00  0.00    -0.283 A  
HETATM    7  C   UNL     1      -7.862  16.082  66.630  1.00  0.00    -0.266 A  
HETATM    8  C   UNL     1     -10.196  16.373  66.182  1.00  0.00    -0.363 A  
HETATM    9  C   UNL     1      -9.116  15.506  66.371  1.00  0.00    -0.351 A  
BRANCH   5  10
HETATM   10  O   UNL     1      -6.442  18.058  66.835  1.00  0.00    -0.169 OA 
BRANCH  10  11
HETATM   11  C   UNL     1      -5.418  17.888  65.868  1.00  0.00    -0.202 C  
HETATM   12  C   UNL     1      -5.716  18.829  64.714  1.00  0.00    -0.286 C  
ENDBRANCH  10  11
ENDBRANCH   5  10
BRANCH   9  13
HETATM   13  C   UNL     1      -9.243  14.020  66.327  1.00  0.00    -0.130 C  
HETATM   14  C   UNL     1     -10.099  13.286  67.073  1.00  0.00    -0.242 C  
HETATM   15  N   UNL     1     -10.948  13.901  67.995  1.00  0.00    -0.245 NA 
HETATM   16  C   UNL     1     -11.079  13.292  69.311  1.00  0.00    -0.153 C  
HETATM   17  H   UNL     1     -11.459  14.750  67.755  1.00  0.00     0.000 HD 
HETATM   18  C   UNL     1     -11.647  11.895  69.153  1.00  0.00    -0.373 C  
HETATM   19  C   UNL     1     -10.961  11.129  68.041  1.00  0.00    -0.307 A  
HETATM   20  C   UNL     1     -11.156   9.738  68.018  1.00  0.00    -0.168 A  
HETATM   21  C   UNL     1     -10.627   8.940  67.004  1.00  0.00    -0.209 A  
HETATM   22  C   UNL     1      -9.883   9.559  65.983  1.00  0.00    -0.283 A  
HETATM   23  C   UNL     1      -9.691  10.965  66.007  1.00  0.00    -0.268 A  
HETATM   24  C   UNL     1     -10.221  11.779  67.027  1.00  0.00    -0.240 A  
BRANCH  21  25
HETATM   25  O   UNL     1     -10.818   7.585  66.970  1.00  0.00    -0.348 OA 
BRANCH  25  26
HETATM   26  C   UNL     1     -10.054   6.754  67.840  1.00  0.00    -0.159 C  
HETATM   27  C   UNL     1     -10.277   5.311  67.422  1.00  0.00    -0.240 C  
ENDBRANCH  25  26
ENDBRANCH  21  25
BRANCH  22  28
HETATM   28  O   UNL     1      -9.291   8.952  64.893  1.00  0.00    -0.031 OA 
BRANCH  28  29
HETATM   29  C   UNL     1      -7.923   8.553  65.005  1.00  0.00    -0.131 C  
HETATM   30  C   UNL     1      -7.804   7.054  64.791  1.00  0.00    -0.126 C  
ENDBRANCH  28  29
ENDBRANCH  22  28
ENDBRANCH   9  13
ENDBRANCH   3   4
ENDBRANCH   2   3
TORSDOF 9
ENDMDL
MODEL       78
REMARK 921   NORMALIZED FREE ENERGY PREDICTED BY IDOCK:   -4.47 KCAL/MOL
REMARK 922        TOTAL FREE ENERGY PREDICTED BY IDOCK:   -7.70 KCAL/MOL
REMARK 923 INTER-LIGAND FREE ENERGY PREDICTED BY IDOCK:   -6.75 KCAL/MOL
REMARK 924 INTRA-LIGAND FREE ENERGY PREDICTED BY IDOCK:   -0.96 KCAL/MOL
REMARK 927      BINDING AFFINITY PREDICTED BY RF-SCORE:    0.00 PKD
ROOT
HETATM    1  C   UNL     1     -10.472  16.669  66.217  1.00  0.00    -0.272 C  
HETATM    2  C   UNL     1     -11.106  15.311  65.956  1.00  0.00    -0.278 C  
ENDROOT
BRANCH   2   3
HETATM    3  O   UNL     1     -10.079  14.367  65.668  1.00  0.00    -0.322 OA 
BRANCH   3   4
HETATM    4  C   UNL     1      -9.886  13.315  66.531  1.00  0.00    -0.281 A  
HETATM    5  C   UNL     1      -8.796  13.059  67.385  1.00  0.00    -0.203 A  
HETATM    6  C   UNL     1     -10.953  12.412  66.516  1.00  0.00    -0.312 A  
HETATM    7  C   UNL     1      -8.795  11.887  68.174  1.00  0.00    -0.178 A  
HETATM    8  C   UNL     1     -10.938  11.260  67.308  1.00  0.00    -0.342 A  
HETATM    9  C   UNL     1      -9.840  10.951  68.117  1.00  0.00    -0.187 A  
BRANCH   5  10
HETATM   10  O   UNL     1      -7.769  13.964  67.403  1.00  0.00    -0.171 OA 
BRANCH  10  11
HETATM   11  C   UNL     1      -7.420  14.587  68.629  1.00  0.00    -0.128 C  
HETATM   12  C   UNL     1      -8.438  15.682  68.893  1.00  0.00    -0.213 C  
ENDBRANCH  10  11
ENDBRANCH   5  10
BRANCH   9  13
HETATM   13  C   UNL     1      -9.745   9.698  68.922  1.00  0.00    -0.163 C  
HETATM   14  C   UNL     1     -10.667   9.269  69.813  1.00  0.00    -0.231 C  
HETATM   15  N   UNL     1     -11.817  10.020  70.065  1.00  0.00    -0.433 NA 
HETATM   16  C   UNL     1     -12.228  10.189  71.452  1.00  0.00    -0.397 C  
HETATM   17  H   UNL     1     -12.351  10.437  69.303  1.00  0.00     0.000 HD 
HETATM   18  C   UNL     1     -12.531   8.828  72.045  1.00  0.00    -0.452 C  
HETATM   19  C   UNL     1     -11.462   7.811  71.703  1.00  0.00    -0.299 A  
HETATM   20  C   UNL     1     -11.451   6.627  72.459  1.00  0.00    -0.269 A  
HETATM   21  C   UNL     1     -10.554   5.593  72.190  1.00  0.00    -0.223 A  
HETATM   22  C   UNL     1      -9.645   5.754  71.128  1.00  0.00    -0.167 A  
HETATM   23  C   UNL     1      -9.662   6.951  70.364  1.00  0.00    -0.177 A  
HETATM   24  C   UNL     1     -10.563   7.999  70.629  1.00  0.00    -0.227 A  
BRANCH  21  25
HETATM   25  O   UNL     1     -10.541   4.434  72.916  1.00  0.00    -0.182 OA 
BRANCH  25  26
HETATM   26  C   UNL     1     -10.214   4.487  74.303  1.00  0.00    -0.232 C  
HETATM   27  C   UNL     1      -8.705   4.602  74.423  1.00  0.00    -0.109 C  
ENDBRANCH  25  26
ENDBRANCH  21  25
BRANCH  22  28
HETATM   28  O   UNL     1      -8.693   4.852  70.697  1.00  0.00    -0.111 OA 
BRANCH  28  29
HETATM   29  C   UNL     1      -8.963   4.103  69.510  1.00  0.00    -0.103 C  
HETATM   30  C   UNL     1      -9.591   2.768  69.874  1.00  0.00    -0.088 C  
ENDBRANCH  28  29
ENDBRANCH  22  28
ENDBRANCH   9  13
ENDBRANCH   3   4
ENDBRANCH   2   3
TORSDOF 9
ENDMDL
MODEL       79
REMARK 921   NORMALIZED FREE ENERGY PREDICTED BY IDOCK:   -4.47 KCAL/MOL
REMARK 922        TOTAL FREE ENERGY PREDICTED BY IDOCK:   -7.70 KCAL/MOL
REMARK 923 INTER-LIGAND FREE ENERGY PREDICTED BY IDOCK:   -7.32 KCAL/MOL
REMARK 924 INTRA-LIGAND FREE ENERGY PREDICTED BY IDOCK:   -0.38 KCAL/MOL
REMARK 927      BINDING AFFINITY PREDICTED BY RF-SCORE:    0.00 PKD
ROOT
HETATM    1  C   UNL     1     -10.684   5.564  71.983  1.00  0.00    -0.293 C  
HETATM    2  C   UNL     1     -11.192   6.963  71.672  1.00  0.00    -0.247 C  
ENDROOT
BRANCH   2   3
HETATM    3  O   UNL     1     -11.305   7.113  70.259  1.00  0.00    -0.281 OA 
BRANCH   3   4
HETATM    4  C   UNL     1     -11.035   8.339  69.701  1.00  0.00    -0.086 A  
HETATM    5  C   UNL     1     -10.384   8.636  68.488  1.00  0.00    -0.196 A  
HETATM    6  C   UNL     1     -11.494   9.397  70.492  1.00  0.00    -0.317 A  
HETATM    7  C   UNL     1     -10.186   9.986  68.121  1.00  0.00    -0.205 A  
HETATM    8  C   UNL     1     -11.294  10.727  70.110  1.00  0.00    -0.390 A  
HETATM    9  C   UNL     1     -10.597  11.048  68.942  1.00  0.00    -0.239 A  
BRANCH   5  10
HETATM   10  O   UNL     1      -9.959   7.589  67.716  1.00  0.00    -0.155 OA 
BRANCH  10  11
HETATM   11  C   UNL     1     -10.878   6.965  66.834  1.00  0.00    -0.310 C  
HETATM   12  C   UNL     1     -10.527   5.489  66.775  1.00  0.00    -0.355 C  
ENDBRANCH  10  11
ENDBRANCH   5  10
BRANCH   9  13
HETATM   13  C   UNL     1     -10.294  12.450  68.530  1.00  0.00    -0.232 C  
HETATM   14  C   UNL     1      -9.090  12.900  68.112  1.00  0.00    -0.207 C  
HETATM   15  N   UNL     1      -7.989  12.042  68.055  1.00  0.00    -0.139 NA 
HETATM   16  C   UNL     1      -6.717  12.534  68.564  1.00  0.00    -0.078 C  
HETATM   17  H   UNL     1      -8.075  11.101  67.671  1.00  0.00     0.000 HD 
HETATM   18  C   UNL     1      -6.294  13.740  67.749  1.00  0.00    -0.171 C  
HETATM   19  C   UNL     1      -7.438  14.710  67.539  1.00  0.00    -0.217 A  
HETATM   20  C   UNL     1      -7.100  16.001  67.102  1.00  0.00    -0.248 A  
HETATM   21  C   UNL     1      -8.074  16.956  66.813  1.00  0.00    -0.241 A  
HETATM   22  C   UNL     1      -9.427  16.601  66.966  1.00  0.00    -0.230 A  
HETATM   23  C   UNL     1      -9.765  15.294  67.405  1.00  0.00    -0.208 A  
HETATM   24  C   UNL     1      -8.788  14.324  67.699  1.00  0.00    -0.196 A  
BRANCH  21  25
HETATM   25  O   UNL     1      -7.754  18.214  66.380  1.00  0.00    -0.236 OA 
BRANCH  25  26
HETATM   26  C   UNL     1      -6.631  18.388  65.519  1.00  0.00    -0.252 C  
HETATM   27  C   UNL     1      -6.600  19.841  65.080  1.00  0.00    -0.317 C  
ENDBRANCH  25  26
ENDBRANCH  21  25
BRANCH  22  28
HETATM   28  O   UNL     1     -10.533  17.392  66.723  1.00  0.00    -0.310 OA 
BRANCH  28  29
HETATM   29  C   UNL     1     -10.750  18.524  67.568  1.00  0.00    -0.377 C  
HETATM   30  C   UNL     1     -10.645  19.803  66.755  1.00  0.00    -0.586 C  
ENDBRANCH  28  29
ENDBRANCH  22  28
ENDBRANCH   9  13
ENDBRANCH   3   4
ENDBRANCH   2   3
TORSDOF 9
ENDMDL
MODEL       80
REMARK 921   NORMALIZED FREE ENERGY PREDICTED BY IDOCK:   -4.47 KCAL/MOL
REMARK 922        TOTAL FREE ENERGY PREDICTED BY IDOCK:   -7.70 KCAL/MOL
REMARK 923 INTER-LIGAND FREE ENERGY PREDICTED BY IDOCK:   -7.40 KCAL/MOL
REMARK 924 INTRA-LIGAND FREE ENERGY PREDICTED BY IDOCK:   -0.29 KCAL/MOL
REMARK 927      BINDING AFFINITY PREDICTED BY RF-SCORE:    0.00 PKD
ROOT
HETATM    1  C   UNL     1      -8.355   1.595  67.066  1.00  0.00    -0.083 C  
HETATM    2  C   UNL     1      -9.376   2.280  67.960  1.00  0.00    -0.200 C  
ENDROOT
BRANCH   2   3
HETATM    3  O   UNL     1      -8.730   3.314  68.697  1.00  0.00    -0.086 OA 
BRANCH   3   4
HETATM    4  C   UNL     1      -9.257   4.582  68.657  1.00  0.00    -0.130 A  
HETATM    5  C   UNL     1      -9.754   5.300  67.552  1.00  0.00    -0.146 A  
HETATM    6  C   UNL     1      -9.276   5.190  69.916  1.00  0.00    -0.173 A  
HETATM    7  C   UNL     1     -10.227   6.618  67.739  1.00  0.00    -0.207 A  
HETATM    8  C   UNL     1      -9.752   6.494  70.082  1.00  0.00    -0.180 A  
HETATM    9  C   UNL     1     -10.193   7.250  68.992  1.00  0.00    -0.197 A  
BRANCH   5  10
HETATM   10  O   UNL     1      -9.747   4.683  66.330  1.00  0.00    -0.162 OA 
BRANCH  10  11
HETATM   11  C   UNL     1      -9.036   5.282  65.259  1.00  0.00    -0.089 C  
HETATM   12  C   UNL     1      -7.563   4.972  65.457  1.00  0.00    -0.086 C  
ENDBRANCH  10  11
ENDBRANCH   5  10
BRANCH   9  13
HETATM   13  C   UNL     1     -10.640   8.668  69.108  1.00  0.00    -0.193 C  
HETATM   14  C   UNL     1     -11.313   9.194  70.157  1.00  0.00    -0.142 C  
HETATM   15  N   UNL     1     -11.670   8.395  71.246  1.00  0.00    -0.280 NA 
HETATM   16  C   UNL     1     -13.017   8.537  71.781  1.00  0.00    -0.352 C  
HETATM   17  H   UNL     1     -11.008   7.734  71.653  1.00  0.00     0.000 HD 
HETATM   18  C   UNL     1     -13.201   9.956  72.280  1.00  0.00    -0.434 C  
HETATM   19  C   UNL     1     -12.682  10.976  71.289  1.00  0.00    -0.537 A  
HETATM   20  C   UNL     1     -13.093  12.306  71.477  1.00  0.00    -0.356 A  
HETATM   21  C   UNL     1     -12.626  13.340  70.665  1.00  0.00    -0.231 A  
HETATM   22  C   UNL     1     -11.717  13.027  69.638  1.00  0.00    -0.297 A  
HETATM   23  C   UNL     1     -11.300  11.682  69.454  1.00  0.00    -0.342 A  
HETATM   24  C   UNL     1     -11.766  10.632  70.268  1.00  0.00    -0.433 A  
BRANCH  21  25
HETATM   25  O   UNL     1     -13.016  14.639  70.844  1.00  0.00    -0.343 OA 
BRANCH  25  26
HETATM   26  C   UNL     1     -13.856  14.966  71.949  1.00  0.00    -0.459 C  
HETATM   27  C   UNL     1     -13.054  15.830  72.906  1.00  0.00    -0.618 C  
ENDBRANCH  25  26
ENDBRANCH  21  25
BRANCH  22  28
HETATM   28  O   UNL     1     -11.133  13.900  68.742  1.00  0.00    -0.245 OA 
BRANCH  28  29
HETATM   29  C   UNL     1      -9.711  13.879  68.610  1.00  0.00    -0.160 C  
HETATM   30  C   UNL     1      -9.329  13.853  67.140  1.00  0.00    -0.244 C  
ENDBRANCH  28  29
ENDBRANCH  22  28
ENDBRANCH   9  13
ENDBRANCH   3   4
ENDBRANCH   2   3
TORSDOF 9
ENDMDL
MODEL       81
REMARK 921   NORMALIZED FREE ENERGY PREDICTED BY IDOCK:   -4.43 KCAL/MOL
REMARK 922        TOTAL FREE ENERGY PREDICTED BY IDOCK:   -7.64 KCAL/MOL
REMARK 923 INTER-LIGAND FREE ENERGY PREDICTED BY IDOCK:   -6.62 KCAL/MOL
REMARK 924 INTRA-LIGAND FREE ENERGY PREDICTED BY IDOCK:   -1.02 KCAL/MOL
REMARK 927      BINDING AFFINITY PREDICTED BY RF-SCORE:    0.00 PKD
ROOT
HETATM    1  C   UNL     1     -10.771   5.805  69.365  1.00  0.00    -0.397 C  
HETATM    2  C   UNL     1     -10.123   6.049  68.011  1.00  0.00    -0.159 C  
ENDROOT
BRANCH   2   3
HETATM    3  O   UNL     1      -8.905   6.764  68.201  1.00  0.00    -0.122 OA 
BRANCH   3   4
HETATM    4  C   UNL     1      -8.907   8.128  68.043  1.00  0.00    -0.131 A  
HETATM    5  C   UNL     1      -9.021   8.883  66.859  1.00  0.00    -0.128 A  
HETATM    6  C   UNL     1      -8.778   8.805  69.260  1.00  0.00    -0.135 A  
HETATM    7  C   UNL     1      -8.969  10.293  66.929  1.00  0.00    -0.149 A  
HETATM    8  C   UNL     1      -8.734  10.202  69.310  1.00  0.00    -0.186 A  
HETATM    9  C   UNL     1      -8.782  10.971  68.144  1.00  0.00    -0.141 A  
BRANCH   5  10
HETATM   10  O   UNL     1      -9.167   8.205  65.679  1.00  0.00    -0.108 OA 
BRANCH  10  11
HETATM   11  C   UNL     1      -8.019   7.937  64.891  1.00  0.00    -0.138 C  
HETATM   12  C   UNL     1      -7.981   6.442  64.629  1.00  0.00    -0.118 C  
ENDBRANCH  10  11
ENDBRANCH   5  10
BRANCH   9  13
HETATM   13  C   UNL     1      -8.664  12.458  68.141  1.00  0.00    -0.190 C  
HETATM   14  C   UNL     1      -9.623  13.320  68.548  1.00  0.00    -0.127 C  
HETATM   15  N   UNL     1     -10.858  12.849  69.002  1.00  0.00    -0.394 NA 
HETATM   16  C   UNL     1     -12.058  13.525  68.530  1.00  0.00    -0.268 C  
HETATM   17  H   UNL     1     -10.916  12.058  69.642  1.00  0.00     0.000 HD 
HETATM   18  C   UNL     1     -12.019  14.971  68.983  1.00  0.00    -0.298 C  
HETATM   19  C   UNL     1     -10.664  15.603  68.741  1.00  0.00    -0.250 A  
HETATM   20  C   UNL     1     -10.601  17.005  68.800  1.00  0.00    -0.346 A  
HETATM   21  C   UNL     1      -9.395  17.691  68.658  1.00  0.00    -0.270 A  
HETATM   22  C   UNL     1      -8.219  16.946  68.453  1.00  0.00    -0.232 A  
HETATM   23  C   UNL     1      -8.287  15.529  68.398  1.00  0.00    -0.154 A  
HETATM   24  C   UNL     1      -9.499  14.828  68.540  1.00  0.00    -0.214 A  
BRANCH  21  25
HETATM   25  O   UNL     1      -9.322  19.056  68.722  1.00  0.00    -0.355 OA 
BRANCH  25  26
HETATM   26  C   UNL     1     -10.260  19.836  67.984  1.00  0.00    -0.451 C  
HETATM   27  C   UNL     1      -9.695  20.053  66.592  1.00  0.00    -0.566 C  
ENDBRANCH  25  26
ENDBRANCH  21  25
BRANCH  22  28
HETATM   28  O   UNL     1      -6.935  17.431  68.302  1.00  0.00    -0.180 OA 
BRANCH  28  29
HETATM   29  C   UNL     1      -6.087  16.805  67.338  1.00  0.00    -0.160 C  
HETATM   30  C   UNL     1      -5.992  17.670  66.094  1.00  0.00    -0.249 C  
ENDBRANCH  28  29
ENDBRANCH  22  28
ENDBRANCH   9  13
ENDBRANCH   3   4
ENDBRANCH   2   3
TORSDOF 9
ENDMDL
MODEL       82
REMARK 921   NORMALIZED FREE ENERGY PREDICTED BY IDOCK:   -4.42 KCAL/MOL
REMARK 922        TOTAL FREE ENERGY PREDICTED BY IDOCK:   -7.63 KCAL/MOL
REMARK 923 INTER-LIGAND FREE ENERGY PREDICTED BY IDOCK:   -6.63 KCAL/MOL
REMARK 924 INTRA-LIGAND FREE ENERGY PREDICTED BY IDOCK:   -1.00 KCAL/MOL
REMARK 927      BINDING AFFINITY PREDICTED BY RF-SCORE:    0.00 PKD
ROOT
HETATM    1  C   UNL     1     -10.098   4.872  68.583  1.00  0.00    -0.159 C  
HETATM    2  C   UNL     1      -8.688   4.950  68.020  1.00  0.00    -0.103 C  
ENDROOT
BRANCH   2   3
HETATM    3  O   UNL     1      -8.638   5.977  67.033  1.00  0.00    -0.108 OA 
BRANCH   3   4
HETATM    4  C   UNL     1      -8.793   7.283  67.430  1.00  0.00    -0.119 A  
HETATM    5  C   UNL     1      -8.132   7.980  68.460  1.00  0.00    -0.125 A  
HETATM    6  C   UNL     1      -9.750   7.961  66.669  1.00  0.00    -0.305 A  
HETATM    7  C   UNL     1      -8.474   9.327  68.716  1.00  0.00    -0.129 A  
HETATM    8  C   UNL     1     -10.073   9.295  66.933  1.00  0.00    -0.324 A  
HETATM    9  C   UNL     1      -9.476   9.990  67.989  1.00  0.00    -0.150 A  
BRANCH   5  10
HETATM   10  O   UNL     1      -7.183   7.308  69.182  1.00  0.00    -0.080 OA 
BRANCH  10  11
HETATM   11  C   UNL     1      -7.057   7.573  70.570  1.00  0.00    -0.056 C  
HETATM   12  C   UNL     1      -8.074   6.710  71.297  1.00  0.00    -0.112 C  
ENDBRANCH  10  11
ENDBRANCH   5  10
BRANCH   9  13
HETATM   13  C   UNL     1      -9.839  11.390  68.356  1.00  0.00    -0.205 C  
HETATM   14  C   UNL     1      -9.141  12.496  68.012  1.00  0.00    -0.200 C  
HETATM   15  N   UNL     1      -7.962  12.391  67.271  1.00  0.00    -0.177 NA 
HETATM   16  C   UNL     1      -6.823  13.196  67.689  1.00  0.00    -0.158 C  
HETATM   17  H   UNL     1      -7.901  11.771  66.464  1.00  0.00     0.000 HD 
HETATM   18  C   UNL     1      -7.196  14.662  67.597  1.00  0.00    -0.206 C  
HETATM   19  C   UNL     1      -8.561  14.938  68.191  1.00  0.00    -0.159 A  
HETATM   20  C   UNL     1      -8.871  16.279  68.469  1.00  0.00    -0.219 A  
HETATM   21  C   UNL     1     -10.122  16.657  68.956  1.00  0.00    -0.293 A  
HETATM   22  C   UNL     1     -11.089  15.657  69.167  1.00  0.00    -0.284 A  
HETATM   23  C   UNL     1     -10.774  14.303  68.881  1.00  0.00    -0.268 A  
HETATM   24  C   UNL     1      -9.514  13.912  68.389  1.00  0.00    -0.211 A  
BRANCH  21  25
HETATM   25  O   UNL     1     -10.435  17.962  69.223  1.00  0.00    -0.225 OA 
BRANCH  25  26
HETATM   26  C   UNL     1      -9.712  18.999  68.563  1.00  0.00    -0.400 C  
HETATM   27  C   UNL     1     -10.517  19.430  67.350  1.00  0.00    -0.581 C  
ENDBRANCH  25  26
ENDBRANCH  21  25
BRANCH  22  28
HETATM   28  O   UNL     1     -12.380  15.825  69.628  1.00  0.00    -0.294 OA 
BRANCH  28  29
HETATM   29  C   UNL     1     -12.748  15.181  70.849  1.00  0.00    -0.401 C  
HETATM   30  C   UNL     1     -12.259  15.998  72.033  1.00  0.00    -0.582 C  
ENDBRANCH  28  29
ENDBRANCH  22  28
ENDBRANCH   9  13
ENDBRANCH   3   4
ENDBRANCH   2   3
TORSDOF 9
ENDMDL
MODEL       83
REMARK 921   NORMALIZED FREE ENERGY PREDICTED BY IDOCK:   -4.39 KCAL/MOL
REMARK 922        TOTAL FREE ENERGY PREDICTED BY IDOCK:   -7.57 KCAL/MOL
REMARK 923 INTER-LIGAND FREE ENERGY PREDICTED BY IDOCK:   -7.04 KCAL/MOL
REMARK 924 INTRA-LIGAND FREE ENERGY PREDICTED BY IDOCK:   -0.53 KCAL/MOL
REMARK 927      BINDING AFFINITY PREDICTED BY RF-SCORE:    0.00 PKD
ROOT
HETATM    1  C   UNL     1      -9.804  19.885  68.600  1.00  0.00    -0.438 C  
HETATM    2  C   UNL     1      -9.541  20.375  67.185  1.00  0.00    -0.447 C  
ENDROOT
BRANCH   2   3
HETATM    3  O   UNL     1      -9.969  19.379  66.261  1.00  0.00    -0.374 OA 
BRANCH   3   4
HETATM    4  C   UNL     1      -9.599  18.073  66.478  1.00  0.00    -0.315 A  
HETATM    5  C   UNL     1      -8.412  17.415  66.104  1.00  0.00    -0.163 A  
HETATM    6  C   UNL     1     -10.576  17.352  67.171  1.00  0.00    -0.264 A  
HETATM    7  C   UNL     1      -8.254  16.044  66.409  1.00  0.00    -0.309 A  
HETATM    8  C   UNL     1     -10.401  15.997  67.469  1.00  0.00    -0.287 A  
HETATM    9  C   UNL     1      -9.259  15.306  67.054  1.00  0.00    -0.235 A  
BRANCH   5  10
HETATM   10  O   UNL     1      -7.457  18.141  65.444  1.00  0.00    -0.499 OA 
BRANCH  10  11
HETATM   11  C   UNL     1      -6.529  18.905  66.197  1.00  0.00    -0.207 C  
HETATM   12  C   UNL     1      -5.325  18.023  66.473  1.00  0.00    -0.189 C  
ENDBRANCH  10  11
ENDBRANCH   5  10
BRANCH   9  13
HETATM   13  C   UNL     1      -9.060  13.845  67.283  1.00  0.00    -0.230 C  
HETATM   14  C   UNL     1      -9.253  12.875  66.361  1.00  0.00    -0.137 C  
HETATM   15  N   UNL     1      -9.694  13.193  65.075  1.00  0.00    -0.534 NA 
HETATM   16  C   UNL     1     -10.741  12.366  64.491  1.00  0.00    -0.321 C  
HETATM   17  H   UNL     1      -9.296  13.979  64.561  1.00  0.00     0.000 HD 
HETATM   18  C   UNL     1     -10.236  10.942  64.374  1.00  0.00    -0.423 C  
HETATM   19  C   UNL     1      -9.540  10.482  65.638  1.00  0.00    -0.278 A  
HETATM   20  C   UNL     1      -9.333   9.100  65.777  1.00  0.00    -0.309 A  
HETATM   21  C   UNL     1      -8.645   8.568  66.869  1.00  0.00    -0.117 A  
HETATM   22  C   UNL     1      -8.150   9.453  67.845  1.00  0.00    -0.103 A  
HETATM   23  C   UNL     1      -8.359  10.850  67.698  1.00  0.00    -0.116 A  
HETATM   24  C   UNL     1      -9.052  11.395  66.600  1.00  0.00    -0.187 A  
BRANCH  21  25
HETATM   25  O   UNL     1      -8.432   7.224  67.010  1.00  0.00    -0.116 OA 
BRANCH  25  26
HETATM   26  C   UNL     1      -9.475   6.407  67.537  1.00  0.00    -0.117 C  
HETATM   27  C   UNL     1      -9.776   5.320  66.521  1.00  0.00    -0.180 C  
ENDBRANCH  25  26
ENDBRANCH  21  25
BRANCH  22  28
HETATM   28  O   UNL     1      -7.440   9.130  68.984  1.00  0.00    -0.072 OA 
BRANCH  28  29
HETATM   29  C   UNL     1      -6.050   9.460  69.027  1.00  0.00    -0.042 C  
HETATM   30  C   UNL     1      -5.229   8.309  68.471  1.00  0.00    -0.032 C  
ENDBRANCH  28  29
ENDBRANCH  22  28
ENDBRANCH   9  13
ENDBRANCH   3   4
ENDBRANCH   2   3
TORSDOF 9
ENDMDL
MODEL       84
REMARK 921   NORMALIZED FREE ENERGY PREDICTED BY IDOCK:   -4.36 KCAL/MOL
REMARK 922        TOTAL FREE ENERGY PREDICTED BY IDOCK:   -7.53 KCAL/MOL
REMARK 923 INTER-LIGAND FREE ENERGY PREDICTED BY IDOCK:   -6.65 KCAL/MOL
REMARK 924 INTRA-LIGAND FREE ENERGY PREDICTED BY IDOCK:   -0.88 KCAL/MOL
REMARK 927      BINDING AFFINITY PREDICTED BY RF-SCORE:    0.00 PKD
ROOT
HETATM    1  C   UNL     1      -9.780  19.285  68.974  1.00  0.00    -0.453 C  
HETATM    2  C   UNL     1      -9.816  19.479  67.466  1.00  0.00    -0.358 C  
ENDROOT
BRANCH   2   3
HETATM    3  O   UNL     1     -10.671  18.495  66.891  1.00  0.00    -0.383 OA 
BRANCH   3   4
HETATM    4  C   UNL     1     -10.253  17.186  66.872  1.00  0.00    -0.315 A  
HETATM    5  C   UNL     1      -9.093  16.636  66.293  1.00  0.00    -0.298 A  
HETATM    6  C   UNL     1     -11.141  16.334  67.534  1.00  0.00    -0.140 A  
HETATM    7  C   UNL     1      -8.876  15.241  66.369  1.00  0.00    -0.311 A  
HETATM    8  C   UNL     1     -10.908  14.957  67.604  1.00  0.00    -0.286 A  
HETATM    9  C   UNL     1      -9.797  14.378  66.985  1.00  0.00    -0.252 A  
BRANCH   5  10
HETATM   10  O   UNL     1      -8.224  17.486  65.666  1.00  0.00    -0.505 OA 
BRANCH  10  11
HETATM   11  C   UNL     1      -6.901  17.611  66.163  1.00  0.00    -0.293 C  
HETATM   12  C   UNL     1      -6.143  18.532  65.224  1.00  0.00    -0.284 C  
ENDBRANCH  10  11
ENDBRANCH   5  10
BRANCH   9  13
HETATM   13  C   UNL     1      -9.544  12.908  66.969  1.00  0.00    -0.231 C  
HETATM   14  C   UNL     1      -8.784  12.235  67.862  1.00  0.00    -0.177 C  
HETATM   15  N   UNL     1      -8.138  12.911  68.899  1.00  0.00    -0.339 NA 
HETATM   16  C   UNL     1      -6.754  12.557  69.182  1.00  0.00    -0.089 C  
HETATM   17  H   UNL     1      -8.619  13.629  69.440  1.00  0.00     0.000 HD 
HETATM   18  C   UNL     1      -6.692  11.098  69.589  1.00  0.00    -0.134 C  
HETATM   19  C   UNL     1      -7.513  10.219  68.669  1.00  0.00    -0.086 A  
HETATM   20  C   UNL     1      -7.269   8.837  68.733  1.00  0.00    -0.075 A  
HETATM   21  C   UNL     1      -8.011   7.926  67.980  1.00  0.00    -0.128 A  
HETATM   22  C   UNL     1      -9.027   8.421  67.141  1.00  0.00    -0.137 A  
HETATM   23  C   UNL     1      -9.273   9.818  67.083  1.00  0.00    -0.159 A  
HETATM   24  C   UNL     1      -8.530  10.744  67.839  1.00  0.00    -0.122 A  
BRANCH  21  25
HETATM   25  O   UNL     1      -7.786   6.578  68.040  1.00  0.00    -0.101 OA 
BRANCH  25  26
HETATM   26  C   UNL     1      -6.634   6.037  67.397  1.00  0.00    -0.056 C  
HETATM   27  C   UNL     1      -7.085   5.384  66.103  1.00  0.00    -0.072 C  
ENDBRANCH  25  26
ENDBRANCH  21  25
BRANCH  22  28
HETATM   28  O   UNL     1      -9.874   7.690  66.331  1.00  0.00    -0.191 OA 
BRANCH  28  29
HETATM   29  C   UNL     1     -10.867   6.875  66.956  1.00  0.00    -0.366 C  
HETATM   30  C   UNL     1     -10.719   5.435  66.494  1.00  0.00    -0.309 C  
ENDBRANCH  28  29
ENDBRANCH  22  28
ENDBRANCH   9  13
ENDBRANCH   3   4
ENDBRANCH   2   3
TORSDOF 9
ENDMDL
MODEL       85
REMARK 921   NORMALIZED FREE ENERGY PREDICTED BY IDOCK:   -4.35 KCAL/MOL
REMARK 922        TOTAL FREE ENERGY PREDICTED BY IDOCK:   -7.52 KCAL/MOL
REMARK 923 INTER-LIGAND FREE ENERGY PREDICTED BY IDOCK:   -6.42 KCAL/MOL
REMARK 924 INTRA-LIGAND FREE ENERGY PREDICTED BY IDOCK:   -1.10 KCAL/MOL
REMARK 927      BINDING AFFINITY PREDICTED BY RF-SCORE:    0.00 PKD
ROOT
HETATM    1  C   UNL     1      -5.920   4.947  67.677  1.00  0.00    -0.023 C  
HETATM    2  C   UNL     1      -5.994   6.420  67.305  1.00  0.00    -0.020 C  
ENDROOT
BRANCH   2   3
HETATM    3  O   UNL     1      -7.278   6.696  66.752  1.00  0.00    -0.074 OA 
BRANCH   3   4
HETATM    4  C   UNL     1      -7.833   7.936  66.958  1.00  0.00    -0.108 A  
HETATM    5  C   UNL     1      -8.500   8.771  66.040  1.00  0.00    -0.135 A  
HETATM    6  C   UNL     1      -7.685   8.373  68.277  1.00  0.00    -0.106 A  
HETATM    7  C   UNL     1      -8.969  10.033  66.467  1.00  0.00    -0.162 A  
HETATM    8  C   UNL     1      -8.161   9.624  68.684  1.00  0.00    -0.100 A  
HETATM    9  C   UNL     1      -8.771  10.497  67.778  1.00  0.00    -0.122 A  
BRANCH   5  10
HETATM   10  O   UNL     1      -8.654   8.319  64.757  1.00  0.00    -0.133 OA 
BRANCH  10  11
HETATM   11  C   UNL     1      -7.945   8.961  63.710  1.00  0.00    -0.154 C  
HETATM   12  C   UNL     1      -8.968   9.592  62.782  1.00  0.00    -0.264 C  
ENDBRANCH  10  11
ENDBRANCH   5  10
BRANCH   9  13
HETATM   13  C   UNL     1      -9.228  11.868  68.146  1.00  0.00    -0.187 C  
HETATM   14  C   UNL     1      -8.577  13.016  67.849  1.00  0.00    -0.189 C  
HETATM   15  N   UNL     1      -7.362  12.988  67.162  1.00  0.00    -0.362 NA 
HETATM   16  C   UNL     1      -6.289  13.848  67.643  1.00  0.00    -0.126 C  
HETATM   17  H   UNL     1      -7.229  12.385  66.351  1.00  0.00     0.000 HD 
HETATM   18  C   UNL     1      -6.738  15.293  67.553  1.00  0.00    -0.197 C  
HETATM   19  C   UNL     1      -8.142  15.483  68.087  1.00  0.00    -0.132 A  
HETATM   20  C   UNL     1      -8.538  16.801  68.368  1.00  0.00    -0.235 A  
HETATM   21  C   UNL     1      -9.830  17.102  68.802  1.00  0.00    -0.293 A  
HETATM   22  C   UNL     1     -10.748  16.047  68.955  1.00  0.00    -0.274 A  
HETATM   23  C   UNL     1     -10.345  14.717  68.666  1.00  0.00    -0.246 A  
HETATM   24  C   UNL     1      -9.045  14.404  68.228  1.00  0.00    -0.193 A  
BRANCH  21  25
HETATM   25  O   UNL     1     -10.226  18.383  69.072  1.00  0.00    -0.367 OA 
BRANCH  25  26
HETATM   26  C   UNL     1      -9.778  19.442  68.229  1.00  0.00    -0.397 C  
HETATM   27  C   UNL     1     -10.685  19.485  67.012  1.00  0.00    -0.592 C  
ENDBRANCH  25  26
ENDBRANCH  21  25
BRANCH  22  28
HETATM   28  O   UNL     1     -12.066  16.137  69.359  1.00  0.00    -0.207 OA 
BRANCH  28  29
HETATM   29  C   UNL     1     -12.471  15.386  70.505  1.00  0.00    -0.422 C  
HETATM   30  C   UNL     1     -11.911  16.023  71.765  1.00  0.00    -0.599 C  
ENDBRANCH  28  29
ENDBRANCH  22  28
ENDBRANCH   9  13
ENDBRANCH   3   4
ENDBRANCH   2   3
TORSDOF 9
ENDMDL
MODEL       86
REMARK 921   NORMALIZED FREE ENERGY PREDICTED BY IDOCK:   -4.35 KCAL/MOL
REMARK 922        TOTAL FREE ENERGY PREDICTED BY IDOCK:   -7.52 KCAL/MOL
REMARK 923 INTER-LIGAND FREE ENERGY PREDICTED BY IDOCK:   -6.42 KCAL/MOL
REMARK 924 INTRA-LIGAND FREE ENERGY PREDICTED BY IDOCK:   -1.10 KCAL/MOL
REMARK 927      BINDING AFFINITY PREDICTED BY RF-SCORE:    0.00 PKD
ROOT
HETATM    1  C   UNL     1     -10.758  19.716  65.705  1.00  0.00    -0.493 C  
HETATM    2  C   UNL     1     -10.907  18.219  65.479  1.00  0.00     0.179 C  
ENDROOT
BRANCH   2   3
HETATM    3  O   UNL     1      -9.632  17.599  65.623  1.00  0.00    -0.503 OA 
BRANCH   3   4
HETATM    4  C   UNL     1      -9.523  16.494  66.432  1.00  0.00    -0.288 A  
HETATM    5  C   UNL     1      -9.179  16.425  67.796  1.00  0.00    -0.201 A  
HETATM    6  C   UNL     1      -9.805  15.306  65.751  1.00  0.00    -0.395 A  
HETATM    7  C   UNL     1      -9.098  15.164  68.427  1.00  0.00    -0.185 A  
HETATM    8  C   UNL     1      -9.725  14.066  66.393  1.00  0.00    -0.309 A  
HETATM    9  C   UNL     1      -9.326  13.967  67.730  1.00  0.00    -0.204 A  
BRANCH   5  10
HETATM   10  O   UNL     1      -8.926  17.599  68.453  1.00  0.00    -0.268 OA 
BRANCH  10  11
HETATM   11  C   UNL     1     -10.006  18.305  69.044  1.00  0.00    -0.271 C  
HETATM   12  C   UNL     1      -9.627  19.775  69.079  1.00  0.00    -0.315 C  
ENDBRANCH  10  11
ENDBRANCH   5  10
BRANCH   9  13
HETATM   13  C   UNL     1      -9.154  12.664  68.436  1.00  0.00    -0.128 C  
HETATM   14  C   UNL     1     -10.150  11.940  68.995  1.00  0.00     0.054 C  
HETATM   15  N   UNL     1     -11.468  12.399  68.964  1.00  0.00    -0.280 NA 
HETATM   16  C   UNL     1     -12.254  12.294  70.185  1.00  0.00    -0.226 C  
HETATM   17  H   UNL     1     -11.867  12.796  68.113  1.00  0.00     0.000 HD 
HETATM   18  C   UNL     1     -12.375  10.832  70.568  1.00  0.00    -0.458 C  
HETATM   19  C   UNL     1     -11.047  10.111  70.472  1.00  0.00    -0.400 A  
HETATM   20  C   UNL     1     -10.957   8.864  71.113  1.00  0.00    -0.356 A  
HETATM   21  C   UNL     1      -9.805   8.081  71.036  1.00  0.00    -0.174 A  
HETATM   22  C   UNL     1      -8.714   8.565  70.291  1.00  0.00    -0.142 A  
HETATM   23  C   UNL     1      -8.810   9.824  69.641  1.00  0.00    -0.224 A  
HETATM   24  C   UNL     1      -9.969  10.621  69.713  1.00  0.00    -0.002 A  
BRANCH  21  25
HETATM   25  O   UNL     1      -9.711   6.863  71.651  1.00  0.00    -0.163 OA 
BRANCH  25  26
HETATM   26  C   UNL     1     -10.842   5.995  71.651  1.00  0.00    -0.260 C  
HETATM   27  C   UNL     1     -10.362   4.602  71.285  1.00  0.00    -0.148 C  
ENDBRANCH  25  26
ENDBRANCH  21  25
BRANCH  22  28
HETATM   28  O   UNL     1      -7.499   7.943  70.084  1.00  0.00    -0.075 OA 
BRANCH  28  29
HETATM   29  C   UNL     1      -7.041   7.787  68.740  1.00  0.00    -0.076 C  
HETATM   30  C   UNL     1      -7.894   6.756  68.020  1.00  0.00    -0.113 C  
ENDBRANCH  28  29
ENDBRANCH  22  28
ENDBRANCH   9  13
ENDBRANCH   3   4
ENDBRANCH   2   3
TORSDOF 9
ENDMDL
MODEL       87
REMARK 921   NORMALIZED FREE ENERGY PREDICTED BY IDOCK:   -4.31 KCAL/MOL
REMARK 922        TOTAL FREE ENERGY PREDICTED BY IDOCK:   -7.45 KCAL/MOL
REMARK 923 INTER-LIGAND FREE ENERGY PREDICTED BY IDOCK:   -6.76 KCAL/MOL
REMARK 924 INTRA-LIGAND FREE ENERGY PREDICTED BY IDOCK:   -0.69 KCAL/MOL
REMARK 927      BINDING AFFINITY PREDICTED BY RF-SCORE:    0.00 PKD
ROOT
HETATM    1  C   UNL     1      -8.530   7.302  70.131  1.00  0.00    -0.138 C  
HETATM    2  C   UNL     1      -7.713   6.843  68.933  1.00  0.00    -0.110 C  
ENDROOT
BRANCH   2   3
HETATM    3  O   UNL     1      -6.693   7.804  68.671  1.00  0.00    -0.054 OA 
BRANCH   3   4
HETATM    4  C   UNL     1      -7.054   9.117  68.487  1.00  0.00    -0.072 A  
HETATM    5  C   UNL     1      -7.777   9.696  67.426  1.00  0.00    -0.095 A  
HETATM    6  C   UNL     1      -6.615   9.940  69.528  1.00  0.00    -0.051 A  
HETATM    7  C   UNL     1      -8.011  11.090  67.428  1.00  0.00    -0.119 A  
HETATM    8  C   UNL     1      -6.860  11.316  69.515  1.00  0.00    -0.115 A  
HETATM    9  C   UNL     1      -7.521  11.925  68.445  1.00  0.00    -0.102 A  
BRANCH   5  10
HETATM   10  O   UNL     1      -8.217   8.873  66.426  1.00  0.00    -0.111 OA 
BRANCH  10  11
HETATM   11  C   UNL     1      -9.559   8.986  65.979  1.00  0.00    -0.272 C  
HETATM   12  C   UNL     1     -10.425   8.165  66.918  1.00  0.00    -0.379 C  
ENDBRANCH  10  11
ENDBRANCH   5  10
BRANCH   9  13
HETATM   13  C   UNL     1      -7.741  13.398  68.350  1.00  0.00    -0.138 C  
HETATM   14  C   UNL     1      -8.922  14.027  68.545  1.00  0.00    -0.160 C  
HETATM   15  N   UNL     1     -10.076  13.298  68.841  1.00  0.00    -0.430 NA 
HETATM   16  C   UNL     1     -11.304  13.659  68.146  1.00  0.00    -0.288 C  
HETATM   17  H   UNL     1     -10.059  12.539  69.521  1.00  0.00     0.000 HD 
HETATM   18  C   UNL     1     -11.664  15.090  68.492  1.00  0.00    -0.345 C  
HETATM   19  C   UNL     1     -10.465  16.010  68.411  1.00  0.00    -0.263 A  
HETATM   20  C   UNL     1     -10.728  17.390  68.377  1.00  0.00    -0.301 A  
HETATM   21  C   UNL     1      -9.699  18.332  68.368  1.00  0.00    -0.357 A  
HETATM   22  C   UNL     1      -8.369  17.874  68.397  1.00  0.00    -0.304 A  
HETATM   23  C   UNL     1      -8.108  16.479  68.436  1.00  0.00    -0.196 A  
HETATM   24  C   UNL     1      -9.139  15.521  68.445  1.00  0.00    -0.190 A  
BRANCH  21  25
HETATM   25  O   UNL     1      -9.946  19.678  68.341  1.00  0.00    -0.392 OA 
BRANCH  25  26
HETATM   26  C   UNL     1      -9.635  20.418  67.163  1.00  0.00    -0.447 C  
HETATM   27  C   UNL     1     -10.384  19.786  66.003  1.00  0.00    -0.612 C  
ENDBRANCH  25  26
ENDBRANCH  21  25
BRANCH  22  28
HETATM   28  O   UNL     1      -7.220  18.639  68.406  1.00  0.00    -0.260 OA 
BRANCH  28  29
HETATM   29  C   UNL     1      -6.055  18.098  69.030  1.00  0.00    -0.227 C  
HETATM   30  C   UNL     1      -5.426  19.139  69.940  1.00  0.00    -0.233 C  
ENDBRANCH  28  29
ENDBRANCH  22  28
ENDBRANCH   9  13
ENDBRANCH   3   4
ENDBRANCH   2   3
TORSDOF 9
ENDMDL
MODEL       88
REMARK 921   NORMALIZED FREE ENERGY PREDICTED BY IDOCK:   -4.31 KCAL/MOL
REMARK 922        TOTAL FREE ENERGY PREDICTED BY IDOCK:   -7.45 KCAL/MOL
REMARK 923 INTER-LIGAND FREE ENERGY PREDICTED BY IDOCK:   -7.26 KCAL/MOL
REMARK 924 INTRA-LIGAND FREE ENERGY PREDICTED BY IDOCK:   -0.19 KCAL/MOL
REMARK 927      BINDING AFFINITY PREDICTED BY RF-SCORE:    0.00 PKD
ROOT
HETATM    1  C   UNL     1      -7.307   1.771  71.705  1.00  0.00    -0.035 C  
HETATM    2  C   UNL     1      -8.083   2.097  70.439  1.00  0.00    -0.041 C  
ENDROOT
BRANCH   2   3
HETATM    3  O   UNL     1      -9.330   2.687  70.796  1.00  0.00    -0.122 OA 
BRANCH   3   4
HETATM    4  C   UNL     1      -9.509   4.032  70.585  1.00  0.00    -0.170 A  
HETATM    5  C   UNL     1      -9.381   5.097  71.499  1.00  0.00    -0.148 A  
HETATM    6  C   UNL     1      -9.863   4.321  69.264  1.00  0.00    -0.180 A  
HETATM    7  C   UNL     1      -9.645   6.416  71.066  1.00  0.00    -0.188 A  
HETATM    8  C   UNL     1     -10.115   5.633  68.852  1.00  0.00    -0.254 A  
HETATM    9  C   UNL     1     -10.056   6.700  69.754  1.00  0.00    -0.204 A  
BRANCH   5  10
HETATM   10  O   UNL     1      -9.014   4.799  72.783  1.00  0.00    -0.119 OA 
BRANCH  10  11
HETATM   11  C   UNL     1      -9.895   4.038  73.594  1.00  0.00    -0.115 C  
HETATM   12  C   UNL     1     -11.259   4.702  73.536  1.00  0.00    -0.400 C  
ENDBRANCH  10  11
ENDBRANCH   5  10
BRANCH   9  13
HETATM   13  C   UNL     1     -10.388   8.106  69.380  1.00  0.00    -0.219 C  
HETATM   14  C   UNL     1     -10.355   8.611  68.126  1.00  0.00    -0.216 C  
HETATM   15  N   UNL     1      -9.969   7.812  67.047  1.00  0.00    -0.219 NA 
HETATM   16  C   UNL     1      -9.052   8.385  66.072  1.00  0.00    -0.183 C  
HETATM   17  H   UNL     1     -10.317   6.859  66.946  1.00  0.00     0.000 HD 
HETATM   18  C   UNL     1      -9.706   9.592  65.430  1.00  0.00    -0.365 C  
HETATM   19  C   UNL     1     -10.361  10.493  66.456  1.00  0.00    -0.294 A  
HETATM   20  C   UNL     1     -10.699  11.789  66.035  1.00  0.00    -0.324 A  
HETATM   21  C   UNL     1     -11.364  12.683  66.874  1.00  0.00    -0.320 A  
HETATM   22  C   UNL     1     -11.701  12.259  68.173  1.00  0.00    -0.349 A  
HETATM   23  C   UNL     1     -11.362  10.946  68.594  1.00  0.00    -0.360 A  
HETATM   24  C   UNL     1     -10.690  10.038  67.753  1.00  0.00    -0.333 A  
BRANCH  21  25
HETATM   25  O   UNL     1     -11.703  13.946  66.470  1.00  0.00    -0.354 OA 
BRANCH  25  26
HETATM   26  C   UNL     1     -12.772  14.115  65.542  1.00  0.00    -0.443 C  
HETATM   27  C   UNL     1     -12.196  14.704  64.267  1.00  0.00    -0.432 C  
ENDBRANCH  25  26
ENDBRANCH  21  25
BRANCH  22  28
HETATM   28  O   UNL     1     -12.365  12.982  69.144  1.00  0.00    -0.140 OA 
BRANCH  28  29
HETATM   29  C   UNL     1     -12.218  12.576  70.505  1.00  0.00    -0.297 C  
HETATM   30  C   UNL     1     -12.682  13.689  71.429  1.00  0.00    -0.437 C  
ENDBRANCH  28  29
ENDBRANCH  22  28
ENDBRANCH   9  13
ENDBRANCH   3   4
ENDBRANCH   2   3
TORSDOF 9
ENDMDL
MODEL       89
REMARK 921   NORMALIZED FREE ENERGY PREDICTED BY IDOCK:   -4.29 KCAL/MOL
REMARK 922        TOTAL FREE ENERGY PREDICTED BY IDOCK:   -7.42 KCAL/MOL
REMARK 923 INTER-LIGAND FREE ENERGY PREDICTED BY IDOCK:   -7.28 KCAL/MOL
REMARK 924 INTRA-LIGAND FREE ENERGY PREDICTED BY IDOCK:   -0.15 KCAL/MOL
REMARK 927      BINDING AFFINITY PREDICTED BY RF-SCORE:    0.00 PKD
ROOT
HETATM    1  C   UNL     1     -10.384  17.768  68.602  1.00  0.00    -0.351 C  
HETATM    2  C   UNL     1     -10.906  16.649  67.715  1.00  0.00    -0.292 C  
ENDROOT
BRANCH   2   3
HETATM    3  O   UNL     1     -11.811  15.845  68.466  1.00  0.00    -0.366 OA 
BRANCH   3   4
HETATM    4  C   UNL     1     -11.699  14.477  68.391  1.00  0.00    -0.333 A  
HETATM    5  C   UNL     1     -12.212  13.497  69.263  1.00  0.00    -0.211 A  
HETATM    6  C   UNL     1     -10.966  14.064  67.275  1.00  0.00    -0.303 A  
HETATM    7  C   UNL     1     -11.947  12.134  69.004  1.00  0.00    -0.302 A  
HETATM    8  C   UNL     1     -10.718  12.710  67.032  1.00  0.00    -0.268 A  
HETATM    9  C   UNL     1     -11.163  11.722  67.915  1.00  0.00    -0.331 A  
BRANCH   5  10
HETATM   10  O   UNL     1     -12.945  13.918  70.340  1.00  0.00    -0.212 OA 
BRANCH  10  11
HETATM   11  C   UNL     1     -13.003  13.099  71.497  1.00  0.00    -0.321 C  
HETATM   12  C   UNL     1     -13.580  13.937  72.624  1.00  0.00    -0.626 C  
ENDBRANCH  10  11
ENDBRANCH   5  10
BRANCH   9  13
HETATM   13  C   UNL     1     -10.861  10.271  67.739  1.00  0.00    -0.346 C  
HETATM   14  C   UNL     1     -10.896   9.340  68.718  1.00  0.00    -0.088 C  
HETATM   15  N   UNL     1     -11.214   9.698  70.030  1.00  0.00    -0.287 NA 
HETATM   16  C   UNL     1     -10.402   9.140  71.103  1.00  0.00    -0.317 C  
HETATM   17  H   UNL     1     -11.988  10.330  70.231  1.00  0.00     0.000 HD 
HETATM   18  C   UNL     1     -10.532   7.630  71.084  1.00  0.00    -0.220 C  
HETATM   19  C   UNL     1     -10.404   7.069  69.684  1.00  0.00    -0.222 A  
HETATM   20  C   UNL     1     -10.171   5.688  69.575  1.00  0.00    -0.320 A  
HETATM   21  C   UNL     1     -10.102   5.051  68.336  1.00  0.00    -0.107 A  
HETATM   22  C   UNL     1     -10.275   5.825  67.174  1.00  0.00    -0.207 A  
HETATM   23  C   UNL     1     -10.514   7.220  67.288  1.00  0.00    -0.380 A  
HETATM   24  C   UNL     1     -10.586   7.871  68.534  1.00  0.00    -0.146 A  
BRANCH  21  25
HETATM   25  O   UNL     1      -9.882   3.705  68.221  1.00  0.00    -0.073 OA 
BRANCH  25  26
HETATM   26  C   UNL     1      -8.733   3.134  68.842  1.00  0.00    -0.090 C  
HETATM   27  C   UNL     1      -9.212   2.134  69.880  1.00  0.00    -0.182 C  
ENDBRANCH  25  26
ENDBRANCH  21  25
BRANCH  22  28
HETATM   28  O   UNL     1     -10.253   5.386  65.865  1.00  0.00    -0.100 OA 
BRANCH  28  29
HETATM   29  C   UNL     1      -9.025   4.875  65.345  1.00  0.00    -0.151 C  
HETATM   30  C   UNL     1      -8.182   6.014  64.796  1.00  0.00    -0.123 C  
ENDBRANCH  28  29
ENDBRANCH  22  28
ENDBRANCH   9  13
ENDBRANCH   3   4
ENDBRANCH   2   3
TORSDOF 9
ENDMDL
MODEL       90
REMARK 921   NORMALIZED FREE ENERGY PREDICTED BY IDOCK:   -4.28 KCAL/MOL
REMARK 922        TOTAL FREE ENERGY PREDICTED BY IDOCK:   -7.41 KCAL/MOL
REMARK 923 INTER-LIGAND FREE ENERGY PREDICTED BY IDOCK:   -6.77 KCAL/MOL
REMARK 924 INTRA-LIGAND FREE ENERGY PREDICTED BY IDOCK:   -0.64 KCAL/MOL
REMARK 927      BINDING AFFINITY PREDICTED BY RF-SCORE:    0.00 PKD
ROOT
HETATM    1  C   UNL     1      -8.214   4.760  73.782  1.00  0.00    -0.106 C  
HETATM    2  C   UNL     1      -9.219   5.900  73.734  1.00  0.00    -0.127 C  
ENDROOT
BRANCH   2   3
HETATM    3  O   UNL     1      -9.852   5.909  72.458  1.00  0.00    -0.161 OA 
BRANCH   3   4
HETATM    4  C   UNL     1      -9.971   7.103  71.788  1.00  0.00    -0.175 A  
HETATM    5  C   UNL     1     -11.095   7.943  71.669  1.00  0.00    -0.244 A  
HETATM    6  C   UNL     1      -8.781   7.481  71.159  1.00  0.00    -0.136 A  
HETATM    7  C   UNL     1     -10.998   9.123  70.897  1.00  0.00    -0.349 A  
HETATM    8  C   UNL     1      -8.702   8.655  70.404  1.00  0.00    -0.165 A  
HETATM    9  C   UNL     1      -9.820   9.474  70.219  1.00  0.00    -0.313 A  
BRANCH   5  10
HETATM   10  O   UNL     1     -12.246   7.568  72.307  1.00  0.00    -0.274 OA 
BRANCH  10  11
HETATM   11  C   UNL     1     -13.490   7.751  71.649  1.00  0.00    -0.349 C  
HETATM   12  C   UNL     1     -14.334   8.672  72.511  1.00  0.00    -0.347 C  
ENDBRANCH  10  11
ENDBRANCH   5  10
BRANCH   9  13
HETATM   13  C   UNL     1      -9.806  10.695  69.362  1.00  0.00    -0.164 C  
HETATM   14  C   UNL     1     -10.123  10.734  68.048  1.00  0.00    -0.176 C  
HETATM   15  N   UNL     1     -10.484   9.568  67.369  1.00  0.00    -0.262 NA 
HETATM   16  C   UNL     1      -9.909   9.344  66.050  1.00  0.00    -0.296 C  
HETATM   17  H   UNL     1     -11.128   8.895  67.784  1.00  0.00     0.000 HD 
HETATM   18  C   UNL     1     -10.343  10.466  65.127  1.00  0.00    -0.260 C  
HETATM   19  C   UNL     1     -10.201  11.824  65.782  1.00  0.00    -0.276 A  
HETATM   20  C   UNL     1     -10.246  12.942  64.934  1.00  0.00    -0.296 A  
HETATM   21  C   UNL     1     -10.192  14.244  65.432  1.00  0.00    -0.371 A  
HETATM   22  C   UNL     1     -10.091  14.425  66.824  1.00  0.00    -0.266 A  
HETATM   23  C   UNL     1     -10.050  13.292  67.679  1.00  0.00    -0.229 A  
HETATM   24  C   UNL     1     -10.104  11.975  67.184  1.00  0.00    -0.217 A  
BRANCH  21  25
HETATM   25  O   UNL     1     -10.241  15.339  64.614  1.00  0.00    -0.191 OA 
BRANCH  25  26
HETATM   26  C   UNL     1     -11.502  15.950  64.346  1.00  0.00    -0.264 C  
HETATM   27  C   UNL     1     -12.517  14.844  64.117  1.00  0.00    -0.093 C  
ENDBRANCH  25  26
ENDBRANCH  21  25
BRANCH  22  28
HETATM   28  O   UNL     1     -10.036  15.621  67.511  1.00  0.00    -0.246 OA 
BRANCH  28  29
HETATM   29  C   UNL     1      -8.775  16.285  67.608  1.00  0.00    -0.182 C  
HETATM   30  C   UNL     1      -8.824  17.328  68.712  1.00  0.00    -0.233 C  
ENDBRANCH  28  29
ENDBRANCH  22  28
ENDBRANCH   9  13
ENDBRANCH   3   4
ENDBRANCH   2   3
TORSDOF 9
ENDMDL
MODEL       91
REMARK 921   NORMALIZED FREE ENERGY PREDICTED BY IDOCK:   -4.26 KCAL/MOL
REMARK 922        TOTAL FREE ENERGY PREDICTED BY IDOCK:   -7.38 KCAL/MOL
REMARK 923 INTER-LIGAND FREE ENERGY PREDICTED BY IDOCK:   -6.16 KCAL/MOL
REMARK 924 INTRA-LIGAND FREE ENERGY PREDICTED BY IDOCK:   -1.21 KCAL/MOL
REMARK 927      BINDING AFFINITY PREDICTED BY RF-SCORE:    0.00 PKD
ROOT
HETATM    1  C   UNL     1     -11.121  15.859  70.377  1.00  0.00    -0.382 C  
HETATM    2  C   UNL     1     -11.291  15.273  68.985  1.00  0.00    -0.300 C  
ENDROOT
BRANCH   2   3
HETATM    3  O   UNL     1     -12.232  14.204  69.041  1.00  0.00    -0.332 OA 
BRANCH   3   4
HETATM    4  C   UNL     1     -11.829  12.948  68.660  1.00  0.00    -0.312 A  
HETATM    5  C   UNL     1     -11.544  11.827  69.464  1.00  0.00    -0.332 A  
HETATM    6  C   UNL     1     -11.703  12.827  67.273  1.00  0.00    -0.440 A  
HETATM    7  C   UNL     1     -11.112  10.628  68.853  1.00  0.00    -0.314 A  
HETATM    8  C   UNL     1     -11.279  11.631  66.685  1.00  0.00    -0.362 A  
HETATM    9  C   UNL     1     -10.931  10.524  67.465  1.00  0.00    -0.365 A  
BRANCH   5  10
HETATM   10  O   UNL     1     -11.692  11.955  70.818  1.00  0.00    -0.081 OA 
BRANCH  10  11
HETATM   11  C   UNL     1     -12.895  11.512  71.426  1.00  0.00    -0.384 C  
HETATM   12  C   UNL     1     -13.526  12.706  72.119  1.00  0.00    -0.561 C  
ENDBRANCH  10  11
ENDBRANCH   5  10
BRANCH   9  13
HETATM   13  C   UNL     1     -10.404   9.253  66.889  1.00  0.00    -0.316 C  
HETATM   14  C   UNL     1      -9.117   9.025  66.543  1.00  0.00    -0.163 C  
HETATM   15  N   UNL     1      -8.153  10.025  66.689  1.00  0.00    -0.117 NA 
HETATM   16  C   UNL     1      -7.214  10.229  65.595  1.00  0.00    -0.148 C  
HETATM   17  H   UNL     1      -8.109  10.594  67.534  1.00  0.00     0.000 HD 
HETATM   18  C   UNL     1      -6.410   8.960  65.392  1.00  0.00    -0.063 C  
HETATM   19  C   UNL     1      -7.289   7.727  65.400  1.00  0.00    -0.077 A  
HETATM   20  C   UNL     1      -6.724   6.545  64.894  1.00  0.00    -0.042 A  
HETATM   21  C   UNL     1      -7.417   5.334  64.912  1.00  0.00    -0.069 A  
HETATM   22  C   UNL     1      -8.715   5.313  65.456  1.00  0.00    -0.149 A  
HETATM   23  C   UNL     1      -9.281   6.509  65.970  1.00  0.00    -0.077 A  
HETATM   24  C   UNL     1      -8.588   7.734  65.957  1.00  0.00    -0.166 A  
BRANCH  21  25
HETATM   25  O   UNL     1      -6.872   4.177  64.427  1.00  0.00    -0.043 OA 
BRANCH  25  26
HETATM   26  C   UNL     1      -6.152   3.323  65.313  1.00  0.00    -0.023 C  
HETATM   27  C   UNL     1      -6.695   1.915  65.150  1.00  0.00    -0.027 C  
ENDBRANCH  25  26
ENDBRANCH  21  25
BRANCH  22  28
HETATM   28  O   UNL     1      -9.554   4.223  65.576  1.00  0.00    -0.160 OA 
BRANCH  28  29
HETATM   29  C   UNL     1     -10.501   3.984  64.533  1.00  0.00    -0.197 C  
HETATM   30  C   UNL     1     -10.054   2.803  63.690  1.00  0.00    -0.161 C  
ENDBRANCH  28  29
ENDBRANCH  22  28
ENDBRANCH   9  13
ENDBRANCH   3   4
ENDBRANCH   2   3
TORSDOF 9
ENDMDL
MODEL       92
REMARK 921   NORMALIZED FREE ENERGY PREDICTED BY IDOCK:   -4.22 KCAL/MOL
REMARK 922        TOTAL FREE ENERGY PREDICTED BY IDOCK:   -7.33 KCAL/MOL
REMARK 923 INTER-LIGAND FREE ENERGY PREDICTED BY IDOCK:   -6.39 KCAL/MOL
REMARK 924 INTRA-LIGAND FREE ENERGY PREDICTED BY IDOCK:   -0.94 KCAL/MOL
REMARK 927      BINDING AFFINITY PREDICTED BY RF-SCORE:    0.00 PKD
ROOT
HETATM    1  C   UNL     1      -9.801  19.717  66.285  1.00  0.00    -0.540 C  
HETATM    2  C   UNL     1     -10.559  18.400  66.229  1.00  0.00    -0.311 C  
ENDROOT
BRANCH   2   3
HETATM    3  O   UNL     1      -9.711  17.399  65.671  1.00  0.00    -0.533 OA 
BRANCH   3   4
HETATM    4  C   UNL     1      -9.628  16.179  66.298  1.00  0.00    -0.306 A  
HETATM    5  C   UNL     1      -9.087  15.867  67.560  1.00  0.00    -0.199 A  
HETATM    6  C   UNL     1     -10.172  15.147  65.528  1.00  0.00    -0.405 A  
HETATM    7  C   UNL     1      -9.080  14.524  67.997  1.00  0.00    -0.185 A  
HETATM    8  C   UNL     1     -10.161  13.824  65.979  1.00  0.00    -0.315 A  
HETATM    9  C   UNL     1      -9.575  13.479  67.200  1.00  0.00    -0.241 A  
BRANCH   5  10
HETATM   10  O   UNL     1      -8.576  16.892  68.310  1.00  0.00    -0.214 OA 
BRANCH  10  11
HETATM   11  C   UNL     1      -7.215  17.257  68.144  1.00  0.00    -0.196 C  
HETATM   12  C   UNL     1      -7.040  18.650  68.723  1.00  0.00    -0.326 C  
ENDBRANCH  10  11
ENDBRANCH   5  10
BRANCH   9  13
HETATM   13  C   UNL     1      -9.473  12.074  67.690  1.00  0.00    -0.185 C  
HETATM   14  C   UNL     1      -8.492  11.202  67.367  1.00  0.00    -0.134 C  
HETATM   15  N   UNL     1      -7.469  11.573  66.492  1.00  0.00    -0.327 NA 
HETATM   16  C   UNL     1      -7.081  10.624  65.458  1.00  0.00    -0.048 C  
HETATM   17  H   UNL     1      -7.009  12.479  66.575  1.00  0.00     0.000 HD 
HETATM   18  C   UNL     1      -6.571   9.359  66.116  1.00  0.00    -0.070 C  
HETATM   19  C   UNL     1      -7.473   8.904  67.244  1.00  0.00    -0.084 A  
HETATM   20  C   UNL     1      -7.299   7.587  67.701  1.00  0.00    -0.103 A  
HETATM   21  C   UNL     1      -8.029   7.082  68.778  1.00  0.00    -0.120 A  
HETATM   22  C   UNL     1      -8.957   7.927  69.413  1.00  0.00    -0.145 A  
HETATM   23  C   UNL     1      -9.128   9.259  68.951  1.00  0.00    -0.139 A  
HETATM   24  C   UNL     1      -8.396   9.777  67.866  1.00  0.00    -0.114 A  
BRANCH  21  25
HETATM   25  O   UNL     1      -7.861   5.803  69.234  1.00  0.00    -0.087 OA 
BRANCH  25  26
HETATM   26  C   UNL     1      -7.363   4.808  68.344  1.00  0.00    -0.065 C  
HETATM   27  C   UNL     1      -8.546   4.009  67.827  1.00  0.00    -0.108 C  
ENDBRANCH  25  26
ENDBRANCH  21  25
BRANCH  22  28
HETATM   28  O   UNL     1      -9.762   7.624  70.494  1.00  0.00    -0.181 OA 
BRANCH  28  29
HETATM   29  C   UNL     1     -11.134   7.310  70.245  1.00  0.00    -0.266 C  
HETATM   30  C   UNL     1     -11.239   6.341  69.080  1.00  0.00    -0.439 C  
ENDBRANCH  28  29
ENDBRANCH  22  28
ENDBRANCH   9  13
ENDBRANCH   3   4
ENDBRANCH   2   3
TORSDOF 9
ENDMDL
MODEL       93
REMARK 921   NORMALIZED FREE ENERGY PREDICTED BY IDOCK:   -4.22 KCAL/MOL
REMARK 922        TOTAL FREE ENERGY PREDICTED BY IDOCK:   -7.31 KCAL/MOL
REMARK 923 INTER-LIGAND FREE ENERGY PREDICTED BY IDOCK:   -6.62 KCAL/MOL
REMARK 924 INTRA-LIGAND FREE ENERGY PREDICTED BY IDOCK:   -0.69 KCAL/MOL
REMARK 927      BINDING AFFINITY PREDICTED BY RF-SCORE:    0.00 PKD
ROOT
HETATM    1  C   UNL     1     -10.286  17.470  67.740  1.00  0.00    -0.349 C  
HETATM    2  C   UNL     1     -10.895  16.084  67.605  1.00  0.00    -0.311 C  
ENDROOT
BRANCH   2   3
HETATM    3  O   UNL     1     -10.147  15.339  66.648  1.00  0.00    -0.249 OA 
BRANCH   3   4
HETATM    4  C   UNL     1     -10.216  13.967  66.679  1.00  0.00    -0.276 A  
HETATM    5  C   UNL     1     -11.248  13.121  66.228  1.00  0.00    -0.301 A  
HETATM    6  C   UNL     1      -9.075  13.390  67.244  1.00  0.00    -0.222 A  
HETATM    7  C   UNL     1     -11.117  11.723  66.389  1.00  0.00    -0.360 A  
HETATM    8  C   UNL     1      -8.961  12.004  67.390  1.00  0.00    -0.176 A  
HETATM    9  C   UNL     1      -9.997  11.147  67.008  1.00  0.00    -0.223 A  
BRANCH   5  10
HETATM   10  O   UNL     1     -12.349  13.701  65.659  1.00  0.00    -0.421 OA 
BRANCH  10  11
HETATM   11  C   UNL     1     -12.333  13.996  64.271  1.00  0.00    -0.355 C  
HETATM   12  C   UNL     1     -12.451  12.681  63.521  1.00  0.00    -0.516 C  
ENDBRANCH  10  11
ENDBRANCH   5  10
BRANCH   9  13
HETATM   13  C   UNL     1      -9.953   9.670  67.211  1.00  0.00    -0.250 C  
HETATM   14  C   UNL     1      -9.854   9.046  68.407  1.00  0.00    -0.166 C  
HETATM   15  N   UNL     1      -9.761   9.785  69.589  1.00  0.00    -0.209 NA 
HETATM   16  C   UNL     1      -8.778   9.364  70.577  1.00  0.00    -0.231 C  
HETATM   17  H   UNL     1     -10.361  10.592  69.753  1.00  0.00     0.000 HD 
HETATM   18  C   UNL     1      -9.113   7.959  71.037  1.00  0.00    -0.155 C  
HETATM   19  C   UNL     1      -9.438   7.045  69.875  1.00  0.00    -0.157 A  
HETATM   20  C   UNL     1      -9.433   5.665  70.135  1.00  0.00    -0.200 A  
HETATM   21  C   UNL     1      -9.781   4.733  69.157  1.00  0.00    -0.188 A  
HETATM   22  C   UNL     1     -10.148   5.204  67.882  1.00  0.00    -0.137 A  
HETATM   23  C   UNL     1     -10.157   6.600  67.625  1.00  0.00    -0.192 A  
HETATM   24  C   UNL     1      -9.806   7.548  68.605  1.00  0.00    -0.169 A  
BRANCH  21  25
HETATM   25  O   UNL     1      -9.785   3.387  69.403  1.00  0.00    -0.133 OA 
BRANCH  25  26
HETATM   26  C   UNL     1      -8.633   2.617  69.068  1.00  0.00    -0.074 C  
HETATM   27  C   UNL     1      -9.059   1.542  68.085  1.00  0.00    -0.187 C  
ENDBRANCH  25  26
ENDBRANCH  21  25
BRANCH  22  28
HETATM   28  O   UNL     1     -10.534   4.451  66.791  1.00  0.00    -0.080 OA 
BRANCH  28  29
HETATM   29  C   UNL     1      -9.889   4.698  65.540  1.00  0.00    -0.184 C  
HETATM   30  C   UNL     1      -9.332   3.400  64.982  1.00  0.00    -0.154 C  
ENDBRANCH  28  29
ENDBRANCH  22  28
ENDBRANCH   9  13
ENDBRANCH   3   4
ENDBRANCH   2   3
TORSDOF 9
ENDMDL
MODEL       94
REMARK 921   NORMALIZED FREE ENERGY PREDICTED BY IDOCK:   -4.15 KCAL/MOL
REMARK 922        TOTAL FREE ENERGY PREDICTED BY IDOCK:   -7.21 KCAL/MOL
REMARK 923 INTER-LIGAND FREE ENERGY PREDICTED BY IDOCK:   -6.81 KCAL/MOL
REMARK 924 INTRA-LIGAND FREE ENERGY PREDICTED BY IDOCK:   -0.41 KCAL/MOL
REMARK 927      BINDING AFFINITY PREDICTED BY RF-SCORE:    0.00 PKD
ROOT
HETATM    1  C   UNL     1      -7.854   2.137  67.427  1.00  0.00    -0.064 C  
HETATM    2  C   UNL     1      -8.853   3.248  67.146  1.00  0.00    -0.138 C  
ENDROOT
BRANCH   2   3
HETATM    3  O   UNL     1      -9.472   3.636  68.369  1.00  0.00    -0.172 OA 
BRANCH   3   4
HETATM    4  C   UNL     1      -9.644   4.975  68.627  1.00  0.00    -0.148 A  
HETATM    5  C   UNL     1      -9.442   5.677  69.832  1.00  0.00    -0.156 A  
HETATM    6  C   UNL     1     -10.076   5.683  67.502  1.00  0.00    -0.208 A  
HETATM    7  C   UNL     1      -9.712   7.063  69.878  1.00  0.00    -0.163 A  
HETATM    8  C   UNL     1     -10.333   7.056  67.566  1.00  0.00    -0.288 A  
HETATM    9  C   UNL     1     -10.201   7.764  68.764  1.00  0.00    -0.212 A  
BRANCH   5  10
HETATM   10  O   UNL     1      -8.999   4.972  70.918  1.00  0.00    -0.128 OA 
BRANCH  10  11
HETATM   11  C   UNL     1      -8.093   5.590  71.818  1.00  0.00    -0.118 C  
HETATM   12  C   UNL     1      -6.727   4.967  71.593  1.00  0.00    -0.043 C  
ENDBRANCH  10  11
ENDBRANCH   5  10
BRANCH   9  13
HETATM   13  C   UNL     1     -10.533   9.211  68.899  1.00  0.00    -0.239 C  
HETATM   14  C   UNL     1     -10.433  10.133  67.915  1.00  0.00    -0.222 C  
HETATM   15  N   UNL     1      -9.966   9.773  66.648  1.00  0.00    -0.215 NA 
HETATM   16  C   UNL     1      -9.001  10.653  66.004  1.00  0.00    -0.172 C  
HETATM   17  H   UNL     1     -10.291   8.922  66.190  1.00  0.00     0.000 HD 
HETATM   18  C   UNL     1      -9.636  12.014  65.798  1.00  0.00    -0.227 C  
HETATM   19  C   UNL     1     -10.368  12.489  67.035  1.00  0.00    -0.236 A  
HETATM   20  C   UNL     1     -10.703  13.853  67.086  1.00  0.00    -0.282 A  
HETATM   21  C   UNL     1     -11.435  14.389  68.146  1.00  0.00    -0.310 A  
HETATM   22  C   UNL     1     -11.843  13.528  69.181  1.00  0.00    -0.340 A  
HETATM   23  C   UNL     1     -11.507  12.150  69.124  1.00  0.00    -0.352 A  
HETATM   24  C   UNL     1     -10.769  11.601  68.058  1.00  0.00    -0.246 A  
BRANCH  21  25
HETATM   25  O   UNL     1     -11.770  15.714  68.201  1.00  0.00    -0.331 OA 
BRANCH  25  26
HETATM   26  C   UNL     1     -10.759  16.697  67.989  1.00  0.00    -0.350 C  
HETATM   27  C   UNL     1      -9.669  16.476  69.023  1.00  0.00    -0.258 C  
ENDBRANCH  25  26
ENDBRANCH  21  25
BRANCH  22  28
HETATM   28  O   UNL     1     -12.579  13.858  70.303  1.00  0.00    -0.328 OA 
BRANCH  28  29
HETATM   29  C   UNL     1     -11.939  14.622  71.327  1.00  0.00    -0.343 C  
HETATM   30  C   UNL     1     -12.839  15.769  71.754  1.00  0.00    -0.517 C  
ENDBRANCH  28  29
ENDBRANCH  22  28
ENDBRANCH   9  13
ENDBRANCH   3   4
ENDBRANCH   2   3
TORSDOF 9
ENDMDL
MODEL       95
REMARK 921   NORMALIZED FREE ENERGY PREDICTED BY IDOCK:   -4.14 KCAL/MOL
REMARK 922        TOTAL FREE ENERGY PREDICTED BY IDOCK:   -7.19 KCAL/MOL
REMARK 923 INTER-LIGAND FREE ENERGY PREDICTED BY IDOCK:   -6.88 KCAL/MOL
REMARK 924 INTRA-LIGAND FREE ENERGY PREDICTED BY IDOCK:   -0.31 KCAL/MOL
REMARK 927      BINDING AFFINITY PREDICTED BY RF-SCORE:    0.00 PKD
ROOT
HETATM    1  C   UNL     1     -12.159  12.755  63.311  1.00  0.00    -0.524 C  
HETATM    2  C   UNL     1     -11.962  13.579  64.574  1.00  0.00    -0.410 C  
ENDROOT
BRANCH   2   3
HETATM    3  O   UNL     1     -10.749  13.180  65.205  1.00  0.00    -0.289 OA 
BRANCH   3   4
HETATM    4  C   UNL     1     -10.773  12.111  66.068  1.00  0.00    -0.273 A  
HETATM    5  C   UNL     1     -11.422  11.991  67.312  1.00  0.00    -0.335 A  
HETATM    6  C   UNL     1     -10.036  11.024  65.589  1.00  0.00    -0.299 A  
HETATM    7  C   UNL     1     -11.285  10.795  68.052  1.00  0.00    -0.372 A  
HETATM    8  C   UNL     1      -9.915   9.846  66.333  1.00  0.00    -0.309 A  
HETATM    9  C   UNL     1     -10.499   9.725  67.598  1.00  0.00    -0.305 A  
BRANCH   5  10
HETATM   10  O   UNL     1     -12.156  13.057  67.757  1.00  0.00    -0.318 OA 
BRANCH  10  11
HETATM   11  C   UNL     1     -11.574  13.955  68.688  1.00  0.00    -0.328 C  
HETATM   12  C   UNL     1     -11.141  15.193  67.921  1.00  0.00    -0.322 C  
ENDBRANCH  10  11
ENDBRANCH   5  10
BRANCH   9  13
HETATM   13  C   UNL     1     -10.337   8.518  68.460  1.00  0.00    -0.230 C  
HETATM   14  C   UNL     1      -9.999   7.284  68.023  1.00  0.00    -0.157 C  
HETATM   15  N   UNL     1      -9.788   7.043  66.664  1.00  0.00    -0.296 NA 
HETATM   16  C   UNL     1     -10.369   5.837  66.090  1.00  0.00     0.021 C  
HETATM   17  H   UNL     1      -9.245   7.690  66.093  1.00  0.00     0.000 HD 
HETATM   18  C   UNL     1      -9.775   4.627  66.782  1.00  0.00    -0.214 C  
HETATM   19  C   UNL     1      -9.744   4.795  68.287  1.00  0.00    -0.200 A  
HETATM   20  C   UNL     1      -9.537   3.632  69.048  1.00  0.00    -0.165 A  
HETATM   21  C   UNL     1      -9.424   3.677  70.438  1.00  0.00    -0.185 A  
HETATM   22  C   UNL     1      -9.519   4.926  71.079  1.00  0.00    -0.164 A  
HETATM   23  C   UNL     1      -9.724   6.098  70.305  1.00  0.00    -0.195 A  
HETATM   24  C   UNL     1      -9.839   6.063  68.902  1.00  0.00    -0.173 A  
BRANCH  21  25
HETATM   25  O   UNL     1      -9.217   2.551  71.187  1.00  0.00    -0.100 OA 
BRANCH  25  26
HETATM   26  C   UNL     1      -8.145   1.675  70.843  1.00  0.00    -0.042 C  
HETATM   27  C   UNL     1      -6.853   2.302  71.336  1.00  0.00    -0.031 C  
ENDBRANCH  25  26
ENDBRANCH  21  25
BRANCH  22  28
HETATM   28  O   UNL     1      -9.424   5.181  72.432  1.00  0.00    -0.142 OA 
BRANCH  28  29
HETATM   29  C   UNL     1      -9.332   6.543  72.856  1.00  0.00    -0.135 C  
HETATM   30  C   UNL     1     -10.509   6.885  73.753  1.00  0.00    -0.390 C  
ENDBRANCH  28  29
ENDBRANCH  22  28
ENDBRANCH   9  13
ENDBRANCH   3   4
ENDBRANCH   2   3
TORSDOF 9
ENDMDL
MODEL       96
REMARK 921   NORMALIZED FREE ENERGY PREDICTED BY IDOCK:   -4.13 KCAL/MOL
REMARK 922        TOTAL FREE ENERGY PREDICTED BY IDOCK:   -7.18 KCAL/MOL
REMARK 923 INTER-LIGAND FREE ENERGY PREDICTED BY IDOCK:   -6.16 KCAL/MOL
REMARK 924 INTRA-LIGAND FREE ENERGY PREDICTED BY IDOCK:   -1.02 KCAL/MOL
REMARK 927      BINDING AFFINITY PREDICTED BY RF-SCORE:    0.00 PKD
ROOT
HETATM    1  C   UNL     1      -8.701   1.958  67.329  1.00  0.00    -0.131 C  
HETATM    2  C   UNL     1      -9.532   3.076  67.940  1.00  0.00    -0.155 C  
ENDROOT
BRANCH   2   3
HETATM    3  O   UNL     1      -8.676   4.168  68.264  1.00  0.00    -0.093 OA 
BRANCH   3   4
HETATM    4  C   UNL     1      -9.101   5.445  67.987  1.00  0.00    -0.109 A  
HETATM    5  C   UNL     1      -9.249   6.078  66.738  1.00  0.00    -0.136 A  
HETATM    6  C   UNL     1      -9.415   6.163  69.145  1.00  0.00    -0.144 A  
HETATM    7  C   UNL     1      -9.677   7.423  66.690  1.00  0.00    -0.262 A  
HETATM    8  C   UNL     1      -9.842   7.493  69.078  1.00  0.00    -0.170 A  
HETATM    9  C   UNL     1      -9.938   8.163  67.854  1.00  0.00    -0.225 A  
BRANCH   5  10
HETATM   10  O   UNL     1      -8.956   5.354  65.614  1.00  0.00    -0.157 OA 
BRANCH  10  11
HETATM   11  C   UNL     1      -7.618   5.320  65.144  1.00  0.00    -0.082 C  
HETATM   12  C   UNL     1      -7.575   6.076  63.828  1.00  0.00    -0.087 C  
ENDBRANCH  10  11
ENDBRANCH   5  10
BRANCH   9  13
HETATM   13  C   UNL     1     -10.318   9.601  67.738  1.00  0.00    -0.286 C  
HETATM   14  C   UNL     1      -9.459  10.644  67.793  1.00  0.00    -0.153 C  
HETATM   15  N   UNL     1      -8.094  10.432  67.994  1.00  0.00    -0.109 NA 
HETATM   16  C   UNL     1      -7.405  11.294  68.945  1.00  0.00    -0.115 C  
HETATM   17  H   UNL     1      -7.595   9.698  67.491  1.00  0.00     0.000 HD 
HETATM   18  C   UNL     1      -7.496  12.729  68.466  1.00  0.00    -0.120 C  
HETATM   19  C   UNL     1      -8.896  13.087  68.014  1.00  0.00    -0.191 A  
HETATM   20  C   UNL     1      -9.184  14.454  67.871  1.00  0.00    -0.195 A  
HETATM   21  C   UNL     1     -10.419  14.898  67.399  1.00  0.00    -0.255 A  
HETATM   22  C   UNL     1     -11.391  13.939  67.059  1.00  0.00    -0.326 A  
HETATM   23  C   UNL     1     -11.095  12.558  67.201  1.00  0.00    -0.321 A  
HETATM   24  C   UNL     1      -9.851  12.101  67.676  1.00  0.00    -0.194 A  
BRANCH  21  25
HETATM   25  O   UNL     1     -10.706  16.228  67.250  1.00  0.00    -0.314 OA 
BRANCH  25  26
HETATM   26  C   UNL     1      -9.860  17.194  67.869  1.00  0.00    -0.283 C  
HETATM   27  C   UNL     1     -10.455  18.568  67.613  1.00  0.00    -0.452 C  
ENDBRANCH  25  26
ENDBRANCH  21  25
BRANCH  22  28
HETATM   28  O   UNL     1     -12.660  14.171  66.567  1.00  0.00    -0.394 OA 
BRANCH  28  29
HETATM   29  C   UNL     1     -12.965  13.715  65.248  1.00  0.00    -0.259 C  
HETATM   30  C   UNL     1     -12.196  14.536  64.226  1.00  0.00    -0.441 C  
ENDBRANCH  28  29
ENDBRANCH  22  28
ENDBRANCH   9  13
ENDBRANCH   3   4
ENDBRANCH   2   3
TORSDOF 9
ENDMDL
MODEL       97
REMARK 921   NORMALIZED FREE ENERGY PREDICTED BY IDOCK:   -4.04 KCAL/MOL
REMARK 922        TOTAL FREE ENERGY PREDICTED BY IDOCK:   -7.05 KCAL/MOL
REMARK 923 INTER-LIGAND FREE ENERGY PREDICTED BY IDOCK:   -5.81 KCAL/MOL
REMARK 924 INTRA-LIGAND FREE ENERGY PREDICTED BY IDOCK:   -1.24 KCAL/MOL
REMARK 927      BINDING AFFINITY PREDICTED BY RF-SCORE:    0.00 PKD
ROOT
HETATM    1  C   UNL     1      -6.292  20.706  68.486  1.00  0.00    -0.322 C  
HETATM    2  C   UNL     1      -6.441  19.683  69.601  1.00  0.00    -0.336 C  
ENDROOT
BRANCH   2   3
HETATM    3  O   UNL     1      -5.458  18.666  69.434  1.00  0.00    -0.200 OA 
BRANCH   3   4
HETATM    4  C   UNL     1      -5.856  17.427  68.994  1.00  0.00    -0.191 A  
HETATM    5  C   UNL     1      -6.100  16.991  67.677  1.00  0.00    -0.140 A  
HETATM    6  C   UNL     1      -6.025  16.519  70.043  1.00  0.00    -0.179 A  
HETATM    7  C   UNL     1      -6.536  15.665  67.456  1.00  0.00    -0.212 A  
HETATM    8  C   UNL     1      -6.453  15.209  69.806  1.00  0.00    -0.166 A  
HETATM    9  C   UNL     1      -6.761  14.770  68.514  1.00  0.00    -0.097 A  
BRANCH   5  10
HETATM   10  O   UNL     1      -5.910  17.886  66.660  1.00  0.00    -0.139 OA 
BRANCH  10  11
HETATM   11  C   UNL     1      -6.884  17.979  65.632  1.00  0.00    -0.166 C  
HETATM   12  C   UNL     1      -8.096  18.688  66.210  1.00  0.00    -0.267 C  
ENDBRANCH  10  11
ENDBRANCH   5  10
BRANCH   9  13
HETATM   13  C   UNL     1      -7.290  13.407  68.219  1.00  0.00    -0.113 C  
HETATM   14  C   UNL     1      -8.585  13.106  67.973  1.00  0.00    -0.182 C  
HETATM   15  N   UNL     1      -9.564  14.102  68.001  1.00  0.00    -0.211 NA 
HETATM   16  C   UNL     1     -10.816  13.805  68.684  1.00  0.00    -0.263 C  
HETATM   17  H   UNL     1      -9.408  15.007  67.559  1.00  0.00     0.000 HD 
HETATM   18  C   UNL     1     -11.489  12.636  67.993  1.00  0.00    -0.366 C  
HETATM   19  C   UNL     1     -10.514  11.514  67.701  1.00  0.00    -0.218 A  
HETATM   20  C   UNL     1     -11.068  10.264  67.378  1.00  0.00    -0.261 A  
HETATM   21  C   UNL     1     -10.268   9.176  67.028  1.00  0.00    -0.263 A  
HETATM   22  C   UNL     1      -8.872   9.352  66.999  1.00  0.00    -0.127 A  
HETATM   23  C   UNL     1      -8.317  10.618  67.322  1.00  0.00    -0.120 A  
HETATM   24  C   UNL     1      -9.116  11.721  67.677  1.00  0.00    -0.177 A  
BRANCH  21  25
HETATM   25  O   UNL     1     -10.798   7.957  66.706  1.00  0.00    -0.234 OA 
BRANCH  25  26
HETATM   26  C   UNL     1     -10.849   6.936  67.700  1.00  0.00    -0.263 C  
HETATM   27  C   UNL     1     -10.482   5.620  67.038  1.00  0.00    -0.344 C  
ENDBRANCH  25  26
ENDBRANCH  21  25
BRANCH  22  28
HETATM   28  O   UNL     1      -7.916   8.412  66.670  1.00  0.00    -0.095 OA 
BRANCH  28  29
HETATM   29  C   UNL     1      -6.828   8.212  67.573  1.00  0.00    -0.070 C  
HETATM   30  C   UNL     1      -7.228   7.222  68.654  1.00  0.00    -0.090 C  
ENDBRANCH  28  29
ENDBRANCH  22  28
ENDBRANCH   9  13
ENDBRANCH   3   4
ENDBRANCH   2   3
TORSDOF 9
ENDMDL
MODEL       98
REMARK 921   NORMALIZED FREE ENERGY PREDICTED BY IDOCK:   -4.02 KCAL/MOL
REMARK 922        TOTAL FREE ENERGY PREDICTED BY IDOCK:   -7.01 KCAL/MOL
REMARK 923 INTER-LIGAND FREE ENERGY PREDICTED BY IDOCK:   -6.40 KCAL/MOL
REMARK 924 INTRA-LIGAND FREE ENERGY PREDICTED BY IDOCK:   -0.60 KCAL/MOL
REMARK 927      BINDING AFFINITY PREDICTED BY RF-SCORE:    0.00 PKD
ROOT
HETATM    1  C   UNL     1      -9.546  15.590  65.753  1.00  0.00    -0.367 C  
HETATM    2  C   UNL     1     -10.562  16.089  66.769  1.00  0.00    -0.297 C  
ENDROOT
BRANCH   2   3
HETATM    3  O   UNL     1     -11.674  15.199  66.790  1.00  0.00    -0.229 OA 
BRANCH   3   4
HETATM    4  C   UNL     1     -11.456  13.876  67.086  1.00  0.00    -0.347 A  
HETATM    5  C   UNL     1     -11.114  13.289  68.320  1.00  0.00    -0.266 A  
HETATM    6  C   UNL     1     -11.612  13.048  65.970  1.00  0.00    -0.409 A  
HETATM    7  C   UNL     1     -10.907  11.893  68.389  1.00  0.00    -0.263 A  
HETATM    8  C   UNL     1     -11.408  11.668  66.058  1.00  0.00    -0.261 A  
HETATM    9  C   UNL     1     -11.007  11.069  67.256  1.00  0.00    -0.356 A  
BRANCH   5  10
HETATM   10  O   UNL     1     -10.986  14.110  69.407  1.00  0.00    -0.239 OA 
BRANCH  10  11
HETATM   11  C   UNL     1     -12.153  14.530  70.096  1.00  0.00    -0.334 C  
HETATM   12  C   UNL     1     -11.769  15.708  70.974  1.00  0.00    -0.444 C  
ENDBRANCH  10  11
ENDBRANCH   5  10
BRANCH   9  13
HETATM   13  C   UNL     1     -10.706   9.613  67.382  1.00  0.00    -0.308 C  
HETATM   14  C   UNL     1      -9.717   8.960  66.731  1.00  0.00    -0.219 C  
HETATM   15  N   UNL     1      -8.884   9.637  65.838  1.00  0.00    -0.146 NA 
HETATM   16  C   UNL     1      -8.587   8.994  64.565  1.00  0.00    -0.156 C  
HETATM   17  H   UNL     1      -8.497  10.551  66.069  1.00  0.00     0.000 HD 
HETATM   18  C   UNL     1      -7.869   7.686  64.831  1.00  0.00    -0.128 C  
HETATM   19  C   UNL     1      -8.536   6.887  65.931  1.00  0.00    -0.147 A  
HETATM   20  C   UNL     1      -8.177   5.533  66.036  1.00  0.00    -0.114 A  
HETATM   21  C   UNL     1      -8.677   4.718  67.052  1.00  0.00    -0.103 A  
HETATM   22  C   UNL     1      -9.562   5.283  67.989  1.00  0.00    -0.132 A  
HETATM   23  C   UNL     1      -9.919   6.652  67.882  1.00  0.00    -0.152 A  
HETATM   24  C   UNL     1      -9.419   7.482  66.860  1.00  0.00    -0.219 A  
BRANCH  21  25
HETATM   25  O   UNL     1      -8.328   3.400  67.165  1.00  0.00    -0.089 OA 
BRANCH  25  26
HETATM   26  C   UNL     1      -7.108   2.952  66.581  1.00  0.00    -0.054 C  
HETATM   27  C   UNL     1      -6.037   2.978  67.657  1.00  0.00    -0.028 C  
ENDBRANCH  25  26
ENDBRANCH  21  25
BRANCH  22  28
HETATM   28  O   UNL     1     -10.153   4.653  69.066  1.00  0.00    -0.152 OA 
BRANCH  28  29
HETATM   29  C   UNL     1      -9.843   5.127  70.378  1.00  0.00    -0.218 C  
HETATM   30  C   UNL     1      -9.424   3.965  71.261  1.00  0.00    -0.229 C  
ENDBRANCH  28  29
ENDBRANCH  22  28
ENDBRANCH   9  13
ENDBRANCH   3   4
ENDBRANCH   2   3
TORSDOF 9
ENDMDL
MODEL       99
REMARK 921   NORMALIZED FREE ENERGY PREDICTED BY IDOCK:   -4.01 KCAL/MOL
REMARK 922        TOTAL FREE ENERGY PREDICTED BY IDOCK:   -7.00 KCAL/MOL
REMARK 923 INTER-LIGAND FREE ENERGY PREDICTED BY IDOCK:   -5.96 KCAL/MOL
REMARK 924 INTRA-LIGAND FREE ENERGY PREDICTED BY IDOCK:   -1.04 KCAL/MOL
REMARK 927      BINDING AFFINITY PREDICTED BY RF-SCORE:    0.00 PKD
ROOT
HETATM    1  C   UNL     1     -10.381  19.715  67.330  1.00  0.00    -0.581 C  
HETATM    2  C   UNL     1     -10.323  18.251  66.923  1.00  0.00    -0.385 C  
ENDROOT
BRANCH   2   3
HETATM    3  O   UNL     1     -11.077  17.479  67.853  1.00  0.00    -0.241 OA 
BRANCH   3   4
HETATM    4  C   UNL     1     -10.848  16.126  67.928  1.00  0.00    -0.332 A  
HETATM    5  C   UNL     1     -11.388  15.185  68.826  1.00  0.00    -0.300 A  
HETATM    6  C   UNL     1      -9.949  15.683  66.953  1.00  0.00    -0.252 A  
HETATM    7  C   UNL     1     -10.985  13.834  68.738  1.00  0.00    -0.289 A  
HETATM    8  C   UNL     1      -9.565  14.341  66.878  1.00  0.00    -0.268 A  
HETATM    9  C   UNL     1     -10.039  13.399  67.796  1.00  0.00    -0.232 A  
BRANCH   5  10
HETATM   10  O   UNL     1     -12.282  15.631  69.761  1.00  0.00    -0.360 OA 
BRANCH  10  11
HETATM   11  C   UNL     1     -12.843  14.704  70.677  1.00  0.00    -0.342 C  
HETATM   12  C   UNL     1     -13.978  15.405  71.401  1.00  0.00    -0.565 C  
ENDBRANCH  10  11
ENDBRANCH   5  10
BRANCH   9  13
HETATM   13  C   UNL     1      -9.602  11.973  67.803  1.00  0.00    -0.193 C  
HETATM   14  C   UNL     1      -8.534  11.484  68.472  1.00  0.00    -0.143 C  
HETATM   15  N   UNL     1      -7.715  12.332  69.221  1.00  0.00    -0.308 NA 
HETATM   16  C   UNL     1      -6.273  12.166  69.101  1.00  0.00    -0.088 C  
HETATM   17  H   UNL     1      -8.114  13.044  69.832  1.00  0.00     0.000 HD 
HETATM   18  C   UNL     1      -5.898  10.773  69.567  1.00  0.00    -0.043 C  
HETATM   19  C   UNL     1      -6.820   9.717  68.994  1.00  0.00    -0.050 A  
HETATM   20  C   UNL     1      -6.382   8.385  69.073  1.00  0.00    -0.044 A  
HETATM   21  C   UNL     1      -7.176   7.324  68.637  1.00  0.00    -0.090 A  
HETATM   22  C   UNL     1      -8.449   7.613  68.109  1.00  0.00    -0.124 A  
HETATM   23  C   UNL     1      -8.889   8.960  68.035  1.00  0.00    -0.133 A  
HETATM   24  C   UNL     1      -8.094  10.037  68.472  1.00  0.00    -0.103 A  
BRANCH  21  25
HETATM   25  O   UNL     1      -6.761   6.023  68.716  1.00  0.00    -0.059 OA 
BRANCH  25  26
HETATM   26  C   UNL     1      -6.531   5.444  69.998  1.00  0.00    -0.031 C  
HETATM   27  C   UNL     1      -7.343   4.164  70.085  1.00  0.00    -0.045 C  
ENDBRANCH  25  26
ENDBRANCH  21  25
BRANCH  22  28
HETATM   28  O   UNL     1      -9.383   6.712  67.639  1.00  0.00    -0.121 OA 
BRANCH  28  29
HETATM   29  C   UNL     1      -9.535   6.575  66.225  1.00  0.00    -0.083 C  
HETATM   30  C   UNL     1      -8.720   5.393  65.730  1.00  0.00    -0.149 C  
ENDBRANCH  28  29
ENDBRANCH  22  28
ENDBRANCH   9  13
ENDBRANCH   3   4
ENDBRANCH   2   3
TORSDOF 9
ENDMDL
MODEL      100
REMARK 921   NORMALIZED FREE ENERGY PREDICTED BY IDOCK:   -4.01 KCAL/MOL
REMARK 922        TOTAL FREE ENERGY PREDICTED BY IDOCK:   -6.99 KCAL/MOL
REMARK 923 INTER-LIGAND FREE ENERGY PREDICTED BY IDOCK:   -6.84 KCAL/MOL
REMARK 924 INTRA-LIGAND FREE ENERGY PREDICTED BY IDOCK:   -0.15 KCAL/MOL
REMARK 927      BINDING AFFINITY PREDICTED BY RF-SCORE:    0.00 PKD
ROOT
HETATM    1  C   UNL     1     -12.065  16.203  72.407  1.00  0.00    -0.630 C  
HETATM    2  C   UNL     1     -12.811  15.536  71.262  1.00  0.00    -0.475 C  
ENDROOT
BRANCH   2   3
HETATM    3  O   UNL     1     -11.978  15.528  70.106  1.00  0.00    -0.319 OA 
BRANCH   3   4
HETATM    4  C   UNL     1     -11.541  14.321  69.616  1.00  0.00    -0.296 A  
HETATM    5  C   UNL     1     -10.595  14.067  68.603  1.00  0.00    -0.257 A  
HETATM    6  C   UNL     1     -12.154  13.236  70.248  1.00  0.00    -0.405 A  
HETATM    7  C   UNL     1     -10.318  12.732  68.235  1.00  0.00    -0.248 A  
HETATM    8  C   UNL     1     -11.863  11.921  69.874  1.00  0.00    -0.418 A  
HETATM    9  C   UNL     1     -10.975  11.643  68.830  1.00  0.00    -0.282 A  
BRANCH   5  10
HETATM   10  O   UNL     1      -9.990  15.140  68.008  1.00  0.00    -0.219 OA 
BRANCH  10  11
HETATM   11  C   UNL     1     -10.725  15.920  67.078  1.00  0.00    -0.292 C  
HETATM   12  C   UNL     1     -10.586  15.261  65.717  1.00  0.00    -0.359 C  
ENDBRANCH  10  11
ENDBRANCH   5  10
BRANCH   9  13
HETATM   13  C   UNL     1     -10.688  10.262  68.346  1.00  0.00    -0.263 C  
HETATM   14  C   UNL     1      -9.883   9.948  67.306  1.00  0.00    -0.182 C  
HETATM   15  N   UNL     1      -9.251  10.951  66.567  1.00  0.00    -0.167 NA 
HETATM   16  C   UNL     1      -9.257  10.832  65.116  1.00  0.00    -0.209 C  
HETATM   17  H   UNL     1      -8.802  11.741  67.029  1.00  0.00     0.000 HD 
HETATM   18  C   UNL     1      -8.529   9.562  64.723  1.00  0.00    -0.170 C  
HETATM   19  C   UNL     1      -8.956   8.381  65.570  1.00  0.00    -0.149 A  
HETATM   20  C   UNL     1      -8.615   7.105  65.092  1.00  0.00     0.053 A  
HETATM   21  C   UNL     1      -8.898   5.949  65.820  1.00  0.00    -0.139 A  
HETATM   22  C   UNL     1      -9.541   6.082  67.064  1.00  0.00    -0.133 A  
HETATM   23  C   UNL     1      -9.880   7.373  67.546  1.00  0.00    -0.203 A  
HETATM   24  C   UNL     1      -9.598   8.545  66.818  1.00  0.00    -0.273 A  
BRANCH  21  25
HETATM   25  O   UNL     1      -8.564   4.703  65.365  1.00  0.00    -0.121 OA 
BRANCH  25  26
HETATM   26  C   UNL     1      -7.198   4.296  65.395  1.00  0.00    -0.071 C  
HETATM   27  C   UNL     1      -7.078   3.135  66.366  1.00  0.00    -0.058 C  
ENDBRANCH  25  26
ENDBRANCH  21  25
BRANCH  22  28
HETATM   28  O   UNL     1      -9.895   5.071  67.935  1.00  0.00    -0.147 OA 
BRANCH  28  29
HETATM   29  C   UNL     1      -9.073   4.850  69.083  1.00  0.00    -0.103 C  
HETATM   30  C   UNL     1      -9.943   4.593  70.301  1.00  0.00    -0.309 C  
ENDBRANCH  28  29
ENDBRANCH  22  28
ENDBRANCH   9  13
ENDBRANCH   3   4
ENDBRANCH   2   3
TORSDOF 9
ENDMDL
MODEL      101
REMARK 921   NORMALIZED FREE ENERGY PREDICTED BY IDOCK:   -4.00 KCAL/MOL
REMARK 922        TOTAL FREE ENERGY PREDICTED BY IDOCK:   -6.98 KCAL/MOL
REMARK 923 INTER-LIGAND FREE ENERGY PREDICTED BY IDOCK:   -5.99 KCAL/MOL
REMARK 924 INTRA-LIGAND FREE ENERGY PREDICTED BY IDOCK:   -0.99 KCAL/MOL
REMARK 927      BINDING AFFINITY PREDICTED BY RF-SCORE:    0.00 PKD
ROOT
HETATM    1  C   UNL     1     -11.426  15.928  64.414  1.00  0.00    -0.268 C  
HETATM    2  C   UNL     1     -11.721  14.643  65.171  1.00  0.00    -0.364 C  
ENDROOT
BRANCH   2   3
HETATM    3  O   UNL     1     -11.429  14.840  66.552  1.00  0.00    -0.352 OA 
BRANCH   3   4
HETATM    4  C   UNL     1     -10.944  13.782  67.282  1.00  0.00    -0.292 A  
HETATM    5  C   UNL     1      -9.608  13.447  67.576  1.00  0.00    -0.221 A  
HETATM    6  C   UNL     1     -11.964  12.963  67.775  1.00  0.00    -0.336 A  
HETATM    7  C   UNL     1      -9.335  12.283  68.330  1.00  0.00    -0.199 A  
HETATM    8  C   UNL     1     -11.676  11.818  68.523  1.00  0.00    -0.390 A  
HETATM    9  C   UNL     1     -10.357  11.430  68.776  1.00  0.00    -0.222 A  
BRANCH   5  10
HETATM   10  O   UNL     1      -8.622  14.270  67.104  1.00  0.00    -0.206 OA 
BRANCH  10  11
HETATM   11  C   UNL     1      -8.166  15.339  67.918  1.00  0.00    -0.145 C  
HETATM   12  C   UNL     1      -6.852  15.830  67.337  1.00  0.00    -0.235 C  
ENDBRANCH  10  11
ENDBRANCH   5  10
BRANCH   9  13
HETATM   13  C   UNL     1      -9.999  10.179  69.505  1.00  0.00    -0.257 C  
HETATM   14  C   UNL     1      -9.815   8.966  68.936  1.00  0.00    -0.177 C  
HETATM   15  N   UNL     1      -9.978   8.794  67.559  1.00  0.00    -0.183 NA 
HETATM   16  C   UNL     1     -10.717   7.625  67.103  1.00  0.00    -0.290 C  
HETATM   17  H   UNL     1      -9.594   9.466  66.896  1.00  0.00     0.000 HD 
HETATM   18  C   UNL     1      -9.988   6.375  67.554  1.00  0.00    -0.165 C  
HETATM   19  C   UNL     1      -9.553   6.465  69.002  1.00  0.00    -0.136 A  
HETATM   20  C   UNL     1      -9.177   5.263  69.624  1.00  0.00    -0.159 A  
HETATM   21  C   UNL     1      -8.698   5.234  70.934  1.00  0.00    -0.132 A  
HETATM   22  C   UNL     1      -8.592   6.449  71.636  1.00  0.00    -0.129 A  
HETATM   23  C   UNL     1      -8.970   7.662  71.002  1.00  0.00    -0.148 A  
HETATM   24  C   UNL     1      -9.454   7.700  69.681  1.00  0.00    -0.156 A  
BRANCH  21  25
HETATM   25  O   UNL     1      -8.323   4.069  71.545  1.00  0.00    -0.079 OA 
BRANCH  25  26
HETATM   26  C   UNL     1      -6.972   3.628  71.433  1.00  0.00    -0.032 C  
HETATM   27  C   UNL     1      -6.650   2.789  72.657  1.00  0.00    -0.018 C  
ENDBRANCH  25  26
ENDBRANCH  21  25
BRANCH  22  28
HETATM   28  O   UNL     1      -8.134   6.633  72.925  1.00  0.00    -0.107 OA 
BRANCH  28  29
HETATM   29  C   UNL     1      -8.883   7.488  73.790  1.00  0.00    -0.234 C  
HETATM   30  C   UNL     1     -10.030   6.713  74.417  1.00  0.00    -0.359 C  
ENDBRANCH  28  29
ENDBRANCH  22  28
ENDBRANCH   9  13
ENDBRANCH   3   4
ENDBRANCH   2   3
TORSDOF 9
ENDMDL
MODEL      102
REMARK 921   NORMALIZED FREE ENERGY PREDICTED BY IDOCK:   -3.99 KCAL/MOL
REMARK 922        TOTAL FREE ENERGY PREDICTED BY IDOCK:   -6.98 KCAL/MOL
REMARK 923 INTER-LIGAND FREE ENERGY PREDICTED BY IDOCK:   -6.93 KCAL/MOL
REMARK 924 INTRA-LIGAND FREE ENERGY PREDICTED BY IDOCK:   -0.05 KCAL/MOL
REMARK 927      BINDING AFFINITY PREDICTED BY RF-SCORE:    0.00 PKD
ROOT
HETATM    1  C   UNL     1     -10.552   5.725  67.973  1.00  0.00    -0.295 C  
HETATM    2  C   UNL     1     -10.506   7.233  68.162  1.00  0.00    -0.198 C  
ENDROOT
BRANCH   2   3
HETATM    3  O   UNL     1     -10.751   7.867  66.909  1.00  0.00    -0.333 OA 
BRANCH   3   4
HETATM    4  C   UNL     1     -10.321   9.159  66.727  1.00  0.00    -0.238 A  
HETATM    5  C   UNL     1      -9.436   9.670  65.757  1.00  0.00    -0.246 A  
HETATM    6  C   UNL     1     -10.874  10.040  67.661  1.00  0.00    -0.336 A  
HETATM    7  C   UNL     1      -9.109  11.044  65.775  1.00  0.00    -0.219 A  
HETATM    8  C   UNL     1     -10.542  11.398  67.660  1.00  0.00    -0.240 A  
HETATM    9  C   UNL     1      -9.619  11.918  66.748  1.00  0.00    -0.214 A  
BRANCH   5  10
HETATM   10  O   UNL     1      -8.921   8.798  64.838  1.00  0.00    -0.139 OA 
BRANCH  10  11
HETATM   11  C   UNL     1      -7.702   8.132  65.126  1.00  0.00    -0.107 C  
HETATM   12  C   UNL     1      -7.802   6.726  64.560  1.00  0.00    -0.115 C  
ENDBRANCH  10  11
ENDBRANCH   5  10
BRANCH   9  13
HETATM   13  C   UNL     1      -9.178  13.343  66.754  1.00  0.00    -0.242 C  
HETATM   14  C   UNL     1      -9.489  14.255  67.704  1.00  0.00    -0.211 C  
HETATM   15  N   UNL     1     -10.303  13.908  68.784  1.00  0.00    -0.306 NA 
HETATM   16  C   UNL     1     -11.354  14.839  69.170  1.00  0.00    -0.282 C  
HETATM   17  H   UNL     1     -10.166  13.031  69.286  1.00  0.00     0.000 HD 
HETATM   18  C   UNL     1     -10.720  16.152  69.584  1.00  0.00    -0.325 C  
HETATM   19  C   UNL     1      -9.652  16.597  68.608  1.00  0.00    -0.248 A  
HETATM   20  C   UNL     1      -9.237  17.937  68.692  1.00  0.00    -0.269 A  
HETATM   21  C   UNL     1      -8.213  18.440  67.888  1.00  0.00    -0.260 A  
HETATM   22  C   UNL     1      -7.589  17.569  66.976  1.00  0.00    -0.207 A  
HETATM   23  C   UNL     1      -8.009  16.216  66.896  1.00  0.00    -0.279 A  
HETATM   24  C   UNL     1      -9.040  15.700  67.703  1.00  0.00    -0.193 A  
BRANCH  21  25
HETATM   25  O   UNL     1      -7.798  19.741  67.968  1.00  0.00    -0.299 OA 
BRANCH  25  26
HETATM   26  C   UNL     1      -7.003  20.149  69.079  1.00  0.00    -0.171 C  
HETATM   27  C   UNL     1      -5.543  19.996  68.689  1.00  0.00    -0.256 C  
ENDBRANCH  25  26
ENDBRANCH  21  25
BRANCH  22  28
HETATM   28  O   UNL     1      -6.558  17.867  66.107  1.00  0.00    -0.217 OA 
BRANCH  28  29
HETATM   29  C   UNL     1      -6.708  18.997  65.245  1.00  0.00    -0.180 C  
HETATM   30  C   UNL     1      -5.511  19.099  64.315  1.00  0.00    -0.298 C  
ENDBRANCH  28  29
ENDBRANCH  22  28
ENDBRANCH   9  13
ENDBRANCH   3   4
ENDBRANCH   2   3
TORSDOF 9
ENDMDL
MODEL      103
REMARK 921   NORMALIZED FREE ENERGY PREDICTED BY IDOCK:   -3.98 KCAL/MOL
REMARK 922        TOTAL FREE ENERGY PREDICTED BY IDOCK:   -6.95 KCAL/MOL
REMARK 923 INTER-LIGAND FREE ENERGY PREDICTED BY IDOCK:   -7.64 KCAL/MOL
REMARK 924 INTRA-LIGAND FREE ENERGY PREDICTED BY IDOCK:    0.69 KCAL/MOL
REMARK 927      BINDING AFFINITY PREDICTED BY RF-SCORE:    0.00 PKD
ROOT
HETATM    1  C   UNL     1      -9.359  19.040  66.213  1.00  0.00    -0.319 C  
HETATM    2  C   UNL     1     -10.633  18.240  65.990  1.00  0.00    -0.296 C  
ENDROOT
BRANCH   2   3
HETATM    3  O   UNL     1     -10.301  16.999  65.376  1.00  0.00    -0.617 OA 
BRANCH   3   4
HETATM    4  C   UNL     1     -10.467  15.840  66.095  1.00  0.00    -0.317 A  
HETATM    5  C   UNL     1     -10.843  15.680  67.443  1.00  0.00    -0.315 A  
HETATM    6  C   UNL     1     -10.214  14.698  65.329  1.00  0.00    -0.421 A  
HETATM    7  C   UNL     1     -10.923  14.380  67.990  1.00  0.00    -0.268 A  
HETATM    8  C   UNL     1     -10.304  13.418  65.886  1.00  0.00    -0.290 A  
HETATM    9  C   UNL     1     -10.615  13.236  67.237  1.00  0.00    -0.250 A  
BRANCH   5  10
HETATM   10  O   UNL     1     -11.106  16.808  68.173  1.00  0.00    -0.363 OA 
BRANCH  10  11
HETATM   11  C   UNL     1     -10.548  16.935  69.471  1.00  0.00    -0.239 C  
HETATM   12  C   UNL     1     -11.535  16.333  70.455  1.00  0.00    -0.265 C  
ENDBRANCH  10  11
ENDBRANCH   5  10
BRANCH   9  13
HETATM   13  C   UNL     1     -10.650  11.897  67.894  1.00  0.00    -0.229 C  
HETATM   14  C   UNL     1      -9.666  11.375  68.660  1.00  0.00    -0.176 C  
HETATM   15  N   UNL     1      -8.483  12.084  68.880  1.00  0.00    -0.365 NA 
HETATM   16  C   UNL     1      -7.226  11.355  68.781  1.00  0.00    -0.107 C  
HETATM   17  H   UNL     1      -8.499  13.079  69.101  1.00  0.00     0.000 HD 
HETATM   18  C   UNL     1      -7.207  10.260  69.828  1.00  0.00    -0.147 C  
HETATM   19  C   UNL     1      -8.512   9.493  69.868  1.00  0.00    -0.198 A  
HETATM   20  C   UNL     1      -8.501   8.262  70.544  1.00  0.00    -0.129 A  
HETATM   21  C   UNL     1      -9.660   7.501  70.701  1.00  0.00    -0.171 A  
HETATM   22  C   UNL     1     -10.863   7.994  70.164  1.00  0.00    -0.242 A  
HETATM   23  C   UNL     1     -10.871   9.240  69.484  1.00  0.00    -0.211 A  
HETATM   24  C   UNL     1      -9.707  10.015  69.322  1.00  0.00    -0.227 A  
BRANCH  21  25
HETATM   25  O   UNL     1      -9.660   6.304  71.364  1.00  0.00    -0.157 OA 
BRANCH  25  26
HETATM   26  C   UNL     1      -9.696   6.299  72.789  1.00  0.00    -0.158 C  
HETATM   27  C   UNL     1      -9.553   7.733  73.265  1.00  0.00    -0.346 C  
ENDBRANCH  25  26
ENDBRANCH  21  25
BRANCH  22  28
HETATM   28  O   UNL     1     -12.109   7.402  70.221  1.00  0.00    -0.040 OA 
BRANCH  28  29
HETATM   29  C   UNL     1     -12.780   7.364  71.482  1.00  0.00    -0.372 C  
HETATM   30  C   UNL     1     -13.649   8.600  71.642  1.00  0.00    -0.408 C  
ENDBRANCH  28  29
ENDBRANCH  22  28
ENDBRANCH   9  13
ENDBRANCH   3   4
ENDBRANCH   2   3
TORSDOF 9
ENDMDL
MODEL      104
REMARK 921   NORMALIZED FREE ENERGY PREDICTED BY IDOCK:   -3.96 KCAL/MOL
REMARK 922        TOTAL FREE ENERGY PREDICTED BY IDOCK:   -6.92 KCAL/MOL
REMARK 923 INTER-LIGAND FREE ENERGY PREDICTED BY IDOCK:   -6.82 KCAL/MOL
REMARK 924 INTRA-LIGAND FREE ENERGY PREDICTED BY IDOCK:   -0.10 KCAL/MOL
REMARK 927      BINDING AFFINITY PREDICTED BY RF-SCORE:    0.00 PKD
ROOT
HETATM    1  C   UNL     1     -11.853   1.973  73.468  1.00  0.00    -0.214 C  
HETATM    2  C   UNL     1     -10.703   2.555  74.275  1.00  0.00    -0.139 C  
ENDROOT
BRANCH   2   3
HETATM    3  O   UNL     1      -9.723   3.072  73.379  1.00  0.00    -0.098 OA 
BRANCH   3   4
HETATM    4  C   UNL     1      -9.985   4.247  72.719  1.00  0.00    -0.153 A  
HETATM    5  C   UNL     1      -9.753   4.575  71.368  1.00  0.00    -0.179 A  
HETATM    6  C   UNL     1     -10.562   5.210  73.553  1.00  0.00    -0.306 A  
HETATM    7  C   UNL     1     -10.077   5.870  70.905  1.00  0.00    -0.251 A  
HETATM    8  C   UNL     1     -10.882   6.484  73.075  1.00  0.00    -0.291 A  
HETATM    9  C   UNL     1     -10.604   6.855  71.756  1.00  0.00    -0.235 A  
BRANCH   5  10
HETATM   10  O   UNL     1      -9.206   3.615  70.561  1.00  0.00    -0.110 OA 
BRANCH  10  11
HETATM   11  C   UNL     1      -7.796   3.457  70.535  1.00  0.00    -0.043 C  
HETATM   12  C   UNL     1      -7.293   4.039  69.226  1.00  0.00    -0.054 C  
ENDBRANCH  10  11
ENDBRANCH   5  10
BRANCH   9  13
HETATM   13  C   UNL     1     -10.859   8.224  71.221  1.00  0.00    -0.285 C  
HETATM   14  C   UNL     1     -10.735   8.593  69.925  1.00  0.00    -0.225 C  
HETATM   15  N   UNL     1     -10.319   7.674  68.959  1.00  0.00    -0.211 NA 
HETATM   16  C   UNL     1      -9.326   8.111  67.988  1.00  0.00    -0.135 C  
HETATM   17  H   UNL     1     -10.699   6.728  68.936  1.00  0.00     0.000 HD 
HETATM   18  C   UNL     1      -9.895   9.266  67.188  1.00  0.00    -0.251 C  
HETATM   19  C   UNL     1     -10.572  10.290  68.075  1.00  0.00    -0.272 A  
HETATM   20  C   UNL     1     -10.834  11.546  67.503  1.00  0.00    -0.285 A  
HETATM   21  C   UNL     1     -11.511  12.544  68.205  1.00  0.00    -0.319 A  
HETATM   22  C   UNL     1     -11.938  12.269  69.517  1.00  0.00    -0.270 A  
HETATM   23  C   UNL     1     -11.674  10.997  70.090  1.00  0.00    -0.442 A  
HETATM   24  C   UNL     1     -10.992   9.984  69.389  1.00  0.00    -0.280 A  
BRANCH  21  25
HETATM   25  O   UNL     1     -11.777  13.768  67.654  1.00  0.00    -0.325 OA 
BRANCH  25  26
HETATM   26  C   UNL     1     -10.796  14.798  67.744  1.00  0.00    -0.278 C  
HETATM   27  C   UNL     1     -11.523  16.124  67.886  1.00  0.00    -0.103 C  
ENDBRANCH  25  26
ENDBRANCH  21  25
BRANCH  22  28
HETATM   28  O   UNL     1     -12.627  13.111  70.367  1.00  0.00    -0.226 OA 
BRANCH  28  29
HETATM   29  C   UNL     1     -12.661  12.785  71.757  1.00  0.00    -0.139 C  
HETATM   30  C   UNL     1     -13.742  13.596  72.451  1.00  0.00    -0.697 C  
ENDBRANCH  28  29
ENDBRANCH  22  28
ENDBRANCH   9  13
ENDBRANCH   3   4
ENDBRANCH   2   3
TORSDOF 9
ENDMDL
MODEL      105
REMARK 921   NORMALIZED FREE ENERGY PREDICTED BY IDOCK:   -3.91 KCAL/MOL
REMARK 922        TOTAL FREE ENERGY PREDICTED BY IDOCK:   -6.84 KCAL/MOL
REMARK 923 INTER-LIGAND FREE ENERGY PREDICTED BY IDOCK:   -7.20 KCAL/MOL
REMARK 924 INTRA-LIGAND FREE ENERGY PREDICTED BY IDOCK:    0.36 KCAL/MOL
REMARK 927      BINDING AFFINITY PREDICTED BY RF-SCORE:    0.00 PKD
ROOT
HETATM    1  C   UNL     1     -10.763  18.832  67.200  1.00  0.00    -0.469 C  
HETATM    2  C   UNL     1     -10.791  19.282  65.747  1.00  0.00    -0.247 C  
ENDROOT
BRANCH   2   3
HETATM    3  O   UNL     1     -10.916  18.137  64.908  1.00  0.00    -0.718 OA 
BRANCH   3   4
HETATM    4  C   UNL     1     -10.479  16.922  65.378  1.00  0.00    -0.154 A  
HETATM    5  C   UNL     1      -9.198  16.559  65.838  1.00  0.00    -0.174 A  
HETATM    6  C   UNL     1     -11.490  15.957  65.377  1.00  0.00     0.146 A  
HETATM    7  C   UNL     1      -8.963  15.229  66.252  1.00  0.00    -0.314 A  
HETATM    8  C   UNL     1     -11.240  14.646  65.795  1.00  0.00    -0.336 A  
HETATM    9  C   UNL     1      -9.963  14.245  66.197  1.00  0.00    -0.330 A  
BRANCH   5  10
HETATM   10  O   UNL     1      -8.226  17.522  65.852  1.00  0.00    -0.538 OA 
BRANCH  10  11
HETATM   11  C   UNL     1      -6.986  17.240  66.482  1.00  0.00    -0.263 C  
HETATM   12  C   UNL     1      -6.995  17.925  67.837  1.00  0.00    -0.205 C  
ENDBRANCH  10  11
ENDBRANCH   5  10
BRANCH   9  13
HETATM   13  C   UNL     1      -9.630  12.842  66.581  1.00  0.00    -0.257 C  
HETATM   14  C   UNL     1     -10.356  12.067  67.418  1.00  0.00    -0.207 C  
HETATM   15  N   UNL     1     -11.513  12.563  68.025  1.00  0.00    -0.294 NA 
HETATM   16  C   UNL     1     -11.709  12.287  69.441  1.00  0.00    -0.330 C  
HETATM   17  H   UNL     1     -12.197  13.101  67.493  1.00  0.00     0.000 HD 
HETATM   18  C   UNL     1     -11.793  10.787  69.644  1.00  0.00    -0.392 C  
HETATM   19  C   UNL     1     -10.707  10.053  68.885  1.00  0.00    -0.243 A  
HETATM   20  C   UNL     1     -10.471   8.718  69.254  1.00  0.00    -0.228 A  
HETATM   21  C   UNL     1      -9.542   7.925  68.581  1.00  0.00    -0.155 A  
HETATM   22  C   UNL     1      -8.832   8.490  67.505  1.00  0.00    -0.135 A  
HETATM   23  C   UNL     1      -9.076   9.838  67.133  1.00  0.00    -0.152 A  
HETATM   24  C   UNL     1     -10.012  10.646  67.807  1.00  0.00    -0.192 A  
BRANCH  21  25
HETATM   25  O   UNL     1      -9.310   6.622  68.929  1.00  0.00    -0.130 OA 
BRANCH  25  26
HETATM   26  C   UNL     1      -9.644   5.587  68.007  1.00  0.00    -0.125 C  
HETATM   27  C   UNL     1     -10.888   6.017  67.251  1.00  0.00    -0.403 C  
ENDBRANCH  25  26
ENDBRANCH  21  25
BRANCH  22  28
HETATM   28  O   UNL     1      -7.886   7.874  66.710  1.00  0.00    -0.100 OA 
BRANCH  28  29
HETATM   29  C   UNL     1      -8.128   7.805  65.304  1.00  0.00    -0.133 C  
HETATM   30  C   UNL     1      -8.002   6.369  64.827  1.00  0.00    -0.121 C  
ENDBRANCH  28  29
ENDBRANCH  22  28
ENDBRANCH   9  13
ENDBRANCH   3   4
ENDBRANCH   2   3
TORSDOF 9
ENDMDL
MODEL      106
REMARK 921   NORMALIZED FREE ENERGY PREDICTED BY IDOCK:   -3.90 KCAL/MOL
REMARK 922        TOTAL FREE ENERGY PREDICTED BY IDOCK:   -6.83 KCAL/MOL
REMARK 923 INTER-LIGAND FREE ENERGY PREDICTED BY IDOCK:   -6.66 KCAL/MOL
REMARK 924 INTRA-LIGAND FREE ENERGY PREDICTED BY IDOCK:   -0.16 KCAL/MOL
REMARK 927      BINDING AFFINITY PREDICTED BY RF-SCORE:    0.00 PKD
ROOT
HETATM    1  C   UNL     1      -8.273   5.257  69.083  1.00  0.00    -0.092 C  
HETATM    2  C   UNL     1      -9.499   5.170  68.187  1.00  0.00    -0.127 C  
ENDROOT
BRANCH   2   3
HETATM    3  O   UNL     1      -9.147   5.597  66.874  1.00  0.00    -0.115 OA 
BRANCH   3   4
HETATM    4  C   UNL     1      -9.258   6.930  66.561  1.00  0.00    -0.163 A  
HETATM    5  C   UNL     1      -8.584   7.664  65.565  1.00  0.00    -0.092 A  
HETATM    6  C   UNL     1     -10.181   7.593  67.375  1.00  0.00    -0.320 A  
HETATM    7  C   UNL     1      -8.835   9.049  65.438  1.00  0.00    -0.237 A  
HETATM    8  C   UNL     1     -10.420   8.963  67.231  1.00  0.00    -0.348 A  
HETATM    9  C   UNL     1      -9.719   9.727  66.292  1.00  0.00    -0.295 A  
BRANCH   5  10
HETATM   10  O   UNL     1      -7.699   6.996  64.763  1.00  0.00    -0.101 OA 
BRANCH  10  11
HETATM   11  C   UNL     1      -7.155   7.659  63.634  1.00  0.00    -0.070 C  
HETATM   12  C   UNL     1      -7.940   7.208  62.415  1.00  0.00    -0.131 C  
ENDBRANCH  10  11
ENDBRANCH   5  10
BRANCH   9  13
HETATM   13  C   UNL     1      -9.886  11.202  66.151  1.00  0.00    -0.265 C  
HETATM   14  C   UNL     1      -9.037  12.136  66.638  1.00  0.00    -0.206 C  
HETATM   15  N   UNL     1      -7.902  11.758  67.360  1.00  0.00    -0.146 NA 
HETATM   16  C   UNL     1      -7.594  12.496  68.577  1.00  0.00    -0.119 C  
HETATM   17  H   UNL     1      -7.309  10.991  67.044  1.00  0.00     0.000 HD 
HETATM   18  C   UNL     1      -7.349  13.949  68.224  1.00  0.00    -0.117 C  
HETATM   19  C   UNL     1      -8.398  14.485  67.273  1.00  0.00    -0.232 A  
HETATM   20  C   UNL     1      -8.476  15.881  67.140  1.00  0.00    -0.225 A  
HETATM   21  C   UNL     1      -9.359  16.485  66.244  1.00  0.00    -0.302 A  
HETATM   22  C   UNL     1     -10.185  15.659  65.459  1.00  0.00    -0.385 A  
HETATM   23  C   UNL     1     -10.101  14.249  65.593  1.00  0.00    -0.364 A  
HETATM   24  C   UNL     1      -9.212  13.631  66.494  1.00  0.00    -0.195 A  
BRANCH  21  25
HETATM   25  O   UNL     1      -9.438  17.843  66.103  1.00  0.00    -0.461 OA 
BRANCH  25  26
HETATM   26  C   UNL     1     -10.472  18.554  66.780  1.00  0.00    -0.394 C  
HETATM   27  C   UNL     1      -9.831  19.361  67.895  1.00  0.00    -0.460 C  
ENDBRANCH  25  26
ENDBRANCH  21  25
BRANCH  22  28
HETATM   28  O   UNL     1     -11.110  16.057  64.514  1.00  0.00    -0.572 OA 
BRANCH  28  29
HETATM   29  C   UNL     1     -12.014  15.076  64.001  1.00  0.00    -0.058 C  
HETATM   30  C   UNL     1     -12.849  14.502  65.132  1.00  0.00    -0.072 C  
ENDBRANCH  28  29
ENDBRANCH  22  28
ENDBRANCH   9  13
ENDBRANCH   3   4
ENDBRANCH   2   3
TORSDOF 9
ENDMDL
MODEL      107
REMARK 921   NORMALIZED FREE ENERGY PREDICTED BY IDOCK:   -3.90 KCAL/MOL
REMARK 922        TOTAL FREE ENERGY PREDICTED BY IDOCK:   -6.83 KCAL/MOL
REMARK 923 INTER-LIGAND FREE ENERGY PREDICTED BY IDOCK:   -5.82 KCAL/MOL
REMARK 924 INTRA-LIGAND FREE ENERGY PREDICTED BY IDOCK:   -1.01 KCAL/MOL
REMARK 927      BINDING AFFINITY PREDICTED BY RF-SCORE:    0.00 PKD
ROOT
HETATM    1  C   UNL     1     -10.207   3.272  62.510  1.00  0.00    -0.126 C  
HETATM    2  C   UNL     1      -8.848   3.921  62.721  1.00  0.00    -0.097 C  
ENDROOT
BRANCH   2   3
HETATM    3  O   UNL     1      -8.599   4.034  64.119  1.00  0.00    -0.099 OA 
BRANCH   3   4
HETATM    4  C   UNL     1      -8.674   5.274  64.705  1.00  0.00    -0.109 A  
HETATM    5  C   UNL     1      -9.380   5.667  65.859  1.00  0.00    -0.103 A  
HETATM    6  C   UNL     1      -7.925   6.234  64.018  1.00  0.00    -0.099 A  
HETATM    7  C   UNL     1      -9.339   7.018  66.269  1.00  0.00    -0.146 A  
HETATM    8  C   UNL     1      -7.891   7.566  64.442  1.00  0.00    -0.128 A  
HETATM    9  C   UNL     1      -8.633   7.994  65.547  1.00  0.00    -0.158 A  
BRANCH   5  10
HETATM   10  O   UNL     1     -10.092   4.711  66.532  1.00  0.00    -0.219 OA 
BRANCH  10  11
HETATM   11  C   UNL     1      -9.698   4.357  67.848  1.00  0.00    -0.129 C  
HETATM   12  C   UNL     1      -8.912   3.060  67.758  1.00  0.00    -0.192 C  
ENDBRANCH  10  11
ENDBRANCH   5  10
BRANCH   9  13
HETATM   13  C   UNL     1      -8.687   9.416  65.993  1.00  0.00    -0.171 C  
HETATM   14  C   UNL     1      -9.437  10.387  65.424  1.00  0.00    -0.232 C  
HETATM   15  N   UNL     1     -10.234  10.110  64.310  1.00  0.00    -0.425 NA 
HETATM   16  C   UNL     1     -10.219  11.064  63.210  1.00  0.00    -0.303 C  
HETATM   17  H   UNL     1     -10.806   9.267  64.269  1.00  0.00     0.000 HD 
HETATM   18  C   UNL     1     -10.727  12.402  63.712  1.00  0.00    -0.492 C  
HETATM   19  C   UNL     1     -10.102  12.783  65.037  1.00  0.00    -0.239 A  
HETATM   20  C   UNL     1     -10.228  14.125  65.433  1.00  0.00    -0.380 A  
HETATM   21  C   UNL     1      -9.749  14.575  66.663  1.00  0.00    -0.273 A  
HETATM   22  C   UNL     1      -9.128  13.648  67.520  1.00  0.00    -0.213 A  
HETATM   23  C   UNL     1      -9.006  12.292  67.119  1.00  0.00    -0.192 A  
HETATM   24  C   UNL     1      -9.486  11.829  65.879  1.00  0.00    -0.239 A  
BRANCH  21  25
HETATM   25  O   UNL     1      -9.873  15.879  67.059  1.00  0.00    -0.226 OA 
BRANCH  25  26
HETATM   26  C   UNL     1     -11.144  16.355  67.494  1.00  0.00    -0.109 C  
HETATM   27  C   UNL     1     -11.297  16.005  68.963  1.00  0.00    -0.363 C  
ENDBRANCH  25  26
ENDBRANCH  21  25
BRANCH  22  28
HETATM   28  O   UNL     1      -8.602  13.889  68.774  1.00  0.00    -0.116 OA 
BRANCH  28  29
HETATM   29  C   UNL     1      -7.334  14.543  68.859  1.00  0.00    -0.128 C  
HETATM   30  C   UNL     1      -6.311  13.607  69.480  1.00  0.00    -0.114 C  
ENDBRANCH  28  29
ENDBRANCH  22  28
ENDBRANCH   9  13
ENDBRANCH   3   4
ENDBRANCH   2   3
TORSDOF 9
ENDMDL
MODEL      108
REMARK 921   NORMALIZED FREE ENERGY PREDICTED BY IDOCK:   -3.87 KCAL/MOL
REMARK 922        TOTAL FREE ENERGY PREDICTED BY IDOCK:   -6.78 KCAL/MOL
REMARK 923 INTER-LIGAND FREE ENERGY PREDICTED BY IDOCK:   -6.10 KCAL/MOL
REMARK 924 INTRA-LIGAND FREE ENERGY PREDICTED BY IDOCK:   -0.68 KCAL/MOL
REMARK 927      BINDING AFFINITY PREDICTED BY RF-SCORE:    0.00 PKD
ROOT
HETATM    1  C   UNL     1      -9.464   5.299  68.258  1.00  0.00    -0.155 C  
HETATM    2  C   UNL     1     -10.595   6.163  67.721  1.00  0.00    -0.269 C  
ENDROOT
BRANCH   2   3
HETATM    3  O   UNL     1     -10.119   6.909  66.604  1.00  0.00    -0.191 OA 
BRANCH   3   4
HETATM    4  C   UNL     1     -10.047   8.277  66.705  1.00  0.00    -0.303 A  
HETATM    5  C   UNL     1      -9.472   9.202  65.812  1.00  0.00    -0.254 A  
HETATM    6  C   UNL     1     -10.644   8.756  67.875  1.00  0.00    -0.236 A  
HETATM    7  C   UNL     1      -9.486  10.577  66.136  1.00  0.00    -0.222 A  
HETATM    8  C   UNL     1     -10.653  10.121  68.177  1.00  0.00    -0.262 A  
HETATM    9  C   UNL     1     -10.035  11.053  67.338  1.00  0.00    -0.209 A  
BRANCH   5  10
HETATM   10  O   UNL     1      -8.911   8.719  64.662  1.00  0.00    -0.136 OA 
BRANCH  10  11
HETATM   11  C   UNL     1      -7.560   9.037  64.367  1.00  0.00    -0.112 C  
HETATM   12  C   UNL     1      -7.085   8.072  63.295  1.00  0.00    -0.087 C  
ENDBRANCH  10  11
ENDBRANCH   5  10
BRANCH   9  13
HETATM   13  C   UNL     1      -9.954  12.509  67.653  1.00  0.00    -0.201 C  
HETATM   14  C   UNL     1      -8.816  13.191  67.916  1.00  0.00    -0.196 C  
HETATM   15  N   UNL     1      -7.582  12.537  67.931  1.00  0.00    -0.119 NA 
HETATM   16  C   UNL     1      -6.663  12.845  69.018  1.00  0.00    -0.095 C  
HETATM   17  H   UNL     1      -7.333  11.865  67.206  1.00  0.00     0.000 HD 
HETATM   18  C   UNL     1      -6.307  14.317  68.960  1.00  0.00    -0.096 C  
HETATM   19  C   UNL     1      -7.529  15.187  68.747  1.00  0.00    -0.132 A  
HETATM   20  C   UNL     1      -7.382  16.559  69.010  1.00  0.00    -0.228 A  
HETATM   21  C   UNL     1      -8.420  17.464  68.787  1.00  0.00    -0.225 A  
HETATM   22  C   UNL     1      -9.639  16.974  68.283  1.00  0.00    -0.273 A  
HETATM   23  C   UNL     1      -9.783  15.587  68.016  1.00  0.00    -0.207 A  
HETATM   24  C   UNL     1      -8.740  14.667  68.237  1.00  0.00    -0.173 A  
BRANCH  21  25
HETATM   25  O   UNL     1      -8.283  18.802  69.034  1.00  0.00    -0.253 OA 
BRANCH  25  26
HETATM   26  C   UNL     1      -7.111  19.476  68.582  1.00  0.00    -0.338 C  
HETATM   27  C   UNL     1      -6.477  20.164  69.778  1.00  0.00    -0.326 C  
ENDBRANCH  25  26
ENDBRANCH  21  25
BRANCH  22  28
HETATM   28  O   UNL     1     -10.774  17.701  67.987  1.00  0.00    -0.389 OA 
BRANCH  28  29
HETATM   29  C   UNL     1     -10.669  18.752  67.024  1.00  0.00    -0.367 C  
HETATM   30  C   UNL     1     -10.688  18.170  65.621  1.00  0.00    -0.045 C  
ENDBRANCH  28  29
ENDBRANCH  22  28
ENDBRANCH   9  13
ENDBRANCH   3   4
ENDBRANCH   2   3
TORSDOF 9
ENDMDL
MODEL      109
REMARK 921   NORMALIZED FREE ENERGY PREDICTED BY IDOCK:   -3.83 KCAL/MOL
REMARK 922        TOTAL FREE ENERGY PREDICTED BY IDOCK:   -6.72 KCAL/MOL
REMARK 923 INTER-LIGAND FREE ENERGY PREDICTED BY IDOCK:   -6.33 KCAL/MOL
REMARK 924 INTRA-LIGAND FREE ENERGY PREDICTED BY IDOCK:   -0.39 KCAL/MOL
REMARK 927      BINDING AFFINITY PREDICTED BY RF-SCORE:    0.00 PKD
ROOT
HETATM    1  C   UNL     1      -9.145   3.058  73.726  1.00  0.00    -0.085 C  
HETATM    2  C   UNL     1     -10.143   3.903  72.951  1.00  0.00    -0.156 C  
ENDROOT
BRANCH   2   3
HETATM    3  O   UNL     1      -9.813   3.859  71.565  1.00  0.00    -0.179 OA 
BRANCH   3   4
HETATM    4  C   UNL     1      -9.782   5.034  70.855  1.00  0.00    -0.190 A  
HETATM    5  C   UNL     1      -8.734   5.967  70.730  1.00  0.00    -0.134 A  
HETATM    6  C   UNL     1     -10.985   5.284  70.187  1.00  0.00     0.100 A  
HETATM    7  C   UNL     1      -8.935   7.136  69.963  1.00  0.00    -0.142 A  
HETATM    8  C   UNL     1     -11.164   6.444  69.428  1.00  0.00    -0.459 A  
HETATM    9  C   UNL     1     -10.162   7.414  69.338  1.00  0.00    -0.201 A  
BRANCH   5  10
HETATM   10  O   UNL     1      -7.557   5.698  71.374  1.00  0.00    -0.098 OA 
BRANCH  10  11
HETATM   11  C   UNL     1      -7.312   6.289  72.640  1.00  0.00    -0.085 C  
HETATM   12  C   UNL     1      -6.163   7.268  72.474  1.00  0.00    -0.051 C  
ENDBRANCH  10  11
ENDBRANCH   5  10
BRANCH   9  13
HETATM   13  C   UNL     1     -10.332   8.700  68.602  1.00  0.00    -0.219 C  
HETATM   14  C   UNL     1     -10.019   8.906  67.303  1.00  0.00    -0.216 C  
HETATM   15  N   UNL     1      -9.466   7.881  66.533  1.00  0.00    -0.208 NA 
HETATM   16  C   UNL     1      -8.340   8.210  65.670  1.00  0.00    -0.143 C  
HETATM   17  H   UNL     1      -9.839   6.933  66.574  1.00  0.00     0.000 HD 
HETATM   18  C   UNL     1      -8.783   9.245  64.655  1.00  0.00    -0.223 C  
HETATM   19  C   UNL     1      -9.581  10.360  65.296  1.00  0.00    -0.316 A  
HETATM   20  C   UNL     1      -9.755  11.530  64.538  1.00  0.00    -0.236 A  
HETATM   21  C   UNL     1     -10.527  12.596  65.000  1.00  0.00    -0.308 A  
HETATM   22  C   UNL     1     -11.143  12.480  66.260  1.00  0.00    -0.295 A  
HETATM   23  C   UNL     1     -10.969  11.295  67.022  1.00  0.00    -0.352 A  
HETATM   24  C   UNL     1     -10.192  10.214  66.563  1.00  0.00    -0.288 A  
BRANCH  21  25
HETATM   25  O   UNL     1     -10.707  13.736  64.266  1.00  0.00    -0.372 OA 
BRANCH  25  26
HETATM   26  C   UNL     1     -11.029  14.952  64.937  1.00  0.00    -0.408 C  
HETATM   27  C   UNL     1     -12.203  15.587  64.215  1.00  0.00    -0.078 C  
ENDBRANCH  25  26
ENDBRANCH  21  25
BRANCH  22  28
HETATM   28  O   UNL     1     -11.949  13.410  66.886  1.00  0.00    -0.382 OA 
BRANCH  28  29
HETATM   29  C   UNL     1     -11.924  13.473  68.313  1.00  0.00    -0.342 C  
HETATM   30  C   UNL     1     -10.973  14.567  68.766  1.00  0.00    -0.262 C  
ENDBRANCH  28  29
ENDBRANCH  22  28
ENDBRANCH   9  13
ENDBRANCH   3   4
ENDBRANCH   2   3
TORSDOF 9
ENDMDL
MODEL      110
REMARK 921   NORMALIZED FREE ENERGY PREDICTED BY IDOCK:   -3.79 KCAL/MOL
REMARK 922        TOTAL FREE ENERGY PREDICTED BY IDOCK:   -6.66 KCAL/MOL
REMARK 923 INTER-LIGAND FREE ENERGY PREDICTED BY IDOCK:   -5.57 KCAL/MOL
REMARK 924 INTRA-LIGAND FREE ENERGY PREDICTED BY IDOCK:   -1.09 KCAL/MOL
REMARK 927      BINDING AFFINITY PREDICTED BY RF-SCORE:    0.00 PKD
ROOT
HETATM    1  C   UNL     1      -9.011   3.801  67.518  1.00  0.00    -0.157 C  
HETATM    2  C   UNL     1     -10.255   4.543  67.055  1.00  0.00    -0.074 C  
ENDROOT
BRANCH   2   3
HETATM    3  O   UNL     1     -10.807   5.258  68.157  1.00  0.00    -0.017 OA 
BRANCH   3   4
HETATM    4  C   UNL     1     -10.448   6.572  68.339  1.00  0.00    -0.218 A  
HETATM    5  C   UNL     1     -10.098   7.238  69.530  1.00  0.00    -0.182 A  
HETATM    6  C   UNL     1     -10.448   7.294  67.142  1.00  0.00    -0.394 A  
HETATM    7  C   UNL     1      -9.790   8.616  69.487  1.00  0.00    -0.187 A  
HETATM    8  C   UNL     1     -10.135   8.656  67.118  1.00  0.00    -0.329 A  
HETATM    9  C   UNL     1      -9.845   9.354  68.294  1.00  0.00    -0.180 A  
BRANCH   5  10
HETATM   10  O   UNL     1     -10.083   6.511  70.689  1.00  0.00    -0.183 OA 
BRANCH  10  11
HETATM   11  C   UNL     1     -11.196   6.588  71.566  1.00  0.00    -0.276 C  
HETATM   12  C   UNL     1     -10.667   6.911  72.952  1.00  0.00    -0.308 C  
ENDBRANCH  10  11
ENDBRANCH   5  10
BRANCH   9  13
HETATM   13  C   UNL     1      -9.577  10.821  68.330  1.00  0.00    -0.170 C  
HETATM   14  C   UNL     1      -8.398  11.409  68.025  1.00  0.00    -0.143 C  
HETATM   15  N   UNL     1      -7.291  10.638  67.660  1.00  0.00    -0.089 NA 
HETATM   16  C   UNL     1      -6.003  10.979  68.247  1.00  0.00    -0.046 C  
HETATM   17  H   UNL     1      -7.384   9.862  67.006  1.00  0.00     0.000 HD 
HETATM   18  C   UNL     1      -5.631  12.389  67.833  1.00  0.00    -0.085 C  
HETATM   19  C   UNL     1      -6.794  13.347  67.982  1.00  0.00    -0.132 A  
HETATM   20  C   UNL     1      -6.490  14.719  67.956  1.00  0.00    -0.163 A  
HETATM   21  C   UNL     1      -7.488  15.692  68.018  1.00  0.00    -0.125 A  
HETATM   22  C   UNL     1      -8.828  15.273  68.107  1.00  0.00    -0.171 A  
HETATM   23  C   UNL     1      -9.131  13.887  68.128  1.00  0.00    -0.193 A  
HETATM   24  C   UNL     1      -8.131  12.898  68.066  1.00  0.00    -0.159 A  
BRANCH  21  25
HETATM   25  O   UNL     1      -7.202  17.030  67.988  1.00  0.00    -0.160 OA 
BRANCH  25  26
HETATM   26  C   UNL     1      -6.552  17.627  69.107  1.00  0.00    -0.251 C  
HETATM   27  C   UNL     1      -6.876  19.111  69.098  1.00  0.00    -0.361 C  
ENDBRANCH  25  26
ENDBRANCH  21  25
BRANCH  22  28
HETATM   28  O   UNL     1      -9.952  16.073  68.166  1.00  0.00    -0.223 OA 
BRANCH  28  29
HETATM   29  C   UNL     1     -10.900  15.984  67.101  1.00  0.00    -0.239 C  
HETATM   30  C   UNL     1     -10.337  16.646  65.854  1.00  0.00    -0.355 C  
ENDBRANCH  28  29
ENDBRANCH  22  28
ENDBRANCH   9  13
ENDBRANCH   3   4
ENDBRANCH   2   3
TORSDOF 9
ENDMDL
MODEL      111
REMARK 921   NORMALIZED FREE ENERGY PREDICTED BY IDOCK:   -3.78 KCAL/MOL
REMARK 922        TOTAL FREE ENERGY PREDICTED BY IDOCK:   -6.64 KCAL/MOL
REMARK 923 INTER-LIGAND FREE ENERGY PREDICTED BY IDOCK:   -6.00 KCAL/MOL
REMARK 924 INTRA-LIGAND FREE ENERGY PREDICTED BY IDOCK:   -0.64 KCAL/MOL
REMARK 927      BINDING AFFINITY PREDICTED BY RF-SCORE:    0.00 PKD
ROOT
HETATM    1  C   UNL     1     -10.773   5.806  69.366  1.00  0.00    -0.397 C  
HETATM    2  C   UNL     1     -10.118   6.067  68.019  1.00  0.00    -0.159 C  
ENDROOT
BRANCH   2   3
HETATM    3  O   UNL     1      -8.914   6.802  68.221  1.00  0.00    -0.125 OA 
BRANCH   3   4
HETATM    4  C   UNL     1      -8.940   8.167  68.067  1.00  0.00    -0.134 A  
HETATM    5  C   UNL     1      -9.047   8.923  66.882  1.00  0.00    -0.133 A  
HETATM    6  C   UNL     1      -8.845   8.843  69.287  1.00  0.00    -0.139 A  
HETATM    7  C   UNL     1      -9.023  10.333  66.957  1.00  0.00    -0.147 A  
HETATM    8  C   UNL     1      -8.828  10.240  69.342  1.00  0.00    -0.177 A  
HETATM    9  C   UNL     1      -8.870  11.012  68.177  1.00  0.00    -0.141 A  
BRANCH   5  10
HETATM   10  O   UNL     1      -9.160   8.246  65.699  1.00  0.00    -0.156 OA 
BRANCH  10  11
HETATM   11  C   UNL     1      -7.993   8.001  64.930  1.00  0.00    -0.138 C  
HETATM   12  C   UNL     1      -7.922   6.507  64.666  1.00  0.00    -0.116 C  
ENDBRANCH  10  11
ENDBRANCH   5  10
BRANCH   9  13
HETATM   13  C   UNL     1      -8.781  12.501  68.179  1.00  0.00    -0.190 C  
HETATM   14  C   UNL     1      -9.627  13.337  67.535  1.00  0.00    -0.218 C  
HETATM   15  N   UNL     1     -10.681  12.832  66.770  1.00  0.00    -0.258 NA 
HETATM   16  C   UNL     1     -10.919  13.430  65.464  1.00  0.00    -0.283 C  
HETATM   17  H   UNL     1     -11.264  12.070  67.115  1.00  0.00     0.000 HD 
HETATM   18  C   UNL     1     -11.256  14.896  65.647  1.00  0.00    -0.347 C  
HETATM   19  C   UNL     1     -10.313  15.577  66.617  1.00  0.00    -0.287 A  
HETATM   20  C   UNL     1     -10.307  16.981  66.613  1.00  0.00    -0.299 A  
HETATM   21  C   UNL     1      -9.528  17.714  67.509  1.00  0.00    -0.256 A  
HETATM   22  C   UNL     1      -8.734  17.013  68.436  1.00  0.00    -0.247 A  
HETATM   23  C   UNL     1      -8.746  15.594  68.439  1.00  0.00    -0.178 A  
HETATM   24  C   UNL     1      -9.529  14.846  67.539  1.00  0.00    -0.200 A  
BRANCH  21  25
HETATM   25  O   UNL     1      -9.521  19.082  67.516  1.00  0.00    -0.297 OA 
BRANCH  25  26
HETATM   26  C   UNL     1      -9.388  19.783  66.282  1.00  0.00    -0.391 C  
HETATM   27  C   UNL     1      -7.906  19.956  66.000  1.00  0.00    -0.335 C  
ENDBRANCH  25  26
ENDBRANCH  21  25
BRANCH  22  28
HETATM   28  O   UNL     1      -7.908  17.549  69.404  1.00  0.00     0.023 OA 
BRANCH  28  29
HETATM   29  C   UNL     1      -6.647  16.920  69.637  1.00  0.00    -0.138 C  
HETATM   30  C   UNL     1      -5.725  17.159  68.453  1.00  0.00    -0.140 C  
ENDBRANCH  28  29
ENDBRANCH  22  28
ENDBRANCH   9  13
ENDBRANCH   3   4
ENDBRANCH   2   3
TORSDOF 9
ENDMDL
MODEL      112
REMARK 921   NORMALIZED FREE ENERGY PREDICTED BY IDOCK:   -3.75 KCAL/MOL
REMARK 922        TOTAL FREE ENERGY PREDICTED BY IDOCK:   -6.60 KCAL/MOL
REMARK 923 INTER-LIGAND FREE ENERGY PREDICTED BY IDOCK:   -5.79 KCAL/MOL
REMARK 924 INTRA-LIGAND FREE ENERGY PREDICTED BY IDOCK:   -0.82 KCAL/MOL
REMARK 927      BINDING AFFINITY PREDICTED BY RF-SCORE:    0.00 PKD
ROOT
HETATM    1  C   UNL     1      -5.580  20.062  70.071  1.00  0.00    -0.305 C  
HETATM    2  C   UNL     1      -6.888  20.161  69.301  1.00  0.00    -0.178 C  
ENDROOT
BRANCH   2   3
HETATM    3  O   UNL     1      -6.726  19.545  68.027  1.00  0.00    -0.233 OA 
BRANCH   3   4
HETATM    4  C   UNL     1      -7.115  18.237  67.871  1.00  0.00    -0.223 A  
HETATM    5  C   UNL     1      -8.413  17.689  67.899  1.00  0.00    -0.233 A  
HETATM    6  C   UNL     1      -6.030  17.381  67.657  1.00  0.00    -0.152 A  
HETATM    7  C   UNL     1      -8.579  16.295  67.742  1.00  0.00    -0.175 A  
HETATM    8  C   UNL     1      -6.215  16.004  67.499  1.00  0.00    -0.194 A  
HETATM    9  C   UNL     1      -7.486  15.428  67.584  1.00  0.00    -0.195 A  
BRANCH   5  10
HETATM   10  O   UNL     1      -9.465  18.544  68.089  1.00  0.00    -0.295 OA 
BRANCH  10  11
HETATM   11  C   UNL     1     -10.608  18.425  67.258  1.00  0.00    -0.402 C  
HETATM   12  C   UNL     1     -10.481  19.457  66.152  1.00  0.00    -0.600 C  
ENDBRANCH  10  11
ENDBRANCH   5  10
BRANCH   9  13
HETATM   13  C   UNL     1      -7.725  13.958  67.497  1.00  0.00    -0.192 C  
HETATM   14  C   UNL     1      -7.389  13.053  68.443  1.00  0.00    -0.116 C  
HETATM   15  N   UNL     1      -6.744  13.454  69.615  1.00  0.00    -0.314 NA 
HETATM   16  C   UNL     1      -5.619  12.655  70.080  1.00  0.00    -0.126 C  
HETATM   17  H   UNL     1      -7.051  14.280  70.128  1.00  0.00     0.000 HD 
HETATM   18  C   UNL     1      -6.104  11.250  70.380  1.00  0.00    -0.120 C  
HETATM   19  C   UNL     1      -6.997  10.713  69.281  1.00  0.00    -0.096 A  
HETATM   20  C   UNL     1      -7.229   9.328  69.277  1.00  0.00    -0.065 A  
HETATM   21  C   UNL     1      -8.087   8.731  68.352  1.00  0.00    -0.117 A  
HETATM   22  C   UNL     1      -8.730   9.552  67.407  1.00  0.00    -0.125 A  
HETATM   23  C   UNL     1      -8.495  10.952  67.418  1.00  0.00    -0.120 A  
HETATM   24  C   UNL     1      -7.631  11.563  68.347  1.00  0.00    -0.125 A  
BRANCH  21  25
HETATM   25  O   UNL     1      -8.325   7.384  68.344  1.00  0.00    -0.124 OA 
BRANCH  25  26
HETATM   26  C   UNL     1      -9.394   6.862  69.130  1.00  0.00    -0.140 C  
HETATM   27  C   UNL     1      -9.373   5.350  69.003  1.00  0.00    -0.163 C  
ENDBRANCH  25  26
ENDBRANCH  21  25
BRANCH  22  28
HETATM   28  O   UNL     1      -9.617   9.161  66.424  1.00  0.00    -0.202 OA 
BRANCH  28  29
HETATM   29  C   UNL     1      -9.490   9.751  65.129  1.00  0.00    -0.273 C  
HETATM   30  C   UNL     1      -8.297   9.154  64.404  1.00  0.00    -0.180 C  
ENDBRANCH  28  29
ENDBRANCH  22  28
ENDBRANCH   9  13
ENDBRANCH   3   4
ENDBRANCH   2   3
TORSDOF 9
ENDMDL
MODEL      113
REMARK 921   NORMALIZED FREE ENERGY PREDICTED BY IDOCK:   -3.73 KCAL/MOL
REMARK 922        TOTAL FREE ENERGY PREDICTED BY IDOCK:   -6.57 KCAL/MOL
REMARK 923 INTER-LIGAND FREE ENERGY PREDICTED BY IDOCK:   -5.73 KCAL/MOL
REMARK 924 INTRA-LIGAND FREE ENERGY PREDICTED BY IDOCK:   -0.84 KCAL/MOL
REMARK 927      BINDING AFFINITY PREDICTED BY RF-SCORE:    0.00 PKD
ROOT
HETATM    1  C   UNL     1     -10.604   5.855  67.810  1.00  0.00    -0.331 C  
HETATM    2  C   UNL     1     -10.952   6.814  68.937  1.00  0.00    -0.218 C  
ENDROOT
BRANCH   2   3
HETATM    3  O   UNL     1      -9.772   7.500  69.345  1.00  0.00    -0.162 OA 
BRANCH   3   4
HETATM    4  C   UNL     1      -9.550   8.772  68.875  1.00  0.00    -0.158 A  
HETATM    5  C   UNL     1      -8.676   9.200  67.857  1.00  0.00    -0.128 A  
HETATM    6  C   UNL     1     -10.328   9.727  69.537  1.00  0.00    -0.247 A  
HETATM    7  C   UNL     1      -8.586  10.577  67.555  1.00  0.00    -0.121 A  
HETATM    8  C   UNL     1     -10.229  11.085  69.221  1.00  0.00    -0.153 A  
HETATM    9  C   UNL     1      -9.325  11.542  68.257  1.00  0.00    -0.190 A  
BRANCH   5  10
HETATM   10  O   UNL     1      -7.937   8.249  67.206  1.00  0.00    -0.103 OA 
BRANCH  10  11
HETATM   11  C   UNL     1      -6.855   8.660  66.386  1.00  0.00    -0.071 C  
HETATM   12  C   UNL     1      -5.584   8.072  66.975  1.00  0.00    -0.037 C  
ENDBRANCH  10  11
ENDBRANCH   5  10
BRANCH   9  13
HETATM   13  C   UNL     1      -9.131  12.986  67.938  1.00  0.00    -0.207 C  
HETATM   14  C   UNL     1      -8.027  13.711  68.229  1.00  0.00    -0.150 C  
HETATM   15  N   UNL     1      -6.949  13.128  68.900  1.00  0.00    -0.112 NA 
HETATM   16  C   UNL     1      -6.333  13.884  69.981  1.00  0.00    -0.099 C  
HETATM   17  H   UNL     1      -6.606  12.204  68.641  1.00  0.00     0.000 HD 
HETATM   18  C   UNL     1      -5.773  15.176  69.422  1.00  0.00    -0.098 C  
HETATM   19  C   UNL     1      -6.754  15.865  68.496  1.00  0.00    -0.123 A  
HETATM   20  C   UNL     1      -6.494  17.210  68.188  1.00  0.00    -0.148 A  
HETATM   21  C   UNL     1      -7.293  17.925  67.295  1.00  0.00    -0.192 A  
HETATM   22  C   UNL     1      -8.381  17.267  66.694  1.00  0.00    -0.257 A  
HETATM   23  C   UNL     1      -8.638  15.906  67.005  1.00  0.00    -0.245 A  
HETATM   24  C   UNL     1      -7.837  15.176  67.905  1.00  0.00    -0.144 A  
BRANCH  21  25
HETATM   25  O   UNL     1      -7.044  19.234  66.984  1.00  0.00    -0.203 OA 
BRANCH  25  26
HETATM   26  C   UNL     1      -6.779  19.588  65.629  1.00  0.00    -0.275 C  
HETATM   27  C   UNL     1      -5.475  18.926  65.219  1.00  0.00    -0.224 C  
ENDBRANCH  25  26
ENDBRANCH  21  25
BRANCH  22  28
HETATM   28  O   UNL     1      -9.277  17.791  65.783  1.00  0.00    -0.505 OA 
BRANCH  28  29
HETATM   29  C   UNL     1     -10.605  18.071  66.228  1.00  0.00    -0.253 C  
HETATM   30  C   UNL     1     -10.610  19.331  67.077  1.00  0.00    -0.571 C  
ENDBRANCH  28  29
ENDBRANCH  22  28
ENDBRANCH   9  13
ENDBRANCH   3   4
ENDBRANCH   2   3
TORSDOF 9
ENDMDL
MODEL      114
REMARK 921   NORMALIZED FREE ENERGY PREDICTED BY IDOCK:   -3.57 KCAL/MOL
REMARK 922        TOTAL FREE ENERGY PREDICTED BY IDOCK:   -6.33 KCAL/MOL
REMARK 923 INTER-LIGAND FREE ENERGY PREDICTED BY IDOCK:   -5.50 KCAL/MOL
REMARK 924 INTRA-LIGAND FREE ENERGY PREDICTED BY IDOCK:   -0.83 KCAL/MOL
REMARK 927      BINDING AFFINITY PREDICTED BY RF-SCORE:    0.00 PKD
ROOT
HETATM    1  C   UNL     1      -9.592  19.575  66.716  1.00  0.00    -0.447 C  
HETATM    2  C   UNL     1     -10.776  19.081  67.532  1.00  0.00    -0.446 C  
ENDROOT
BRANCH   2   3
HETATM    3  O   UNL     1     -10.312  18.155  68.511  1.00  0.00    -0.375 OA 
BRANCH   3   4
HETATM    4  C   UNL     1      -9.903  16.909  68.100  1.00  0.00    -0.264 A  
HETATM    5  C   UNL     1      -8.646  16.293  68.259  1.00  0.00    -0.196 A  
HETATM    6  C   UNL     1     -10.917  16.206  67.444  1.00  0.00    -0.210 A  
HETATM    7  C   UNL     1      -8.436  15.002  67.725  1.00  0.00    -0.161 A  
HETATM    8  C   UNL     1     -10.692  14.926  66.927  1.00  0.00    -0.308 A  
HETATM    9  C   UNL     1      -9.436  14.318  67.016  1.00  0.00    -0.259 A  
BRANCH   5  10
HETATM   10  O   UNL     1      -7.671  16.988  68.922  1.00  0.00    -0.244 OA 
BRANCH  10  11
HETATM   11  C   UNL     1      -6.723  17.732  68.172  1.00  0.00    -0.204 C  
HETATM   12  C   UNL     1      -5.375  17.575  68.853  1.00  0.00    -0.156 C  
ENDBRANCH  10  11
ENDBRANCH   5  10
BRANCH   9  13
HETATM   13  C   UNL     1      -9.128  12.988  66.416  1.00  0.00    -0.073 C  
HETATM   14  C   UNL     1      -9.009  11.828  67.102  1.00  0.00    -0.177 C  
HETATM   15  N   UNL     1      -9.155  11.805  68.491  1.00  0.00    -0.302 NA 
HETATM   16  C   UNL     1      -8.193  11.030  69.262  1.00  0.00     0.021 C  
HETATM   17  H   UNL     1      -9.909  12.315  68.950  1.00  0.00     0.000 HD 
HETATM   18  C   UNL     1      -8.290   9.574  68.850  1.00  0.00    -0.121 C  
HETATM   19  C   UNL     1      -8.341   9.415  67.345  1.00  0.00    -0.125 A  
HETATM   20  C   UNL     1      -8.093   8.129  66.837  1.00  0.00    -0.104 A  
HETATM   21  C   UNL     1      -8.178   7.850  65.472  1.00  0.00    -0.140 A  
HETATM   22  C   UNL     1      -8.523   8.895  64.595  1.00  0.00    -0.168 A  
HETATM   23  C   UNL     1      -8.776  10.192  65.113  1.00  0.00    -0.189 A  
HETATM   24  C   UNL     1      -8.694  10.482  66.488  1.00  0.00    -0.145 A  
BRANCH  21  25
HETATM   25  O   UNL     1      -7.945   6.599  64.969  1.00  0.00    -0.114 OA 
BRANCH  25  26
HETATM   26  C   UNL     1      -7.963   5.481  65.853  1.00  0.00    -0.106 C  
HETATM   27  C   UNL     1      -9.266   4.732  65.632  1.00  0.00    -0.152 C  
ENDBRANCH  25  26
ENDBRANCH  21  25
BRANCH  22  28
HETATM   28  O   UNL     1      -8.669   8.823  63.224  1.00  0.00    -0.125 OA 
BRANCH  28  29
HETATM   29  C   UNL     1      -7.713   9.502  62.408  1.00  0.00    -0.111 C  
HETATM   30  C   UNL     1      -6.345   9.455  63.067  1.00  0.00    -0.095 C  
ENDBRANCH  28  29
ENDBRANCH  22  28
ENDBRANCH   9  13
ENDBRANCH   3   4
ENDBRANCH   2   3
TORSDOF 9
ENDMDL
MODEL      115
REMARK 921   NORMALIZED FREE ENERGY PREDICTED BY IDOCK:   -3.53 KCAL/MOL
REMARK 922        TOTAL FREE ENERGY PREDICTED BY IDOCK:   -6.27 KCAL/MOL
REMARK 923 INTER-LIGAND FREE ENERGY PREDICTED BY IDOCK:   -5.88 KCAL/MOL
REMARK 924 INTRA-LIGAND FREE ENERGY PREDICTED BY IDOCK:   -0.39 KCAL/MOL
REMARK 927      BINDING AFFINITY PREDICTED BY RF-SCORE:    0.00 PKD
ROOT
HETATM    1  C   UNL     1      -7.529   1.808  70.442  1.00  0.00    -0.036 C  
HETATM    2  C   UNL     1      -8.036   2.961  69.590  1.00  0.00    -0.041 C  
ENDROOT
BRANCH   2   3
HETATM    3  O   UNL     1      -7.054   3.993  69.574  1.00  0.00    -0.045 OA 
BRANCH   3   4
HETATM    4  C   UNL     1      -7.457   5.284  69.332  1.00  0.00    -0.065 A  
HETATM    5  C   UNL     1      -8.399   6.064  70.032  1.00  0.00    -0.123 A  
HETATM    6  C   UNL     1      -6.806   5.848  68.231  1.00  0.00    -0.067 A  
HETATM    7  C   UNL     1      -8.682   7.374  69.585  1.00  0.00    -0.137 A  
HETATM    8  C   UNL     1      -7.096   7.148  67.805  1.00  0.00    -0.085 A  
HETATM    9  C   UNL     1      -8.071   7.919  68.445  1.00  0.00    -0.123 A  
BRANCH   5  10
HETATM   10  O   UNL     1      -9.012   5.504  71.120  1.00  0.00    -0.138 OA 
BRANCH  10  11
HETATM   11  C   UNL     1     -10.404   5.240  71.068  1.00  0.00    -0.228 C  
HETATM   12  C   UNL     1     -11.065   6.035  72.180  1.00  0.00    -0.328 C  
ENDBRANCH  10  11
ENDBRANCH   5  10
BRANCH   9  13
HETATM   13  C   UNL     1      -8.467   9.282  67.984  1.00  0.00    -0.120 C  
HETATM   14  C   UNL     1      -8.984   9.578  66.770  1.00  0.00    -0.138 C  
HETATM   15  N   UNL     1      -9.171   8.578  65.813  1.00  0.00    -0.356 NA 
HETATM   16  C   UNL     1      -8.771   8.866  64.442  1.00  0.00    -0.066 C  
HETATM   17  H   UNL     1      -9.573   7.676  66.065  1.00  0.00     0.000 HD 
HETATM   18  C   UNL     1      -9.586  10.036  63.927  1.00  0.00    -0.217 C  
HETATM   19  C   UNL     1      -9.656  11.163  64.935  1.00  0.00    -0.279 A  
HETATM   20  C   UNL     1     -10.085  12.413  64.457  1.00  0.00    -0.276 A  
HETATM   21  C   UNL     1     -10.251  13.506  65.308  1.00  0.00    -0.306 A  
HETATM   22  C   UNL     1      -9.980  13.336  66.678  1.00  0.00    -0.272 A  
HETATM   23  C   UNL     1      -9.551  12.071  67.158  1.00  0.00    -0.195 A  
HETATM   24  C   UNL     1      -9.381  10.962  66.307  1.00  0.00    -0.203 A  
BRANCH  21  25
HETATM   25  O   UNL     1     -10.674  14.725  64.852  1.00  0.00    -0.401 OA 
BRANCH  25  26
HETATM   26  C   UNL     1     -12.011  14.863  64.376  1.00  0.00    -0.394 C  
HETATM   27  C   UNL     1     -12.909  14.009  65.253  1.00  0.00    -0.418 C  
ENDBRANCH  25  26
ENDBRANCH  21  25
BRANCH  22  28
HETATM   28  O   UNL     1     -10.093  14.282  67.677  1.00  0.00    -0.227 OA 
BRANCH  28  29
HETATM   29  C   UNL     1     -11.181  14.166  68.597  1.00  0.00    -0.266 C  
HETATM   30  C   UNL     1     -11.397  15.489  69.311  1.00  0.00    -0.330 C  
ENDBRANCH  28  29
ENDBRANCH  22  28
ENDBRANCH   9  13
ENDBRANCH   3   4
ENDBRANCH   2   3
TORSDOF 9
ENDMDL
MODEL      116
REMARK 921   NORMALIZED FREE ENERGY PREDICTED BY IDOCK:   -3.52 KCAL/MOL
REMARK 922        TOTAL FREE ENERGY PREDICTED BY IDOCK:   -6.24 KCAL/MOL
REMARK 923 INTER-LIGAND FREE ENERGY PREDICTED BY IDOCK:   -5.36 KCAL/MOL
REMARK 924 INTRA-LIGAND FREE ENERGY PREDICTED BY IDOCK:   -0.88 KCAL/MOL
REMARK 927      BINDING AFFINITY PREDICTED BY RF-SCORE:    0.00 PKD
ROOT
HETATM    1  C   UNL     1      -8.380   4.340  71.174  1.00  0.00    -0.097 C  
HETATM    2  C   UNL     1      -9.817   3.911  70.919  1.00  0.00    -0.143 C  
ENDROOT
BRANCH   2   3
HETATM    3  O   UNL     1     -10.279   4.524  69.719  1.00  0.00    -0.201 OA 
BRANCH   3   4
HETATM    4  C   UNL     1     -10.119   5.880  69.565  1.00  0.00    -0.203 A  
HETATM    5  C   UNL     1     -10.736   6.931  70.272  1.00  0.00    -0.242 A  
HETATM    6  C   UNL     1      -9.204   6.197  68.556  1.00  0.00    -0.115 A  
HETATM    7  C   UNL     1     -10.441   8.267  69.922  1.00  0.00    -0.223 A  
HETATM    8  C   UNL     1      -8.921   7.526  68.227  1.00  0.00    -0.130 A  
HETATM    9  C   UNL     1      -9.566   8.586  68.871  1.00  0.00    -0.160 A  
BRANCH   5  10
HETATM   10  O   UNL     1     -11.613   6.603  71.270  1.00  0.00    -0.291 OA 
BRANCH  10  11
HETATM   11  C   UNL     1     -11.625   7.377  72.459  1.00  0.00    -0.275 C  
HETATM   12  C   UNL     1     -10.647   6.740  73.430  1.00  0.00    -0.351 C  
ENDBRANCH  10  11
ENDBRANCH   5  10
BRANCH   9  13
HETATM   13  C   UNL     1      -9.352  10.016  68.505  1.00  0.00    -0.145 C  
HETATM   14  C   UNL     1      -8.208  10.711  68.699  1.00  0.00    -0.135 C  
HETATM   15  N   UNL     1      -7.103  10.108  69.305  1.00  0.00    -0.067 NA 
HETATM   16  C   UNL     1      -6.388  10.866  70.322  1.00  0.00    -0.135 C  
HETATM   17  H   UNL     1      -6.808   9.168  69.044  1.00  0.00     0.000 HD 
HETATM   18  C   UNL     1      -5.830  12.128  69.695  1.00  0.00    -0.107 C  
HETATM   19  C   UNL     1      -6.854  12.828  68.826  1.00  0.00    -0.096 A  
HETATM   20  C   UNL     1      -6.576  14.157  68.469  1.00  0.00    -0.096 A  
HETATM   21  C   UNL     1      -7.415  14.879  67.619  1.00  0.00    -0.185 A  
HETATM   22  C   UNL     1      -8.563  14.243  67.112  1.00  0.00    -0.216 A  
HETATM   23  C   UNL     1      -8.838  12.898  67.472  1.00  0.00    -0.192 A  
HETATM   24  C   UNL     1      -7.998  12.162  68.329  1.00  0.00    -0.163 A  
BRANCH  21  25
HETATM   25  O   UNL     1      -7.149  16.172  67.261  1.00  0.00    -0.158 OA 
BRANCH  25  26
HETATM   26  C   UNL     1      -6.878  17.134  68.278  1.00  0.00    -0.177 C  
HETATM   27  C   UNL     1      -5.690  17.966  67.830  1.00  0.00    -0.149 C  
ENDBRANCH  25  26
ENDBRANCH  21  25
BRANCH  22  28
HETATM   28  O   UNL     1      -9.506  14.776  66.255  1.00  0.00    -0.283 OA 
BRANCH  28  29
HETATM   29  C   UNL     1     -10.878  14.731  66.650  1.00  0.00    -0.319 C  
HETATM   30  C   UNL     1     -11.126  15.724  67.773  1.00  0.00    -0.313 C  
ENDBRANCH  28  29
ENDBRANCH  22  28
ENDBRANCH   9  13
ENDBRANCH   3   4
ENDBRANCH   2   3
TORSDOF 9
ENDMDL
MODEL      117
REMARK 921   NORMALIZED FREE ENERGY PREDICTED BY IDOCK:   -3.50 KCAL/MOL
REMARK 922        TOTAL FREE ENERGY PREDICTED BY IDOCK:   -6.23 KCAL/MOL
REMARK 923 INTER-LIGAND FREE ENERGY PREDICTED BY IDOCK:   -6.36 KCAL/MOL
REMARK 924 INTRA-LIGAND FREE ENERGY PREDICTED BY IDOCK:    0.13 KCAL/MOL
REMARK 927      BINDING AFFINITY PREDICTED BY RF-SCORE:    0.00 PKD
ROOT
HETATM    1  C   UNL     1      -9.427  18.620  66.829  1.00  0.00    -0.324 C  
HETATM    2  C   UNL     1     -10.481  17.826  67.584  1.00  0.00    -0.388 C  
ENDROOT
BRANCH   2   3
HETATM    3  O   UNL     1      -9.848  17.079  68.619  1.00  0.00    -0.263 OA 
BRANCH   3   4
HETATM    4  C   UNL     1      -9.845  15.707  68.537  1.00  0.00    -0.205 A  
HETATM    5  C   UNL     1      -8.999  14.867  67.787  1.00  0.00    -0.177 A  
HETATM    6  C   UNL     1     -10.839  15.124  69.328  1.00  0.00    -0.255 A  
HETATM    7  C   UNL     1      -9.197  13.469  67.830  1.00  0.00    -0.211 A  
HETATM    8  C   UNL     1     -11.017  13.738  69.363  1.00  0.00    -0.142 A  
HETATM    9  C   UNL     1     -10.231  12.886  68.580  1.00  0.00    -0.170 A  
BRANCH   5  10
HETATM   10  O   UNL     1      -8.019  15.453  67.033  1.00  0.00    -0.203 OA 
BRANCH  10  11
HETATM   11  C   UNL     1      -6.721  15.605  67.586  1.00  0.00    -0.178 C  
HETATM   12  C   UNL     1      -6.820  16.614  68.716  1.00  0.00    -0.180 C  
ENDBRANCH  10  11
ENDBRANCH   5  10
BRANCH   9  13
HETATM   13  C   UNL     1     -10.431  11.409  68.527  1.00  0.00    -0.223 C  
HETATM   14  C   UNL     1      -9.792  10.563  67.688  1.00  0.00    -0.166 C  
HETATM   15  N   UNL     1      -8.872  11.045  66.754  1.00  0.00    -0.152 NA 
HETATM   16  C   UNL     1      -8.939  10.517  65.399  1.00  0.00    -0.186 C  
HETATM   17  H   UNL     1      -8.177  11.745  67.014  1.00  0.00     0.000 HD 
HETATM   18  C   UNL     1      -8.684   9.024  65.439  1.00  0.00    -0.221 C  
HETATM   19  C   UNL     1      -9.469   8.346  66.542  1.00  0.00    -0.284 A  
HETATM   20  C   UNL     1      -9.582   6.947  66.470  1.00  0.00    -0.197 A  
HETATM   21  C   UNL     1     -10.226   6.211  67.465  1.00  0.00    -0.178 A  
HETATM   22  C   UNL     1     -10.769   6.902  68.564  1.00  0.00    -0.207 A  
HETATM   23  C   UNL     1     -10.649   8.314  68.636  1.00  0.00    -0.144 A  
HETATM   24  C   UNL     1     -10.001   9.065  67.637  1.00  0.00    -0.252 A  
BRANCH  21  25
HETATM   25  O   UNL     1     -10.335   4.849  67.406  1.00  0.00    -0.151 OA 
BRANCH  25  26
HETATM   26  C   UNL     1      -9.162   4.051  67.549  1.00  0.00    -0.164 C  
HETATM   27  C   UNL     1      -8.801   4.011  69.023  1.00  0.00    -0.146 C  
ENDBRANCH  25  26
ENDBRANCH  21  25
BRANCH  22  28
HETATM   28  O   UNL     1     -11.429   6.360  69.650  1.00  0.00    -0.416 OA 
BRANCH  28  29
HETATM   29  C   UNL     1     -11.060   6.809  70.955  1.00  0.00    -0.273 C  
HETATM   30  C   UNL     1     -10.834   5.615  71.867  1.00  0.00    -0.302 C  
ENDBRANCH  28  29
ENDBRANCH  22  28
ENDBRANCH   9  13
ENDBRANCH   3   4
ENDBRANCH   2   3
TORSDOF 9
ENDMDL
MODEL      118
REMARK 921   NORMALIZED FREE ENERGY PREDICTED BY IDOCK:   -3.48 KCAL/MOL
REMARK 922        TOTAL FREE ENERGY PREDICTED BY IDOCK:   -6.19 KCAL/MOL
REMARK 923 INTER-LIGAND FREE ENERGY PREDICTED BY IDOCK:   -5.76 KCAL/MOL
REMARK 924 INTRA-LIGAND FREE ENERGY PREDICTED BY IDOCK:   -0.44 KCAL/MOL
REMARK 927      BINDING AFFINITY PREDICTED BY RF-SCORE:    0.00 PKD
ROOT
HETATM    1  C   UNL     1     -10.606  16.909  68.601  1.00  0.00    -0.360 C  
HETATM    2  C   UNL     1     -10.448  17.133  67.105  1.00  0.00    -0.291 C  
ENDROOT
BRANCH   2   3
HETATM    3  O   UNL     1      -9.291  16.438  66.650  1.00  0.00    -0.231 OA 
BRANCH   3   4
HETATM    4  C   UNL     1      -9.362  15.077  66.478  1.00  0.00    -0.281 A  
HETATM    5  C   UNL     1     -10.240  14.331  65.666  1.00  0.00    -0.347 A  
HETATM    6  C   UNL     1      -8.406  14.393  67.236  1.00  0.00    -0.228 A  
HETATM    7  C   UNL     1     -10.152  12.921  65.665  1.00  0.00    -0.282 A  
HETATM    8  C   UNL     1      -8.331  12.997  67.218  1.00  0.00    -0.186 A  
HETATM    9  C   UNL     1      -9.231  12.232  66.470  1.00  0.00    -0.219 A  
BRANCH   5  10
HETATM   10  O   UNL     1     -11.155  15.017  64.915  1.00  0.00    -0.387 OA 
BRANCH  10  11
HETATM   11  C   UNL     1     -12.083  14.289  64.126  1.00  0.00    -0.393 C  
HETATM   12  C   UNL     1     -13.014  13.554  65.075  1.00  0.00    -0.215 C  
ENDBRANCH  10  11
ENDBRANCH   5  10
BRANCH   9  13
HETATM   13  C   UNL     1      -9.238  10.741  66.477  1.00  0.00    -0.187 C  
HETATM   14  C   UNL     1      -8.573   9.951  65.603  1.00  0.00    -0.145 C  
HETATM   15  N   UNL     1      -7.814  10.510  64.573  1.00  0.00    -0.333 NA 
HETATM   16  C   UNL     1      -7.934   9.925  63.245  1.00  0.00    -0.151 C  
HETATM   17  H   UNL     1      -7.196  11.303  64.745  1.00  0.00     0.000 HD 
HETATM   18  C   UNL     1      -7.482   8.479  63.302  1.00  0.00    -0.109 C  
HETATM   19  C   UNL     1      -8.066   7.750  64.494  1.00  0.00    -0.108 A  
HETATM   20  C   UNL     1      -8.000   6.347  64.471  1.00  0.00    -0.117 A  
HETATM   21  C   UNL     1      -8.446   5.574  65.543  1.00  0.00    -0.144 A  
HETATM   22  C   UNL     1      -8.972   6.232  66.670  1.00  0.00    -0.135 A  
HETATM   23  C   UNL     1      -9.034   7.650  66.691  1.00  0.00    -0.181 A  
HETATM   24  C   UNL     1      -8.586   8.438  65.614  1.00  0.00    -0.197 A  
BRANCH  21  25
HETATM   25  O   UNL     1      -8.379   4.208  65.533  1.00  0.00    -0.108 OA 
BRANCH  25  26
HETATM   26  C   UNL     1      -7.113   3.575  65.361  1.00  0.00    -0.066 C  
HETATM   27  C   UNL     1      -7.362   2.151  64.900  1.00  0.00    -0.062 C  
ENDBRANCH  25  26
ENDBRANCH  21  25
BRANCH  22  28
HETATM   28  O   UNL     1      -9.453   5.654  67.829  1.00  0.00    -0.112 OA 
BRANCH  28  29
HETATM   29  C   UNL     1      -8.752   5.905  69.048  1.00  0.00    -0.114 C  
HETATM   30  C   UNL     1      -7.441   5.136  69.058  1.00  0.00    -0.069 C  
ENDBRANCH  28  29
ENDBRANCH  22  28
ENDBRANCH   9  13
ENDBRANCH   3   4
ENDBRANCH   2   3
TORSDOF 9
ENDMDL
MODEL      119
REMARK 921   NORMALIZED FREE ENERGY PREDICTED BY IDOCK:   -3.44 KCAL/MOL
REMARK 922        TOTAL FREE ENERGY PREDICTED BY IDOCK:   -6.12 KCAL/MOL
REMARK 923 INTER-LIGAND FREE ENERGY PREDICTED BY IDOCK:   -6.06 KCAL/MOL
REMARK 924 INTRA-LIGAND FREE ENERGY PREDICTED BY IDOCK:   -0.06 KCAL/MOL
REMARK 927      BINDING AFFINITY PREDICTED BY RF-SCORE:    0.00 PKD
ROOT
HETATM    1  C   UNL     1     -11.987  16.832  73.729  1.00  0.00    -0.222 C  
HETATM    2  C   UNL     1     -12.559  15.588  73.067  1.00  0.00    -0.448 C  
ENDROOT
BRANCH   2   3
HETATM    3  O   UNL     1     -12.750  15.847  71.679  1.00  0.00    -0.451 OA 
BRANCH   3   4
HETATM    4  C   UNL     1     -12.171  15.002  70.763  1.00  0.00    -0.329 A  
HETATM    5  C   UNL     1     -12.535  13.685  70.420  1.00  0.00    -0.294 A  
HETATM    6  C   UNL     1     -11.079  15.587  70.116  1.00  0.00    -0.337 A  
HETATM    7  C   UNL     1     -11.771  12.984  69.460  1.00  0.00    -0.381 A  
HETATM    8  C   UNL     1     -10.338  14.879  69.164  1.00  0.00    -0.246 A  
HETATM    9  C   UNL     1     -10.640  13.551  68.851  1.00  0.00    -0.188 A  
BRANCH   5  10
HETATM   10  O   UNL     1     -13.619  13.135  71.048  1.00  0.00     0.135 OA 
BRANCH  10  11
HETATM   11  C   UNL     1     -13.409  12.223  72.114  1.00  0.00    -0.368 C  
HETATM   12  C   UNL     1     -13.141  10.858  71.503  1.00  0.00    -0.503 C  
ENDBRANCH  10  11
ENDBRANCH   5  10
BRANCH   9  13
HETATM   13  C   UNL     1      -9.835  12.732  67.899  1.00  0.00    -0.223 C  
HETATM   14  C   UNL     1      -8.487  12.620  67.908  1.00  0.00    -0.173 C  
HETATM   15  N   UNL     1      -7.721  13.317  68.846  1.00  0.00    -0.317 NA 
HETATM   16  C   UNL     1      -6.518  13.989  68.376  1.00  0.00    -0.103 C  
HETATM   17  H   UNL     1      -7.997  13.354  69.827  1.00  0.00     0.000 HD 
HETATM   18  C   UNL     1      -5.566  12.956  67.807  1.00  0.00    -0.130 C  
HETATM   19  C   UNL     1      -6.275  11.974  66.898  1.00  0.00    -0.074 A  
HETATM   20  C   UNL     1      -5.464  11.192  66.059  1.00  0.00    -0.125 A  
HETATM   21  C   UNL     1      -6.002  10.209  65.227  1.00  0.00    -0.112 A  
HETATM   22  C   UNL     1      -7.395  10.007  65.243  1.00  0.00    -0.137 A  
HETATM   23  C   UNL     1      -8.210  10.797  66.095  1.00  0.00    -0.163 A  
HETATM   24  C   UNL     1      -7.676  11.790  66.938  1.00  0.00    -0.129 A  
BRANCH  21  25
HETATM   25  O   UNL     1      -5.220   9.438  64.412  1.00  0.00    -0.055 OA 
BRANCH  25  26
HETATM   26  C   UNL     1      -5.435   9.478  63.003  1.00  0.00    -0.080 C  
HETATM   27  C   UNL     1      -5.245  10.912  62.542  1.00  0.00    -0.188 C  
ENDBRANCH  25  26
ENDBRANCH  21  25
BRANCH  22  28
HETATM   28  O   UNL     1      -8.115   9.085  64.509  1.00  0.00    -0.127 OA 
BRANCH  28  29
HETATM   29  C   UNL     1      -8.007   7.706  64.868  1.00  0.00    -0.135 C  
HETATM   30  C   UNL     1      -8.993   7.383  65.977  1.00  0.00    -0.156 C  
ENDBRANCH  28  29
ENDBRANCH  22  28
ENDBRANCH   9  13
ENDBRANCH   3   4
ENDBRANCH   2   3
TORSDOF 9
ENDMDL
MODEL      120
REMARK 921   NORMALIZED FREE ENERGY PREDICTED BY IDOCK:   -3.40 KCAL/MOL
REMARK 922        TOTAL FREE ENERGY PREDICTED BY IDOCK:   -6.07 KCAL/MOL
REMARK 923 INTER-LIGAND FREE ENERGY PREDICTED BY IDOCK:   -5.48 KCAL/MOL
REMARK 924 INTRA-LIGAND FREE ENERGY PREDICTED BY IDOCK:   -0.59 KCAL/MOL
REMARK 927      BINDING AFFINITY PREDICTED BY RF-SCORE:    0.00 PKD
ROOT
HETATM    1  C   UNL     1     -10.943  15.983  68.207  1.00  0.00    -0.335 C  
HETATM    2  C   UNL     1     -10.589  14.691  67.487  1.00  0.00    -0.257 C  
ENDROOT
BRANCH   2   3
HETATM    3  O   UNL     1     -11.377  13.631  68.020  1.00  0.00    -0.257 OA 
BRANCH   3   4
HETATM    4  C   UNL     1     -11.085  12.340  67.652  1.00  0.00    -0.268 A  
HETATM    5  C   UNL     1     -11.598  11.134  68.168  1.00  0.00    -0.280 A  
HETATM    6  C   UNL     1     -10.144  12.281  66.620  1.00  0.00    -0.231 A  
HETATM    7  C   UNL     1     -11.128   9.905  67.653  1.00  0.00    -0.170 A  
HETATM    8  C   UNL     1      -9.694  11.056  66.119  1.00  0.00    -0.257 A  
HETATM    9  C   UNL     1     -10.142   9.845  66.656  1.00  0.00    -0.297 A  
BRANCH   5  10
HETATM   10  O   UNL     1     -12.533  11.210  69.164  1.00  0.00    -0.418 OA 
BRANCH  10  11
HETATM   11  C   UNL     1     -12.102  11.410  70.501  1.00  0.00    -0.394 C  
HETATM   12  C   UNL     1     -11.960  10.043  71.147  1.00  0.00    -0.484 C  
ENDBRANCH  10  11
ENDBRANCH   5  10
BRANCH   9  13
HETATM   13  C   UNL     1      -9.637   8.515  66.206  1.00  0.00    -0.306 C  
HETATM   14  C   UNL     1      -8.988   7.620  66.984  1.00  0.00    -0.133 C  
HETATM   15  N   UNL     1      -8.716   7.907  68.324  1.00  0.00    -0.130 NA 
HETATM   16  C   UNL     1      -7.389   7.588  68.831  1.00  0.00    -0.094 C  
HETATM   17  H   UNL     1      -9.424   8.327  68.926  1.00  0.00     0.000 HD 
HETATM   18  C   UNL     1      -7.163   6.094  68.714  1.00  0.00    -0.084 C  
HETATM   19  C   UNL     1      -7.592   5.561  67.363  1.00  0.00    -0.089 A  
HETATM   20  C   UNL     1      -7.129   4.282  67.012  1.00  0.00    -0.067 A  
HETATM   21  C   UNL     1      -7.514   3.664  65.822  1.00  0.00    -0.077 A  
HETATM   22  C   UNL     1      -8.390   4.352  64.963  1.00  0.00    -0.117 A  
HETATM   23  C   UNL     1      -8.859   5.643  65.323  1.00  0.00    -0.083 A  
HETATM   24  C   UNL     1      -8.476   6.274  66.522  1.00  0.00    -0.121 A  
BRANCH  21  25
HETATM   25  O   UNL     1      -7.074   2.416  65.475  1.00  0.00    -0.054 OA 
BRANCH  25  26
HETATM   26  C   UNL     1      -6.443   2.228  64.211  1.00  0.00    -0.022 C  
HETATM   27  C   UNL     1      -5.166   3.051  64.199  1.00  0.00    -0.009 C  
ENDBRANCH  25  26
ENDBRANCH  21  25
BRANCH  22  28
HETATM   28  O   UNL     1      -8.894   3.912  63.755  1.00  0.00    -0.104 OA 
BRANCH  28  29
HETATM   29  C   UNL     1     -10.212   3.360  63.735  1.00  0.00    -0.214 C  
HETATM   30  C   UNL     1     -10.141   1.862  63.494  1.00  0.00    -0.131 C  
ENDBRANCH  28  29
ENDBRANCH  22  28
ENDBRANCH   9  13
ENDBRANCH   3   4
ENDBRANCH   2   3
TORSDOF 9
ENDMDL
MODEL      121
REMARK 921   NORMALIZED FREE ENERGY PREDICTED BY IDOCK:   -3.35 KCAL/MOL
REMARK 922        TOTAL FREE ENERGY PREDICTED BY IDOCK:   -5.99 KCAL/MOL
REMARK 923 INTER-LIGAND FREE ENERGY PREDICTED BY IDOCK:   -5.42 KCAL/MOL
REMARK 924 INTRA-LIGAND FREE ENERGY PREDICTED BY IDOCK:   -0.57 KCAL/MOL
REMARK 927      BINDING AFFINITY PREDICTED BY RF-SCORE:    0.00 PKD
ROOT
HETATM    1  C   UNL     1     -10.849   5.395  69.431  1.00  0.00    -0.103 C  
HETATM    2  C   UNL     1      -9.606   4.682  69.940  1.00  0.00    -0.191 C  
ENDROOT
BRANCH   2   3
HETATM    3  O   UNL     1      -8.713   5.643  70.494  1.00  0.00    -0.132 OA 
BRANCH   3   4
HETATM    4  C   UNL     1      -8.631   6.883  69.910  1.00  0.00    -0.141 A  
HETATM    5  C   UNL     1      -8.066   7.243  68.671  1.00  0.00    -0.125 A  
HETATM    6  C   UNL     1      -9.205   7.883  70.701  1.00  0.00    -0.157 A  
HETATM    7  C   UNL     1      -8.066   8.600  68.278  1.00  0.00    -0.118 A  
HETATM    8  C   UNL     1      -9.201   9.221  70.293  1.00  0.00    -0.273 A  
HETATM    9  C   UNL     1      -8.591   9.612  69.097  1.00  0.00    -0.146 A  
BRANCH   5  10
HETATM   10  O   UNL     1      -7.526   6.250  67.900  1.00  0.00    -0.089 OA 
BRANCH  10  11
HETATM   11  C   UNL     1      -6.161   5.904  68.076  1.00  0.00    -0.028 C  
HETATM   12  C   UNL     1      -5.563   5.682  66.698  1.00  0.00    -0.017 C  
ENDBRANCH  10  11
ENDBRANCH   5  10
BRANCH   9  13
HETATM   13  C   UNL     1      -8.496  11.034  68.655  1.00  0.00    -0.157 C  
HETATM   14  C   UNL     1      -9.486  11.736  68.059  1.00  0.00    -0.188 C  
HETATM   15  N   UNL     1     -10.718  11.137  67.785  1.00  0.00    -0.207 NA 
HETATM   16  C   UNL     1     -11.317  11.380  66.480  1.00  0.00    -0.122 C  
HETATM   17  H   UNL     1     -11.183  10.548  68.476  1.00  0.00     0.000 HD 
HETATM   18  C   UNL     1     -11.579  12.866  66.327  1.00  0.00    -0.424 C  
HETATM   19  C   UNL     1     -10.394  13.698  66.771  1.00  0.00    -0.268 A  
HETATM   20  C   UNL     1     -10.381  15.044  66.370  1.00  0.00    -0.293 A  
HETATM   21  C   UNL     1      -9.374  15.920  66.774  1.00  0.00    -0.240 A  
HETATM   22  C   UNL     1      -8.353  15.428  67.607  1.00  0.00    -0.161 A  
HETATM   23  C   UNL     1      -8.371  14.068  68.014  1.00  0.00    -0.163 A  
HETATM   24  C   UNL     1      -9.383  13.177  67.611  1.00  0.00    -0.205 A  
BRANCH  21  25
HETATM   25  O   UNL     1      -9.357  17.234  66.394  1.00  0.00    -0.258 OA 
BRANCH  25  26
HETATM   26  C   UNL     1      -9.735  18.235  67.336  1.00  0.00    -0.296 C  
HETATM   27  C   UNL     1     -10.293  19.417  66.563  1.00  0.00    -0.564 C  
ENDBRANCH  25  26
ENDBRANCH  21  25
BRANCH  22  28
HETATM   28  O   UNL     1      -7.281  16.131  68.122  1.00  0.00    -0.128 OA 
BRANCH  28  29
HETATM   29  C   UNL     1      -6.155  15.391  68.596  1.00  0.00    -0.096 C  
HETATM   30  C   UNL     1      -5.316  16.261  69.516  1.00  0.00    -0.128 C  
ENDBRANCH  28  29
ENDBRANCH  22  28
ENDBRANCH   9  13
ENDBRANCH   3   4
ENDBRANCH   2   3
TORSDOF 9
ENDMDL
MODEL      122
REMARK 921   NORMALIZED FREE ENERGY PREDICTED BY IDOCK:   -3.35 KCAL/MOL
REMARK 922        TOTAL FREE ENERGY PREDICTED BY IDOCK:   -5.99 KCAL/MOL
REMARK 923 INTER-LIGAND FREE ENERGY PREDICTED BY IDOCK:   -6.91 KCAL/MOL
REMARK 924 INTRA-LIGAND FREE ENERGY PREDICTED BY IDOCK:    0.93 KCAL/MOL
REMARK 927      BINDING AFFINITY PREDICTED BY RF-SCORE:    0.00 PKD
ROOT
HETATM    1  C   UNL     1      -7.897   2.233  72.292  1.00  0.00    -0.053 C  
HETATM    2  C   UNL     1      -8.551   2.377  70.927  1.00  0.00    -0.059 C  
ENDROOT
BRANCH   2   3
HETATM    3  O   UNL     1      -9.896   2.816  71.099  1.00  0.00    -0.147 OA 
BRANCH   3   4
HETATM    4  C   UNL     1     -10.148   4.165  71.167  1.00  0.00    -0.075 A  
HETATM    5  C   UNL     1     -10.755   4.901  72.202  1.00  0.00    -0.123 A  
HETATM    6  C   UNL     1      -9.718   4.844  70.023  1.00  0.00    -0.285 A  
HETATM    7  C   UNL     1     -10.942   6.293  72.044  1.00  0.00    -0.299 A  
HETATM    8  C   UNL     1      -9.907   6.223  69.886  1.00  0.00    -0.198 A  
HETATM    9  C   UNL     1     -10.563   6.966  70.872  1.00  0.00    -0.243 A  
BRANCH   5  10
HETATM   10  O   UNL     1     -11.151   4.224  73.324  1.00  0.00    -0.236 OA 
BRANCH  10  11
HETATM   11  C   UNL     1     -10.487   4.476  74.552  1.00  0.00    -0.253 C  
HETATM   12  C   UNL     1      -9.292   5.365  74.254  1.00  0.00    -0.132 C  
ENDBRANCH  10  11
ENDBRANCH   5  10
BRANCH   9  13
HETATM   13  C   UNL     1     -10.853   8.423  70.739  1.00  0.00    -0.255 C  
HETATM   14  C   UNL     1     -10.483   9.203  69.698  1.00  0.00    -0.223 C  
HETATM   15  N   UNL     1      -9.750   8.671  68.635  1.00  0.00    -0.160 NA 
HETATM   16  C   UNL     1      -8.622   9.443  68.133  1.00  0.00    -0.120 C  
HETATM   17  H   UNL     1      -9.996   7.771  68.225  1.00  0.00     0.000 HD 
HETATM   18  C   UNL     1      -9.130  10.773  67.611  1.00  0.00    -0.148 C  
HETATM   19  C   UNL     1     -10.109  11.420  68.567  1.00  0.00    -0.211 A  
HETATM   20  C   UNL     1     -10.385  12.782  68.364  1.00  0.00    -0.248 A  
HETATM   21  C   UNL     1     -11.320  13.465  69.142  1.00  0.00    -0.280 A  
HETATM   22  C   UNL     1     -11.998  12.756  70.152  1.00  0.00    -0.296 A  
HETATM   23  C   UNL     1     -11.719  11.379  70.351  1.00  0.00    -0.362 A  
HETATM   24  C   UNL     1     -10.778  10.681  69.570  1.00  0.00    -0.290 A  
BRANCH  21  25
HETATM   25  O   UNL     1     -11.600  14.790  68.948  1.00  0.00    -0.283 OA 
BRANCH  25  26
HETATM   26  C   UNL     1     -10.878  15.514  67.953  1.00  0.00    -0.307 C  
HETATM   27  C   UNL     1     -10.479  16.852  68.548  1.00  0.00    -0.361 C  
ENDBRANCH  25  26
ENDBRANCH  21  25
BRANCH  22  28
HETATM   28  O   UNL     1     -12.960  13.243  71.015  1.00  0.00    -0.255 OA 
BRANCH  28  29
HETATM   29  C   UNL     1     -12.983  14.648  71.274  1.00  0.00    -0.339 C  
HETATM   30  C   UNL     1     -14.346  15.052  71.807  1.00  0.00    -0.674 C  
ENDBRANCH  28  29
ENDBRANCH  22  28
ENDBRANCH   9  13
ENDBRANCH   3   4
ENDBRANCH   2   3
TORSDOF 9
ENDMDL
MODEL      123
REMARK 921   NORMALIZED FREE ENERGY PREDICTED BY IDOCK:   -3.34 KCAL/MOL
REMARK 922        TOTAL FREE ENERGY PREDICTED BY IDOCK:   -5.98 KCAL/MOL
REMARK 923 INTER-LIGAND FREE ENERGY PREDICTED BY IDOCK:   -5.14 KCAL/MOL
REMARK 924 INTRA-LIGAND FREE ENERGY PREDICTED BY IDOCK:   -0.84 KCAL/MOL
REMARK 927      BINDING AFFINITY PREDICTED BY RF-SCORE:    0.00 PKD
ROOT
HETATM    1  C   UNL     1      -9.715   3.972  69.954  1.00  0.00    -0.263 C  
HETATM    2  C   UNL     1      -8.610   3.929  68.911  1.00  0.00    -0.084 C  
ENDROOT
BRANCH   2   3
HETATM    3  O   UNL     1      -7.704   5.003  69.148  1.00  0.00    -0.074 OA 
BRANCH   3   4
HETATM    4  C   UNL     1      -8.148   6.292  68.978  1.00  0.00    -0.110 A  
HETATM    5  C   UNL     1      -8.679   6.900  67.824  1.00  0.00    -0.120 A  
HETATM    6  C   UNL     1      -8.032   7.053  70.145  1.00  0.00    -0.114 A  
HETATM    7  C   UNL     1      -9.048   8.263  67.868  1.00  0.00    -0.137 A  
HETATM    8  C   UNL     1      -8.408   8.399  70.171  1.00  0.00    -0.120 A  
HETATM    9  C   UNL     1      -8.879   9.043  69.023  1.00  0.00    -0.136 A  
BRANCH   5  10
HETATM   10  O   UNL     1      -8.805   6.135  66.696  1.00  0.00    -0.120 OA 
BRANCH  10  11
HETATM   11  C   UNL     1      -7.704   6.030  65.808  1.00  0.00    -0.097 C  
HETATM   12  C   UNL     1      -8.034   6.844  64.569  1.00  0.00    -0.106 C  
ENDBRANCH  10  11
ENDBRANCH   5  10
BRANCH   9  13
HETATM   13  C   UNL     1      -9.222  10.494  68.982  1.00  0.00    -0.193 C  
HETATM   14  C   UNL     1      -8.483  11.457  68.386  1.00  0.00    -0.155 C  
HETATM   15  N   UNL     1      -7.277  11.141  67.757  1.00  0.00    -0.089 NA 
HETATM   16  C   UNL     1      -6.136  12.013  67.996  1.00  0.00    -0.058 C  
HETATM   17  H   UNL     1      -7.198  10.325  67.150  1.00  0.00     0.000 HD 
HETATM   18  C   UNL     1      -6.467  13.405  67.495  1.00  0.00    -0.129 C  
HETATM   19  C   UNL     1      -7.848  13.849  67.929  1.00  0.00    -0.161 A  
HETATM   20  C   UNL     1      -8.135  15.219  67.821  1.00  0.00    -0.158 A  
HETATM   21  C   UNL     1      -9.395  15.732  68.129  1.00  0.00    -0.194 A  
HETATM   22  C   UNL     1     -10.396  14.839  68.556  1.00  0.00    -0.237 A  
HETATM   23  C   UNL     1     -10.103  13.453  68.660  1.00  0.00    -0.162 A  
HETATM   24  C   UNL     1      -8.834  12.928  68.351  1.00  0.00    -0.120 A  
BRANCH  21  25
HETATM   25  O   UNL     1      -9.686  17.064  68.021  1.00  0.00    -0.248 OA 
BRANCH  25  26
HETATM   26  C   UNL     1      -8.823  17.903  67.256  1.00  0.00    -0.243 C  
HETATM   27  C   UNL     1      -9.198  19.346  67.545  1.00  0.00    -0.375 C  
ENDBRANCH  25  26
ENDBRANCH  21  25
BRANCH  22  28
HETATM   28  O   UNL     1     -11.699  15.142  68.895  1.00  0.00    -0.313 OA 
BRANCH  28  29
HETATM   29  C   UNL     1     -12.167  14.755  70.188  1.00  0.00    -0.337 C  
HETATM   30  C   UNL     1     -11.561  15.658  71.249  1.00  0.00    -0.485 C  
ENDBRANCH  28  29
ENDBRANCH  22  28
ENDBRANCH   9  13
ENDBRANCH   3   4
ENDBRANCH   2   3
TORSDOF 9
ENDMDL
MODEL      124
REMARK 921   NORMALIZED FREE ENERGY PREDICTED BY IDOCK:   -3.25 KCAL/MOL
REMARK 922        TOTAL FREE ENERGY PREDICTED BY IDOCK:   -5.84 KCAL/MOL
REMARK 923 INTER-LIGAND FREE ENERGY PREDICTED BY IDOCK:   -5.32 KCAL/MOL
REMARK 924 INTRA-LIGAND FREE ENERGY PREDICTED BY IDOCK:   -0.52 KCAL/MOL
REMARK 927      BINDING AFFINITY PREDICTED BY RF-SCORE:    0.00 PKD
ROOT
HETATM    1  C   UNL     1      -6.232   6.499  73.562  1.00  0.00    -0.064 C  
HETATM    2  C   UNL     1      -7.286   5.444  73.265  1.00  0.00    -0.095 C  
ENDROOT
BRANCH   2   3
HETATM    3  O   UNL     1      -7.644   5.520  71.888  1.00  0.00    -0.095 OA 
BRANCH   3   4
HETATM    4  C   UNL     1      -7.954   6.746  71.351  1.00  0.00    -0.109 A  
HETATM    5  C   UNL     1      -8.979   7.640  71.720  1.00  0.00    -0.119 A  
HETATM    6  C   UNL     1      -7.102   7.099  70.301  1.00  0.00    -0.066 A  
HETATM    7  C   UNL     1      -9.135   8.847  71.003  1.00  0.00    -0.303 A  
HETATM    8  C   UNL     1      -7.269   8.300  69.606  1.00  0.00    -0.061 A  
HETATM    9  C   UNL     1      -8.315   9.176  69.912  1.00  0.00    -0.146 A  
BRANCH   5  10
HETATM   10  O   UNL     1      -9.791   7.288  72.763  1.00  0.00    -0.159 OA 
BRANCH  10  11
HETATM   11  C   UNL     1     -11.140   6.938  72.499  1.00  0.00    -0.266 C  
HETATM   12  C   UNL     1     -11.361   5.531  73.027  1.00  0.00    -0.323 C  
ENDBRANCH  10  11
ENDBRANCH   5  10
BRANCH   9  13
HETATM   13  C   UNL     1      -8.578  10.432  69.152  1.00  0.00    -0.169 C  
HETATM   14  C   UNL     1      -7.743  11.493  69.079  1.00  0.00    -0.034 C  
HETATM   15  N   UNL     1      -6.526  11.488  69.765  1.00  0.00    -0.190 NA 
HETATM   16  C   UNL     1      -6.149  12.694  70.489  1.00  0.00     0.060 C  
HETATM   17  H   UNL     1      -5.921  10.667  69.759  1.00  0.00     0.000 HD 
HETATM   18  C   UNL     1      -6.021  13.840  69.505  1.00  0.00    -0.107 C  
HETATM   19  C   UNL     1      -7.184  13.885  68.535  1.00  0.00    -0.107 A  
HETATM   20  C   UNL     1      -7.354  15.075  67.808  1.00  0.00    -0.183 A  
HETATM   21  C   UNL     1      -8.350  15.206  66.840  1.00  0.00    -0.232 A  
HETATM   22  C   UNL     1      -9.197  14.109  66.596  1.00  0.00    -0.252 A  
HETATM   23  C   UNL     1      -9.019  12.907  67.331  1.00  0.00    -0.199 A  
HETATM   24  C   UNL     1      -8.016  12.766  68.309  1.00  0.00    -0.151 A  
BRANCH  21  25
HETATM   25  O   UNL     1      -8.519  16.358  66.122  1.00  0.00    -0.324 OA 
BRANCH  25  26
HETATM   26  C   UNL     1      -7.471  17.325  66.102  1.00  0.00    -0.286 C  
HETATM   27  C   UNL     1      -8.081  18.681  66.408  1.00  0.00    -0.300 C  
ENDBRANCH  25  26
ENDBRANCH  21  25
BRANCH  22  28
HETATM   28  O   UNL     1     -10.227  14.034  65.680  1.00  0.00    -0.308 OA 
BRANCH  28  29
HETATM   29  C   UNL     1     -11.486  13.524  66.122  1.00  0.00    -0.325 C  
HETATM   30  C   UNL     1     -12.004  14.359  67.281  1.00  0.00    -0.409 C  
ENDBRANCH  28  29
ENDBRANCH  22  28
ENDBRANCH   9  13
ENDBRANCH   3   4
ENDBRANCH   2   3
TORSDOF 9
ENDMDL
MODEL      125
REMARK 921   NORMALIZED FREE ENERGY PREDICTED BY IDOCK:   -3.22 KCAL/MOL
REMARK 922        TOTAL FREE ENERGY PREDICTED BY IDOCK:   -5.80 KCAL/MOL
REMARK 923 INTER-LIGAND FREE ENERGY PREDICTED BY IDOCK:   -5.12 KCAL/MOL
REMARK 924 INTRA-LIGAND FREE ENERGY PREDICTED BY IDOCK:   -0.68 KCAL/MOL
REMARK 927      BINDING AFFINITY PREDICTED BY RF-SCORE:    0.00 PKD
ROOT
HETATM    1  C   UNL     1     -10.649  15.666  68.610  1.00  0.00    -0.243 C  
HETATM    2  C   UNL     1      -9.442  15.882  67.711  1.00  0.00    -0.216 C  
ENDROOT
BRANCH   2   3
HETATM    3  O   UNL     1      -9.601  15.109  66.524  1.00  0.00    -0.239 OA 
BRANCH   3   4
HETATM    4  C   UNL     1      -9.433  13.747  66.595  1.00  0.00    -0.279 A  
HETATM    5  C   UNL     1     -10.233  12.726  66.044  1.00  0.00    -0.278 A  
HETATM    6  C   UNL     1      -8.296  13.388  67.324  1.00  0.00    -0.183 A  
HETATM    7  C   UNL     1      -9.884  11.376  66.270  1.00  0.00    -0.250 A  
HETATM    8  C   UNL     1      -7.963  12.047  67.533  1.00  0.00    -0.159 A  
HETATM    9  C   UNL     1      -8.774  11.015  67.050  1.00  0.00    -0.141 A  
BRANCH   5  10
HETATM   10  O   UNL     1     -11.331  13.095  65.316  1.00  0.00    -0.291 OA 
BRANCH  10  11
HETATM   11  C   UNL     1     -11.190  13.324  63.923  1.00  0.00    -0.276 C  
HETATM   12  C   UNL     1     -12.165  12.407  63.206  1.00  0.00    -0.520 C  
ENDBRANCH  10  11
ENDBRANCH   5  10
BRANCH   9  13
HETATM   13  C   UNL     1      -8.501   9.572  67.309  1.00  0.00    -0.128 C  
HETATM   14  C   UNL     1      -8.916   8.879  68.394  1.00  0.00    -0.134 C  
HETATM   15  N   UNL     1      -9.648   9.509  69.403  1.00  0.00    -0.170 NA 
HETATM   16  C   UNL     1      -9.282   9.226  70.784  1.00  0.00    -0.253 C  
HETATM   17  H   UNL     1     -10.412  10.146  69.180  1.00  0.00     0.000 HD 
HETATM   18  C   UNL     1      -9.472   7.746  71.051  1.00  0.00    -0.165 C  
HETATM   19  C   UNL     1      -8.898   6.893  69.939  1.00  0.00    -0.142 A  
HETATM   20  C   UNL     1      -8.710   5.530  70.221  1.00  0.00    -0.134 A  
HETATM   21  C   UNL     1      -8.250   4.637  69.253  1.00  0.00    -0.076 A  
HETATM   22  C   UNL     1      -7.974   5.130  67.964  1.00  0.00    -0.091 A  
HETATM   23  C   UNL     1      -8.170   6.507  67.681  1.00  0.00    -0.122 A  
HETATM   24  C   UNL     1      -8.634   7.415  68.652  1.00  0.00    -0.129 A  
BRANCH  21  25
HETATM   25  O   UNL     1      -8.070   3.307  69.516  1.00  0.00    -0.049 OA 
BRANCH  25  26
HETATM   26  C   UNL     1      -9.212   2.467  69.666  1.00  0.00    -0.125 C  
HETATM   27  C   UNL     1      -9.212   1.471  68.520  1.00  0.00    -0.209 C  
ENDBRANCH  25  26
ENDBRANCH  21  25
BRANCH  22  28
HETATM   28  O   UNL     1      -7.526   4.413  66.872  1.00  0.00    -0.079 OA 
BRANCH  28  29
HETATM   29  C   UNL     1      -6.141   4.064  66.818  1.00  0.00    -0.028 C  
HETATM   30  C   UNL     1      -5.332   5.024  67.673  1.00  0.00    -0.012 C  
ENDBRANCH  28  29
ENDBRANCH  22  28
ENDBRANCH   9  13
ENDBRANCH   3   4
ENDBRANCH   2   3
TORSDOF 9
ENDMDL
MODEL      126
REMARK 921   NORMALIZED FREE ENERGY PREDICTED BY IDOCK:   -3.20 KCAL/MOL
REMARK 922        TOTAL FREE ENERGY PREDICTED BY IDOCK:   -5.77 KCAL/MOL
REMARK 923 INTER-LIGAND FREE ENERGY PREDICTED BY IDOCK:   -6.22 KCAL/MOL
REMARK 924 INTRA-LIGAND FREE ENERGY PREDICTED BY IDOCK:    0.45 KCAL/MOL
REMARK 927      BINDING AFFINITY PREDICTED BY RF-SCORE:    0.00 PKD
ROOT
HETATM    1  C   UNL     1     -10.105  19.967  68.847  1.00  0.00    -0.438 C  
HETATM    2  C   UNL     1      -9.246  19.317  67.774  1.00  0.00    -0.309 C  
ENDROOT
BRANCH   2   3
HETATM    3  O   UNL     1      -8.292  18.462  68.397  1.00  0.00    -0.294 OA 
BRANCH   3   4
HETATM    4  C   UNL     1      -8.282  17.129  68.063  1.00  0.00    -0.216 A  
HETATM    5  C   UNL     1      -8.753  16.506  66.891  1.00  0.00    -0.205 A  
HETATM    6  C   UNL     1      -7.715  16.334  69.064  1.00  0.00    -0.224 A  
HETATM    7  C   UNL     1      -8.668  15.101  66.772  1.00  0.00    -0.307 A  
HETATM    8  C   UNL     1      -7.635  14.945  68.926  1.00  0.00    -0.144 A  
HETATM    9  C   UNL     1      -8.150  14.297  67.800  1.00  0.00    -0.176 A  
BRANCH   5  10
HETATM   10  O   UNL     1      -9.286  17.301  65.913  1.00  0.00    -0.507 OA 
BRANCH  10  11
HETATM   11  C   UNL     1     -10.693  17.319  65.730  1.00  0.00    -0.131 C  
HETATM   12  C   UNL     1     -11.046  16.197  64.771  1.00  0.00    -0.345 C  
ENDBRANCH  10  11
ENDBRANCH   5  10
BRANCH   9  13
HETATM   13  C   UNL     1      -8.154  12.814  67.641  1.00  0.00    -0.175 C  
HETATM   14  C   UNL     1      -9.248  12.022  67.710  1.00  0.00    -0.190 C  
HETATM   15  N   UNL     1     -10.507  12.569  67.969  1.00  0.00    -0.213 NA 
HETATM   16  C   UNL     1     -11.360  11.885  68.930  1.00  0.00    -0.278 C  
HETATM   17  H   UNL     1     -10.818  13.419  67.501  1.00  0.00     0.000 HD 
HETATM   18  C   UNL     1     -11.656  10.488  68.420  1.00  0.00    -0.205 C  
HETATM   19  C   UNL     1     -10.409   9.798  67.907  1.00  0.00    -0.258 A  
HETATM   20  C   UNL     1     -10.485   8.407  67.727  1.00  0.00    -0.284 A  
HETATM   21  C   UNL     1      -9.421   7.677  67.197  1.00  0.00    -0.155 A  
HETATM   22  C   UNL     1      -8.249   8.366  66.837  1.00  0.00    -0.103 A  
HETATM   23  C   UNL     1      -8.177   9.773  67.017  1.00  0.00    -0.117 A  
HETATM   24  C   UNL     1      -9.246  10.518  67.550  1.00  0.00    -0.152 A  
BRANCH  21  25
HETATM   25  O   UNL     1      -9.489   6.323  67.012  1.00  0.00    -0.123 OA 
BRANCH  25  26
HETATM   26  C   UNL     1     -10.235   5.532  67.934  1.00  0.00    -0.181 C  
HETATM   27  C   UNL     1      -9.626   4.142  67.957  1.00  0.00    -0.200 C  
ENDBRANCH  25  26
ENDBRANCH  21  25
BRANCH  22  28
HETATM   28  O   UNL     1      -7.098   7.833  66.291  1.00  0.00    -0.067 OA 
BRANCH  28  29
HETATM   29  C   UNL     1      -7.170   7.281  64.975  1.00  0.00    -0.070 C  
HETATM   30  C   UNL     1      -7.877   8.252  64.046  1.00  0.00    -0.146 C  
ENDBRANCH  28  29
ENDBRANCH  22  28
ENDBRANCH   9  13
ENDBRANCH   3   4
ENDBRANCH   2   3
TORSDOF 9
ENDMDL
MODEL      127
REMARK 921   NORMALIZED FREE ENERGY PREDICTED BY IDOCK:   -3.19 KCAL/MOL
REMARK 922        TOTAL FREE ENERGY PREDICTED BY IDOCK:   -5.74 KCAL/MOL
REMARK 923 INTER-LIGAND FREE ENERGY PREDICTED BY IDOCK:   -5.98 KCAL/MOL
REMARK 924 INTRA-LIGAND FREE ENERGY PREDICTED BY IDOCK:    0.24 KCAL/MOL
REMARK 927      BINDING AFFINITY PREDICTED BY RF-SCORE:    0.00 PKD
ROOT
HETATM    1  C   UNL     1      -9.860   4.116  72.485  1.00  0.00    -0.213 C  
HETATM    2  C   UNL     1     -10.980   4.738  71.665  1.00  0.00     0.269 C  
ENDROOT
BRANCH   2   3
HETATM    3  O   UNL     1     -10.584   4.784  70.297  1.00  0.00    -0.112 OA 
BRANCH   3   4
HETATM    4  C   UNL     1     -10.567   5.998  69.654  1.00  0.00    -0.300 A  
HETATM    5  C   UNL     1     -10.148   6.301  68.344  1.00  0.00    -0.157 A  
HETATM    6  C   UNL     1     -11.043   7.035  70.462  1.00  0.00    -0.316 A  
HETATM    7  C   UNL     1     -10.190   7.640  67.896  1.00  0.00    -0.250 A  
HETATM    8  C   UNL     1     -11.082   8.354  70.000  1.00  0.00    -0.148 A  
HETATM    9  C   UNL     1     -10.615   8.690  68.726  1.00  0.00    -0.169 A  
BRANCH   5  10
HETATM   10  O   UNL     1      -9.703   5.271  67.559  1.00  0.00    -0.132 OA 
BRANCH  10  11
HETATM   11  C   UNL     1      -9.988   5.291  66.170  1.00  0.00    -0.165 C  
HETATM   12  C   UNL     1      -8.754   4.788  65.441  1.00  0.00    -0.138 C  
ENDBRANCH  10  11
ENDBRANCH   5  10
BRANCH   9  13
HETATM   13  C   UNL     1     -10.568  10.091  68.216  1.00  0.00    -0.264 C  
HETATM   14  C   UNL     1     -10.809  11.200  68.951  1.00  0.00    -0.216 C  
HETATM   15  N   UNL     1     -11.156  11.098  70.300  1.00  0.00    -0.455 NA 
HETATM   16  C   UNL     1     -12.249  11.929  70.785  1.00  0.00    -0.303 C  
HETATM   17  H   UNL     1     -10.661  10.462  70.924  1.00  0.00     0.000 HD 
HETATM   18  C   UNL     1     -11.878  13.387  70.601  1.00  0.00    -0.163 C  
HETATM   19  C   UNL     1     -11.290  13.653  69.231  1.00  0.00    -0.323 A  
HETATM   20  C   UNL     1     -11.223  14.996  68.822  1.00  0.00    -0.288 A  
HETATM   21  C   UNL     1     -10.642  15.364  67.609  1.00  0.00    -0.280 A  
HETATM   22  C   UNL     1     -10.111  14.354  66.786  1.00  0.00    -0.266 A  
HETATM   23  C   UNL     1     -10.178  12.999  67.204  1.00  0.00    -0.243 A  
HETATM   24  C   UNL     1     -10.762  12.618  68.427  1.00  0.00    -0.260 A  
BRANCH  21  25
HETATM   25  O   UNL     1     -10.566  16.670  67.206  1.00  0.00    -0.320 OA 
BRANCH  25  26
HETATM   26  C   UNL     1      -9.303  17.330  67.222  1.00  0.00    -0.237 C  
HETATM   27  C   UNL     1      -9.557  18.824  67.314  1.00  0.00    -0.333 C  
ENDBRANCH  25  26
ENDBRANCH  21  25
BRANCH  22  28
HETATM   28  O   UNL     1      -9.490  14.512  65.563  1.00  0.00    -0.172 OA 
BRANCH  28  29
HETATM   29  C   UNL     1     -10.305  14.525  64.389  1.00  0.00     0.384 C  
HETATM   30  C   UNL     1     -11.247  13.333  64.402  1.00  0.00    -0.409 C  
ENDBRANCH  28  29
ENDBRANCH  22  28
ENDBRANCH   9  13
ENDBRANCH   3   4
ENDBRANCH   2   3
TORSDOF 9
ENDMDL
MODEL      128
REMARK 921   NORMALIZED FREE ENERGY PREDICTED BY IDOCK:   -3.17 KCAL/MOL
REMARK 922        TOTAL FREE ENERGY PREDICTED BY IDOCK:   -5.71 KCAL/MOL
REMARK 923 INTER-LIGAND FREE ENERGY PREDICTED BY IDOCK:   -5.34 KCAL/MOL
REMARK 924 INTRA-LIGAND FREE ENERGY PREDICTED BY IDOCK:   -0.37 KCAL/MOL
REMARK 927      BINDING AFFINITY PREDICTED BY RF-SCORE:    0.00 PKD
ROOT
HETATM    1  C   UNL     1      -9.910   4.535  69.478  1.00  0.00    -0.277 C  
HETATM    2  C   UNL     1      -9.272   5.901  69.278  1.00  0.00    -0.122 C  
ENDROOT
BRANCH   2   3
HETATM    3  O   UNL     1     -10.230   6.911  69.583  1.00  0.00    -0.184 OA 
BRANCH   3   4
HETATM    4  C   UNL     1      -9.888   8.227  69.389  1.00  0.00    -0.185 A  
HETATM    5  C   UNL     1      -8.815   8.953  69.941  1.00  0.00    -0.151 A  
HETATM    6  C   UNL     1     -10.760   8.880  68.514  1.00  0.00    -0.124 A  
HETATM    7  C   UNL     1      -8.669  10.322  69.622  1.00  0.00    -0.125 A  
HETATM    8  C   UNL     1     -10.597  10.234  68.206  1.00  0.00    -0.255 A  
HETATM    9  C   UNL     1      -9.577  10.993  68.788  1.00  0.00    -0.194 A  
BRANCH   5  10
HETATM   10  O   UNL     1      -7.958   8.293  70.780  1.00  0.00    -0.090 OA 
BRANCH  10  11
HETATM   11  C   UNL     1      -7.525   8.936  71.968  1.00  0.00     0.115 C  
HETATM   12  C   UNL     1      -8.090   8.156  73.143  1.00  0.00    -0.237 C  
ENDBRANCH  10  11
ENDBRANCH   5  10
BRANCH   9  13
HETATM   13  C   UNL     1      -9.408  12.455  68.548  1.00  0.00    -0.090 C  
HETATM   14  C   UNL     1      -8.269  13.053  68.130  1.00  0.00    -0.157 C  
HETATM   15  N   UNL     1      -7.113  12.303  67.905  1.00  0.00    -0.094 NA 
HETATM   16  C   UNL     1      -5.851  12.830  68.406  1.00  0.00    -0.061 C  
HETATM   17  H   UNL     1      -7.151  11.414  67.406  1.00  0.00     0.000 HD 
HETATM   18  C   UNL     1      -5.572  14.160  67.735  1.00  0.00    -0.049 C  
HETATM   19  C   UNL     1      -6.797  15.051  67.714  1.00  0.00    -0.190 A  
HETATM   20  C   UNL     1      -6.585  16.411  67.432  1.00  0.00    -0.204 A  
HETATM   21  C   UNL     1      -7.645  17.311  67.322  1.00  0.00    -0.180 A  
HETATM   22  C   UNL     1      -8.955  16.828  67.497  1.00  0.00    -0.205 A  
HETATM   23  C   UNL     1      -9.166  15.453  67.778  1.00  0.00    -0.183 A  
HETATM   24  C   UNL     1      -8.102  14.537  67.892  1.00  0.00    -0.151 A  
BRANCH  21  25
HETATM   25  O   UNL     1      -7.448  18.635  67.041  1.00  0.00    -0.215 OA 
BRANCH  25  26
HETATM   26  C   UNL     1      -7.362  19.568  68.116  1.00  0.00    -0.299 C  
HETATM   27  C   UNL     1      -5.926  20.056  68.196  1.00  0.00    -0.271 C  
ENDBRANCH  25  26
ENDBRANCH  21  25
BRANCH  22  28
HETATM   28  O   UNL     1     -10.130  17.549  67.418  1.00  0.00    -0.301 OA 
BRANCH  28  29
HETATM   29  C   UNL     1     -10.505  18.089  66.149  1.00  0.00    -0.331 C  
HETATM   30  C   UNL     1     -10.769  19.579  66.280  1.00  0.00    -0.530 C  
ENDBRANCH  28  29
ENDBRANCH  22  28
ENDBRANCH   9  13
ENDBRANCH   3   4
ENDBRANCH   2   3
TORSDOF 9
ENDMDL
MODEL      129
REMARK 921   NORMALIZED FREE ENERGY PREDICTED BY IDOCK:   -3.12 KCAL/MOL
REMARK 922        TOTAL FREE ENERGY PREDICTED BY IDOCK:   -5.63 KCAL/MOL
REMARK 923 INTER-LIGAND FREE ENERGY PREDICTED BY IDOCK:   -5.71 KCAL/MOL
REMARK 924 INTRA-LIGAND FREE ENERGY PREDICTED BY IDOCK:    0.07 KCAL/MOL
REMARK 927      BINDING AFFINITY PREDICTED BY RF-SCORE:    0.00 PKD
ROOT
HETATM    1  C   UNL     1      -7.638  18.754  68.467  1.00  0.00    -0.357 C  
HETATM    2  C   UNL     1      -7.622  18.832  66.948  1.00  0.00    -0.227 C  
ENDROOT
BRANCH   2   3
HETATM    3  O   UNL     1      -6.891  17.722  66.433  1.00  0.00    -0.199 OA 
BRANCH   3   4
HETATM    4  C   UNL     1      -7.233  16.457  66.845  1.00  0.00    -0.231 A  
HETATM    5  C   UNL     1      -8.302  15.645  66.418  1.00  0.00    -0.180 A  
HETATM    6  C   UNL     1      -6.363  15.961  67.821  1.00  0.00    -0.172 A  
HETATM    7  C   UNL     1      -8.483  14.374  67.006  1.00  0.00    -0.206 A  
HETATM    8  C   UNL     1      -6.555  14.698  68.388  1.00  0.00    -0.102 A  
HETATM    9  C   UNL     1      -7.644  13.899  68.027  1.00  0.00    -0.144 A  
BRANCH   5  10
HETATM   10  O   UNL     1      -9.132  16.137  65.448  1.00  0.00    -0.248 OA 
BRANCH  10  11
HETATM   11  C   UNL     1     -10.528  16.184  65.693  1.00  0.00    -0.383 C  
HETATM   12  C   UNL     1     -11.233  15.768  64.414  1.00  0.00    -0.249 C  
ENDBRANCH  10  11
ENDBRANCH   5  10
BRANCH   9  13
HETATM   13  C   UNL     1      -7.932  12.578  68.656  1.00  0.00    -0.029 C  
HETATM   14  C   UNL     1      -9.114  11.923  68.594  1.00  0.00    -0.042 C  
HETATM   15  N   UNL     1     -10.203  12.481  67.920  1.00  0.00    -0.213 NA 
HETATM   16  C   UNL     1     -11.506  12.418  68.566  1.00  0.00    -0.306 C  
HETATM   17  H   UNL     1     -10.088  12.918  67.006  1.00  0.00     0.000 HD 
HETATM   18  C   UNL     1     -11.890  10.964  68.761  1.00  0.00    -0.305 C  
HETATM   19  C   UNL     1     -10.743  10.146  69.316  1.00  0.00    -0.259 A  
HETATM   20  C   UNL     1     -11.065   8.888  69.850  1.00  0.00    -0.146 A  
HETATM   21  C   UNL     1     -10.083   8.021  70.329  1.00  0.00    -0.192 A  
HETATM   22  C   UNL     1      -8.739   8.432  70.267  1.00  0.00    -0.140 A  
HETATM   23  C   UNL     1      -8.417   9.703  69.723  1.00  0.00    -0.200 A  
HETATM   24  C   UNL     1      -9.402  10.584  69.237  1.00  0.00    -0.177 A  
BRANCH  21  25
HETATM   25  O   UNL     1     -10.387   6.790  70.844  1.00  0.00    -0.198 OA 
BRANCH  25  26
HETATM   26  C   UNL     1     -11.259   5.928  70.117  1.00  0.00    -0.268 C  
HETATM   27  C   UNL     1     -10.649   5.694  68.747  1.00  0.00    -0.286 C  
ENDBRANCH  25  26
ENDBRANCH  21  25
BRANCH  22  28
HETATM   28  O   UNL     1      -7.627   7.722  70.675  1.00  0.00    -0.076 OA 
BRANCH  28  29
HETATM   29  C   UNL     1      -6.707   8.361  71.562  1.00  0.00    -0.070 C  
HETATM   30  C   UNL     1      -6.913   7.847  72.977  1.00  0.00    -0.102 C  
ENDBRANCH  28  29
ENDBRANCH  22  28
ENDBRANCH   9  13
ENDBRANCH   3   4
ENDBRANCH   2   3
TORSDOF 9
ENDMDL
MODEL      130
REMARK 921   NORMALIZED FREE ENERGY PREDICTED BY IDOCK:   -3.11 KCAL/MOL
REMARK 922        TOTAL FREE ENERGY PREDICTED BY IDOCK:   -5.63 KCAL/MOL
REMARK 923 INTER-LIGAND FREE ENERGY PREDICTED BY IDOCK:   -5.78 KCAL/MOL
REMARK 924 INTRA-LIGAND FREE ENERGY PREDICTED BY IDOCK:    0.15 KCAL/MOL
REMARK 927      BINDING AFFINITY PREDICTED BY RF-SCORE:    0.00 PKD
ROOT
HETATM    1  C   UNL     1      -9.865  18.198  66.224  1.00  0.00    -0.311 C  
HETATM    2  C   UNL     1     -10.651  17.376  67.233  1.00  0.00    -0.284 C  
ENDROOT
BRANCH   2   3
HETATM    3  O   UNL     1     -11.220  16.249  66.571  1.00  0.00     0.028 OA 
BRANCH   3   4
HETATM    4  C   UNL     1     -10.878  14.989  67.000  1.00  0.00    -0.311 A  
HETATM    5  C   UNL     1     -11.070  14.402  68.266  1.00  0.00    -0.259 A  
HETATM    6  C   UNL     1     -10.262  14.235  65.997  1.00  0.00    -0.327 A  
HETATM    7  C   UNL     1     -10.607  13.087  68.495  1.00  0.00    -0.274 A  
HETATM    8  C   UNL     1      -9.815  12.933  66.241  1.00  0.00    -0.273 A  
HETATM    9  C   UNL     1      -9.937  12.350  67.506  1.00  0.00    -0.196 A  
BRANCH   5  10
HETATM   10  O   UNL     1     -11.693  15.146  69.230  1.00  0.00    -0.295 OA 
BRANCH  10  11
HETATM   11  C   UNL     1     -11.528  14.788  70.592  1.00  0.00    -0.234 C  
HETATM   12  C   UNL     1     -12.595  15.514  71.391  1.00  0.00    -0.495 C  
ENDBRANCH  10  11
ENDBRANCH   5  10
BRANCH   9  13
HETATM   13  C   UNL     1      -9.410  10.994  67.835  1.00  0.00    -0.160 C  
HETATM   14  C   UNL     1     -10.007  10.100  68.656  1.00  0.00    -0.170 C  
HETATM   15  N   UNL     1     -11.206  10.415  69.299  1.00  0.00    -0.241 NA 
HETATM   16  C   UNL     1     -11.333  10.069  70.708  1.00  0.00    -0.360 C  
HETATM   17  H   UNL     1     -11.968  10.872  68.798  1.00  0.00     0.000 HD 
HETATM   18  C   UNL     1     -11.210   8.566  70.859  1.00  0.00    -0.304 C  
HETATM   19  C   UNL     1     -10.052   8.010  70.056  1.00  0.00    -0.196 A  
HETATM   20  C   UNL     1      -9.630   6.708  70.373  1.00  0.00    -0.173 A  
HETATM   21  C   UNL     1      -8.617   6.070  69.657  1.00  0.00    -0.126 A  
HETATM   22  C   UNL     1      -8.014   6.761  68.590  1.00  0.00    -0.119 A  
HETATM   23  C   UNL     1      -8.445   8.076  68.270  1.00  0.00    -0.123 A  
HETATM   24  C   UNL     1      -9.467   8.727  68.988  1.00  0.00    -0.160 A  
BRANCH  21  25
HETATM   25  O   UNL     1      -8.205   4.800  69.954  1.00  0.00    -0.068 OA 
BRANCH  25  26
HETATM   26  C   UNL     1      -7.121   4.616  70.862  1.00  0.00    -0.037 C  
HETATM   27  C   UNL     1      -6.913   5.920  71.612  1.00  0.00    -0.073 C  
ENDBRANCH  25  26
ENDBRANCH  21  25
BRANCH  22  28
HETATM   28  O   UNL     1      -7.010   6.305  67.758  1.00  0.00    -0.070 OA 
BRANCH  28  29
HETATM   29  C   UNL     1      -7.365   5.897  66.436  1.00  0.00    -0.078 C  
HETATM   30  C   UNL     1      -7.695   4.414  66.424  1.00  0.00    -0.094 C  
ENDBRANCH  28  29
ENDBRANCH  22  28
ENDBRANCH   9  13
ENDBRANCH   3   4
ENDBRANCH   2   3
TORSDOF 9
ENDMDL
MODEL      131
REMARK 921   NORMALIZED FREE ENERGY PREDICTED BY IDOCK:   -3.09 KCAL/MOL
REMARK 922        TOTAL FREE ENERGY PREDICTED BY IDOCK:   -5.60 KCAL/MOL
REMARK 923 INTER-LIGAND FREE ENERGY PREDICTED BY IDOCK:   -5.51 KCAL/MOL
REMARK 924 INTRA-LIGAND FREE ENERGY PREDICTED BY IDOCK:   -0.09 KCAL/MOL
REMARK 927      BINDING AFFINITY PREDICTED BY RF-SCORE:    0.00 PKD
ROOT
HETATM    1  C   UNL     1     -12.229  14.837  64.406  1.00  0.00    -0.447 C  
HETATM    2  C   UNL     1     -12.611  13.546  65.113  1.00  0.00    -0.436 C  
ENDROOT
BRANCH   2   3
HETATM    3  O   UNL     1     -11.969  13.505  66.384  1.00  0.00    -0.374 OA 
BRANCH   3   4
HETATM    4  C   UNL     1     -11.438  12.315  66.818  1.00  0.00    -0.361 A  
HETATM    5  C   UNL     1     -11.286  11.841  68.136  1.00  0.00    -0.284 A  
HETATM    6  C   UNL     1     -11.009  11.506  65.762  1.00  0.00    -0.305 A  
HETATM    7  C   UNL     1     -10.679  10.584  68.354  1.00  0.00    -0.262 A  
HETATM    8  C   UNL     1     -10.415  10.262  65.996  1.00  0.00    -0.181 A  
HETATM    9  C   UNL     1     -10.197   9.797  67.297  1.00  0.00    -0.289 A  
BRANCH   5  10
HETATM   10  O   UNL     1     -11.730  12.636  69.158  1.00  0.00    -0.290 OA 
BRANCH  10  11
HETATM   11  C   UNL     1     -11.128  13.905  69.356  1.00  0.00    -0.180 C  
HETATM   12  C   UNL     1     -11.957  14.650  70.388  1.00  0.00    -0.375 C  
ENDBRANCH  10  11
ENDBRANCH   5  10
BRANCH   9  13
HETATM   13  C   UNL     1      -9.502   8.512  67.599  1.00  0.00    -0.173 C  
HETATM   14  C   UNL     1      -9.030   8.144  68.811  1.00  0.00    -0.144 C  
HETATM   15  N   UNL     1      -9.150   8.997  69.911  1.00  0.00    -0.158 NA 
HETATM   16  C   UNL     1      -7.992   9.154  70.779  1.00  0.00    -0.163 C  
HETATM   17  H   UNL     1     -10.021   9.493  70.099  1.00  0.00     0.000 HD 
HETATM   18  C   UNL     1      -7.644   7.808  71.384  1.00  0.00    -0.081 C  
HETATM   19  C   UNL     1      -7.655   6.703  70.349  1.00  0.00    -0.096 A  
HETATM   20  C   UNL     1      -7.030   5.496  70.706  1.00  0.00    -0.053 A  
HETATM   21  C   UNL     1      -7.037   4.389  69.858  1.00  0.00    -0.046 A  
HETATM   22  C   UNL     1      -7.691   4.498  68.618  1.00  0.00    -0.071 A  
HETATM   23  C   UNL     1      -8.324   5.718  68.262  1.00  0.00    -0.107 A  
HETATM   24  C   UNL     1      -8.323   6.840  69.111  1.00  0.00    -0.125 A  
BRANCH  21  25
HETATM   25  O   UNL     1      -6.437   3.207  70.200  1.00  0.00    -0.031 OA 
BRANCH  25  26
HETATM   26  C   UNL     1      -6.381   2.829  71.574  1.00  0.00    -0.018 C  
HETATM   27  C   UNL     1      -7.531   1.875  71.843  1.00  0.00    -0.040 C  
ENDBRANCH  25  26
ENDBRANCH  21  25
BRANCH  22  28
HETATM   28  O   UNL     1      -7.819   3.521  67.650  1.00  0.00    -0.076 OA 
BRANCH  28  29
HETATM   29  C   UNL     1      -9.074   2.848  67.533  1.00  0.00    -0.181 C  
HETATM   30  C   UNL     1      -8.983   1.473  68.171  1.00  0.00    -0.162 C  
ENDBRANCH  28  29
ENDBRANCH  22  28
ENDBRANCH   9  13
ENDBRANCH   3   4
ENDBRANCH   2   3
TORSDOF 9
ENDMDL
MODEL      132
REMARK 921   NORMALIZED FREE ENERGY PREDICTED BY IDOCK:   -3.09 KCAL/MOL
REMARK 922        TOTAL FREE ENERGY PREDICTED BY IDOCK:   -5.59 KCAL/MOL
REMARK 923 INTER-LIGAND FREE ENERGY PREDICTED BY IDOCK:   -5.48 KCAL/MOL
REMARK 924 INTRA-LIGAND FREE ENERGY PREDICTED BY IDOCK:   -0.11 KCAL/MOL
REMARK 927      BINDING AFFINITY PREDICTED BY RF-SCORE:    0.00 PKD
ROOT
HETATM    1  C   UNL     1      -6.254   5.527  73.913  1.00  0.00    -0.063 C  
HETATM    2  C   UNL     1      -7.347   4.708  73.245  1.00  0.00    -0.082 C  
ENDROOT
BRANCH   2   3
HETATM    3  O   UNL     1      -7.294   4.921  71.837  1.00  0.00    -0.075 OA 
BRANCH   3   4
HETATM    4  C   UNL     1      -7.905   6.034  71.314  1.00  0.00    -0.112 A  
HETATM    5  C   UNL     1      -8.889   6.114  70.309  1.00  0.00    -0.149 A  
HETATM    6  C   UNL     1      -7.447   7.218  71.900  1.00  0.00    -0.084 A  
HETATM    7  C   UNL     1      -9.360   7.382  69.901  1.00  0.00    -0.154 A  
HETATM    8  C   UNL     1      -7.929   8.464  71.487  1.00  0.00    -0.161 A  
HETATM    9  C   UNL     1      -8.859   8.574  70.449  1.00  0.00    -0.157 A  
BRANCH   5  10
HETATM   10  O   UNL     1      -9.341   4.945  69.760  1.00  0.00    -0.118 OA 
BRANCH  10  11
HETATM   11  C   UNL     1      -8.466   4.182  68.944  1.00  0.00    -0.082 C  
HETATM   12  C   UNL     1      -9.278   3.058  68.327  1.00  0.00    -0.244 C  
ENDBRANCH  10  11
ENDBRANCH   5  10
BRANCH   9  13
HETATM   13  C   UNL     1      -9.347   9.882  69.924  1.00  0.00    -0.250 C  
HETATM   14  C   UNL     1      -8.822  10.547  68.870  1.00  0.00    -0.165 C  
HETATM   15  N   UNL     1      -7.719  10.035  68.183  1.00  0.00    -0.085 NA 
HETATM   16  C   UNL     1      -6.646  10.958  67.837  1.00  0.00    -0.063 C  
HETATM   17  H   UNL     1      -7.666   9.048  67.934  1.00  0.00     0.000 HD 
HETATM   18  C   UNL     1      -7.197  12.029  66.917  1.00  0.00    -0.040 C  
HETATM   19  C   UNL     1      -8.519  12.576  67.413  1.00  0.00    -0.181 A  
HETATM   20  C   UNL     1      -8.955  13.785  66.847  1.00  0.00    -0.234 A  
HETATM   21  C   UNL     1     -10.187  14.349  67.180  1.00  0.00    -0.257 A  
HETATM   22  C   UNL     1     -11.004  13.675  68.106  1.00  0.00    -0.253 A  
HETATM   23  C   UNL     1     -10.561  12.451  68.674  1.00  0.00    -0.243 A  
HETATM   24  C   UNL     1      -9.319  11.875  68.344  1.00  0.00    -0.184 A  
BRANCH  21  25
HETATM   25  O   UNL     1     -10.623  15.523  66.628  1.00  0.00    -0.299 OA 
BRANCH  25  26
HETATM   26  C   UNL     1     -10.650  16.700  67.432  1.00  0.00    -0.295 C  
HETATM   27  C   UNL     1     -10.343  17.885  66.534  1.00  0.00    -0.362 C  
ENDBRANCH  25  26
ENDBRANCH  21  25
BRANCH  22  28
HETATM   28  O   UNL     1     -12.252  14.057  68.555  1.00  0.00    -0.333 OA 
BRANCH  28  29
HETATM   29  C   UNL     1     -12.508  14.007  69.960  1.00  0.00    -0.281 C  
HETATM   30  C   UNL     1     -12.611  15.417  70.517  1.00  0.00    -0.471 C  
ENDBRANCH  28  29
ENDBRANCH  22  28
ENDBRANCH   9  13
ENDBRANCH   3   4
ENDBRANCH   2   3
TORSDOF 9
ENDMDL
MODEL      133
REMARK 921   NORMALIZED FREE ENERGY PREDICTED BY IDOCK:   -3.08 KCAL/MOL
REMARK 922        TOTAL FREE ENERGY PREDICTED BY IDOCK:   -5.58 KCAL/MOL
REMARK 923 INTER-LIGAND FREE ENERGY PREDICTED BY IDOCK:   -4.75 KCAL/MOL
REMARK 924 INTRA-LIGAND FREE ENERGY PREDICTED BY IDOCK:   -0.83 KCAL/MOL
REMARK 927      BINDING AFFINITY PREDICTED BY RF-SCORE:    0.00 PKD
ROOT
HETATM    1  C   UNL     1      -9.532   3.094  69.919  1.00  0.00    -0.203 C  
HETATM    2  C   UNL     1      -8.379   2.948  68.938  1.00  0.00    -0.064 C  
ENDROOT
BRANCH   2   3
HETATM    3  O   UNL     1      -7.376   3.910  69.253  1.00  0.00    -0.052 OA 
BRANCH   3   4
HETATM    4  C   UNL     1      -7.665   5.243  69.091  1.00  0.00    -0.081 A  
HETATM    5  C   UNL     1      -8.086   6.181  70.054  1.00  0.00    -0.119 A  
HETATM    6  C   UNL     1      -7.500   5.667  67.769  1.00  0.00    -0.077 A  
HETATM    7  C   UNL     1      -8.358   7.509  69.655  1.00  0.00    -0.131 A  
HETATM    8  C   UNL     1      -7.769   6.987  67.393  1.00  0.00    -0.110 A  
HETATM    9  C   UNL     1      -8.246   7.921  68.317  1.00  0.00    -0.124 A  
BRANCH   5  10
HETATM   10  O   UNL     1      -8.223   5.755  71.347  1.00  0.00    -0.122 OA 
BRANCH  10  11
HETATM   11  C   UNL     1      -7.643   6.520  72.391  1.00  0.00    -0.095 C  
HETATM   12  C   UNL     1      -7.489   5.610  73.597  1.00  0.00    -0.091 C  
ENDBRANCH  10  11
ENDBRANCH   5  10
BRANCH   9  13
HETATM   13  C   UNL     1      -8.617   9.318  67.949  1.00  0.00    -0.120 C  
HETATM   14  C   UNL     1      -7.879  10.420  68.216  1.00  0.00    -0.105 C  
HETATM   15  N   UNL     1      -6.671  10.317  68.908  1.00  0.00    -0.056 NA 
HETATM   16  C   UNL     1      -6.407  11.284  69.965  1.00  0.00    -0.140 C  
HETATM   17  H   UNL     1      -5.995   9.587  68.682  1.00  0.00     0.000 HD 
HETATM   18  C   UNL     1      -6.378  12.675  69.362  1.00  0.00    -0.112 C  
HETATM   19  C   UNL     1      -7.534  12.904  68.412  1.00  0.00    -0.124 A  
HETATM   20  C   UNL     1      -7.807  14.236  68.059  1.00  0.00    -0.143 A  
HETATM   21  C   UNL     1      -8.805  14.562  67.141  1.00  0.00    -0.229 A  
HETATM   22  C   UNL     1      -9.549  13.518  66.561  1.00  0.00    -0.277 A  
HETATM   23  C   UNL     1      -9.268  12.173  66.918  1.00  0.00    -0.203 A  
HETATM   24  C   UNL     1      -8.262  11.835  67.843  1.00  0.00    -0.147 A  
BRANCH  21  25
HETATM   25  O   UNL     1      -9.073  15.856  66.786  1.00  0.00    -0.214 OA 
BRANCH  25  26
HETATM   26  C   UNL     1      -9.463  16.787  67.793  1.00  0.00    -0.228 C  
HETATM   27  C   UNL     1     -10.828  16.370  68.311  1.00  0.00    -0.347 C  
ENDBRANCH  25  26
ENDBRANCH  21  25
BRANCH  22  28
HETATM   28  O   UNL     1     -10.564  13.629  65.631  1.00  0.00    -0.280 OA 
BRANCH  28  29
HETATM   29  C   UNL     1     -10.541  12.755  64.501  1.00  0.00    -0.360 C  
HETATM   30  C   UNL     1     -11.872  12.032  64.381  1.00  0.00    -0.395 C  
ENDBRANCH  28  29
ENDBRANCH  22  28
ENDBRANCH   9  13
ENDBRANCH   3   4
ENDBRANCH   2   3
TORSDOF 9
ENDMDL
MODEL      134
REMARK 921   NORMALIZED FREE ENERGY PREDICTED BY IDOCK:   -2.95 KCAL/MOL
REMARK 922        TOTAL FREE ENERGY PREDICTED BY IDOCK:   -5.38 KCAL/MOL
REMARK 923 INTER-LIGAND FREE ENERGY PREDICTED BY IDOCK:   -5.14 KCAL/MOL
REMARK 924 INTRA-LIGAND FREE ENERGY PREDICTED BY IDOCK:   -0.24 KCAL/MOL
REMARK 927      BINDING AFFINITY PREDICTED BY RF-SCORE:    0.00 PKD
ROOT
HETATM    1  C   UNL     1     -11.434  15.604  68.209  1.00  0.00    -0.353 C  
HETATM    2  C   UNL     1     -10.030  16.026  67.808  1.00  0.00    -0.234 C  
ENDROOT
BRANCH   2   3
HETATM    3  O   UNL     1      -9.542  15.131  66.812  1.00  0.00    -0.226 OA 
BRANCH   3   4
HETATM    4  C   UNL     1      -9.351  13.812  67.146  1.00  0.00    -0.240 A  
HETATM    5  C   UNL     1     -10.077  12.679  66.729  1.00  0.00    -0.237 A  
HETATM    6  C   UNL     1      -8.274  13.634  68.019  1.00  0.00    -0.162 A  
HETATM    7  C   UNL     1      -9.720  11.406  67.227  1.00  0.00    -0.201 A  
HETATM    8  C   UNL     1      -7.931  12.366  68.498  1.00  0.00    -0.110 A  
HETATM    9  C   UNL     1      -8.674  11.234  68.148  1.00  0.00    -0.155 A  
BRANCH   5  10
HETATM   10  O   UNL     1     -11.116  12.868  65.858  1.00  0.00    -0.276 OA 
BRANCH  10  11
HETATM   11  C   UNL     1     -10.833  13.096  64.487  1.00  0.00    -0.383 C  
HETATM   12  C   UNL     1     -11.671  12.121  63.678  1.00  0.00    -0.588 C  
ENDBRANCH  10  11
ENDBRANCH   5  10
BRANCH   9  13
HETATM   13  C   UNL     1      -8.393   9.873  68.690  1.00  0.00    -0.110 C  
HETATM   14  C   UNL     1      -8.787   8.709  68.125  1.00  0.00    -0.142 C  
HETATM   15  N   UNL     1      -9.539   8.708  66.948  1.00  0.00    -0.177 NA 
HETATM   16  C   UNL     1     -10.679   7.806  66.871  1.00  0.00    -0.174 C  
HETATM   17  H   UNL     1      -9.297   9.319  66.168  1.00  0.00     0.000 HD 
HETATM   18  C   UNL     1     -10.188   6.378  67.005  1.00  0.00    -0.264 C  
HETATM   19  C   UNL     1      -9.193   6.226  68.135  1.00  0.00    -0.110 A  
HETATM   20  C   UNL     1      -8.927   4.917  68.572  1.00  0.00    -0.131 A  
HETATM   21  C   UNL     1      -7.980   4.652  69.561  1.00  0.00    -0.062 A  
HETATM   22  C   UNL     1      -7.279   5.734  70.125  1.00  0.00    -0.072 A  
HETATM   23  C   UNL     1      -7.548   7.055  69.679  1.00  0.00    -0.104 A  
HETATM   24  C   UNL     1      -8.501   7.332  68.681  1.00  0.00    -0.129 A  
BRANCH  21  25
HETATM   25  O   UNL     1      -7.710   3.381  69.987  1.00  0.00    -0.044 OA 
BRANCH  25  26
HETATM   26  C   UNL     1      -8.077   2.999  71.311  1.00  0.00    -0.062 C  
HETATM   27  C   UNL     1      -9.593   3.008  71.397  1.00  0.00    -0.227 C  
ENDBRANCH  25  26
ENDBRANCH  21  25
BRANCH  22  28
HETATM   28  O   UNL     1      -6.303   5.682  71.100  1.00  0.00    -0.033 OA 
BRANCH  28  29
HETATM   29  C   UNL     1      -6.367   6.627  72.170  1.00  0.00    -0.049 C  
HETATM   30  C   UNL     1      -7.153   6.041  73.330  1.00  0.00    -0.085 C  
ENDBRANCH  28  29
ENDBRANCH  22  28
ENDBRANCH   9  13
ENDBRANCH   3   4
ENDBRANCH   2   3
TORSDOF 9
ENDMDL
MODEL      135
REMARK 921   NORMALIZED FREE ENERGY PREDICTED BY IDOCK:   -2.87 KCAL/MOL
REMARK 922        TOTAL FREE ENERGY PREDICTED BY IDOCK:   -5.26 KCAL/MOL
REMARK 923 INTER-LIGAND FREE ENERGY PREDICTED BY IDOCK:   -4.53 KCAL/MOL
REMARK 924 INTRA-LIGAND FREE ENERGY PREDICTED BY IDOCK:   -0.73 KCAL/MOL
REMARK 927      BINDING AFFINITY PREDICTED BY RF-SCORE:    0.00 PKD
ROOT
HETATM    1  C   UNL     1     -11.353   2.911  73.246  1.00  0.00    -0.148 C  
HETATM    2  C   UNL     1     -11.087   4.296  72.678  1.00  0.00     0.087 C  
ENDROOT
BRANCH   2   3
HETATM    3  O   UNL     1     -10.009   4.219  71.749  1.00  0.00    -0.178 OA 
BRANCH   3   4
HETATM    4  C   UNL     1      -9.619   5.361  71.093  1.00  0.00    -0.164 A  
HETATM    5  C   UNL     1      -8.941   5.489  69.865  1.00  0.00    -0.127 A  
HETATM    6  C   UNL     1      -9.972   6.521  71.788  1.00  0.00    -0.192 A  
HETATM    7  C   UNL     1      -8.610   6.777  69.388  1.00  0.00    -0.132 A  
HETATM    8  C   UNL     1      -9.641   7.788  71.298  1.00  0.00    -0.178 A  
HETATM    9  C   UNL     1      -8.914   7.940  70.113  1.00  0.00    -0.151 A  
BRANCH   5  10
HETATM   10  O   UNL     1      -8.621   4.344  69.187  1.00  0.00    -0.081 OA 
BRANCH  10  11
HETATM   11  C   UNL     1      -7.767   3.394  69.803  1.00  0.00    -0.047 C  
HETATM   12  C   UNL     1      -6.461   3.379  69.027  1.00  0.00    -0.030 C  
ENDBRANCH  10  11
ENDBRANCH   5  10
BRANCH   9  13
HETATM   13  C   UNL     1      -8.474   9.265  69.588  1.00  0.00    -0.140 C  
HETATM   14  C   UNL     1      -9.266  10.157  68.952  1.00  0.00    -0.172 C  
HETATM   15  N   UNL     1     -10.612   9.871  68.714  1.00  0.00    -0.214 NA 
HETATM   16  C   UNL     1     -11.151  10.182  67.397  1.00  0.00    -0.147 C  
HETATM   17  H   UNL     1     -11.198   9.458  69.439  1.00  0.00     0.000 HD 
HETATM   18  C   UNL     1     -11.036  11.674  67.158  1.00  0.00    -0.354 C  
HETATM   19  C   UNL     1      -9.674  12.207  67.551  1.00  0.00    -0.185 A  
HETATM   20  C   UNL     1      -9.332  13.482  67.071  1.00  0.00    -0.247 A  
HETATM   21  C   UNL     1      -8.132  14.100  67.423  1.00  0.00    -0.189 A  
HETATM   22  C   UNL     1      -7.253  13.417  68.283  1.00  0.00    -0.111 A  
HETATM   23  C   UNL     1      -7.604  12.130  68.769  1.00  0.00    -0.056 A  
HETATM   24  C   UNL     1      -8.813  11.499  68.419  1.00  0.00    -0.163 A  
BRANCH  21  25
HETATM   25  O   UNL     1      -7.794  15.345  66.965  1.00  0.00    -0.207 OA 
BRANCH  25  26
HETATM   26  C   UNL     1      -8.770  16.120  66.274  1.00  0.00    -0.337 C  
HETATM   27  C   UNL     1      -8.444  17.586  66.496  1.00  0.00    -0.300 C  
ENDBRANCH  25  26
ENDBRANCH  21  25
BRANCH  22  28
HETATM   28  O   UNL     1      -6.032  13.857  68.755  1.00  0.00    -0.079 OA 
BRANCH  28  29
HETATM   29  C   UNL     1      -5.996  14.507  70.026  1.00  0.00    -0.141 C  
HETATM   30  C   UNL     1      -5.607  15.965  69.851  1.00  0.00    -0.147 C  
ENDBRANCH  28  29
ENDBRANCH  22  28
ENDBRANCH   9  13
ENDBRANCH   3   4
ENDBRANCH   2   3
TORSDOF 9
ENDMDL
MODEL      136
REMARK 921   NORMALIZED FREE ENERGY PREDICTED BY IDOCK:   -2.82 KCAL/MOL
REMARK 922        TOTAL FREE ENERGY PREDICTED BY IDOCK:   -5.19 KCAL/MOL
REMARK 923 INTER-LIGAND FREE ENERGY PREDICTED BY IDOCK:   -5.60 KCAL/MOL
REMARK 924 INTRA-LIGAND FREE ENERGY PREDICTED BY IDOCK:    0.41 KCAL/MOL
REMARK 927      BINDING AFFINITY PREDICTED BY RF-SCORE:    0.00 PKD
ROOT
HETATM    1  C   UNL     1      -7.498   5.827  69.689  1.00  0.00    -0.075 C  
HETATM    2  C   UNL     1      -8.155   6.603  68.559  1.00  0.00    -0.119 C  
ENDROOT
BRANCH   2   3
HETATM    3  O   UNL     1      -7.164   7.378  67.890  1.00  0.00    -0.085 OA 
BRANCH   3   4
HETATM    4  C   UNL     1      -7.413   8.708  67.654  1.00  0.00    -0.090 A  
HETATM    5  C   UNL     1      -7.101   9.479  66.517  1.00  0.00    -0.085 A  
HETATM    6  C   UNL     1      -8.069   9.325  68.723  1.00  0.00    -0.104 A  
HETATM    7  C   UNL     1      -7.429  10.854  66.502  1.00  0.00    -0.142 A  
HETATM    8  C   UNL     1      -8.390  10.685  68.688  1.00  0.00    -0.137 A  
HETATM    9  C   UNL     1      -8.037  11.486  67.598  1.00  0.00    -0.130 A  
BRANCH   5  10
HETATM   10  O   UNL     1      -6.478   8.856  65.471  1.00  0.00    -0.065 OA 
BRANCH  10  11
HETATM   11  C   UNL     1      -5.492   7.872  65.742  1.00  0.00    -0.029 C  
HETATM   12  C   UNL     1      -5.797   6.665  64.873  1.00  0.00    -0.031 C  
ENDBRANCH  10  11
ENDBRANCH   5  10
BRANCH   9  13
HETATM   13  C   UNL     1      -8.292  12.955  67.547  1.00  0.00    -0.183 C  
HETATM   14  C   UNL     1      -9.306  13.550  66.879  1.00  0.00    -0.253 C  
HETATM   15  N   UNL     1     -10.215  12.790  66.140  1.00  0.00    -0.269 NA 
HETATM   16  C   UNL     1     -10.582  13.269  64.814  1.00  0.00    -0.386 C  
HETATM   17  H   UNL     1     -10.608  11.927  66.516  1.00  0.00     0.000 HD 
HETATM   18  C   UNL     1     -11.247  14.624  64.947  1.00  0.00    -0.400 C  
HETATM   19  C   UNL     1     -10.487  15.538  65.886  1.00  0.00    -0.356 A  
HETATM   20  C   UNL     1     -10.804  16.905  65.831  1.00  0.00    -0.037 A  
HETATM   21  C   UNL     1     -10.215  17.829  66.694  1.00  0.00    -0.361 A  
HETATM   22  C   UNL     1      -9.283  17.364  67.640  1.00  0.00    -0.234 A  
HETATM   23  C   UNL     1      -8.968  15.981  67.695  1.00  0.00    -0.193 A  
HETATM   24  C   UNL     1      -9.558  15.041  66.828  1.00  0.00    -0.260 A  
BRANCH  21  25
HETATM   25  O   UNL     1     -10.522  19.162  66.652  1.00  0.00    -0.388 OA 
BRANCH  25  26
HETATM   26  C   UNL     1      -9.541  20.114  67.056  1.00  0.00    -0.424 C  
HETATM   27  C   UNL     1      -8.578  20.311  65.899  1.00  0.00     0.003 C  
ENDBRANCH  25  26
ENDBRANCH  21  25
BRANCH  22  28
HETATM   28  O   UNL     1      -8.604  18.110  68.583  1.00  0.00    -0.307 OA 
BRANCH  28  29
HETATM   29  C   UNL     1      -7.222  17.820  68.804  1.00  0.00    -0.271 C  
HETATM   30  C   UNL     1      -6.389  18.378  67.663  1.00  0.00    -0.191 C  
ENDBRANCH  28  29
ENDBRANCH  22  28
ENDBRANCH   9  13
ENDBRANCH   3   4
ENDBRANCH   2   3
TORSDOF 9
ENDMDL
MODEL      137
REMARK 921   NORMALIZED FREE ENERGY PREDICTED BY IDOCK:   -2.81 KCAL/MOL
REMARK 922        TOTAL FREE ENERGY PREDICTED BY IDOCK:   -5.16 KCAL/MOL
REMARK 923 INTER-LIGAND FREE ENERGY PREDICTED BY IDOCK:   -4.05 KCAL/MOL
REMARK 924 INTRA-LIGAND FREE ENERGY PREDICTED BY IDOCK:   -1.11 KCAL/MOL
REMARK 927      BINDING AFFINITY PREDICTED BY RF-SCORE:    0.00 PKD
ROOT
HETATM    1  C   UNL     1      -7.846   2.843  69.784  1.00  0.00    -0.049 C  
HETATM    2  C   UNL     1      -6.901   2.764  68.595  1.00  0.00    -0.044 C  
ENDROOT
BRANCH   2   3
HETATM    3  O   UNL     1      -5.966   3.836  68.673  1.00  0.00    -0.022 OA 
BRANCH   3   4
HETATM    4  C   UNL     1      -6.395   5.109  68.387  1.00  0.00    -0.036 A  
HETATM    5  C   UNL     1      -6.951   5.609  67.193  1.00  0.00    -0.065 A  
HETATM    6  C   UNL     1      -6.232   5.981  69.468  1.00  0.00    -0.030 A  
HETATM    7  C   UNL     1      -7.297   6.977  67.111  1.00  0.00    -0.090 A  
HETATM    8  C   UNL     1      -6.585   7.330  69.369  1.00  0.00    -0.041 A  
HETATM    9  C   UNL     1      -7.081   7.865  68.176  1.00  0.00    -0.089 A  
BRANCH   5  10
HETATM   10  O   UNL     1      -7.122   4.738  66.152  1.00  0.00    -0.071 OA 
BRANCH  10  11
HETATM   11  C   UNL     1      -8.306   4.817  65.374  1.00  0.00    -0.122 C  
HETATM   12  C   UNL     1      -9.394   4.064  66.119  1.00  0.00    -0.174 C  
ENDBRANCH  10  11
ENDBRANCH   5  10
BRANCH   9  13
HETATM   13  C   UNL     1      -7.403   9.311  68.000  1.00  0.00    -0.080 C  
HETATM   14  C   UNL     1      -8.605   9.881  68.242  1.00  0.00    -0.115 C  
HETATM   15  N   UNL     1      -9.684   9.108  68.676  1.00  0.00    -0.152 NA 
HETATM   16  C   UNL     1     -10.981   9.343  68.055  1.00  0.00    -0.059 C  
HETATM   17  H   UNL     1      -9.568   8.402  69.402  1.00  0.00     0.000 HD 
HETATM   18  C   UNL     1     -11.407  10.771  68.331  1.00  0.00    -0.367 C  
HETATM   19  C   UNL     1     -10.279  11.753  68.095  1.00  0.00    -0.210 A  
HETATM   20  C   UNL     1     -10.633  13.108  67.988  1.00  0.00    -0.246 A  
HETATM   21  C   UNL     1      -9.672  14.108  67.835  1.00  0.00    -0.224 A  
HETATM   22  C   UNL     1      -8.316  13.733  67.792  1.00  0.00    -0.180 A  
HETATM   23  C   UNL     1      -7.962  12.363  67.905  1.00  0.00    -0.155 A  
HETATM   24  C   UNL     1      -8.925  11.347  68.059  1.00  0.00    -0.163 A  
BRANCH  21  25
HETATM   25  O   UNL     1     -10.007  15.430  67.737  1.00  0.00    -0.224 OA 
BRANCH  25  26
HETATM   26  C   UNL     1     -11.000  15.827  66.794  1.00  0.00    -0.192 C  
HETATM   27  C   UNL     1     -10.379  15.774  65.410  1.00  0.00    -0.417 C  
ENDBRANCH  25  26
ENDBRANCH  21  25
BRANCH  22  28
HETATM   28  O   UNL     1      -7.222  14.564  67.660  1.00  0.00    -0.159 OA 
BRANCH  28  29
HETATM   29  C   UNL     1      -6.613  15.071  68.848  1.00  0.00    -0.096 C  
HETATM   30  C   UNL     1      -6.829  16.572  68.940  1.00  0.00    -0.186 C  
ENDBRANCH  28  29
ENDBRANCH  22  28
ENDBRANCH   9  13
ENDBRANCH   3   4
ENDBRANCH   2   3
TORSDOF 9
ENDMDL
MODEL      138
REMARK 921   NORMALIZED FREE ENERGY PREDICTED BY IDOCK:   -2.74 KCAL/MOL
REMARK 922        TOTAL FREE ENERGY PREDICTED BY IDOCK:   -5.06 KCAL/MOL
REMARK 923 INTER-LIGAND FREE ENERGY PREDICTED BY IDOCK:   -4.24 KCAL/MOL
REMARK 924 INTRA-LIGAND FREE ENERGY PREDICTED BY IDOCK:   -0.82 KCAL/MOL
REMARK 927      BINDING AFFINITY PREDICTED BY RF-SCORE:    0.00 PKD
ROOT
HETATM    1  C   UNL     1     -11.672  15.636  67.506  1.00  0.00     0.069 C  
HETATM    2  C   UNL     1     -11.841  14.331  66.744  1.00  0.00    -0.426 C  
ENDROOT
BRANCH   2   3
HETATM    3  O   UNL     1     -10.587  13.953  66.185  1.00  0.00    -0.284 OA 
BRANCH   3   4
HETATM    4  C   UNL     1     -10.178  12.647  66.301  1.00  0.00    -0.251 A  
HETATM    5  C   UNL     1      -9.203  12.096  67.155  1.00  0.00    -0.193 A  
HETATM    6  C   UNL     1     -10.861  11.796  65.426  1.00  0.00    -0.347 A  
HETATM    7  C   UNL     1      -8.921  10.713  67.083  1.00  0.00    -0.143 A  
HETATM    8  C   UNL     1     -10.571  10.430  65.372  1.00  0.00    -0.080 A  
HETATM    9  C   UNL     1      -9.566   9.869  66.165  1.00  0.00    -0.275 A  
BRANCH   5  10
HETATM   10  O   UNL     1      -8.559  12.939  68.020  1.00  0.00    -0.169 OA 
BRANCH  10  11
HETATM   11  C   UNL     1      -7.248  12.612  68.453  1.00  0.00    -0.111 C  
HETATM   12  C   UNL     1      -6.273  13.408  67.604  1.00  0.00    -0.145 C  
ENDBRANCH  10  11
ENDBRANCH   5  10
BRANCH   9  13
HETATM   13  C   UNL     1      -9.171   8.433  66.090  1.00  0.00    -0.263 C  
HETATM   14  C   UNL     1      -9.216   7.554  67.117  1.00  0.00    -0.136 C  
HETATM   15  N   UNL     1      -9.638   7.962  68.385  1.00  0.00    -0.148 NA 
HETATM   16  C   UNL     1      -8.866   7.511  69.535  1.00  0.00    -0.137 C  
HETATM   17  H   UNL     1     -10.458   8.556  68.501  1.00  0.00     0.000 HD 
HETATM   18  C   UNL     1      -8.909   5.997  69.594  1.00  0.00    -0.133 C  
HETATM   19  C   UNL     1      -8.660   5.371  68.238  1.00  0.00    -0.096 A  
HETATM   20  C   UNL     1      -8.342   4.003  68.222  1.00  0.00    -0.100 A  
HETATM   21  C   UNL     1      -8.157   3.306  67.028  1.00  0.00    -0.083 A  
HETATM   22  C   UNL     1      -8.297   4.006  65.815  1.00  0.00    -0.109 A  
HETATM   23  C   UNL     1      -8.623   5.388  65.835  1.00  0.00    -0.131 A  
HETATM   24  C   UNL     1      -8.811   6.099  67.036  1.00  0.00    -0.110 A  
BRANCH  21  25
HETATM   25  O   UNL     1      -7.853   1.973  67.003  1.00  0.00    -0.065 OA 
BRANCH  25  26
HETATM   26  C   UNL     1      -6.569   1.543  67.450  1.00  0.00    -0.028 C  
HETATM   27  C   UNL     1      -5.605   1.663  66.284  1.00  0.00    -0.013 C  
ENDBRANCH  25  26
ENDBRANCH  21  25
BRANCH  22  28
HETATM   28  O   UNL     1      -8.167   3.501  64.537  1.00  0.00    -0.089 OA 
BRANCH  28  29
HETATM   29  C   UNL     1      -9.350   3.083  63.853  1.00  0.00    -0.108 C  
HETATM   30  C   UNL     1      -9.642   1.626  64.169  1.00  0.00    -0.133 C  
ENDBRANCH  28  29
ENDBRANCH  22  28
ENDBRANCH   9  13
ENDBRANCH   3   4
ENDBRANCH   2   3
TORSDOF 9
ENDMDL
MODEL      139
REMARK 921   NORMALIZED FREE ENERGY PREDICTED BY IDOCK:   -2.58 KCAL/MOL
REMARK 922        TOTAL FREE ENERGY PREDICTED BY IDOCK:   -4.81 KCAL/MOL
REMARK 923 INTER-LIGAND FREE ENERGY PREDICTED BY IDOCK:   -4.16 KCAL/MOL
REMARK 924 INTRA-LIGAND FREE ENERGY PREDICTED BY IDOCK:   -0.65 KCAL/MOL
REMARK 927      BINDING AFFINITY PREDICTED BY RF-SCORE:    0.00 PKD
ROOT
HETATM    1  C   UNL     1     -10.750   3.282  73.565  1.00  0.00    -0.306 C  
HETATM    2  C   UNL     1      -9.710   2.348  74.163  1.00  0.00    -0.091 C  
ENDROOT
BRANCH   2   3
HETATM    3  O   UNL     1      -8.411   2.809  73.804  1.00  0.00    -0.070 OA 
BRANCH   3   4
HETATM    4  C   UNL     1      -8.301   3.915  72.997  1.00  0.00    -0.092 A  
HETATM    5  C   UNL     1      -8.239   3.984  71.591  1.00  0.00    -0.082 A  
HETATM    6  C   UNL     1      -8.251   5.105  73.729  1.00  0.00    -0.109 A  
HETATM    7  C   UNL     1      -8.096   5.243  70.966  1.00  0.00    -0.112 A  
HETATM    8  C   UNL     1      -8.115   6.342  73.093  1.00  0.00    -0.108 A  
HETATM    9  C   UNL     1      -7.988   6.433  71.703  1.00  0.00    -0.102 A  
BRANCH   5  10
HETATM   10  O   UNL     1      -8.310   2.812  70.889  1.00  0.00    -0.052 OA 
BRANCH  10  11
HETATM   11  C   UNL     1      -9.529   2.461  70.254  1.00  0.00    -0.088 C  
HETATM   12  C   UNL     1      -9.293   2.500  68.754  1.00  0.00    -0.231 C  
ENDBRANCH  10  11
ENDBRANCH   5  10
BRANCH   9  13
HETATM   13  C   UNL     1      -7.767   7.721  70.985  1.00  0.00    -0.084 C  
HETATM   14  C   UNL     1      -8.739   8.503  70.463  1.00  0.00    -0.152 C  
HETATM   15  N   UNL     1     -10.081   8.124  70.549  1.00  0.00    -0.191 NA 
HETATM   16  C   UNL     1     -10.907   8.274  69.359  1.00  0.00    -0.084 C  
HETATM   17  H   UNL     1     -10.468   7.753  71.416  1.00  0.00     0.000 HD 
HETATM   18  C   UNL     1     -10.955   9.740  68.975  1.00  0.00    -0.193 C  
HETATM   19  C   UNL     1      -9.583  10.380  69.015  1.00  0.00    -0.212 A  
HETATM   20  C   UNL     1      -9.445  11.618  68.366  1.00  0.00    -0.193 A  
HETATM   21  C   UNL     1      -8.246  12.331  68.395  1.00  0.00    -0.146 A  
HETATM   22  C   UNL     1      -7.157  11.783  69.098  1.00  0.00    -0.071 A  
HETATM   23  C   UNL     1      -7.302  10.534  69.756  1.00  0.00    -0.139 A  
HETATM   24  C   UNL     1      -8.508   9.808  69.733  1.00  0.00    -0.206 A  
BRANCH  21  25
HETATM   25  O   UNL     1      -8.103  13.540  67.771  1.00  0.00    -0.147 OA 
BRANCH  25  26
HETATM   26  C   UNL     1      -9.161  14.026  66.948  1.00  0.00    -0.260 C  
HETATM   27  C   UNL     1      -9.573  15.390  67.473  1.00  0.00    -0.206 C  
ENDBRANCH  25  26
ENDBRANCH  21  25
BRANCH  22  28
HETATM   28  O   UNL     1      -5.900  12.332  69.253  1.00  0.00    -0.069 OA 
BRANCH  28  29
HETATM   29  C   UNL     1      -5.509  12.761  70.559  1.00  0.00    -0.159 C  
HETATM   30  C   UNL     1      -5.910  14.212  70.767  1.00  0.00    -0.203 C  
ENDBRANCH  28  29
ENDBRANCH  22  28
ENDBRANCH   9  13
ENDBRANCH   3   4
ENDBRANCH   2   3
TORSDOF 9
ENDMDL
MODEL      140
REMARK 921   NORMALIZED FREE ENERGY PREDICTED BY IDOCK:   -2.50 KCAL/MOL
REMARK 922        TOTAL FREE ENERGY PREDICTED BY IDOCK:   -4.70 KCAL/MOL
REMARK 923 INTER-LIGAND FREE ENERGY PREDICTED BY IDOCK:   -4.08 KCAL/MOL
REMARK 924 INTRA-LIGAND FREE ENERGY PREDICTED BY IDOCK:   -0.61 KCAL/MOL
REMARK 927      BINDING AFFINITY PREDICTED BY RF-SCORE:    0.00 PKD
ROOT
HETATM    1  C   UNL     1     -10.904  15.881  67.868  1.00  0.00    -0.327 C  
HETATM    2  C   UNL     1     -11.261  14.932  66.735  1.00  0.00    -0.338 C  
ENDROOT
BRANCH   2   3
HETATM    3  O   UNL     1     -10.062  14.428  66.154  1.00  0.00    -0.284 OA 
BRANCH   3   4
HETATM    4  C   UNL     1      -9.602  13.196  66.551  1.00  0.00    -0.268 A  
HETATM    5  C   UNL     1      -8.659  12.882  67.549  1.00  0.00    -0.188 A  
HETATM    6  C   UNL     1     -10.188  12.152  65.829  1.00  0.00    -0.282 A  
HETATM    7  C   UNL     1      -8.310  11.531  67.771  1.00  0.00    -0.136 A  
HETATM    8  C   UNL     1      -9.834  10.820  66.066  1.00  0.00    -0.285 A  
HETATM    9  C   UNL     1      -8.856  10.487  67.008  1.00  0.00    -0.142 A  
BRANCH   5  10
HETATM   10  O   UNL     1      -8.111  13.915  68.260  1.00  0.00    -0.135 OA 
BRANCH  10  11
HETATM   11  C   UNL     1      -7.002  14.614  67.716  1.00  0.00    -0.177 C  
HETATM   12  C   UNL     1      -7.384  16.081  67.629  1.00  0.00    -0.173 C  
ENDBRANCH  10  11
ENDBRANCH   5  10
BRANCH   9  13
HETATM   13  C   UNL     1      -8.392   9.089  67.244  1.00  0.00    -0.111 C  
HETATM   14  C   UNL     1      -8.225   8.514  68.456  1.00  0.00    -0.123 C  
HETATM   15  N   UNL     1      -8.468   9.236  69.627  1.00  0.00    -0.128 NA 
HETATM   16  C   UNL     1      -7.503   9.120  70.710  1.00  0.00    -0.122 C  
HETATM   17  H   UNL     1      -9.295   9.825  69.718  1.00  0.00     0.000 HD 
HETATM   18  C   UNL     1      -7.445   7.676  71.166  1.00  0.00    -0.078 C  
HETATM   19  C   UNL     1      -7.371   6.717  69.997  1.00  0.00    -0.089 A  
HETATM   20  C   UNL     1      -6.978   5.399  70.285  1.00  0.00    -0.060 A  
HETATM   21  C   UNL     1      -6.938   4.414  69.298  1.00  0.00    -0.050 A  
HETATM   22  C   UNL     1      -7.307   4.764  67.986  1.00  0.00    -0.070 A  
HETATM   23  C   UNL     1      -7.708   6.095  67.700  1.00  0.00    -0.098 A  
HETATM   24  C   UNL     1      -7.751   7.096  68.689  1.00  0.00    -0.120 A  
BRANCH  21  25
HETATM   25  O   UNL     1      -6.563   3.126  69.570  1.00  0.00    -0.032 OA 
BRANCH  25  26
HETATM   26  C   UNL     1      -5.580   2.887  70.574  1.00  0.00    -0.013 C  
HETATM   27  C   UNL     1      -5.820   1.499  71.142  1.00  0.00    -0.013 C  
ENDBRANCH  25  26
ENDBRANCH  21  25
BRANCH  22  28
HETATM   28  O   UNL     1      -7.346   3.939  66.879  1.00  0.00    -0.070 OA 
BRANCH  28  29
HETATM   29  C   UNL     1      -7.990   4.424  65.700  1.00  0.00    -0.095 C  
HETATM   30  C   UNL     1      -7.671   3.514  64.526  1.00  0.00    -0.077 C  
ENDBRANCH  28  29
ENDBRANCH  22  28
ENDBRANCH   9  13
ENDBRANCH   3   4
ENDBRANCH   2   3
TORSDOF 9
ENDMDL
MODEL      141
REMARK 921   NORMALIZED FREE ENERGY PREDICTED BY IDOCK:   -2.34 KCAL/MOL
REMARK 922        TOTAL FREE ENERGY PREDICTED BY IDOCK:   -4.45 KCAL/MOL
REMARK 923 INTER-LIGAND FREE ENERGY PREDICTED BY IDOCK:   -4.34 KCAL/MOL
REMARK 924 INTRA-LIGAND FREE ENERGY PREDICTED BY IDOCK:   -0.11 KCAL/MOL
REMARK 927      BINDING AFFINITY PREDICTED BY RF-SCORE:    0.00 PKD
ROOT
HETATM    1  C   UNL     1      -6.831  20.948  67.238  1.00  0.00    -0.426 C  
HETATM    2  C   UNL     1      -7.009  20.193  68.545  1.00  0.00    -0.254 C  
ENDROOT
BRANCH   2   3
HETATM    3  O   UNL     1      -5.914  19.299  68.719  1.00  0.00    -0.210 OA 
BRANCH   3   4
HETATM    4  C   UNL     1      -6.088  17.972  68.409  1.00  0.00    -0.177 A  
HETATM    5  C   UNL     1      -5.766  17.291  67.219  1.00  0.00    -0.142 A  
HETATM    6  C   UNL     1      -6.668  17.252  69.458  1.00  0.00    -0.130 A  
HETATM    7  C   UNL     1      -6.064  15.914  67.107  1.00  0.00     0.022 A  
HETATM    8  C   UNL     1      -6.951  15.889  69.331  1.00  0.00    -0.211 A  
HETATM    9  C   UNL     1      -6.698  15.204  68.139  1.00  0.00    -0.139 A  
BRANCH   5  10
HETATM   10  O   UNL     1      -5.180  18.006  66.210  1.00  0.00    -0.138 OA 
BRANCH  10  11
HETATM   11  C   UNL     1      -5.906  18.228  65.011  1.00  0.00    -0.100 C  
HETATM   12  C   UNL     1      -5.256  19.397  64.292  1.00  0.00    -0.237 C  
ENDBRANCH  10  11
ENDBRANCH   5  10
BRANCH   9  13
HETATM   13  C   UNL     1      -7.050  13.769  67.930  1.00  0.00    -0.161 C  
HETATM   14  C   UNL     1      -6.866  12.779  68.833  1.00  0.00    -0.096 C  
HETATM   15  N   UNL     1      -6.286  13.047  70.075  1.00  0.00    -0.303 NA 
HETATM   16  C   UNL     1      -5.271  12.123  70.564  1.00  0.00    -0.126 C  
HETATM   17  H   UNL     1      -6.563  13.862  70.621  1.00  0.00     0.000 HD 
HETATM   18  C   UNL     1      -5.893  10.751  70.728  1.00  0.00    -0.081 C  
HETATM   19  C   UNL     1      -6.737  10.365  69.531  1.00  0.00    -0.081 A  
HETATM   20  C   UNL     1      -7.082   9.009  69.412  1.00  0.00    -0.056 A  
HETATM   21  C   UNL     1      -7.910   8.550  68.387  1.00  0.00    -0.106 A  
HETATM   22  C   UNL     1      -8.405   9.483  67.457  1.00  0.00    -0.125 A  
HETATM   23  C   UNL     1      -8.057  10.854  67.583  1.00  0.00    -0.115 A  
HETATM   24  C   UNL     1      -7.223  11.325  68.615  1.00  0.00    -0.098 A  
BRANCH  21  25
HETATM   25  O   UNL     1      -8.257   7.232  68.266  1.00  0.00    -0.122 OA 
BRANCH  25  26
HETATM   26  C   UNL     1      -7.939   6.537  67.063  1.00  0.00    -0.112 C  
HETATM   27  C   UNL     1      -7.255   5.236  67.442  1.00  0.00    -0.075 C  
ENDBRANCH  25  26
ENDBRANCH  21  25
BRANCH  22  28
HETATM   28  O   UNL     1      -9.240   9.235  66.386  1.00  0.00    -0.158 OA 
BRANCH  28  29
HETATM   29  C   UNL     1     -10.645   9.153  66.631  1.00  0.00    -0.087 C  
HETATM   30  C   UNL     1     -11.113  10.394  67.372  1.00  0.00    -0.297 C  
ENDBRANCH  28  29
ENDBRANCH  22  28
ENDBRANCH   9  13
ENDBRANCH   3   4
ENDBRANCH   2   3
TORSDOF 9
ENDMDL
MODEL      142
REMARK 921   NORMALIZED FREE ENERGY PREDICTED BY IDOCK:   -2.34 KCAL/MOL
REMARK 922        TOTAL FREE ENERGY PREDICTED BY IDOCK:   -4.45 KCAL/MOL
REMARK 923 INTER-LIGAND FREE ENERGY PREDICTED BY IDOCK:   -3.77 KCAL/MOL
REMARK 924 INTRA-LIGAND FREE ENERGY PREDICTED BY IDOCK:   -0.68 KCAL/MOL
REMARK 927      BINDING AFFINITY PREDICTED BY RF-SCORE:    0.00 PKD
ROOT
HETATM    1  C   UNL     1      -8.411  16.115  69.082  1.00  0.00    -0.230 C  
HETATM    2  C   UNL     1      -8.833  16.153  67.622  1.00  0.00    -0.186 C  
ENDROOT
BRANCH   2   3
HETATM    3  O   UNL     1      -7.942  15.343  66.859  1.00  0.00    -0.218 OA 
BRANCH   3   4
HETATM    4  C   UNL     1      -8.038  13.977  66.963  1.00  0.00    -0.003 A  
HETATM    5  C   UNL     1      -9.116  13.136  66.624  1.00  0.00    -0.173 A  
HETATM    6  C   UNL     1      -6.875  13.400  67.481  1.00  0.00    -0.154 A  
HETATM    7  C   UNL     1      -9.005  11.745  66.845  1.00  0.00    -0.195 A  
HETATM    8  C   UNL     1      -6.781  12.020  67.689  1.00  0.00    -0.109 A  
HETATM    9  C   UNL     1      -7.858  11.172  67.418  1.00  0.00    -0.121 A  
BRANCH   5  10
HETATM   10  O   UNL     1     -10.239  13.714  66.098  1.00  0.00    -0.289 OA 
BRANCH  10  11
HETATM   11  C   UNL     1     -11.507  13.146  66.386  1.00  0.00    -0.334 C  
HETATM   12  C   UNL     1     -12.475  13.619  65.317  1.00  0.00    -0.517 C  
ENDBRANCH  10  11
ENDBRANCH   5  10
BRANCH   9  13
HETATM   13  C   UNL     1      -7.832   9.705  67.691  1.00  0.00    -0.095 C  
HETATM   14  C   UNL     1      -7.773   9.138  68.918  1.00  0.00    -0.083 C  
HETATM   15  N   UNL     1      -7.707   9.931  70.066  1.00  0.00    -0.167 NA 
HETATM   16  C   UNL     1      -6.756   9.551  71.101  1.00  0.00    -0.001 C  
HETATM   17  H   UNL     1      -8.305  10.750  70.175  1.00  0.00     0.000 HD 
HETATM   18  C   UNL     1      -7.116   8.171  71.617  1.00  0.00    -0.075 C  
HETATM   19  C   UNL     1      -7.416   7.206  70.489  1.00  0.00    -0.087 A  
HETATM   20  C   UNL     1      -7.430   5.840  70.814  1.00  0.00    -0.090 A  
HETATM   21  C   UNL     1      -7.758   4.865  69.872  1.00  0.00    -0.056 A  
HETATM   22  C   UNL     1      -8.085   5.278  68.567  1.00  0.00    -0.087 A  
HETATM   23  C   UNL     1      -8.074   6.660  68.243  1.00  0.00    -0.111 A  
HETATM   24  C   UNL     1      -7.744   7.650  69.188  1.00  0.00    -0.109 A  
BRANCH  21  25
HETATM   25  O   UNL     1      -7.780   3.532  70.181  1.00  0.00    -0.047 OA 
BRANCH  25  26
HETATM   26  C   UNL     1      -7.046   3.069  71.311  1.00  0.00    -0.033 C  
HETATM   27  C   UNL     1      -6.263   1.839  70.888  1.00  0.00    -0.019 C  
ENDBRANCH  25  26
ENDBRANCH  21  25
BRANCH  22  28
HETATM   28  O   UNL     1      -8.446   4.477  67.501  1.00  0.00    -0.103 OA 
BRANCH  28  29
HETATM   29  C   UNL     1      -9.509   4.920  66.655  1.00  0.00    -0.150 C  
HETATM   30  C   UNL     1     -10.090   3.740  65.895  1.00  0.00     0.070 C  
ENDBRANCH  28  29
ENDBRANCH  22  28
ENDBRANCH   9  13
ENDBRANCH   3   4
ENDBRANCH   2   3
TORSDOF 9
ENDMDL
MODEL      143
REMARK 921   NORMALIZED FREE ENERGY PREDICTED BY IDOCK:   -2.26 KCAL/MOL
REMARK 922        TOTAL FREE ENERGY PREDICTED BY IDOCK:   -4.33 KCAL/MOL
REMARK 923 INTER-LIGAND FREE ENERGY PREDICTED BY IDOCK:   -5.61 KCAL/MOL
REMARK 924 INTRA-LIGAND FREE ENERGY PREDICTED BY IDOCK:    1.28 KCAL/MOL
REMARK 927      BINDING AFFINITY PREDICTED BY RF-SCORE:    0.00 PKD
ROOT
HETATM    1  C   UNL     1      -8.762   6.170  67.147  1.00  0.00    -0.106 C  
HETATM    2  C   UNL     1      -8.815   7.504  67.874  1.00  0.00    -0.126 C  
ENDROOT
BRANCH   2   3
HETATM    3  O   UNL     1      -9.629   8.407  67.130  1.00  0.00    -0.158 OA 
BRANCH   3   4
HETATM    4  C   UNL     1      -9.373   9.753  67.217  1.00  0.00    -0.138 A  
HETATM    5  C   UNL     1     -10.215  10.788  67.669  1.00  0.00    -0.189 A  
HETATM    6  C   UNL     1      -8.083  10.078  66.784  1.00  0.00    -0.118 A  
HETATM    7  C   UNL     1      -9.748  12.122  67.643  1.00  0.00    -0.188 A  
HETATM    8  C   UNL     1      -7.637  11.403  66.771  1.00  0.00    -0.143 A  
HETATM    9  C   UNL     1      -8.474  12.455  67.156  1.00  0.00    -0.185 A  
BRANCH   5  10
HETATM   10  O   UNL     1     -11.466  10.451  68.108  1.00  0.00    -0.315 OA 
BRANCH  10  11
HETATM   11  C   UNL     1     -11.723  10.422  69.503  1.00  0.00    -0.188 C  
HETATM   12  C   UNL     1     -10.512   9.804  70.179  1.00  0.00    -0.338 C  
ENDBRANCH  10  11
ENDBRANCH   5  10
BRANCH   9  13
HETATM   13  C   UNL     1      -8.068  13.889  67.089  1.00  0.00    -0.103 C  
HETATM   14  C   UNL     1      -8.715  14.914  67.689  1.00  0.00    -0.175 C  
HETATM   15  N   UNL     1      -9.877  14.686  68.430  1.00  0.00    -0.214 NA 
HETATM   16  C   UNL     1     -10.996  15.597  68.236  1.00  0.00    -0.315 C  
HETATM   17  H   UNL     1      -9.939  13.907  69.085  1.00  0.00     0.000 HD 
HETATM   18  C   UNL     1     -10.566  16.996  68.632  1.00  0.00    -0.362 C  
HETATM   19  C   UNL     1      -9.209  17.352  68.064  1.00  0.00    -0.266 A  
HETATM   20  C   UNL     1      -8.857  18.712  68.073  1.00  0.00    -0.329 A  
HETATM   21  C   UNL     1      -7.606  19.149  67.636  1.00  0.00    -0.239 A  
HETATM   22  C   UNL     1      -6.683  18.190  67.179  1.00  0.00    -0.187 A  
HETATM   23  C   UNL     1      -7.041  16.817  67.175  1.00  0.00    -0.222 A  
HETATM   24  C   UNL     1      -8.301  16.367  67.615  1.00  0.00    -0.176 A  
BRANCH  21  25
HETATM   25  O   UNL     1      -7.253  20.471  67.647  1.00  0.00    -0.302 OA 
BRANCH  25  26
HETATM   26  C   UNL     1      -6.653  21.020  68.818  1.00  0.00     0.333 C  
HETATM   27  C   UNL     1      -5.200  20.580  68.849  1.00  0.00    -0.297 C  
ENDBRANCH  25  26
ENDBRANCH  21  25
BRANCH  22  28
HETATM   28  O   UNL     1      -5.401  18.416  66.720  1.00  0.00    -0.136 OA 
BRANCH  28  29
HETATM   29  C   UNL     1      -5.172  19.556  65.891  1.00  0.00    -0.150 C  
HETATM   30  C   UNL     1      -5.504  19.220  64.447  1.00  0.00    -0.281 C  
ENDBRANCH  28  29
ENDBRANCH  22  28
ENDBRANCH   9  13
ENDBRANCH   3   4
ENDBRANCH   2   3
TORSDOF 9
ENDMDL
MODEL      144
REMARK 921   NORMALIZED FREE ENERGY PREDICTED BY IDOCK:   -2.11 KCAL/MOL
REMARK 922        TOTAL FREE ENERGY PREDICTED BY IDOCK:   -4.10 KCAL/MOL
REMARK 923 INTER-LIGAND FREE ENERGY PREDICTED BY IDOCK:   -3.69 KCAL/MOL
REMARK 924 INTRA-LIGAND FREE ENERGY PREDICTED BY IDOCK:   -0.40 KCAL/MOL
REMARK 927      BINDING AFFINITY PREDICTED BY RF-SCORE:    0.00 PKD
ROOT
HETATM    1  C   UNL     1      -9.278   2.762  67.410  1.00  0.00    -0.210 C  
HETATM    2  C   UNL     1      -8.312   3.579  66.566  1.00  0.00    -0.101 C  
ENDROOT
BRANCH   2   3
HETATM    3  O   UNL     1      -7.567   4.444  67.419  1.00  0.00    -0.080 OA 
BRANCH   3   4
HETATM    4  C   UNL     1      -7.789   5.798  67.345  1.00  0.00    -0.102 A  
HETATM    5  C   UNL     1      -8.024   6.596  66.208  1.00  0.00    -0.108 A  
HETATM    6  C   UNL     1      -7.769   6.409  68.602  1.00  0.00    -0.101 A  
HETATM    7  C   UNL     1      -8.200   7.989  66.366  1.00  0.00    -0.113 A  
HETATM    8  C   UNL     1      -7.950   7.789  68.739  1.00  0.00    -0.125 A  
HETATM    9  C   UNL     1      -8.123   8.612  67.622  1.00  0.00    -0.107 A  
BRANCH   5  10
HETATM   10  O   UNL     1      -8.061   5.978  64.988  1.00  0.00    -0.122 OA 
BRANCH  10  11
HETATM   11  C   UNL     1      -7.197   6.432  63.959  1.00  0.00    -0.062 C  
HETATM   12  C   UNL     1      -7.517   5.636  62.706  1.00  0.00    -0.057 C  
ENDBRANCH  10  11
ENDBRANCH   5  10
BRANCH   9  13
HETATM   13  C   UNL     1      -8.247  10.096  67.711  1.00  0.00    -0.110 C  
HETATM   14  C   UNL     1      -7.257  10.943  68.073  1.00  0.00    -0.086 C  
HETATM   15  N   UNL     1      -5.996  10.456  68.425  1.00  0.00    -0.040 NA 
HETATM   16  C   UNL     1      -5.354  11.022  69.603  1.00  0.00    -0.042 C  
HETATM   17  H   UNL     1      -5.541   9.727  67.876  1.00  0.00     0.000 HD 
HETATM   18  C   UNL     1      -5.134  12.505  69.380  1.00  0.00    -0.070 C  
HETATM   19  C   UNL     1      -6.363  13.178  68.805  1.00  0.00    -0.091 A  
HETATM   20  C   UNL     1      -6.403  14.581  68.870  1.00  0.00    -0.089 A  
HETATM   21  C   UNL     1      -7.454  15.311  68.313  1.00  0.00    -0.112 A  
HETATM   22  C   UNL     1      -8.491  14.609  67.673  1.00  0.00    -0.180 A  
HETATM   23  C   UNL     1      -8.445  13.192  67.606  1.00  0.00    -0.194 A  
HETATM   24  C   UNL     1      -7.389  12.447  68.165  1.00  0.00    -0.111 A  
BRANCH  21  25
HETATM   25  O   UNL     1      -7.498  16.677  68.366  1.00  0.00    -0.177 OA 
BRANCH  25  26
HETATM   26  C   UNL     1      -6.278  17.414  68.325  1.00  0.00    -0.162 C  
HETATM   27  C   UNL     1      -6.100  18.096  69.670  1.00  0.00    -0.234 C  
ENDBRANCH  25  26
ENDBRANCH  21  25
BRANCH  22  28
HETATM   28  O   UNL     1      -9.605  15.142  67.055  1.00  0.00    -0.217 OA 
BRANCH  28  29
HETATM   29  C   UNL     1     -10.734  15.471  67.867  1.00  0.00    -0.294 C  
HETATM   30  C   UNL     1     -10.982  16.969  67.825  1.00  0.00    -0.199 C  
ENDBRANCH  28  29
ENDBRANCH  22  28
ENDBRANCH   9  13
ENDBRANCH   3   4
ENDBRANCH   2   3
TORSDOF 9
ENDMDL
MODEL      145
REMARK 921   NORMALIZED FREE ENERGY PREDICTED BY IDOCK:   -2.05 KCAL/MOL
REMARK 922        TOTAL FREE ENERGY PREDICTED BY IDOCK:   -4.01 KCAL/MOL
REMARK 923 INTER-LIGAND FREE ENERGY PREDICTED BY IDOCK:   -4.25 KCAL/MOL
REMARK 924 INTRA-LIGAND FREE ENERGY PREDICTED BY IDOCK:    0.24 KCAL/MOL
REMARK 927      BINDING AFFINITY PREDICTED BY RF-SCORE:    0.00 PKD
ROOT
HETATM    1  C   UNL     1      -8.723  17.870  69.105  1.00  0.00     0.124 C  
HETATM    2  C   UNL     1      -7.869  18.279  67.915  1.00  0.00    -0.249 C  
ENDROOT
BRANCH   2   3
HETATM    3  O   UNL     1      -6.973  17.218  67.599  1.00  0.00    -0.149 OA 
BRANCH   3   4
HETATM    4  C   UNL     1      -7.445  15.928  67.612  1.00  0.00    -0.152 A  
HETATM    5  C   UNL     1      -8.717  15.446  67.245  1.00  0.00    -0.196 A  
HETATM    6  C   UNL     1      -6.486  15.014  68.059  1.00  0.00    -0.159 A  
HETATM    7  C   UNL     1      -8.997  14.067  67.368  1.00  0.00    -0.208 A  
HETATM    8  C   UNL     1      -6.780  13.652  68.170  1.00  0.00    -0.122 A  
HETATM    9  C   UNL     1      -8.053  13.158  67.871  1.00  0.00    -0.159 A  
BRANCH   5  10
HETATM   10  O   UNL     1      -9.638  16.351  66.790  1.00  0.00    -0.231 OA 
BRANCH  10  11
HETATM   11  C   UNL     1     -10.442  16.013  65.671  1.00  0.00    -0.397 C  
HETATM   12  C   UNL     1     -11.028  17.302  65.122  1.00  0.00     0.118 C  
ENDBRANCH  10  11
ENDBRANCH   5  10
BRANCH   9  13
HETATM   13  C   UNL     1      -8.436  11.726  68.043  1.00  0.00    -0.157 C  
HETATM   14  C   UNL     1      -8.230  10.746  67.134  1.00  0.00    -0.123 C  
HETATM   15  N   UNL     1      -7.634  11.031  65.903  1.00  0.00    -0.338 NA 
HETATM   16  C   UNL     1      -8.223  10.440  64.710  1.00  0.00    -0.141 C  
HETATM   17  H   UNL     1      -6.813  11.633  65.843  1.00  0.00     0.000 HD 
HETATM   18  C   UNL     1      -8.153   8.930  64.821  1.00  0.00    -0.144 C  
HETATM   19  C   UNL     1      -8.588   8.443  66.187  1.00  0.00    -0.157 A  
HETATM   20  C   UNL     1      -8.887   7.075  66.305  1.00  0.00    -0.164 A  
HETATM   21  C   UNL     1      -9.235   6.503  67.528  1.00  0.00    -0.113 A  
HETATM   22  C   UNL     1      -9.281   7.330  68.666  1.00  0.00    -0.136 A  
HETATM   23  C   UNL     1      -8.975   8.711  68.544  1.00  0.00    -0.139 A  
HETATM   24  C   UNL     1      -8.622   9.297  67.313  1.00  0.00    -0.125 A  
BRANCH  21  25
HETATM   25  O   UNL     1      -9.521   5.171  67.653  1.00  0.00    -0.118 OA 
BRANCH  25  26
HETATM   26  C   UNL     1      -8.582   4.211  67.173  1.00  0.00    -0.104 C  
HETATM   27  C   UNL     1      -9.362   3.015  66.656  1.00  0.00    -0.105 C  
ENDBRANCH  25  26
ENDBRANCH  21  25
BRANCH  22  28
HETATM   28  O   UNL     1      -9.589   6.957  69.959  1.00  0.00    -0.158 OA 
BRANCH  28  29
HETATM   29  C   UNL     1      -8.791   7.484  71.021  1.00  0.00    -0.146 C  
HETATM   30  C   UNL     1      -7.915   6.387  71.600  1.00  0.00    -0.102 C  
ENDBRANCH  28  29
ENDBRANCH  22  28
ENDBRANCH   9  13
ENDBRANCH   3   4
ENDBRANCH   2   3
TORSDOF 9
ENDMDL
MODEL      146
REMARK 921   NORMALIZED FREE ENERGY PREDICTED BY IDOCK:   -1.99 KCAL/MOL
REMARK 922        TOTAL FREE ENERGY PREDICTED BY IDOCK:   -3.91 KCAL/MOL
REMARK 923 INTER-LIGAND FREE ENERGY PREDICTED BY IDOCK:   -4.33 KCAL/MOL
REMARK 924 INTRA-LIGAND FREE ENERGY PREDICTED BY IDOCK:    0.42 KCAL/MOL
REMARK 927      BINDING AFFINITY PREDICTED BY RF-SCORE:    0.00 PKD
ROOT
HETATM    1  C   UNL     1     -10.697  16.098  68.462  1.00  0.00    -0.300 C  
HETATM    2  C   UNL     1      -9.542  16.084  67.473  1.00  0.00    -0.222 C  
ENDROOT
BRANCH   2   3
HETATM    3  O   UNL     1      -9.719  14.998  66.568  1.00  0.00    -0.240 OA 
BRANCH   3   4
HETATM    4  C   UNL     1      -9.650  13.715  67.053  1.00  0.00    -0.251 A  
HETATM    5  C   UNL     1     -10.507  12.625  66.802  1.00  0.00    -0.240 A  
HETATM    6  C   UNL     1      -8.558  13.526  67.906  1.00  0.00    -0.182 A  
HETATM    7  C   UNL     1     -10.259  11.389  67.439  1.00  0.00    -0.221 A  
HETATM    8  C   UNL     1      -8.326  12.294  68.524  1.00  0.00    -0.084 A  
HETATM    9  C   UNL     1      -9.196  11.215  68.339  1.00  0.00    -0.175 A  
BRANCH   5  10
HETATM   10  O   UNL     1     -11.559  12.821  65.949  1.00  0.00    -0.340 OA 
BRANCH  10  11
HETATM   11  C   UNL     1     -11.324  12.807  64.550  1.00  0.00    -0.334 C  
HETATM   12  C   UNL     1     -12.400  11.945  63.913  1.00  0.00    -0.488 C  
ENDBRANCH  10  11
ENDBRANCH   5  10
BRANCH   9  13
HETATM   13  C   UNL     1      -9.032   9.905  69.034  1.00  0.00    -0.160 C  
HETATM   14  C   UNL     1      -7.857   9.382  69.451  1.00  0.00    -0.087 C  
HETATM   15  N   UNL     1      -6.657  10.061  69.228  1.00  0.00    -0.048 NA 
HETATM   16  C   UNL     1      -5.518   9.289  68.750  1.00  0.00    -0.037 C  
HETATM   17  H   UNL     1      -6.581  11.064  69.395  1.00  0.00     0.000 HD 
HETATM   18  C   UNL     1      -5.168   8.236  69.782  1.00  0.00    -0.026 C  
HETATM   19  C   UNL     1      -6.397   7.514  70.293  1.00  0.00    -0.034 A  
HETATM   20  C   UNL     1      -6.181   6.311  70.985  1.00  0.00    -0.039 A  
HETATM   21  C   UNL     1      -7.232   5.594  71.555  1.00  0.00    -0.081 A  
HETATM   22  C   UNL     1      -8.538   6.103  71.428  1.00  0.00    -0.128 A  
HETATM   23  C   UNL     1      -8.752   7.321  70.731  1.00  0.00    -0.146 A  
HETATM   24  C   UNL     1      -7.696   8.052  70.152  1.00  0.00    -0.087 A  
BRANCH  21  25
HETATM   25  O   UNL     1      -7.031   4.424  72.237  1.00  0.00    -0.054 OA 
BRANCH  25  26
HETATM   26  C   UNL     1      -5.904   4.310  73.102  1.00  0.00    -0.012 C  
HETATM   27  C   UNL     1      -6.400   4.422  74.533  1.00  0.00    -0.052 C  
ENDBRANCH  25  26
ENDBRANCH  21  25
BRANCH  22  28
HETATM   28  O   UNL     1      -9.703   5.555  71.927  1.00  0.00    -0.158 OA 
BRANCH  28  29
HETATM   29  C   UNL     1      -9.684   4.184  72.328  1.00  0.00    -0.154 C  
HETATM   30  C   UNL     1     -11.073   3.756  72.770  1.00  0.00     0.048 C  
ENDBRANCH  28  29
ENDBRANCH  22  28
ENDBRANCH   9  13
ENDBRANCH   3   4
ENDBRANCH   2   3
TORSDOF 9
ENDMDL
MODEL      147
REMARK 921   NORMALIZED FREE ENERGY PREDICTED BY IDOCK:   -1.86 KCAL/MOL
REMARK 922        TOTAL FREE ENERGY PREDICTED BY IDOCK:   -3.72 KCAL/MOL
REMARK 923 INTER-LIGAND FREE ENERGY PREDICTED BY IDOCK:   -4.39 KCAL/MOL
REMARK 924 INTRA-LIGAND FREE ENERGY PREDICTED BY IDOCK:    0.67 KCAL/MOL
REMARK 927      BINDING AFFINITY PREDICTED BY RF-SCORE:    0.00 PKD
ROOT
HETATM    1  C   UNL     1      -5.918   5.107  71.792  1.00  0.00    -0.025 C  
HETATM    2  C   UNL     1      -5.501   6.229  70.855  1.00  0.00    -0.018 C  
ENDROOT
BRANCH   2   3
HETATM    3  O   UNL     1      -6.573   6.512  69.961  1.00  0.00    -0.045 OA 
BRANCH   3   4
HETATM    4  C   UNL     1      -6.968   7.817  69.793  1.00  0.00    -0.047 A  
HETATM    5  C   UNL     1      -8.257   8.374  69.909  1.00  0.00    -0.122 A  
HETATM    6  C   UNL     1      -5.901   8.658  69.466  1.00  0.00    -0.030 A  
HETATM    7  C   UNL     1      -8.439   9.753  69.661  1.00  0.00    -0.194 A  
HETATM    8  C   UNL     1      -6.099  10.022  69.230  1.00  0.00    -0.040 A  
HETATM    9  C   UNL     1      -7.377  10.587  69.277  1.00  0.00    -0.113 A  
BRANCH   5  10
HETATM   10  O   UNL     1      -9.287   7.541  70.250  1.00  0.00    -0.161 OA 
BRANCH  10  11
HETATM   11  C   UNL     1      -9.277   6.916  71.524  1.00  0.00    -0.151 C  
HETATM   12  C   UNL     1      -8.355   7.722  72.422  1.00  0.00    -0.164 C  
ENDBRANCH  10  11
ENDBRANCH   5  10
BRANCH   9  13
HETATM   13  C   UNL     1      -7.649  12.019  68.961  1.00  0.00     0.056 C  
HETATM   14  C   UNL     1      -8.667  12.471  68.193  1.00  0.00    -0.190 C  
HETATM   15  N   UNL     1      -9.561  11.578  67.598  1.00  0.00    -0.169 NA 
HETATM   16  C   UNL     1      -9.925  11.806  66.207  1.00  0.00    -0.218 C  
HETATM   17  H   UNL     1      -9.946  10.793  68.122  1.00  0.00     0.000 HD 
HETATM   18  C   UNL     1     -10.608  13.155  66.091  1.00  0.00    -0.288 C  
HETATM   19  C   UNL     1      -9.865  14.232  66.853  1.00  0.00    -0.264 A  
HETATM   20  C   UNL     1     -10.198  15.563  66.551  1.00  0.00    -0.291 A  
HETATM   21  C   UNL     1      -9.626  16.635  67.237  1.00  0.00    -0.243 A  
HETATM   22  C   UNL     1      -8.695  16.360  68.255  1.00  0.00    -0.201 A  
HETATM   23  C   UNL     1      -8.364  15.013  68.559  1.00  0.00    -0.161 A  
HETATM   24  C   UNL     1      -8.936  13.925  67.873  1.00  0.00    -0.191 A  
BRANCH  21  25
HETATM   25  O   UNL     1      -9.949  17.934  66.954  1.00  0.00    -0.304 OA 
BRANCH  25  26
HETATM   26  C   UNL     1      -8.949  18.799  66.421  1.00  0.00    -0.292 C  
HETATM   27  C   UNL     1      -7.909  17.938  65.726  1.00  0.00     0.035 C  
ENDBRANCH  25  26
ENDBRANCH  21  25
BRANCH  22  28
HETATM   28  O   UNL     1      -8.031  17.272  69.051  1.00  0.00    -0.224 OA 
BRANCH  28  29
HETATM   29  C   UNL     1      -6.711  16.947  69.492  1.00  0.00    -0.169 C  
HETATM   30  C   UNL     1      -5.688  17.700  68.660  1.00  0.00    -0.164 C  
ENDBRANCH  28  29
ENDBRANCH  22  28
ENDBRANCH   9  13
ENDBRANCH   3   4
ENDBRANCH   2   3
TORSDOF 9
ENDMDL
MODEL      148
REMARK 921   NORMALIZED FREE ENERGY PREDICTED BY IDOCK:   -1.74 KCAL/MOL
REMARK 922        TOTAL FREE ENERGY PREDICTED BY IDOCK:   -3.53 KCAL/MOL
REMARK 923 INTER-LIGAND FREE ENERGY PREDICTED BY IDOCK:   -4.00 KCAL/MOL
REMARK 924 INTRA-LIGAND FREE ENERGY PREDICTED BY IDOCK:    0.46 KCAL/MOL
REMARK 927      BINDING AFFINITY PREDICTED BY RF-SCORE:    0.00 PKD
ROOT
HETATM    1  C   UNL     1     -11.368   8.050  68.595  1.00  0.00     0.713 C  
HETATM    2  C   UNL     1     -11.704   9.255  69.460  1.00  0.00     0.484 C  
ENDROOT
BRANCH   2   3
HETATM    3  O   UNL     1     -10.493   9.849  69.919  1.00  0.00    -0.232 OA 
BRANCH   3   4
HETATM    4  C   UNL     1     -10.071  11.021  69.340  1.00  0.00    -0.030 A  
HETATM    5  C   UNL     1      -8.857  11.295  68.679  1.00  0.00    -0.141 A  
HETATM    6  C   UNL     1     -11.018  12.043  69.454  1.00  0.00    -0.128 A  
HETATM    7  C   UNL     1      -8.619  12.596  68.180  1.00  0.00    -0.188 A  
HETATM    8  C   UNL     1     -10.767  13.322  68.949  1.00  0.00    -0.215 A  
HETATM    9  C   UNL     1      -9.547  13.637  68.344  1.00  0.00    -0.203 A  
BRANCH   5  10
HETATM   10  O   UNL     1      -7.949  10.279  68.558  1.00  0.00    -0.099 OA 
BRANCH  10  11
HETATM   11  C   UNL     1      -6.583  10.596  68.342  1.00  0.00    -0.055 C  
HETATM   12  C   UNL     1      -5.957  10.872  69.698  1.00  0.00    -0.066 C  
ENDBRANCH  10  11
ENDBRANCH   5  10
BRANCH   9  13
HETATM   13  C   UNL     1      -9.204  15.005  67.858  1.00  0.00    -0.182 C  
HETATM   14  C   UNL     1      -7.955  15.451  67.592  1.00  0.00    -0.155 C  
HETATM   15  N   UNL     1      -6.847  14.623  67.786  1.00  0.00    -0.163 NA 
HETATM   16  C   UNL     1      -5.678  15.195  68.438  1.00  0.00    -0.109 C  
HETATM   17  H   UNL     1      -6.857  13.650  67.481  1.00  0.00     0.000 HD 
HETATM   18  C   UNL     1      -5.150  16.336  67.591  1.00  0.00    -0.149 C  
HETATM   19  C   UNL     1      -6.261  17.250  67.118  1.00  0.00    -0.193 A  
HETATM   20  C   UNL     1      -5.878  18.507  66.622  1.00  0.00    -0.175 A  
HETATM   21  C   UNL     1      -6.809  19.404  66.098  1.00  0.00    -0.231 A  
HETATM   22  C   UNL     1      -8.164  19.025  66.072  1.00  0.00    -0.132 A  
HETATM   23  C   UNL     1      -8.547  17.752  66.571  1.00  0.00    -0.283 A  
HETATM   24  C   UNL     1      -7.614  16.840  67.101  1.00  0.00    -0.221 A  
BRANCH  21  25
HETATM   25  O   UNL     1      -6.444  20.627  65.607  1.00  0.00    -0.234 OA 
BRANCH  25  26
HETATM   26  C   UNL     1      -6.535  20.868  64.204  1.00  0.00    -0.232 C  
HETATM   27  C   UNL     1      -5.532  19.966  63.509  1.00  0.00    -0.303 C  
ENDBRANCH  25  26
ENDBRANCH  21  25
BRANCH  22  28
HETATM   28  O   UNL     1      -9.229  19.758  65.589  1.00  0.00    -0.320 OA 
BRANCH  28  29
HETATM   29  C   UNL     1     -10.075  20.420  66.531  1.00  0.00    -0.287 C  
HETATM   30  C   UNL     1      -9.598  20.130  67.944  1.00  0.00    -0.468 C  
ENDBRANCH  28  29
ENDBRANCH  22  28
ENDBRANCH   9  13
ENDBRANCH   3   4
ENDBRANCH   2   3
TORSDOF 9
ENDMDL
MODEL      149
REMARK 921   NORMALIZED FREE ENERGY PREDICTED BY IDOCK:   -1.34 KCAL/MOL
REMARK 922        TOTAL FREE ENERGY PREDICTED BY IDOCK:   -2.92 KCAL/MOL
REMARK 923 INTER-LIGAND FREE ENERGY PREDICTED BY IDOCK:   -3.19 KCAL/MOL
REMARK 924 INTRA-LIGAND FREE ENERGY PREDICTED BY IDOCK:    0.27 KCAL/MOL
REMARK 927      BINDING AFFINITY PREDICTED BY RF-SCORE:    0.00 PKD
ROOT
HETATM    1  C   UNL     1     -13.248   6.728  71.372  1.00  0.00    -0.177 C  
HETATM    2  C   UNL     1     -12.334   5.608  71.843  1.00  0.00     0.692 C  
ENDROOT
BRANCH   2   3
HETATM    3  O   UNL     1     -11.242   5.486  70.936  1.00  0.00    -0.136 OA 
BRANCH   3   4
HETATM    4  C   UNL     1     -10.570   6.621  70.553  1.00  0.00    -0.229 A  
HETATM    5  C   UNL     1      -9.648   7.394  71.286  1.00  0.00    -0.161 A  
HETATM    6  C   UNL     1     -10.885   7.012  69.248  1.00  0.00    -0.241 A  
HETATM    7  C   UNL     1      -9.095   8.553  70.698  1.00  0.00    -0.184 A  
HETATM    8  C   UNL     1     -10.324   8.160  68.681  1.00  0.00    -0.224 A  
HETATM    9  C   UNL     1      -9.454   8.978  69.409  1.00  0.00    -0.159 A  
BRANCH   5  10
HETATM   10  O   UNL     1      -9.335   6.986  72.554  1.00  0.00    -0.139 OA 
BRANCH  10  11
HETATM   11  C   UNL     1      -9.228   7.955  73.584  1.00  0.00    -0.255 C  
HETATM   12  C   UNL     1      -7.904   7.729  74.292  1.00  0.00    -0.235 C  
ENDBRANCH  10  11
ENDBRANCH   5  10
BRANCH   9  13
HETATM   13  C   UNL     1      -8.888  10.250  68.874  1.00  0.00    -0.157 C  
HETATM   14  C   UNL     1      -9.533  11.437  68.832  1.00  0.00    -0.050 C  
HETATM   15  N   UNL     1     -10.848  11.550  69.291  1.00  0.00    -0.362 NA 
HETATM   16  C   UNL     1     -11.789  12.307  68.479  1.00  0.00    -0.307 C  
HETATM   17  H   UNL     1     -11.138  11.115  70.167  1.00  0.00     0.000 HD 
HETATM   18  C   UNL     1     -11.305  13.740  68.371  1.00  0.00    -0.326 C  
HETATM   19  C   UNL     1      -9.825  13.815  68.061  1.00  0.00    -0.239 A  
HETATM   20  C   UNL     1      -9.336  15.052  67.609  1.00  0.00    -0.194 A  
HETATM   21  C   UNL     1      -7.979  15.256  67.356  1.00  0.00    -0.186 A  
HETATM   22  C   UNL     1      -7.090  14.186  67.566  1.00  0.00    -0.163 A  
HETATM   23  C   UNL     1      -7.588  12.938  68.026  1.00  0.00    -0.137 A  
HETATM   24  C   UNL     1      -8.955  12.724  68.285  1.00  0.00    -0.175 A  
BRANCH  21  25
HETATM   25  O   UNL     1      -7.493  16.459  66.922  1.00  0.00    -0.186 OA 
BRANCH  25  26
HETATM   26  C   UNL     1      -7.531  17.581  67.800  1.00  0.00    -0.191 C  
HETATM   27  C   UNL     1      -6.414  17.420  68.814  1.00  0.00    -0.201 C  
ENDBRANCH  25  26
ENDBRANCH  21  25
BRANCH  22  28
HETATM   28  O   UNL     1      -5.721  14.187  67.386  1.00  0.00    -0.350 OA 
BRANCH  28  29
HETATM   29  C   UNL     1      -5.144  13.146  66.596  1.00  0.00     1.581 C  
HETATM   30  C   UNL     1      -5.343  11.806  67.283  1.00  0.00    -0.100 C  
ENDBRANCH  28  29
ENDBRANCH  22  28
ENDBRANCH   9  13
ENDBRANCH   3   4
ENDBRANCH   2   3
TORSDOF 9
ENDMDL
MODEL      150
REMARK 921   NORMALIZED FREE ENERGY PREDICTED BY IDOCK:   -0.78 KCAL/MOL
REMARK 922        TOTAL FREE ENERGY PREDICTED BY IDOCK:   -2.07 KCAL/MOL
REMARK 923 INTER-LIGAND FREE ENERGY PREDICTED BY IDOCK:   -2.34 KCAL/MOL
REMARK 924 INTRA-LIGAND FREE ENERGY PREDICTED BY IDOCK:    0.26 KCAL/MOL
REMARK 927      BINDING AFFINITY PREDICTED BY RF-SCORE:    0.00 PKD
ROOT
HETATM    1  C   UNL     1      -9.144   2.763  62.710  1.00  0.00    -0.087 C  
HETATM    2  C   UNL     1      -7.886   3.610  62.588  1.00  0.00    -0.063 C  
ENDROOT
BRANCH   2   3
HETATM    3  O   UNL     1      -7.188   3.587  63.830  1.00  0.00    -0.049 OA 
BRANCH   3   4
HETATM    4  C   UNL     1      -7.208   4.710  64.621  1.00  0.00    -0.063 A  
HETATM    5  C   UNL     1      -8.164   5.103  65.578  1.00  0.00    -0.121 A  
HETATM    6  C   UNL     1      -6.103   5.537  64.399  1.00  0.00    -0.022 A  
HETATM    7  C   UNL     1      -7.997   6.328  66.261  1.00  0.00    -0.110 A  
HETATM    8  C   UNL     1      -5.951   6.744  65.089  1.00  0.00    -0.035 A  
HETATM    9  C   UNL     1      -6.917   7.185  65.998  1.00  0.00    -0.065 A  
BRANCH   5  10
HETATM   10  O   UNL     1      -9.230   4.273  65.797  1.00  0.00    -0.130 OA 
BRANCH  10  11
HETATM   11  C   UNL     1     -10.285   4.711  66.638  1.00  0.00    -0.213 C  
HETATM   12  C   UNL     1      -9.727   4.838  68.045  1.00  0.00    -0.202 C  
ENDBRANCH  10  11
ENDBRANCH   5  10
BRANCH   9  13
HETATM   13  C   UNL     1      -6.836   8.498  66.703  1.00  0.00    -0.072 C  
HETATM   14  C   UNL     1      -6.486   8.671  67.997  1.00  0.00    -0.057 C  
HETATM   15  N   UNL     1      -6.182   7.574  68.806  1.00  0.00    -0.031 NA 
HETATM   16  C   UNL     1      -6.739   7.546  70.151  1.00  0.00    -0.050 C  
HETATM   17  H   UNL     1      -5.590   6.817  68.465  1.00  0.00     0.000 HD 
HETATM   18  C   UNL     1      -6.215   8.739  70.926  1.00  0.00    -0.043 C  
HETATM   19  C   UNL     1      -6.289  10.016  70.115  1.00  0.00    -0.093 A  
HETATM   20  C   UNL     1      -6.156  11.222  70.822  1.00  0.00     0.115 A  
HETATM   21  C   UNL     1      -6.142  12.456  70.172  1.00  0.00    -0.102 A  
HETATM   22  C   UNL     1      -6.264  12.476  68.770  1.00  0.00    -0.074 A  
HETATM   23  C   UNL     1      -6.395  11.255  68.059  1.00  0.00    -0.053 A  
HETATM   24  C   UNL     1      -6.409  10.005  68.707  1.00  0.00    -0.041 A  
BRANCH  21  25
HETATM   25  O   UNL     1      -6.007  13.635  70.852  1.00  0.00    -0.183 OA 
BRANCH  25  26
HETATM   26  C   UNL     1      -5.190  13.674  72.020  1.00  0.00    -0.181 C  
HETATM   27  C   UNL     1      -5.497  14.962  72.763  1.00  0.00     0.128 C  
ENDBRANCH  25  26
ENDBRANCH  21  25
BRANCH  22  28
HETATM   28  O   UNL     1      -6.262  13.584  67.946  1.00  0.00    -0.124 OA 
BRANCH  28  29
HETATM   29  C   UNL     1      -6.882  14.780  68.423  1.00  0.00    -0.104 C  
HETATM   30  C   UNL     1      -6.587  15.928  67.473  1.00  0.00    -0.212 C  
ENDBRANCH  28  29
ENDBRANCH  22  28
ENDBRANCH   9  13
ENDBRANCH   3   4
ENDBRANCH   2   3
TORSDOF 9
ENDMDL
MODEL      151
REMARK 921   NORMALIZED FREE ENERGY PREDICTED BY IDOCK:   -0.77 KCAL/MOL
REMARK 922        TOTAL FREE ENERGY PREDICTED BY IDOCK:   -2.05 KCAL/MOL
REMARK 923 INTER-LIGAND FREE ENERGY PREDICTED BY IDOCK:   -2.45 KCAL/MOL
REMARK 924 INTRA-LIGAND FREE ENERGY PREDICTED BY IDOCK:    0.40 KCAL/MOL
REMARK 927      BINDING AFFINITY PREDICTED BY RF-SCORE:    0.00 PKD
ROOT
HETATM    1  C   UNL     1     -10.163  18.181  67.728  1.00  0.00    -0.395 C  
HETATM    2  C   UNL     1     -10.891  16.952  67.205  1.00  0.00    -0.131 C  
ENDROOT
BRANCH   2   3
HETATM    3  O   UNL     1     -11.464  16.250  68.304  1.00  0.00    -0.333 OA 
BRANCH   3   4
HETATM    4  C   UNL     1     -10.965  15.012  68.630  1.00  0.00    -0.257 A  
HETATM    5  C   UNL     1      -9.683  14.481  68.383  1.00  0.00    -0.224 A  
HETATM    6  C   UNL     1     -11.903  14.218  69.297  1.00  0.00    -0.372 A  
HETATM    7  C   UNL     1      -9.393  13.158  68.785  1.00  0.00     0.122 A  
HETATM    8  C   UNL     1     -11.596  12.912  69.692  1.00  0.00    -0.318 A  
HETATM    9  C   UNL     1     -10.353  12.341  69.404  1.00  0.00     0.388 A  
BRANCH   5  10
HETATM   10  O   UNL     1      -8.771  15.278  67.748  1.00  0.00    -0.160 OA 
BRANCH  10  11
HETATM   11  C   UNL     1      -7.574  14.699  67.254  1.00  0.00    -0.143 C  
HETATM   12  C   UNL     1      -6.412  15.508  67.802  1.00  0.00    -0.186 C  
ENDBRANCH  10  11
ENDBRANCH   5  10
BRANCH   9  13
HETATM   13  C   UNL     1     -10.005  10.929  69.739  1.00  0.00     0.236 C  
HETATM   14  C   UNL     1     -10.882   9.902  69.808  1.00  0.00    -0.269 C  
HETATM   15  N   UNL     1     -12.244  10.113  69.579  1.00  0.00    -0.486 NA 
HETATM   16  C   UNL     1     -13.191   9.482  70.487  1.00  0.00     0.295 C  
HETATM   17  H   UNL     1     -12.564  10.690  68.802  1.00  0.00     0.000 HD 
HETATM   18  C   UNL     1     -13.025   7.977  70.405  1.00  0.00     0.946 C  
HETATM   19  C   UNL     1     -11.568   7.567  70.444  1.00  0.00    -0.172 A  
HETATM   20  C   UNL     1     -11.300   6.214  70.713  1.00  0.00    -0.364 A  
HETATM   21  C   UNL     1      -9.999   5.710  70.710  1.00  0.00    -0.195 A  
HETATM   22  C   UNL     1      -8.939   6.590  70.425  1.00  0.00    -0.152 A  
HETATM   23  C   UNL     1      -9.215   7.956  70.149  1.00  0.00    -0.153 A  
HETATM   24  C   UNL     1     -10.524   8.473  70.151  1.00  0.00    -0.226 A  
BRANCH  21  25
HETATM   25  O   UNL     1      -9.729   4.393  70.964  1.00  0.00    -0.165 OA 
BRANCH  25  26
HETATM   26  C   UNL     1     -10.073   3.412  69.989  1.00  0.00     0.635 C  
HETATM   27  C   UNL     1      -9.512   3.864  68.653  1.00  0.00    -0.217 C  
ENDBRANCH  25  26
ENDBRANCH  21  25
BRANCH  22  28
HETATM   28  O   UNL     1      -7.594   6.288  70.361  1.00  0.00    -0.091 OA 
BRANCH  28  29
HETATM   29  C   UNL     1      -6.655   7.329  70.636  1.00  0.00    -0.047 C  
HETATM   30  C   UNL     1      -5.239   6.788  70.537  1.00  0.00    -0.019 C  
ENDBRANCH  28  29
ENDBRANCH  22  28
ENDBRANCH   9  13
ENDBRANCH   3   4
ENDBRANCH   2   3
TORSDOF 9
ENDMDL
MODEL      152
REMARK 921   NORMALIZED FREE ENERGY PREDICTED BY IDOCK:   -0.74 KCAL/MOL
REMARK 922        TOTAL FREE ENERGY PREDICTED BY IDOCK:   -2.01 KCAL/MOL
REMARK 923 INTER-LIGAND FREE ENERGY PREDICTED BY IDOCK:   -2.53 KCAL/MOL
REMARK 924 INTRA-LIGAND FREE ENERGY PREDICTED BY IDOCK:    0.52 KCAL/MOL
REMARK 927      BINDING AFFINITY PREDICTED BY RF-SCORE:    0.00 PKD
ROOT
HETATM    1  C   UNL     1     -13.305   6.605  71.389  1.00  0.00     0.013 C  
HETATM    2  C   UNL     1     -12.148   5.627  71.521  1.00  0.00     0.778 C  
ENDROOT
BRANCH   2   3
HETATM    3  O   UNL     1     -11.108   6.013  70.626  1.00  0.00    -0.302 OA 
BRANCH   3   4
HETATM    4  C   UNL     1     -10.805   7.347  70.501  1.00  0.00    -0.243 A  
HETATM    5  C   UNL     1     -10.001   8.154  71.329  1.00  0.00    -0.181 A  
HETATM    6  C   UNL     1     -11.406   7.926  69.379  1.00  0.00     0.317 A  
HETATM    7  C   UNL     1      -9.849   9.525  71.022  1.00  0.00    -0.236 A  
HETATM    8  C   UNL     1     -11.240   9.284  69.088  1.00  0.00     0.101 A  
HETATM    9  C   UNL     1     -10.498  10.119  69.928  1.00  0.00    -0.322 A  
BRANCH   5  10
HETATM   10  O   UNL     1      -9.404   7.567  72.411  1.00  0.00    -0.139 OA 
BRANCH  10  11
HETATM   11  C   UNL     1      -9.385   8.261  73.649  1.00  0.00     0.123 C  
HETATM   12  C   UNL     1      -8.074   7.931  74.340  1.00  0.00    -0.293 C  
ENDBRANCH  10  11
ENDBRANCH   5  10
BRANCH   9  13
HETATM   13  C   UNL     1     -10.354  11.587  69.701  1.00  0.00     0.360 C  
HETATM   14  C   UNL     1      -9.501  12.163  68.824  1.00  0.00     0.059 C  
HETATM   15  N   UNL     1      -8.640  11.382  68.050  1.00  0.00    -0.140 NA 
HETATM   16  C   UNL     1      -7.256  11.816  67.924  1.00  0.00    -0.092 C  
HETATM   17  H   UNL     1      -8.970  10.534  67.589  1.00  0.00     0.000 HD 
HETATM   18  C   UNL     1      -7.226  13.178  67.260  1.00  0.00    -0.045 C  
HETATM   19  C   UNL     1      -8.251  14.120  67.855  1.00  0.00    -0.155 A  
HETATM   20  C   UNL     1      -8.097  15.486  67.566  1.00  0.00    -0.185 A  
HETATM   21  C   UNL     1      -9.019  16.437  68.005  1.00  0.00    -0.185 A  
HETATM   22  C   UNL     1     -10.127  16.001  68.754  1.00  0.00    -0.225 A  
HETATM   23  C   UNL     1     -10.282  14.619  69.040  1.00  0.00    -0.222 A  
HETATM   24  C   UNL     1      -9.357  13.652  68.601  1.00  0.00    -0.057 A  
BRANCH  21  25
HETATM   25  O   UNL     1      -8.880  17.769  67.724  1.00  0.00    -0.242 OA 
BRANCH  25  26
HETATM   26  C   UNL     1      -7.631  18.249  67.230  1.00  0.00    -0.217 C  
HETATM   27  C   UNL     1      -7.904  19.052  65.972  1.00  0.00    -0.226 C  
ENDBRANCH  25  26
ENDBRANCH  21  25
BRANCH  22  28
HETATM   28  O   UNL     1     -11.149  16.776  69.266  1.00  0.00    -0.260 OA 
BRANCH  28  29
HETATM   29  C   UNL     1     -11.560  16.543  70.615  1.00  0.00     0.074 C  
HETATM   30  C   UNL     1     -12.136  15.143  70.745  1.00  0.00    -0.387 C  
ENDBRANCH  28  29
ENDBRANCH  22  28
ENDBRANCH   9  13
ENDBRANCH   3   4
ENDBRANCH   2   3
TORSDOF 9
ENDMDL
MODEL      153
REMARK 921   NORMALIZED FREE ENERGY PREDICTED BY IDOCK:   -0.19 KCAL/MOL
REMARK 922        TOTAL FREE ENERGY PREDICTED BY IDOCK:   -1.18 KCAL/MOL
REMARK 923 INTER-LIGAND FREE ENERGY PREDICTED BY IDOCK:   -3.05 KCAL/MOL
REMARK 924 INTRA-LIGAND FREE ENERGY PREDICTED BY IDOCK:    1.87 KCAL/MOL
REMARK 927      BINDING AFFINITY PREDICTED BY RF-SCORE:    0.00 PKD
ROOT
HETATM    1  C   UNL     1      -5.127   6.098  72.063  1.00  0.00    -0.022 C  
HETATM    2  C   UNL     1      -5.929   6.131  73.355  1.00  0.00    -0.057 C  
ENDROOT
BRANCH   2   3
HETATM    3  O   UNL     1      -7.318   6.158  73.039  1.00  0.00    -0.091 OA 
BRANCH   3   4
HETATM    4  C   UNL     1      -7.775   7.101  72.150  1.00  0.00    -0.090 A  
HETATM    5  C   UNL     1      -7.655   7.126  70.747  1.00  0.00    -0.089 A  
HETATM    6  C   UNL     1      -8.442   8.152  72.785  1.00  0.00    -0.250 A  
HETATM    7  C   UNL     1      -8.181   8.221  70.026  1.00  0.00    -0.119 A  
HETATM    8  C   UNL     1      -8.961   9.226  72.055  1.00  0.00     0.611 A  
HETATM    9  C   UNL     1      -8.801   9.305  70.668  1.00  0.00    -0.287 A  
BRANCH   5  10
HETATM   10  O   UNL     1      -7.017   6.078  70.139  1.00  0.00    -0.064 OA 
BRANCH  10  11
HETATM   11  C   UNL     1      -7.782   5.141  69.398  1.00  0.00    -0.076 C  
HETATM   12  C   UNL     1      -7.860   3.864  70.217  1.00  0.00    -0.047 C  
ENDBRANCH  10  11
ENDBRANCH   5  10
BRANCH   9  13
HETATM   13  C   UNL     1      -9.272  10.464  69.856  1.00  0.00     0.097 C  
HETATM   14  C   UNL     1      -9.934  10.379  68.680  1.00  0.00    -0.177 C  
HETATM   15  N   UNL     1     -10.216   9.135  68.111  1.00  0.00    -0.198 NA 
HETATM   16  C   UNL     1      -9.987   8.974  66.682  1.00  0.00    -0.278 C  
HETATM   17  H   UNL     1     -10.571   8.365  68.678  1.00  0.00     0.000 HD 
HETATM   18  C   UNL     1     -10.876   9.942  65.928  1.00  0.00     0.426 C  
HETATM   19  C   UNL     1     -10.846  11.329  66.536  1.00  0.00    -0.319 A  
HETATM   20  C   UNL     1     -11.349  12.376  65.746  1.00  0.00    -0.393 A  
HETATM   21  C   UNL     1     -11.431  13.683  66.228  1.00  0.00    -0.333 A  
HETATM   22  C   UNL     1     -10.997  13.942  67.541  1.00  0.00    -0.276 A  
HETATM   23  C   UNL     1     -10.493  12.880  68.337  1.00  0.00    -0.260 A  
HETATM   24  C   UNL     1     -10.407  11.558  67.860  1.00  0.00    -0.203 A  
BRANCH  21  25
HETATM   25  O   UNL     1     -11.926  14.708  65.468  1.00  0.00    -0.334 OA 
BRANCH  25  26
HETATM   26  C   UNL     1     -12.908  14.425  64.474  1.00  0.00     0.170 C  
HETATM   27  C   UNL     1     -12.212  13.738  63.312  1.00  0.00     0.039 C  
ENDBRANCH  25  26
ENDBRANCH  21  25
BRANCH  22  28
HETATM   28  O   UNL     1     -11.007  15.155  68.201  1.00  0.00    -0.267 OA 
BRANCH  28  29
HETATM   29  C   UNL     1     -11.479  16.303  67.495  1.00  0.00     0.168 C  
HETATM   30  C   UNL     1     -10.325  17.251  67.220  1.00  0.00    -0.331 C  
ENDBRANCH  28  29
ENDBRANCH  22  28
ENDBRANCH   9  13
ENDBRANCH   3   4
ENDBRANCH   2   3
TORSDOF 9
ENDMDL
MODEL      154
REMARK 921   NORMALIZED FREE ENERGY PREDICTED BY IDOCK:   -0.11 KCAL/MOL
REMARK 922        TOTAL FREE ENERGY PREDICTED BY IDOCK:   -1.05 KCAL/MOL
REMARK 923 INTER-LIGAND FREE ENERGY PREDICTED BY IDOCK:   -1.70 KCAL/MOL
REMARK 924 INTRA-LIGAND FREE ENERGY PREDICTED BY IDOCK:    0.66 KCAL/MOL
REMARK 927      BINDING AFFINITY PREDICTED BY RF-SCORE:    0.00 PKD
ROOT
HETATM    1  C   UNL     1     -10.086   2.476  62.507  1.00  0.00    -0.094 C  
HETATM    2  C   UNL     1      -8.823   3.304  62.331  1.00  0.00    -0.084 C  
ENDROOT
BRANCH   2   3
HETATM    3  O   UNL     1      -8.010   3.165  63.494  1.00  0.00    -0.078 OA 
BRANCH   3   4
HETATM    4  C   UNL     1      -7.917   4.223  64.366  1.00  0.00    -0.087 A  
HETATM    5  C   UNL     1      -8.742   4.542  65.462  1.00  0.00    -0.127 A  
HETATM    6  C   UNL     1      -6.836   5.060  64.074  1.00  0.00    -0.047 A  
HETATM    7  C   UNL     1      -8.475   5.709  66.212  1.00  0.00    -0.124 A  
HETATM    8  C   UNL     1      -6.584   6.208  64.830  1.00  0.00    -0.039 A  
HETATM    9  C   UNL     1      -7.424   6.580  65.885  1.00  0.00    -0.081 A  
BRANCH   5  10
HETATM   10  O   UNL     1      -9.784   3.701  65.747  1.00  0.00    -0.166 OA 
BRANCH  10  11
HETATM   11  C   UNL     1      -9.514   2.456  66.370  1.00  0.00     0.185 C  
HETATM   12  C   UNL     1      -9.030   2.744  67.780  1.00  0.00    -0.197 C  
ENDBRANCH  10  11
ENDBRANCH   5  10
BRANCH   9  13
HETATM   13  C   UNL     1      -7.239   7.833  66.673  1.00  0.00    -0.087 C  
HETATM   14  C   UNL     1      -7.808   9.027  66.390  1.00  0.00    -0.099 C  
HETATM   15  N   UNL     1      -8.630   9.176  65.271  1.00  0.00    -0.157 NA 
HETATM   16  C   UNL     1      -8.444  10.360  64.444  1.00  0.00    -0.163 C  
HETATM   17  H   UNL     1      -9.337   8.479  65.041  1.00  0.00     0.000 HD 
HETATM   18  C   UNL     1      -8.720  11.594  65.281  1.00  0.00     0.324 C  
HETATM   19  C   UNL     1      -8.051  11.519  66.637  1.00  0.00    -0.139 A  
HETATM   20  C   UNL     1      -7.950  12.720  67.359  1.00  0.00    -0.179 A  
HETATM   21  C   UNL     1      -7.412  12.759  68.646  1.00  0.00    -0.092 A  
HETATM   22  C   UNL     1      -6.966  11.556  69.222  1.00  0.00    -0.098 A  
HETATM   23  C   UNL     1      -7.073  10.344  68.491  1.00  0.00    -0.074 A  
HETATM   24  C   UNL     1      -7.615  10.295  67.192  1.00  0.00    -0.092 A  
BRANCH  21  25
HETATM   25  O   UNL     1      -7.316  13.923  69.359  1.00  0.00    -0.017 OA 
BRANCH  25  26
HETATM   26  C   UNL     1      -6.423  14.940  68.912  1.00  0.00    -0.088 C  
HETATM   27  C   UNL     1      -6.196  14.741  67.424  1.00  0.00     0.128 C  
ENDBRANCH  25  26
ENDBRANCH  21  25
BRANCH  22  28
HETATM   28  O   UNL     1      -6.418  11.382  70.478  1.00  0.00    -0.270 OA 
BRANCH  28  29
HETATM   29  C   UNL     1      -5.566  12.409  70.989  1.00  0.00    -0.061 C  
HETATM   30  C   UNL     1      -5.241  12.132  72.446  1.00  0.00     0.401 C  
ENDBRANCH  28  29
ENDBRANCH  22  28
ENDBRANCH   9  13
ENDBRANCH   3   4
ENDBRANCH   2   3
TORSDOF 9
ENDMDL
MODEL      155
REMARK 921   NORMALIZED FREE ENERGY PREDICTED BY IDOCK:    0.04 KCAL/MOL
REMARK 922        TOTAL FREE ENERGY PREDICTED BY IDOCK:   -0.83 KCAL/MOL
REMARK 923 INTER-LIGAND FREE ENERGY PREDICTED BY IDOCK:   -2.81 KCAL/MOL
REMARK 924 INTRA-LIGAND FREE ENERGY PREDICTED BY IDOCK:    1.99 KCAL/MOL
REMARK 927      BINDING AFFINITY PREDICTED BY RF-SCORE:    0.00 PKD
ROOT
HETATM    1  C   UNL     1      -5.339   3.671  72.278  1.00  0.00     0.000 C  
HETATM    2  C   UNL     1      -6.626   2.948  71.915  1.00  0.00    -0.015 C  
ENDROOT
BRANCH   2   3
HETATM    3  O   UNL     1      -7.143   3.496  70.706  1.00  0.00    -0.033 OA 
BRANCH   3   4
HETATM    4  C   UNL     1      -7.139   4.861  70.545  1.00  0.00    -0.052 A  
HETATM    5  C   UNL     1      -8.022   5.667  69.800  1.00  0.00    -0.098 A  
HETATM    6  C   UNL     1      -6.094   5.476  71.239  1.00  0.00    -0.033 A  
HETATM    7  C   UNL     1      -7.810   7.063  69.749  1.00  0.00    -0.115 A  
HETATM    8  C   UNL     1      -5.902   6.860  71.182  1.00  0.00    -0.035 A  
HETATM    9  C   UNL     1      -6.727   7.674  70.401  1.00  0.00    -0.042 A  
BRANCH   5  10
HETATM   10  O   UNL     1      -9.052   5.051  69.142  1.00  0.00    -0.095 OA 
BRANCH  10  11
HETATM   11  C   UNL     1      -9.270   5.345  67.772  1.00  0.00    -0.109 C  
HETATM   12  C   UNL     1     -10.690   5.866  67.634  1.00  0.00    -0.352 C  
ENDBRANCH  10  11
ENDBRANCH   5  10
BRANCH   9  13
HETATM   13  C   UNL     1      -6.518   9.144  70.249  1.00  0.00    -0.050 C  
HETATM   14  C   UNL     1      -7.346   9.989  69.594  1.00  0.00    -0.127 C  
HETATM   15  N   UNL     1      -8.499   9.512  68.966  1.00  0.00    -0.123 NA 
HETATM   16  C   UNL     1      -8.799  10.006  67.630  1.00  0.00    -0.121 C  
HETATM   17  H   UNL     1      -9.110   8.839  69.429  1.00  0.00     0.000 HD 
HETATM   18  C   UNL     1      -9.000  11.507  67.693  1.00  0.00    -0.160 C  
HETATM   19  C   UNL     1      -7.925  12.187  68.515  1.00  0.00    -0.119 A  
HETATM   20  C   UNL     1      -7.807  13.579  68.372  1.00  0.00    -0.143 A  
HETATM   21  C   UNL     1      -6.897  14.319  69.128  1.00  0.00    -0.120 A  
HETATM   22  C   UNL     1      -6.086  13.639  70.055  1.00  0.00    -0.137 A  
HETATM   23  C   UNL     1      -6.211  12.232  70.199  1.00  0.00    -0.048 A  
HETATM   24  C   UNL     1      -7.127  11.478  69.441  1.00  0.00    -0.037 A  
BRANCH  21  25
HETATM   25  O   UNL     1      -6.779  15.676  69.000  1.00  0.00    -0.116 OA 
BRANCH  25  26
HETATM   26  C   UNL     1      -6.662  16.244  67.697  1.00  0.00    -0.145 C  
HETATM   27  C   UNL     1      -5.192  16.527  67.442  1.00  0.00    -0.163 C  
ENDBRANCH  25  26
ENDBRANCH  21  25
BRANCH  22  28
HETATM   28  O   UNL     1      -5.139  14.186  70.898  1.00  0.00    -0.098 OA 
BRANCH  28  29
HETATM   29  C   UNL     1      -5.587  14.783  72.116  1.00  0.00     0.156 C  
HETATM   30  C   UNL     1      -5.160  13.929  73.298  1.00  0.00    -0.281 C  
ENDBRANCH  28  29
ENDBRANCH  22  28
ENDBRANCH   9  13
ENDBRANCH   3   4
ENDBRANCH   2   3
TORSDOF 9
ENDMDL
MODEL      156
REMARK 921   NORMALIZED FREE ENERGY PREDICTED BY IDOCK:    0.34 KCAL/MOL
REMARK 922        TOTAL FREE ENERGY PREDICTED BY IDOCK:   -0.36 KCAL/MOL
REMARK 923 INTER-LIGAND FREE ENERGY PREDICTED BY IDOCK:   -3.02 KCAL/MOL
REMARK 924 INTRA-LIGAND FREE ENERGY PREDICTED BY IDOCK:    2.67 KCAL/MOL
REMARK 927      BINDING AFFINITY PREDICTED BY RF-SCORE:    0.00 PKD
ROOT
HETATM    1  C   UNL     1      -9.167   6.333  67.353  1.00  0.00    -0.116 C  
HETATM    2  C   UNL     1      -9.135   7.747  67.912  1.00  0.00    -0.131 C  
ENDROOT
BRANCH   2   3
HETATM    3  O   UNL     1      -9.580   8.654  66.908  1.00  0.00    -0.163 OA 
BRANCH   3   4
HETATM    4  C   UNL     1      -9.320   9.994  67.065  1.00  0.00    -0.154 A  
HETATM    5  C   UNL     1      -8.099  10.629  67.366  1.00  0.00    -0.112 A  
HETATM    6  C   UNL     1     -10.461  10.782  66.888  1.00  0.00    -0.304 A  
HETATM    7  C   UNL     1      -8.068  12.034  67.512  1.00  0.00    -0.159 A  
HETATM    8  C   UNL     1     -10.410  12.172  67.031  1.00  0.00    -0.232 A  
HETATM    9  C   UNL     1      -9.224  12.821  67.391  1.00  0.00    -0.193 A  
BRANCH   5  10
HETATM   10  O   UNL     1      -6.988   9.844  67.516  1.00  0.00    -0.081 OA 
BRANCH  10  11
HETATM   11  C   UNL     1      -5.882  10.042  66.649  1.00  0.00    -0.055 C  
HETATM   12  C   UNL     1      -6.406  10.015  65.224  1.00  0.00    -0.107 C  
ENDBRANCH  10  11
ENDBRANCH   5  10
BRANCH   9  13
HETATM   13  C   UNL     1      -9.137  14.291  67.627  1.00  0.00    -0.192 C  
HETATM   14  C   UNL     1      -8.095  14.930  68.207  1.00  0.00    -0.132 C  
HETATM   15  N   UNL     1      -6.987  14.214  68.664  1.00  0.00    -0.100 NA 
HETATM   16  C   UNL     1      -6.446  14.561  69.971  1.00  0.00    -0.160 C  
HETATM   17  H   UNL     1      -6.570  13.473  68.101  1.00  0.00     0.000 HD 
HETATM   18  C   UNL     1      -5.978  16.002  69.944  1.00  0.00    -0.169 C  
HETATM   19  C   UNL     1      -6.995  16.915  69.292  1.00  0.00    -0.211 A  
HETATM   20  C   UNL     1      -6.834  18.294  69.506  1.00  0.00    -0.057 A  
HETATM   21  C   UNL     1      -7.672  19.232  68.902  1.00  0.00    -0.341 A  
HETATM   22  C   UNL     1      -8.698  18.769  68.058  1.00  0.00    -0.297 A  
HETATM   23  C   UNL     1      -8.855  17.375  67.841  1.00  0.00    -0.237 A  
HETATM   24  C   UNL     1      -8.014  16.421  68.446  1.00  0.00    -0.178 A  
BRANCH  21  25
HETATM   25  O   UNL     1      -7.519  20.577  69.099  1.00  0.00     0.248 OA 
BRANCH  25  26
HETATM   26  C   UNL     1      -6.584  21.295  68.297  1.00  0.00     0.232 C  
HETATM   27  C   UNL     1      -5.188  20.866  68.711  1.00  0.00    -0.364 C  
ENDBRANCH  25  26
ENDBRANCH  21  25
BRANCH  22  28
HETATM   28  O   UNL     1      -9.618  19.530  67.363  1.00  0.00    -0.313 OA 
BRANCH  28  29
HETATM   29  C   UNL     1      -9.584  20.948  67.532  1.00  0.00    -0.218 C  
HETATM   30  C   UNL     1     -10.117  21.318  68.905  1.00  0.00     1.277 C  
ENDBRANCH  28  29
ENDBRANCH  22  28
ENDBRANCH   9  13
ENDBRANCH   3   4
ENDBRANCH   2   3
TORSDOF 9
ENDMDL
MODEL      157
REMARK 921   NORMALIZED FREE ENERGY PREDICTED BY IDOCK:    1.21 KCAL/MOL
REMARK 922        TOTAL FREE ENERGY PREDICTED BY IDOCK:    0.97 KCAL/MOL
REMARK 923 INTER-LIGAND FREE ENERGY PREDICTED BY IDOCK:   -1.32 KCAL/MOL
REMARK 924 INTRA-LIGAND FREE ENERGY PREDICTED BY IDOCK:    2.30 KCAL/MOL
REMARK 927      BINDING AFFINITY PREDICTED BY RF-SCORE:    0.00 PKD
ROOT
HETATM    1  C   UNL     1      -8.962   5.942  72.107  1.00  0.00    -0.143 C  
HETATM    2  C   UNL     1      -9.894   6.257  70.948  1.00  0.00    -0.181 C  
ENDROOT
BRANCH   2   3
HETATM    3  O   UNL     1      -9.140   6.838  69.889  1.00  0.00    -0.144 OA 
BRANCH   3   4
HETATM    4  C   UNL     1      -8.946   8.198  69.883  1.00  0.00    -0.143 A  
HETATM    5  C   UNL     1      -9.513   9.177  70.723  1.00  0.00    -0.272 A  
HETATM    6  C   UNL     1      -8.053   8.605  68.888  1.00  0.00    -0.118 A  
HETATM    7  C   UNL     1      -9.191  10.537  70.516  1.00  0.00     1.390 A  
HETATM    8  C   UNL     1      -7.742   9.955  68.701  1.00  0.00    -0.081 A  
HETATM    9  C   UNL     1      -8.339  10.951  69.480  1.00  0.00     0.158 A  
BRANCH   5  10
HETATM   10  O   UNL     1     -10.370   8.760  71.705  1.00  0.00    -0.286 OA 
BRANCH  10  11
HETATM   11  C   UNL     1     -11.768   8.856  71.488  1.00  0.00    -0.324 C  
HETATM   12  C   UNL     1     -12.312   7.443  71.371  1.00  0.00    -0.394 C  
ENDBRANCH  10  11
ENDBRANCH   5  10
BRANCH   9  13
HETATM   13  C   UNL     1      -8.096  12.408  69.271  1.00  0.00     0.643 C  
HETATM   14  C   UNL     1      -7.080  13.117  69.813  1.00  0.00     0.487 C  
HETATM   15  N   UNL     1      -6.158  12.504  70.665  1.00  0.00    -0.521 NA 
HETATM   16  C   UNL     1      -5.783  13.210  71.881  1.00  0.00     0.410 C  
HETATM   17  H   UNL     1      -5.761  11.592  70.441  1.00  0.00     0.000 HD 
HETATM   18  C   UNL     1      -5.130  14.526  71.506  1.00  0.00    -0.150 C  
HETATM   19  C   UNL     1      -5.906  15.256  70.430  1.00  0.00    -0.117 A  
HETATM   20  C   UNL     1      -5.600  16.614  70.241  1.00  0.00    -0.193 A  
HETATM   21  C   UNL     1      -6.205  17.369  69.236  1.00  0.00    -0.238 A  
HETATM   22  C   UNL     1      -7.142  16.738  68.396  1.00  0.00    -0.173 A  
HETATM   23  C   UNL     1      -7.446  15.365  68.588  1.00  0.00    -0.130 A  
HETATM   24  C   UNL     1      -6.840  14.595  69.599  1.00  0.00    -0.163 A  
BRANCH  21  25
HETATM   25  O   UNL     1      -5.908  18.690  69.040  1.00  0.00    -0.206 OA 
BRANCH  25  26
HETATM   26  C   UNL     1      -6.957  19.595  68.705  1.00  0.00    -0.326 C  
HETATM   27  C   UNL     1      -7.511  20.168  69.997  1.00  0.00     0.503 C  
ENDBRANCH  25  26
ENDBRANCH  21  25
BRANCH  22  28
HETATM   28  O   UNL     1      -7.836  17.303  67.344  1.00  0.00    -0.176 OA 
BRANCH  28  29
HETATM   29  C   UNL     1      -7.220  17.308  66.055  1.00  0.00    -0.184 C  
HETATM   30  C   UNL     1      -6.170  18.403  65.989  1.00  0.00    -0.251 C  
ENDBRANCH  28  29
ENDBRANCH  22  28
ENDBRANCH   9  13
ENDBRANCH   3   4
ENDBRANCH   2   3
TORSDOF 9
ENDMDL
MODEL      158
REMARK 921   NORMALIZED FREE ENERGY PREDICTED BY IDOCK:    2.27 KCAL/MOL
REMARK 922        TOTAL FREE ENERGY PREDICTED BY IDOCK:    2.58 KCAL/MOL
REMARK 923 INTER-LIGAND FREE ENERGY PREDICTED BY IDOCK:    1.21 KCAL/MOL
REMARK 924 INTRA-LIGAND FREE ENERGY PREDICTED BY IDOCK:    1.37 KCAL/MOL
REMARK 927      BINDING AFFINITY PREDICTED BY RF-SCORE:    0.00 PKD
ROOT
HETATM    1  C   UNL     1      -8.738   6.309  67.161  1.00  0.00    -0.109 C  
HETATM    2  C   UNL     1      -8.856   7.603  67.951  1.00  0.00    -0.126 C  
ENDROOT
BRANCH   2   3
HETATM    3  O   UNL     1      -9.975   8.341  67.470  1.00  0.00    -0.164 OA 
BRANCH   3   4
HETATM    4  C   UNL     1     -10.004   9.701  67.666  1.00  0.00    -0.174 A  
HETATM    5  C   UNL     1     -10.739  10.444  68.610  1.00  0.00    -0.218 A  
HETATM    6  C   UNL     1      -9.169  10.384  66.777  1.00  0.00    -0.176 A  
HETATM    7  C   UNL     1     -10.637  11.853  68.613  1.00  0.00    -0.259 A  
HETATM    8  C   UNL     1      -9.077  11.779  66.798  1.00  0.00    -0.194 A  
HETATM    9  C   UNL     1      -9.843  12.543  67.684  1.00  0.00    -0.202 A  
BRANCH   5  10
HETATM   10  O   UNL     1     -11.536   9.758  69.486  1.00  0.00    -0.090 OA 
BRANCH  10  11
HETATM   11  C   UNL     1     -10.982   9.300  70.709  1.00  0.00    -0.284 C  
HETATM   12  C   UNL     1     -12.135   8.918  71.620  1.00  0.00    -0.415 C  
ENDBRANCH  10  11
ENDBRANCH   5  10
BRANCH   9  13
HETATM   13  C   UNL     1      -9.834  14.035  67.694  1.00  0.00    -0.233 C  
HETATM   14  C   UNL     1     -10.157  14.812  68.753  1.00  0.00    -0.237 C  
HETATM   15  N   UNL     1     -10.560  14.238  69.961  1.00  0.00    -0.371 NA 
HETATM   16  C   UNL     1     -11.709  14.820  70.639  1.00  0.00    -0.297 C  
HETATM   17  H   UNL     1     -10.066  13.438  70.354  1.00  0.00     0.000 HD 
HETATM   18  C   UNL     1     -11.395  16.260  70.994  1.00  0.00    -0.315 C  
HETATM   19  C   UNL     1     -10.758  17.002  69.838  1.00  0.00     0.098 A  
HETATM   20  C   UNL     1     -10.731  18.403  69.924  1.00  0.00     1.552 A  
HETATM   21  C   UNL     1     -10.112  19.186  68.949  1.00  0.00    -0.354 A  
HETATM   22  C   UNL     1      -9.501  18.540  67.859  1.00  0.00    -0.296 A  
HETATM   23  C   UNL     1      -9.527  17.123  67.777  1.00  0.00    -0.253 A  
HETATM   24  C   UNL     1     -10.149  16.325  68.756  1.00  0.00    -0.243 A  
BRANCH  21  25
HETATM   25  O   UNL     1     -10.076  20.552  69.028  1.00  0.00    -0.009 OA 
BRANCH  25  26
HETATM   26  C   UNL     1      -8.910  21.187  69.547  1.00  0.00     3.386 C  
HETATM   27  C   UNL     1      -7.724  20.277  69.279  1.00  0.00     0.353 C  
ENDBRANCH  25  26
ENDBRANCH  21  25
BRANCH  22  28
HETATM   28  O   UNL     1      -8.832  19.129  66.804  1.00  0.00    -0.288 OA 
BRANCH  28  29
HETATM   29  C   UNL     1      -8.724  18.398  65.582  1.00  0.00     0.737 C  
HETATM   30  C   UNL     1      -7.572  17.411  65.671  1.00  0.00     0.393 C  
ENDBRANCH  28  29
ENDBRANCH  22  28
ENDBRANCH   9  13
ENDBRANCH   3   4
ENDBRANCH   2   3
TORSDOF 9
ENDMDL
MODEL      159
REMARK 921   NORMALIZED FREE ENERGY PREDICTED BY IDOCK:    2.48 KCAL/MOL
REMARK 922        TOTAL FREE ENERGY PREDICTED BY IDOCK:    2.91 KCAL/MOL
REMARK 923 INTER-LIGAND FREE ENERGY PREDICTED BY IDOCK:    0.09 KCAL/MOL
REMARK 924 INTRA-LIGAND FREE ENERGY PREDICTED BY IDOCK:    2.82 KCAL/MOL
REMARK 927      BINDING AFFINITY PREDICTED BY RF-SCORE:    0.00 PKD
ROOT
HETATM    1  C   UNL     1      -5.892   5.318  72.019  1.00  0.00    -0.021 C  
HETATM    2  C   UNL     1      -5.318   6.486  71.232  1.00  0.00    -0.026 C  
ENDROOT
BRANCH   2   3
HETATM    3  O   UNL     1      -6.170   6.763  70.124  1.00  0.00    -0.033 OA 
BRANCH   3   4
HETATM    4  C   UNL     1      -6.799   7.983  70.062  1.00  0.00    -0.041 A  
HETATM    5  C   UNL     1      -8.167   8.282  70.208  1.00  0.00    -0.121 A  
HETATM    6  C   UNL     1      -5.905   9.031  69.821  1.00  0.00    -0.032 A  
HETATM    7  C   UNL     1      -8.601   9.620  70.076  1.00  0.00    -0.237 A  
HETATM    8  C   UNL     1      -6.352  10.350  69.699  1.00  0.00    -0.068 A  
HETATM    9  C   UNL     1      -7.712  10.665  69.777  1.00  0.00    -0.018 A  
BRANCH   5  10
HETATM   10  O   UNL     1      -9.026   7.248  70.464  1.00  0.00    -0.152 OA 
BRANCH  10  11
HETATM   11  C   UNL     1      -8.881   6.513  71.669  1.00  0.00    -0.135 C  
HETATM   12  C   UNL     1      -7.931   7.286  72.566  1.00  0.00    -0.110 C  
ENDBRANCH  10  11
ENDBRANCH   5  10
BRANCH   9  13
HETATM   13  C   UNL     1      -8.245  12.044  69.580  1.00  0.00     1.064 C  
HETATM   14  C   UNL     1      -7.544  13.090  69.086  1.00  0.00     0.254 C  
HETATM   15  N   UNL     1      -6.201  12.944  68.730  1.00  0.00    -0.070 NA 
HETATM   16  C   UNL     1      -5.272  13.988  69.138  1.00  0.00    -0.074 C  
HETATM   17  H   UNL     1      -5.883  12.131  68.203  1.00  0.00     0.000 HD 
HETATM   18  C   UNL     1      -5.689  15.296  68.497  1.00  0.00    -0.095 C  
HETATM   19  C   UNL     1      -7.180  15.536  68.618  1.00  0.00    -0.123 A  
HETATM   20  C   UNL     1      -7.632  16.842  68.371  1.00  0.00    -0.209 A  
HETATM   21  C   UNL     1      -8.989  17.165  68.389  1.00  0.00    -0.259 A  
HETATM   22  C   UNL     1      -9.917  16.142  68.662  1.00  0.00    -0.228 A  
HETATM   23  C   UNL     1      -9.456  14.822  68.907  1.00  0.00    -0.191 A  
HETATM   24  C   UNL     1      -8.089  14.488  68.890  1.00  0.00    -0.124 A  
BRANCH  21  25
HETATM   25  O   UNL     1      -9.439  18.433  68.144  1.00  0.00    -0.289 OA 
BRANCH  25  26
HETATM   26  C   UNL     1     -10.080  19.158  69.190  1.00  0.00    -0.198 C  
HETATM   27  C   UNL     1      -9.621  18.572  70.514  1.00  0.00     2.597 C  
ENDBRANCH  25  26
ENDBRANCH  21  25
BRANCH  22  28
HETATM   28  O   UNL     1     -11.292  16.253  68.715  1.00  0.00    -0.350 OA 
BRANCH  28  29
HETATM   29  C   UNL     1     -12.007  15.364  69.575  1.00  0.00    -0.334 C  
HETATM   30  C   UNL     1     -12.284  16.044  70.905  1.00  0.00    -0.291 C  
ENDBRANCH  28  29
ENDBRANCH  22  28
ENDBRANCH   9  13
ENDBRANCH   3   4
ENDBRANCH   2   3
TORSDOF 9
ENDMDL
MODEL      160
REMARK 921   NORMALIZED FREE ENERGY PREDICTED BY IDOCK:    2.54 KCAL/MOL
REMARK 922        TOTAL FREE ENERGY PREDICTED BY IDOCK:    2.99 KCAL/MOL
REMARK 923 INTER-LIGAND FREE ENERGY PREDICTED BY IDOCK:   -1.61 KCAL/MOL
REMARK 924 INTRA-LIGAND FREE ENERGY PREDICTED BY IDOCK:    4.60 KCAL/MOL
REMARK 927      BINDING AFFINITY PREDICTED BY RF-SCORE:    0.00 PKD
ROOT
HETATM    1  C   UNL     1     -11.014  18.118  73.345  1.00  0.00     2.326 C  
HETATM    2  C   UNL     1     -11.592  16.791  72.879  1.00  0.00     0.260 C  
ENDROOT
BRANCH   2   3
HETATM    3  O   UNL     1     -11.678  16.795  71.457  1.00  0.00    -0.135 OA 
BRANCH   3   4
HETATM    4  C   UNL     1     -11.407  15.633  70.775  1.00  0.00    -0.371 A  
HETATM    5  C   UNL     1     -11.909  14.336  71.000  1.00  0.00    -0.237 A  
HETATM    6  C   UNL     1     -10.505  15.830  69.726  1.00  0.00    -0.318 A  
HETATM    7  C   UNL     1     -11.466  13.271  70.185  1.00  0.00    -0.038 A  
HETATM    8  C   UNL     1     -10.081  14.765  68.926  1.00  0.00    -0.237 A  
HETATM    9  C   UNL     1     -10.516  13.459  69.167  1.00  0.00     0.034 A  
BRANCH   5  10
HETATM   10  O   UNL     1     -12.808  14.165  72.018  1.00  0.00    -0.330 OA 
BRANCH  10  11
HETATM   11  C   UNL     1     -13.698  15.221  72.338  1.00  0.00    -0.519 C  
HETATM   12  C   UNL     1     -13.351  15.708  73.734  1.00  0.00    -0.150 C  
ENDBRANCH  10  11
ENDBRANCH   5  10
BRANCH   9  13
HETATM   13  C   UNL     1     -10.036  12.280  68.389  1.00  0.00    -0.215 C  
HETATM   14  C   UNL     1      -8.740  11.946  68.194  1.00  0.00    -0.173 C  
HETATM   15  N   UNL     1      -7.715  12.737  68.718  1.00  0.00    -0.297 NA 
HETATM   16  C   UNL     1      -6.578  13.034  67.857  1.00  0.00    -0.131 C  
HETATM   17  H   UNL     1      -7.761  13.095  69.671  1.00  0.00     0.000 HD 
HETATM   18  C   UNL     1      -5.895  11.735  67.478  1.00  0.00    -0.088 C  
HETATM   19  C   UNL     1      -6.890  10.674  67.059  1.00  0.00    -0.091 A  
HETATM   20  C   UNL     1      -6.376   9.561  66.374  1.00  0.00    -0.069 A  
HETATM   21  C   UNL     1      -7.188   8.491  65.997  1.00  0.00    -0.077 A  
HETATM   22  C   UNL     1      -8.557   8.543  66.321  1.00  0.00    -0.129 A  
HETATM   23  C   UNL     1      -9.072   9.668  67.017  1.00  0.00    -0.154 A  
HETATM   24  C   UNL     1      -8.259  10.751  67.401  1.00  0.00    -0.116 A  
BRANCH  21  25
HETATM   25  O   UNL     1      -6.695   7.400  65.336  1.00  0.00    -0.047 OA 
BRANCH  25  26
HETATM   26  C   UNL     1      -6.947   7.261  63.940  1.00  0.00    -0.058 C  
HETATM   27  C   UNL     1      -6.542   8.558  63.261  1.00  0.00    -0.086 C  
ENDBRANCH  25  26
ENDBRANCH  21  25
BRANCH  22  28
HETATM   28  O   UNL     1      -9.518   7.589  66.050  1.00  0.00    -0.085 OA 
BRANCH  28  29
HETATM   29  C   UNL     1      -9.188   6.217  66.274  1.00  0.00    -0.145 C  
HETATM   30  C   UNL     1     -10.271   5.324  65.694  1.00  0.00     0.067 C  
ENDBRANCH  28  29
ENDBRANCH  22  28
ENDBRANCH   9  13
ENDBRANCH   3   4
ENDBRANCH   2   3
TORSDOF 9
ENDMDL
MODEL      161
REMARK 921   NORMALIZED FREE ENERGY PREDICTED BY IDOCK:    4.85 KCAL/MOL
REMARK 922        TOTAL FREE ENERGY PREDICTED BY IDOCK:    6.52 KCAL/MOL
REMARK 923 INTER-LIGAND FREE ENERGY PREDICTED BY IDOCK:    2.07 KCAL/MOL
REMARK 924 INTRA-LIGAND FREE ENERGY PREDICTED BY IDOCK:    4.44 KCAL/MOL
REMARK 927      BINDING AFFINITY PREDICTED BY RF-SCORE:    0.00 PKD
ROOT
HETATM    1  C   UNL     1     -10.456   2.279  73.845  1.00  0.00    -0.211 C  
HETATM    2  C   UNL     1     -10.444   3.725  73.371  1.00  0.00    -0.176 C  
ENDROOT
BRANCH   2   3
HETATM    3  O   UNL     1      -9.920   3.776  72.048  1.00  0.00    -0.168 OA 
BRANCH   3   4
HETATM    4  C   UNL     1     -10.000   4.958  71.351  1.00  0.00    -0.197 A  
HETATM    5  C   UNL     1     -10.613   6.168  71.727  1.00  0.00    -0.223 A  
HETATM    6  C   UNL     1      -9.365   4.886  70.107  1.00  0.00    -0.217 A  
HETATM    7  C   UNL     1     -10.599   7.260  70.830  1.00  0.00    -0.234 A  
HETATM    8  C   UNL     1      -9.356   5.978  69.234  1.00  0.00    -0.146 A  
HETATM    9  C   UNL     1     -10.011   7.170  69.558  1.00  0.00    -0.165 A  
BRANCH   5  10
HETATM   10  O   UNL     1     -11.212   6.228  72.956  1.00  0.00    -0.234 OA 
BRANCH  10  11
HETATM   11  C   UNL     1     -12.627   6.295  73.032  1.00  0.00     1.202 C  
HETATM   12  C   UNL     1     -13.144   4.879  73.219  1.00  0.00     2.125 C  
ENDBRANCH  10  11
ENDBRANCH   5  10
BRANCH   9  13
HETATM   13  C   UNL     1     -10.093   8.336  68.631  1.00  0.00    -0.212 C  
HETATM   14  C   UNL     1      -9.201   8.624  67.656  1.00  0.00    -0.134 C  
HETATM   15  N   UNL     1      -8.078   7.818  67.458  1.00  0.00    -0.122 NA 
HETATM   16  C   UNL     1      -6.798   8.478  67.242  1.00  0.00    -0.067 C  
HETATM   17  H   UNL     1      -8.151   6.801  67.465  1.00  0.00     0.000 HD 
HETATM   18  C   UNL     1      -6.883   9.319  65.983  1.00  0.00    -0.088 C  
HETATM   19  C   UNL     1      -8.159  10.132  65.932  1.00  0.00    -0.136 A  
HETATM   20  C   UNL     1      -8.200  11.186  65.005  1.00  0.00     0.303 A  
HETATM   21  C   UNL     1      -9.347  11.960  64.824  1.00  0.00     0.161 A  
HETATM   22  C   UNL     1     -10.484  11.664  65.598  1.00  0.00    -0.268 A  
HETATM   23  C   UNL     1     -10.440  10.596  66.532  1.00  0.00    -0.285 A  
HETATM   24  C   UNL     1      -9.288   9.809  66.720  1.00  0.00    -0.190 A  
BRANCH  21  25
HETATM   25  O   UNL     1      -9.398  12.984  63.918  1.00  0.00     0.499 OA 
BRANCH  25  26
HETATM   26  C   UNL     1      -9.435  14.329  64.391  1.00  0.00     2.433 C  
HETATM   27  C   UNL     1     -10.837  14.605  64.903  1.00  0.00    -0.436 C  
ENDBRANCH  25  26
ENDBRANCH  21  25
BRANCH  22  28
HETATM   28  O   UNL     1     -11.710  12.299  65.562  1.00  0.00    -0.376 OA 
BRANCH  28  29
HETATM   29  C   UNL     1     -12.555  12.069  64.434  1.00  0.00    -0.193 C  
HETATM   30  C   UNL     1     -12.600  13.310  63.559  1.00  0.00    -0.172 C  
ENDBRANCH  28  29
ENDBRANCH  22  28
ENDBRANCH   9  13
ENDBRANCH   3   4
ENDBRANCH   2   3
TORSDOF 9
ENDMDL
MODEL      162
REMARK 921   NORMALIZED FREE ENERGY PREDICTED BY IDOCK:    5.53 KCAL/MOL
REMARK 922        TOTAL FREE ENERGY PREDICTED BY IDOCK:    7.56 KCAL/MOL
REMARK 923 INTER-LIGAND FREE ENERGY PREDICTED BY IDOCK:    7.42 KCAL/MOL
REMARK 924 INTRA-LIGAND FREE ENERGY PREDICTED BY IDOCK:    0.14 KCAL/MOL
REMARK 927      BINDING AFFINITY PREDICTED BY RF-SCORE:    0.00 PKD
ROOT
HETATM    1  C   UNL     1     -11.237   3.543  74.104  1.00  0.00     0.104 C  
HETATM    2  C   UNL     1     -10.762   4.094  72.769  1.00  0.00    -0.114 C  
ENDROOT
BRANCH   2   3
HETATM    3  O   UNL     1      -9.642   4.946  72.990  1.00  0.00    -0.135 OA 
BRANCH   3   4
HETATM    4  C   UNL     1      -9.357   5.918  72.061  1.00  0.00    -0.150 A  
HETATM    5  C   UNL     1      -8.229   6.757  71.974  1.00  0.00    -0.104 A  
HETATM    6  C   UNL     1     -10.362   6.043  71.096  1.00  0.00    -0.267 A  
HETATM    7  C   UNL     1      -8.158   7.717  70.940  1.00  0.00    -0.102 A  
HETATM    8  C   UNL     1     -10.272   6.995  70.077  1.00  0.00    -0.206 A  
HETATM    9  C   UNL     1      -9.193   7.881  70.005  1.00  0.00    -0.153 A  
BRANCH   5  10
HETATM   10  O   UNL     1      -7.246   6.608  72.915  1.00  0.00    -0.080 OA 
BRANCH  10  11
HETATM   11  C   UNL     1      -6.729   5.313  73.173  1.00  0.00    -0.076 C  
HETATM   12  C   UNL     1      -5.261   5.319  72.787  1.00  0.00    -0.016 C  
ENDBRANCH  10  11
ENDBRANCH   5  10
BRANCH   9  13
HETATM   13  C   UNL     1      -9.089   8.961  68.981  1.00  0.00    -0.137 C  
HETATM   14  C   UNL     1     -10.029   9.902  68.737  1.00  0.00    -0.173 C  
HETATM   15  N   UNL     1     -11.230   9.910  69.451  1.00  0.00    -0.378 NA 
HETATM   16  C   UNL     1     -12.462  10.123  68.706  1.00  0.00     1.682 C  
HETATM   17  H   UNL     1     -11.242   9.770  70.461  1.00  0.00     0.000 HD 
HETATM   18  C   UNL     1     -12.409  11.487  68.046  1.00  0.00     0.656 C  
HETATM   19  C   UNL     1     -11.076  11.737  67.371  1.00  0.00    -0.338 A  
HETATM   20  C   UNL     1     -11.022  12.799  66.454  1.00  0.00    -0.305 A  
HETATM   21  C   UNL     1      -9.832  13.162  65.821  1.00  0.00    -0.203 A  
HETATM   22  C   UNL     1      -8.665  12.437  66.123  1.00  0.00     0.202 A  
HETATM   23  C   UNL     1      -8.723  11.366  67.053  1.00  0.00    -0.160 A  
HETATM   24  C   UNL     1      -9.919  10.993  67.696  1.00  0.00    -0.196 A  
BRANCH  21  25
HETATM   25  O   UNL     1      -9.769  14.200  64.932  1.00  0.00    -0.085 OA 
BRANCH  25  26
HETATM   26  C   UNL     1      -8.603  15.020  64.903  1.00  0.00     4.751 C  
HETATM   27  C   UNL     1      -8.717  16.034  66.027  1.00  0.00    -0.267 C  
ENDBRANCH  25  26
ENDBRANCH  21  25
BRANCH  22  28
HETATM   28  O   UNL     1      -7.397  12.644  65.617  1.00  0.00     2.370 OA 
BRANCH  28  29
HETATM   29  C   UNL     1      -6.289  12.545  66.514  1.00  0.00     1.173 C  
HETATM   30  C   UNL     1      -6.247  13.763  67.421  1.00  0.00     0.130 C  
ENDBRANCH  28  29
ENDBRANCH  22  28
ENDBRANCH   9  13
ENDBRANCH   3   4
ENDBRANCH   2   3
TORSDOF 9
ENDMDL
MODEL      163
REMARK 921   NORMALIZED FREE ENERGY PREDICTED BY IDOCK:    9.63 KCAL/MOL
REMARK 922        TOTAL FREE ENERGY PREDICTED BY IDOCK:   13.81 KCAL/MOL
REMARK 923 INTER-LIGAND FREE ENERGY PREDICTED BY IDOCK:    9.73 KCAL/MOL
REMARK 924 INTRA-LIGAND FREE ENERGY PREDICTED BY IDOCK:    4.09 KCAL/MOL
REMARK 927      BINDING AFFINITY PREDICTED BY RF-SCORE:    0.00 PKD
ROOT
HETATM    1  C   UNL     1      -9.435  20.374  70.330  1.00  0.00     1.348 C  
HETATM    2  C   UNL     1      -8.300  21.249  70.839  1.00  0.00     5.057 C  
ENDROOT
BRANCH   2   3
HETATM    3  O   UNL     1      -7.083  20.512  70.784  1.00  0.00     0.031 OA 
BRANCH   3   4
HETATM    4  C   UNL     1      -7.058  19.328  70.086  1.00  0.00     0.389 A  
HETATM    5  C   UNL     1      -6.722  19.103  68.737  1.00  0.00    -0.296 A  
HETATM    6  C   UNL     1      -7.424  18.236  70.878  1.00  0.00     4.129 A  
HETATM    7  C   UNL     1      -6.795  17.792  68.215  1.00  0.00    -0.213 A  
HETATM    8  C   UNL     1      -7.485  16.944  70.345  1.00  0.00     2.381 A  
HETATM    9  C   UNL     1      -7.217  16.703  68.995  1.00  0.00    -0.222 A  
BRANCH   5  10
HETATM   10  O   UNL     1      -6.346  20.180  67.981  1.00  0.00    -0.236 OA 
BRANCH  10  11
HETATM   11  C   UNL     1      -6.524  20.132  66.575  1.00  0.00    -0.203 C  
HETATM   12  C   UNL     1      -6.039  18.774  66.098  1.00  0.00    -0.207 C  
ENDBRANCH  10  11
ENDBRANCH   5  10
BRANCH   9  13
HETATM   13  C   UNL     1      -7.340  15.357  68.364  1.00  0.00    -0.114 C  
HETATM   14  C   UNL     1      -8.378  14.941  67.603  1.00  0.00    -0.167 C  
HETATM   15  N   UNL     1      -9.467  15.782  67.364  1.00  0.00    -0.211 NA 
HETATM   16  C   UNL     1     -10.803  15.211  67.471  1.00  0.00    -0.301 C  
HETATM   17  H   UNL     1      -9.331  16.763  67.123  1.00  0.00     0.000 HD 
HETATM   18  C   UNL     1     -10.949  14.106  66.445  1.00  0.00    -0.311 C  
HETATM   19  C   UNL     1      -9.746  13.187  66.427  1.00  0.00    -0.269 A  
HETATM   20  C   UNL     1      -9.902  11.953  65.775  1.00  0.00    -0.262 A  
HETATM   21  C   UNL     1      -8.843  11.055  65.640  1.00  0.00    -0.178 A  
HETATM   22  C   UNL     1      -7.591  11.411  66.174  1.00  0.00     0.104 A  
HETATM   23  C   UNL     1      -7.435  12.661  66.828  1.00  0.00     0.302 A  
HETATM   24  C   UNL     1      -8.499  13.573  66.969  1.00  0.00    -0.137 A  
BRANCH  21  25
HETATM   25  O   UNL     1      -8.984   9.854  65.001  1.00  0.00    -0.170 OA 
BRANCH  25  26
HETATM   26  C   UNL     1      -9.542   8.750  65.711  1.00  0.00    -0.120 C  
HETATM   27  C   UNL     1      -8.430   8.101  66.514  1.00  0.00    -0.132 C  
ENDBRANCH  25  26
ENDBRANCH  21  25
BRANCH  22  28
HETATM   28  O   UNL     1      -6.424  10.673  66.134  1.00  0.00    -0.112 OA 
BRANCH  28  29
HETATM   29  C   UNL     1      -5.364  11.041  67.019  1.00  0.00    -0.059 C  
HETATM   30  C   UNL     1      -5.709  12.341  67.726  1.00  0.00    -0.097 C  
ENDBRANCH  28  29
ENDBRANCH  22  28
ENDBRANCH   9  13
ENDBRANCH   3   4
ENDBRANCH   2   3
TORSDOF 9
ENDMDL
MODEL      164
REMARK 921   NORMALIZED FREE ENERGY PREDICTED BY IDOCK:   12.42 KCAL/MOL
REMARK 922        TOTAL FREE ENERGY PREDICTED BY IDOCK:   18.07 KCAL/MOL
REMARK 923 INTER-LIGAND FREE ENERGY PREDICTED BY IDOCK:   17.97 KCAL/MOL
REMARK 924 INTRA-LIGAND FREE ENERGY PREDICTED BY IDOCK:    0.11 KCAL/MOL
REMARK 927      BINDING AFFINITY PREDICTED BY RF-SCORE:    0.00 PKD
ROOT
HETATM    1  C   UNL     1     -13.118   8.274  68.182  1.00  0.00    12.840 C  
HETATM    2  C   UNL     1     -13.811   8.991  69.329  1.00  0.00     6.781 C  
ENDROOT
BRANCH   2   3
HETATM    3  O   UNL     1     -12.833   9.402  70.280  1.00  0.00     0.303 OA 
BRANCH   3   4
HETATM    4  C   UNL     1     -11.943  10.389  69.928  1.00  0.00    -0.215 A  
HETATM    5  C   UNL     1     -10.535  10.356  69.937  1.00  0.00    -0.218 A  
HETATM    6  C   UNL     1     -12.584  11.560  69.514  1.00  0.00     0.121 A  
HETATM    7  C   UNL     1      -9.813  11.510  69.559  1.00  0.00     0.556 A  
HETATM    8  C   UNL     1     -11.853  12.691  69.138  1.00  0.00    -0.349 A  
HETATM    9  C   UNL     1     -10.457  12.704  69.197  1.00  0.00     0.081 A  
BRANCH   5  10
HETATM   10  O   UNL     1      -9.924   9.195  70.326  1.00  0.00    -0.182 OA 
BRANCH  10  11
HETATM   11  C   UNL     1      -9.345   9.120  71.619  1.00  0.00    -0.062 C  
HETATM   12  C   UNL     1     -10.111   8.070  72.404  1.00  0.00    -0.332 C  
ENDBRANCH  10  11
ENDBRANCH   5  10
BRANCH   9  13
HETATM   13  C   UNL     1      -9.637  13.909  68.877  1.00  0.00     0.021 C  
HETATM   14  C   UNL     1      -8.451  13.899  68.226  1.00  0.00    -0.169 C  
HETATM   15  N   UNL     1      -7.879  12.695  67.809  1.00  0.00    -0.139 NA 
HETATM   16  C   UNL     1      -6.454  12.504  68.039  1.00  0.00    -0.087 C  
HETATM   17  H   UNL     1      -8.441  11.973  67.358  1.00  0.00     0.000 HD 
HETATM   18  C   UNL     1      -5.686  13.568  67.280  1.00  0.00     0.367 C  
HETATM   19  C   UNL     1      -6.293  14.943  67.464  1.00  0.00    -0.071 A  
HETATM   20  C   UNL     1      -5.495  16.040  67.098  1.00  0.00     0.087 A  
HETATM   21  C   UNL     1      -5.974  17.349  67.163  1.00  0.00    -0.143 A  
HETATM   22  C   UNL     1      -7.293  17.559  67.605  1.00  0.00    -0.181 A  
HETATM   23  C   UNL     1      -8.097  16.448  67.970  1.00  0.00    -0.159 A  
HETATM   24  C   UNL     1      -7.623  15.123  67.908  1.00  0.00    -0.151 A  
BRANCH  21  25
HETATM   25  O   UNL     1      -5.207  18.423  66.803  1.00  0.00    -0.133 OA 
BRANCH  25  26
HETATM   26  C   UNL     1      -5.837  19.566  66.230  1.00  0.00    -0.166 C  
HETATM   27  C   UNL     1      -6.080  19.278  64.760  1.00  0.00    -0.306 C  
ENDBRANCH  25  26
ENDBRANCH  21  25
BRANCH  22  28
HETATM   28  O   UNL     1      -7.952  18.766  67.729  1.00  0.00    -0.248 OA 
BRANCH  28  29
HETATM   29  C   UNL     1      -8.176  19.280  69.042  1.00  0.00    -0.239 C  
HETATM   30  C   UNL     1      -9.281  20.322  69.008  1.00  0.00     0.361 C  
ENDBRANCH  28  29
ENDBRANCH  22  28
ENDBRANCH   9  13
ENDBRANCH   3   4
ENDBRANCH   2   3
TORSDOF 9
ENDMDL
MODEL      165
REMARK 921   NORMALIZED FREE ENERGY PREDICTED BY IDOCK:   20.59 KCAL/MOL
REMARK 922        TOTAL FREE ENERGY PREDICTED BY IDOCK:   30.54 KCAL/MOL
REMARK 923 INTER-LIGAND FREE ENERGY PREDICTED BY IDOCK:   30.42 KCAL/MOL
REMARK 924 INTRA-LIGAND FREE ENERGY PREDICTED BY IDOCK:    0.12 KCAL/MOL
REMARK 927      BINDING AFFINITY PREDICTED BY RF-SCORE:    0.00 PKD
ROOT
HETATM    1  C   UNL     1     -12.716   9.390  66.238  1.00  0.00    13.471 C  
HETATM    2  C   UNL     1     -13.642  10.019  67.267  1.00  0.00    16.734 C  
ENDROOT
BRANCH   2   3
HETATM    3  O   UNL     1     -12.899  10.300  68.450  1.00  0.00     1.880 OA 
BRANCH   3   4
HETATM    4  C   UNL     1     -11.993  11.332  68.432  1.00  0.00    -0.185 A  
HETATM    5  C   UNL     1     -10.605  11.296  68.672  1.00  0.00    -0.202 A  
HETATM    6  C   UNL     1     -12.589  12.559  68.127  1.00  0.00     1.167 A  
HETATM    7  C   UNL     1      -9.864  12.498  68.630  1.00  0.00    -0.083 A  
HETATM    8  C   UNL     1     -11.838  13.738  68.084  1.00  0.00    -0.411 A  
HETATM    9  C   UNL     1     -10.472  13.738  68.379  1.00  0.00    -0.256 A  
BRANCH   5  10
HETATM   10  O   UNL     1     -10.034  10.083  68.950  1.00  0.00    -0.175 OA 
BRANCH  10  11
HETATM   11  C   UNL     1      -9.724   9.206  67.879  1.00  0.00    -0.154 C  
HETATM   12  C   UNL     1      -8.519   9.776  67.152  1.00  0.00    -0.125 C  
ENDBRANCH  10  11
ENDBRANCH   5  10
BRANCH   9  13
HETATM   13  C   UNL     1      -9.645  14.979  68.419  1.00  0.00    -0.212 C  
HETATM   14  C   UNL     1      -8.429  15.128  67.845  1.00  0.00    -0.149 C  
HETATM   15  N   UNL     1      -7.830  14.068  67.161  1.00  0.00    -0.361 NA 
HETATM   16  C   UNL     1      -6.416  13.816  67.403  1.00  0.00     0.084 C  
HETATM   17  H   UNL     1      -8.365  13.489  66.514  1.00  0.00     0.000 HD 
HETATM   18  C   UNL     1      -5.619  15.034  66.980  1.00  0.00     1.002 C  
HETATM   19  C   UNL     1      -6.243  16.319  67.481  1.00  0.00    -0.186 A  
HETATM   20  C   UNL     1      -5.435  17.468  67.447  1.00  0.00    -0.153 A  
HETATM   21  C   UNL     1      -5.925  18.720  67.821  1.00  0.00    -0.189 A  
HETATM   22  C   UNL     1      -7.265  18.818  68.238  1.00  0.00    -0.260 A  
HETATM   23  C   UNL     1      -8.079  17.656  68.267  1.00  0.00    -0.278 A  
HETATM   24  C   UNL     1      -7.594  16.389  67.891  1.00  0.00    -0.158 A  
BRANCH  21  25
HETATM   25  O   UNL     1      -5.148  19.845  67.786  1.00  0.00    -0.174 OA 
BRANCH  25  26
HETATM   26  C   UNL     1      -5.631  21.003  67.108  1.00  0.00    -0.243 C  
HETATM   27  C   UNL     1      -5.326  20.840  65.630  1.00  0.00    -0.234 C  
ENDBRANCH  25  26
ENDBRANCH  21  25
BRANCH  22  28
HETATM   28  O   UNL     1      -7.937  19.958  68.635  1.00  0.00    -0.267 OA 
BRANCH  28  29
HETATM   29  C   UNL     1      -9.360  19.895  68.750  1.00  0.00    -0.136 C  
HETATM   30  C   UNL     1      -9.746  19.502  70.166  1.00  0.00     0.672 C  
ENDBRANCH  28  29
ENDBRANCH  22  28
ENDBRANCH   9  13
ENDBRANCH   3   4
ENDBRANCH   2   3
TORSDOF 9
ENDMDL
MODEL      166
REMARK 921   NORMALIZED FREE ENERGY PREDICTED BY IDOCK:   21.51 KCAL/MOL
REMARK 922        TOTAL FREE ENERGY PREDICTED BY IDOCK:   31.94 KCAL/MOL
REMARK 923 INTER-LIGAND FREE ENERGY PREDICTED BY IDOCK:   26.06 KCAL/MOL
REMARK 924 INTRA-LIGAND FREE ENERGY PREDICTED BY IDOCK:    5.88 KCAL/MOL
REMARK 927      BINDING AFFINITY PREDICTED BY RF-SCORE:    0.00 PKD
ROOT
HETATM    1  C   UNL     1     -12.416  19.193  67.618  1.00  0.00     4.507 C  
HETATM    2  C   UNL     1     -13.827  18.678  67.381  1.00  0.00     9.972 C  
ENDROOT
BRANCH   2   3
HETATM    3  O   UNL     1     -13.996  17.447  68.077  1.00  0.00     6.294 OA 
BRANCH   3   4
HETATM    4  C   UNL     1     -12.991  16.511  68.019  1.00  0.00     3.797 A  
HETATM    5  C   UNL     1     -11.648  16.678  67.630  1.00  0.00     0.436 A  
HETATM    6  C   UNL     1     -13.423  15.241  68.412  1.00  0.00     4.297 A  
HETATM    7  C   UNL     1     -10.787  15.558  67.618  1.00  0.00    -0.306 A  
HETATM    8  C   UNL     1     -12.555  14.145  68.399  1.00  0.00     0.512 A  
HETATM    9  C   UNL     1     -11.234  14.271  67.958  1.00  0.00    -0.300 A  
BRANCH   5  10
HETATM   10  O   UNL     1     -11.236  17.932  67.267  1.00  0.00    -0.004 OA 
BRANCH  10  11
HETATM   11  C   UNL     1     -10.636  18.120  65.995  1.00  0.00    -0.264 C  
HETATM   12  C   UNL     1      -9.338  18.878  66.208  1.00  0.00    -0.297 C  
ENDBRANCH  10  11
ENDBRANCH   5  10
BRANCH   9  13
HETATM   13  C   UNL     1     -10.293  13.118  67.856  1.00  0.00    -0.232 C  
HETATM   14  C   UNL     1     -10.506  11.886  68.370  1.00  0.00    -0.217 C  
HETATM   15  N   UNL     1     -11.673  11.605  69.085  1.00  0.00    -0.298 NA 
HETATM   16  C   UNL     1     -11.545  10.848  70.323  1.00  0.00    -0.334 C  
HETATM   17  H   UNL     1     -12.583  11.920  68.752  1.00  0.00     0.000 HD 
HETATM   18  C   UNL     1     -10.960   9.486  70.009  1.00  0.00    -0.284 C  
HETATM   19  C   UNL     1      -9.777   9.581  69.069  1.00  0.00    -0.170 A  
HETATM   20  C   UNL     1      -8.953   8.448  68.972  1.00  0.00    -0.147 A  
HETATM   21  C   UNL     1      -7.874   8.398  68.090  1.00  0.00    -0.111 A  
HETATM   22  C   UNL     1      -7.618   9.521  67.280  1.00  0.00    -0.091 A  
HETATM   23  C   UNL     1      -8.455  10.663  67.378  1.00  0.00    -0.122 A  
HETATM   24  C   UNL     1      -9.547  10.721  68.265  1.00  0.00    -0.170 A  
BRANCH  21  25
HETATM   25  O   UNL     1      -7.070   7.296  67.984  1.00  0.00    -0.076 OA 
BRANCH  25  26
HETATM   26  C   UNL     1      -7.288   6.376  66.917  1.00  0.00    -0.079 C  
HETATM   27  C   UNL     1      -8.768   6.037  66.888  1.00  0.00    -0.112 C  
ENDBRANCH  25  26
ENDBRANCH  21  25
BRANCH  22  28
HETATM   28  O   UNL     1      -6.615   9.665  66.343  1.00  0.00    -0.069 OA 
BRANCH  28  29
HETATM   29  C   UNL     1      -6.175  10.987  66.025  1.00  0.00    -0.075 C  
HETATM   30  C   UNL     1      -5.353  10.964  64.748  1.00  0.00     0.005 C  
ENDBRANCH  28  29
ENDBRANCH  22  28
ENDBRANCH   9  13
ENDBRANCH   3   4
ENDBRANCH   2   3
TORSDOF 9
ENDMDL
MODEL      167
REMARK 921   NORMALIZED FREE ENERGY PREDICTED BY IDOCK:   23.26 KCAL/MOL
REMARK 922        TOTAL FREE ENERGY PREDICTED BY IDOCK:   34.62 KCAL/MOL
REMARK 923 INTER-LIGAND FREE ENERGY PREDICTED BY IDOCK:   28.78 KCAL/MOL
REMARK 924 INTRA-LIGAND FREE ENERGY PREDICTED BY IDOCK:    5.84 KCAL/MOL
REMARK 927      BINDING AFFINITY PREDICTED BY RF-SCORE:    0.00 PKD
ROOT
HETATM    1  C   UNL     1     -12.453  19.205  67.623  1.00  0.00     4.507 C  
HETATM    2  C   UNL     1     -13.868  18.690  67.412  1.00  0.00     9.972 C  
ENDROOT
BRANCH   2   3
HETATM    3  O   UNL     1     -14.069  17.537  68.225  1.00  0.00     6.724 OA 
BRANCH   3   4
HETATM    4  C   UNL     1     -13.050  16.624  68.340  1.00  0.00     4.231 A  
HETATM    5  C   UNL     1     -11.692  16.762  67.988  1.00  0.00     0.536 A  
HETATM    6  C   UNL     1     -13.480  15.412  68.889  1.00  0.00     3.064 A  
HETATM    7  C   UNL     1     -10.816  15.668  68.169  1.00  0.00    -0.301 A  
HETATM    8  C   UNL     1     -12.597  14.342  69.065  1.00  0.00     0.235 A  
HETATM    9  C   UNL     1     -11.260  14.433  68.667  1.00  0.00    -0.280 A  
BRANCH   5  10
HETATM   10  O   UNL     1     -11.283  17.961  67.472  1.00  0.00    -0.056 OA 
BRANCH  10  11
HETATM   11  C   UNL     1     -10.637  17.984  66.209  1.00  0.00    -0.253 C  
HETATM   12  C   UNL     1      -9.358  18.788  66.363  1.00  0.00    -0.321 C  
ENDBRANCH  10  11
ENDBRANCH   5  10
BRANCH   9  13
HETATM   13  C   UNL     1     -10.299  13.297  68.766  1.00  0.00    -0.154 C  
HETATM   14  C   UNL     1      -9.078  13.353  69.344  1.00  0.00     1.067 C  
HETATM   15  N   UNL     1      -8.605  14.546  69.896  1.00  0.00    -0.030 NA 
HETATM   16  C   UNL     1      -7.227  14.925  69.615  1.00  0.00    -0.166 C  
HETATM   17  H   UNL     1      -9.205  15.132  70.474  1.00  0.00     0.000 HD 
HETATM   18  C   UNL     1      -6.301  13.862  70.172  1.00  0.00    -0.083 C  
HETATM   19  C   UNL     1      -6.774  12.464  69.829  1.00  0.00     0.131 A  
HETATM   20  C   UNL     1      -5.843  11.425  69.991  1.00  0.00    -0.126 A  
HETATM   21  C   UNL     1      -6.187  10.091  69.768  1.00  0.00    -0.054 A  
HETATM   22  C   UNL     1      -7.505   9.796  69.375  1.00  0.00    -0.099 A  
HETATM   23  C   UNL     1      -8.444  10.849  69.217  1.00  0.00    -0.006 A  
HETATM   24  C   UNL     1      -8.106  12.197  69.440  1.00  0.00     0.781 A  
BRANCH  21  25
HETATM   25  O   UNL     1      -5.288   9.072  69.929  1.00  0.00    -0.029 OA 
BRANCH  25  26
HETATM   26  C   UNL     1      -5.307   8.313  71.136  1.00  0.00    -0.029 C  
HETATM   27  C   UNL     1      -5.315   9.288  72.300  1.00  0.00    -0.077 C  
ENDBRANCH  25  26
ENDBRANCH  21  25
BRANCH  22  28
HETATM   28  O   UNL     1      -8.043   8.550  69.120  1.00  0.00    -0.113 OA 
BRANCH  28  29
HETATM   29  C   UNL     1      -9.169   8.469  68.245  1.00  0.00    -0.138 C  
HETATM   30  C   UNL     1      -9.826   7.105  68.374  1.00  0.00    -0.157 C  
ENDBRANCH  28  29
ENDBRANCH  22  28
ENDBRANCH   9  13
ENDBRANCH   3   4
ENDBRANCH   2   3
TORSDOF 9
ENDMDL
MODEL      168
REMARK 921   NORMALIZED FREE ENERGY PREDICTED BY IDOCK:   29.99 KCAL/MOL
REMARK 922        TOTAL FREE ENERGY PREDICTED BY IDOCK:   44.89 KCAL/MOL
REMARK 923 INTER-LIGAND FREE ENERGY PREDICTED BY IDOCK:   36.86 KCAL/MOL
REMARK 924 INTRA-LIGAND FREE ENERGY PREDICTED BY IDOCK:    8.03 KCAL/MOL
REMARK 927      BINDING AFFINITY PREDICTED BY RF-SCORE:    0.00 PKD
ROOT
HETATM    1  C   UNL     1     -12.139   6.325  73.127  1.00  0.00     0.850 C  
HETATM    2  C   UNL     1     -11.638   6.494  71.701  1.00  0.00    -0.308 C  
ENDROOT
BRANCH   2   3
HETATM    3  O   UNL     1     -10.393   7.185  71.724  1.00  0.00    -0.197 OA 
BRANCH   3   4
HETATM    4  C   UNL     1     -10.264   8.339  70.990  1.00  0.00    -0.191 A  
HETATM    5  C   UNL     1     -10.806   8.652  69.728  1.00  0.00    -0.183 A  
HETATM    6  C   UNL     1      -9.477   9.297  71.637  1.00  0.00    -0.007 A  
HETATM    7  C   UNL     1     -10.516   9.903  69.140  1.00  0.00    -0.235 A  
HETATM    8  C   UNL     1      -9.204  10.532  71.042  1.00  0.00     3.024 A  
HETATM    9  C   UNL     1      -9.679  10.842  69.764  1.00  0.00     0.367 A  
BRANCH   5  10
HETATM   10  O   UNL     1     -11.591   7.712  69.117  1.00  0.00     0.441 OA 
BRANCH  10  11
HETATM   11  C   UNL     1     -12.821   7.343  69.720  1.00  0.00     2.162 C  
HETATM   12  C   UNL     1     -12.866   7.981  71.097  1.00  0.00    -0.126 C  
ENDBRANCH  10  11
ENDBRANCH   5  10
BRANCH   9  13
HETATM   13  C   UNL     1      -9.354  12.115  69.058  1.00  0.00     0.338 C  
HETATM   14  C   UNL     1      -8.902  13.245  69.649  1.00  0.00     1.839 C  
HETATM   15  N   UNL     1      -8.721  13.301  71.033  1.00  0.00     7.189 NA 
HETATM   16  C   UNL     1      -9.191  14.488  71.732  1.00  0.00     5.759 C  
HETATM   17  H   UNL     1      -8.275  12.534  71.536  1.00  0.00     0.000 HD 
HETATM   18  C   UNL     1      -8.444  15.697  71.207  1.00  0.00     4.163 C  
HETATM   19  C   UNL     1      -8.370  15.704  69.694  1.00  0.00    -0.070 A  
HETATM   20  C   UNL     1      -8.009  16.916  69.084  1.00  0.00    -0.102 A  
HETATM   21  C   UNL     1      -7.846  17.022  67.702  1.00  0.00    -0.171 A  
HETATM   22  C   UNL     1      -8.050  15.875  66.914  1.00  0.00    -0.250 A  
HETATM   23  C   UNL     1      -8.411  14.650  67.534  1.00  0.00    -0.203 A  
HETATM   24  C   UNL     1      -8.577  14.534  68.928  1.00  0.00    -0.103 A  
BRANCH  21  25
HETATM   25  O   UNL     1      -7.489  18.197  67.100  1.00  0.00    -0.203 OA 
BRANCH  25  26
HETATM   26  C   UNL     1      -8.436  19.261  67.034  1.00  0.00    -0.284 C  
HETATM   27  C   UNL     1      -8.075  20.135  65.847  1.00  0.00    -0.168 C  
ENDBRANCH  25  26
ENDBRANCH  21  25
BRANCH  22  28
HETATM   28  O   UNL     1      -7.929  15.770  65.542  1.00  0.00     1.563 OA 
BRANCH  28  29
HETATM   29  C   UNL     1      -7.071  16.693  64.869  1.00  0.00     6.013 C  
HETATM   30  C   UNL     1      -5.618  16.333  65.132  1.00  0.00     5.956 C  
ENDBRANCH  28  29
ENDBRANCH  22  28
ENDBRANCH   9  13
ENDBRANCH   3   4
ENDBRANCH   2   3
TORSDOF 9
ENDMDL
MODEL      169
REMARK 921   NORMALIZED FREE ENERGY PREDICTED BY IDOCK:   50.17 KCAL/MOL
REMARK 922        TOTAL FREE ENERGY PREDICTED BY IDOCK:   75.69 KCAL/MOL
REMARK 923 INTER-LIGAND FREE ENERGY PREDICTED BY IDOCK:   53.24 KCAL/MOL
REMARK 924 INTRA-LIGAND FREE ENERGY PREDICTED BY IDOCK:   22.44 KCAL/MOL
REMARK 927      BINDING AFFINITY PREDICTED BY RF-SCORE:    0.00 PKD
ROOT
HETATM    1  C   UNL     1     -12.505  20.829  66.207  1.00  0.00     5.756 C  
HETATM    2  C   UNL     1     -13.919  20.314  65.985  1.00  0.00    11.257 C  
ENDROOT
BRANCH   2   3
HETATM    3  O   UNL     1     -14.124  19.156  66.789  1.00  0.00     8.556 OA 
BRANCH   3   4
HETATM    4  C   UNL     1     -13.105  18.242  66.905  1.00  0.00     9.143 A  
HETATM    5  C   UNL     1     -11.733  18.407  66.634  1.00  0.00     2.244 A  
HETATM    6  C   UNL     1     -13.554  16.999  67.358  1.00  0.00     8.557 A  
HETATM    7  C   UNL     1     -10.858  17.309  66.796  1.00  0.00     0.031 A  
HETATM    8  C   UNL     1     -12.673  15.925  67.518  1.00  0.00     2.447 A  
HETATM    9  C   UNL     1     -11.318  16.045  67.197  1.00  0.00     0.103 A  
BRANCH   5  10
HETATM   10  O   UNL     1     -11.306  19.637  66.210  1.00  0.00     0.006 OA 
BRANCH  10  11
HETATM   11  C   UNL     1     -12.117  20.376  65.310  1.00  0.00     4.124 C  
HETATM   12  C   UNL     1     -11.236  20.818  64.156  1.00  0.00     3.220 C  
ENDBRANCH  10  11
ENDBRANCH   5  10
BRANCH   9  13
HETATM   13  C   UNL     1     -10.355  14.909  67.281  1.00  0.00    -0.251 C  
HETATM   14  C   UNL     1      -9.027  15.024  67.511  1.00  0.00    -0.183 C  
HETATM   15  N   UNL     1      -8.439  16.281  67.671  1.00  0.00    -0.167 NA 
HETATM   16  C   UNL     1      -7.181  16.535  66.984  1.00  0.00    -0.212 C  
HETATM   17  H   UNL     1      -8.876  16.997  68.251  1.00  0.00     0.000 HD 
HETATM   18  C   UNL     1      -6.135  15.563  67.494  1.00  0.00    -0.119 C  
HETATM   19  C   UNL     1      -6.669  14.149  67.572  1.00  0.00    -0.127 A  
HETATM   20  C   UNL     1      -5.720  13.121  67.702  1.00  0.00    -0.103 A  
HETATM   21  C   UNL     1      -6.098  11.787  67.849  1.00  0.00    -0.050 A  
HETATM   22  C   UNL     1      -7.471  11.478  67.868  1.00  0.00    -0.103 A  
HETATM   23  C   UNL     1      -8.428  12.519  67.740  1.00  0.00    -0.171 A  
HETATM   24  C   UNL     1      -8.054  13.869  67.591  1.00  0.00    -0.183 A  
BRANCH  21  25
HETATM   25  O   UNL     1      -5.181  10.781  67.982  1.00  0.00    -0.037 OA 
BRANCH  25  26
HETATM   26  C   UNL     1      -5.578   9.554  68.591  1.00  0.00    -0.040 C  
HETATM   27  C   UNL     1      -6.927   9.777  69.253  1.00  0.00    -0.056 C  
ENDBRANCH  25  26
ENDBRANCH  21  25
BRANCH  22  28
HETATM   28  O   UNL     1      -8.047  10.231  68.013  1.00  0.00    -0.104 OA 
BRANCH  28  29
HETATM   29  C   UNL     1      -9.011   9.817  67.044  1.00  0.00    -0.138 C  
HETATM   30  C   UNL     1      -8.862   8.330  66.771  1.00  0.00    -0.158 C  
ENDBRANCH  28  29
ENDBRANCH  22  28
ENDBRANCH   9  13
ENDBRANCH   3   4
ENDBRANCH   2   3
TORSDOF 9
ENDMDL
